MODEL 1
REMARK VINA RESULT:      -4.2      0.000      0.000
REMARK  3 active torsions:
REMARK  status: ('A' for Active; 'I' for Inactive)
REMARK    1  A    between atoms: C1_1  and  C3_3 
REMARK       I    between atoms: C3_3  and  N10_10 
REMARK    2  A    between atoms: C8_8  and  C9_9 
REMARK    3  A    between atoms: C8_8  and  N10_10 
ROOT
HETATM    1  C3  UNL     1     -33.351  17.795  -3.057  1.00 20.00     0.240 C 
HETATM    2  N10 UNL     1     -34.228  16.775  -3.397  1.00 20.00    -0.357 N 
HETATM    3  O11 UNL     1     -32.947  18.669  -3.816  1.00 20.00    -0.269 OA
HETATM    4  H28 UNL     1     -34.482  16.079  -2.698  1.00 20.00     0.162 HD
ENDROOT
BRANCH   2   5
HETATM    5  C8  UNL     1     -34.779  16.623  -4.718  1.00 20.00     0.131 C 
BRANCH   5   6
HETATM    6  C9  UNL     1     -34.600  15.211  -5.322  1.00 20.00    -0.035 C 
HETATM    7  C5  UNL     1     -35.945  14.467  -5.374  1.00 20.00     0.016 C 
HETATM    8  C6  UNL     1     -34.001  15.287  -6.737  1.00 20.00     0.016 C 
HETATM    9  C7  UNL     1     -33.632  14.421  -4.422  1.00 20.00     0.016 C 
ENDBRANCH   5   6
ENDBRANCH   2   5
BRANCH   1  10
HETATM   10  C1  UNL     1     -32.932  17.718  -1.630  1.00 20.00     0.070 C 
HETATM   11  C2  UNL     1     -31.999  18.553  -1.153  1.00 20.00    -0.026 C 
HETATM   12  C4  UNL     1     -31.529  18.537   0.265  1.00 20.00     0.036 C 
ENDBRANCH   1  10
TORSDOF 3
ENDMDL
MODEL 2
REMARK VINA RESULT:      -4.1      0.051      1.305
REMARK  3 active torsions:
REMARK  status: ('A' for Active; 'I' for Inactive)
REMARK    1  A    between atoms: C1_1  and  C3_3 
REMARK       I    between atoms: C3_3  and  N10_10 
REMARK    2  A    between atoms: C8_8  and  C9_9 
REMARK    3  A    between atoms: C8_8  and  N10_10 
ROOT
HETATM    1  C3  UNL     1     -33.388  17.816  -3.070  1.00 20.00     0.240 C 
HETATM    2  N10 UNL     1     -34.293  16.816  -3.398  1.00 20.00    -0.357 N 
HETATM    3  O11 UNL     1     -32.929  18.645  -3.849  1.00 20.00    -0.269 OA
HETATM    4  H28 UNL     1     -34.594  16.159  -2.681  1.00 20.00     0.162 HD
ENDROOT
BRANCH   2   5
HETATM    5  C8  UNL     1     -34.811  16.634  -4.728  1.00 20.00     0.131 C 
BRANCH   5   6
HETATM    6  C9  UNL     1     -34.571  15.225  -5.315  1.00 20.00    -0.035 C 
HETATM    7  C5  UNL     1     -34.009  15.318  -6.744  1.00 20.00     0.016 C 
HETATM    8  C6  UNL     1     -33.602  14.417  -4.435  1.00 20.00     0.016 C 
HETATM    9  C7  UNL     1     -35.921  14.486  -5.363  1.00 20.00     0.016 C 
ENDBRANCH   5   6
ENDBRANCH   2   5
BRANCH   1  10
HETATM   10  C1  UNL     1     -33.014  17.779  -1.629  1.00 20.00     0.070 C 
HETATM   11  C2  UNL     1     -31.997  18.525  -1.175  1.00 20.00    -0.026 C 
HETATM   12  C4  UNL     1     -31.565  18.541   0.254  1.00 20.00     0.036 C 
ENDBRANCH   1  10
TORSDOF 3
ENDMDL
MODEL 3
REMARK VINA RESULT:      -4.0     12.777     14.185
REMARK  3 active torsions:
REMARK  status: ('A' for Active; 'I' for Inactive)
REMARK    1  A    between atoms: C1_1  and  C3_3 
REMARK       I    between atoms: C3_3  and  N10_10 
REMARK    2  A    between atoms: C8_8  and  C9_9 
REMARK    3  A    between atoms: C8_8  and  N10_10 
ROOT
HETATM    1  C3  UNL     1     -40.898  13.045   6.745  1.00 20.00     0.240 C 
HETATM    2  N10 UNL     1     -40.160  14.008   7.419  1.00 20.00    -0.357 N 
HETATM    3  O11 UNL     1     -41.858  12.435   7.202  1.00 20.00    -0.269 OA
HETATM    4  H28 UNL     1     -39.360  14.438   6.959  1.00 20.00     0.162 HD
ENDROOT
BRANCH   2   5
HETATM    5  C8  UNL     1     -40.447  14.411   8.771  1.00 20.00     0.131 C 
BRANCH   5   6
HETATM    6  C9  UNL     1     -41.213  15.749   8.885  1.00 20.00    -0.035 C 
HETATM    7  C5  UNL     1     -40.692  16.765   7.854  1.00 20.00     0.016 C 
HETATM    8  C6  UNL     1     -42.723  15.540   8.679  1.00 20.00     0.016 C 
HETATM    9  C7  UNL     1     -40.984  16.317  10.297  1.00 20.00     0.016 C 
ENDBRANCH   5   6
ENDBRANCH   2   5
BRANCH   1  10
HETATM   10  C1  UNL     1     -40.387  12.816   5.365  1.00 20.00     0.070 C 
HETATM   11  C2  UNL     1     -39.444  11.892   5.137  1.00 20.00    -0.026 C 
HETATM   12  C4  UNL     1     -38.886  11.605   3.782  1.00 20.00     0.036 C 
ENDBRANCH   1  10
TORSDOF 3
ENDMDL
MODEL 4
REMARK VINA RESULT:      -3.9     12.676     14.077
REMARK  3 active torsions:
REMARK  status: ('A' for Active; 'I' for Inactive)
REMARK    1  A    between atoms: C1_1  and  C3_3 
REMARK       I    between atoms: C3_3  and  N10_10 
REMARK    2  A    between atoms: C8_8  and  C9_9 
REMARK    3  A    between atoms: C8_8  and  N10_10 
ROOT
HETATM    1  C3  UNL     1     -40.873  13.219   6.799  1.00 20.00     0.240 C 
HETATM    2  N10 UNL     1     -40.194  14.312   7.318  1.00 20.00    -0.357 N 
HETATM    3  O11 UNL     1     -41.748  12.583   7.379  1.00 20.00    -0.269 OA
HETATM    4  H28 UNL     1     -39.463  14.755   6.765  1.00 20.00     0.162 HD
ENDROOT
BRANCH   2   5
HETATM    5  C8  UNL     1     -40.446  14.840   8.633  1.00 20.00     0.131 C 
BRANCH   5   6
HETATM    6  C9  UNL     1     -41.276  16.144   8.645  1.00 20.00    -0.035 C 
HETATM    7  C5  UNL     1     -42.745  15.859   8.290  1.00 20.00     0.016 C 
HETATM    8  C6  UNL     1     -41.205  16.831  10.019  1.00 20.00     0.016 C 
HETATM    9  C7  UNL     1     -40.689  17.099   7.589  1.00 20.00     0.016 C 
ENDBRANCH   5   6
ENDBRANCH   2   5
BRANCH   1  10
HETATM   10  C1  UNL     1     -40.417  12.880   5.423  1.00 20.00     0.070 C 
HETATM   11  C2  UNL     1     -39.422  12.002   5.237  1.00 20.00    -0.026 C 
HETATM   12  C4  UNL     1     -38.912  11.611   3.888  1.00 20.00     0.036 C 
ENDBRANCH   1  10
TORSDOF 3
ENDMDL
MODEL 5
REMARK VINA RESULT:      -3.9      1.787      2.282
REMARK  3 active torsions:
REMARK  status: ('A' for Active; 'I' for Inactive)
REMARK    1  A    between atoms: C1_1  and  C3_3 
REMARK       I    between atoms: C3_3  and  N10_10 
REMARK    2  A    between atoms: C8_8  and  C9_9 
REMARK    3  A    between atoms: C8_8  and  N10_10 
ROOT
HETATM    1  C3  UNL     1     -33.368  16.008  -3.726  1.00 20.00     0.240 C 
HETATM    2  N10 UNL     1     -34.616  16.296  -4.260  1.00 20.00    -0.357 N 
HETATM    3  O11 UNL     1     -32.641  15.084  -4.074  1.00 20.00    -0.269 OA
HETATM    4  H28 UNL     1     -35.156  17.072  -3.881  1.00 20.00     0.162 HD
ENDROOT
BRANCH   2   5
HETATM    5  C8  UNL     1     -35.215  15.520  -5.314  1.00 20.00     0.131 C 
BRANCH   5   6
HETATM    6  C9  UNL     1     -35.061  16.138  -6.722  1.00 20.00    -0.035 C 
HETATM    7  C5  UNL     1     -36.332  15.912  -7.559  1.00 20.00     0.016 C 
HETATM    8  C6  UNL     1     -34.768  17.646  -6.636  1.00 20.00     0.016 C 
HETATM    9  C7  UNL     1     -33.877  15.449  -7.425  1.00 20.00     0.016 C 
ENDBRANCH   5   6
ENDBRANCH   2   5
BRANCH   1  10
HETATM   10  C1  UNL     1     -32.989  16.963  -2.648  1.00 20.00     0.070 C 
HETATM   11  C2  UNL     1     -33.750  17.083  -1.552  1.00 20.00    -0.026 C 
HETATM   12  C4  UNL     1     -33.433  18.017  -0.430  1.00 20.00     0.036 C 
ENDBRANCH   1  10
TORSDOF 3
ENDMDL
MODEL 6
REMARK VINA RESULT:      -3.9      1.961      5.425
REMARK  3 active torsions:
REMARK  status: ('A' for Active; 'I' for Inactive)
REMARK    1  A    between atoms: C1_1  and  C3_3 
REMARK       I    between atoms: C3_3  and  N10_10 
REMARK    2  A    between atoms: C8_8  and  C9_9 
REMARK    3  A    between atoms: C8_8  and  N10_10 
ROOT
HETATM    1  C3  UNL     1     -33.668  15.037  -4.799  1.00 20.00     0.240 C 
HETATM    2  N10 UNL     1     -33.639  16.289  -4.201  1.00 20.00    -0.357 N 
HETATM    3  O11 UNL     1     -33.369  13.980  -4.252  1.00 20.00    -0.269 OA
HETATM    4  H28 UNL     1     -33.881  17.111  -4.750  1.00 20.00     0.162 HD
ENDROOT
BRANCH   2   5
HETATM    5  C8  UNL     1     -33.245  16.495  -2.832  1.00 20.00     0.131 C 
BRANCH   5   6
HETATM    6  C9  UNL     1     -33.667  17.863  -2.250  1.00 20.00    -0.035 C 
HETATM    7  C5  UNL     1     -32.642  18.951  -2.616  1.00 20.00     0.016 C 
HETATM    8  C6  UNL     1     -35.057  18.277  -2.761  1.00 20.00     0.016 C 
HETATM    9  C7  UNL     1     -33.727  17.737  -0.716  1.00 20.00     0.016 C 
ENDBRANCH   5   6
ENDBRANCH   2   5
BRANCH   1  10
HETATM   10  C1  UNL     1     -34.109  15.106  -6.219  1.00 20.00     0.070 C 
HETATM   11  C2  UNL     1     -35.405  15.261  -6.518  1.00 20.00    -0.026 C 
HETATM   12  C4  UNL     1     -35.922  15.340  -7.918  1.00 20.00     0.036 C 
ENDBRANCH   1  10
TORSDOF 3
ENDMDL
MODEL 7
REMARK VINA RESULT:      -3.9      1.765      2.459
REMARK  3 active torsions:
REMARK  status: ('A' for Active; 'I' for Inactive)
REMARK    1  A    between atoms: C1_1  and  C3_3 
REMARK       I    between atoms: C3_3  and  N10_10 
REMARK    2  A    between atoms: C8_8  and  C9_9 
REMARK    3  A    between atoms: C8_8  and  N10_10 
ROOT
HETATM    1  C3  UNL     1     -33.493  16.135  -3.792  1.00 20.00     0.240 C 
HETATM    2  N10 UNL     1     -34.712  16.389  -4.405  1.00 20.00    -0.357 N 
HETATM    3  O11 UNL     1     -32.753  15.190  -4.044  1.00 20.00    -0.269 OA
HETATM    4  H28 UNL     1     -35.267  17.188  -4.104  1.00 20.00     0.162 HD
ENDROOT
BRANCH   2   5
HETATM    5  C8  UNL     1     -35.261  15.549  -5.437  1.00 20.00     0.131 C 
BRANCH   5   6
HETATM    6  C9  UNL     1     -35.013  16.064  -6.873  1.00 20.00    -0.035 C 
HETATM    7  C5  UNL     1     -34.837  17.592  -6.881  1.00 20.00     0.016 C 
HETATM    8  C6  UNL     1     -33.770  15.402  -7.491  1.00 20.00     0.016 C 
HETATM    9  C7  UNL     1     -36.239  15.704  -7.733  1.00 20.00     0.016 C 
ENDBRANCH   5   6
ENDBRANCH   2   5
BRANCH   1  10
HETATM   10  C1  UNL     1     -33.164  17.155  -2.759  1.00 20.00     0.070 C 
HETATM   11  C2  UNL     1     -33.684  17.063  -1.527  1.00 20.00    -0.026 C 
HETATM   12  C4  UNL     1     -33.399  18.047  -0.440  1.00 20.00     0.036 C 
ENDBRANCH   1  10
TORSDOF 3
ENDMDL
MODEL 8
REMARK VINA RESULT:      -3.9     11.567     12.616
REMARK  3 active torsions:
REMARK  status: ('A' for Active; 'I' for Inactive)
REMARK    1  A    between atoms: C1_1  and  C3_3 
REMARK       I    between atoms: C3_3  and  N10_10 
REMARK    2  A    between atoms: C8_8  and  C9_9 
REMARK    3  A    between atoms: C8_8  and  N10_10 
ROOT
HETATM    1  C3  UNL     1     -32.588   8.695   3.923  1.00 20.00     0.240 C 
HETATM    2  N10 UNL     1     -33.189   7.446   3.980  1.00 20.00    -0.357 N 
HETATM    3  O11 UNL     1     -32.130   9.310   4.881  1.00 20.00    -0.269 OA
HETATM    4  H28 UNL     1     -33.563   7.031   3.129  1.00 20.00     0.162 HD
ENDROOT
BRANCH   2   5
HETATM    5  C8  UNL     1     -33.346   6.707   5.205  1.00 20.00     0.131 C 
BRANCH   5   6
HETATM    6  C9  UNL     1     -34.432   5.609   5.149  1.00 20.00    -0.035 C 
HETATM    7  C5  UNL     1     -35.667   6.103   4.375  1.00 20.00     0.016 C 
HETATM    8  C6  UNL     1     -33.892   4.330   4.487  1.00 20.00     0.016 C 
HETATM    9  C7  UNL     1     -34.855   5.274   6.591  1.00 20.00     0.016 C 
ENDBRANCH   5   6
ENDBRANCH   2   5
BRANCH   1  10
HETATM   10  C1  UNL     1     -32.557   9.237   2.537  1.00 20.00     0.070 C 
HETATM   11  C2  UNL     1     -32.490   8.407   1.487  1.00 20.00    -0.026 C 
HETATM   12  C4  UNL     1     -32.456   8.876   0.070  1.00 20.00     0.036 C 
ENDBRANCH   1  10
TORSDOF 3
ENDMDL
MODEL 9
REMARK VINA RESULT:      -3.8     11.570     12.667
REMARK  3 active torsions:
REMARK  status: ('A' for Active; 'I' for Inactive)
REMARK    1  A    between atoms: C1_1  and  C3_3 
REMARK       I    between atoms: C3_3  and  N10_10 
REMARK    2  A    between atoms: C8_8  and  C9_9 
REMARK    3  A    between atoms: C8_8  and  N10_10 
ROOT
HETATM    1  C3  UNL     1     -32.599   8.716   3.976  1.00 20.00     0.240 C 
HETATM    2  N10 UNL     1     -33.211   7.471   4.021  1.00 20.00    -0.357 N 
HETATM    3  O11 UNL     1     -32.124   9.310   4.939  1.00 20.00    -0.269 OA
HETATM    4  H28 UNL     1     -33.599   7.074   3.167  1.00 20.00     0.162 HD
ENDROOT
BRANCH   2   5
HETATM    5  C8  UNL     1     -33.361   6.714   5.235  1.00 20.00     0.131 C 
BRANCH   5   6
HETATM    6  C9  UNL     1     -34.424   5.595   5.158  1.00 20.00    -0.035 C 
HETATM    7  C5  UNL     1     -33.869   4.366   4.417  1.00 20.00     0.016 C 
HETATM    8  C6  UNL     1     -34.890   5.177   6.563  1.00 20.00     0.016 C 
HETATM    9  C7  UNL     1     -35.638   6.135   4.380  1.00 20.00     0.016 C 
ENDBRANCH   5   6
ENDBRANCH   2   5
BRANCH   1  10
HETATM   10  C1  UNL     1     -32.579   9.280   2.598  1.00 20.00     0.070 C 
HETATM   11  C2  UNL     1     -32.536   8.466   1.535  1.00 20.00    -0.026 C 
HETATM   12  C4  UNL     1     -32.515   8.958   0.125  1.00 20.00     0.036 C 
ENDBRANCH   1  10
TORSDOF 3
ENDMDL
