MODEL 1
REMARK VINA RESULT:      -4.3      0.000      0.000
REMARK  2 active torsions:
REMARK  status: ('A' for Active; 'I' for Inactive)
REMARK    1  A    between atoms: C5_5  and  C6_6 
REMARK    2  A    between atoms: C6_6  and  C7_7 
ROOT
HETATM    1  C1  UNL     1     -34.706   5.450   6.572  1.00 20.00     0.012 C 
HETATM    2  C2  UNL     1     -34.503   5.938   5.494  1.00 20.00    -0.117 C 
HETATM    3  C5  UNL     1     -34.262   6.539   4.171  1.00 20.00     0.098 C 
ENDROOT
BRANCH   3   4
HETATM    4  C6  UNL     1     -32.858   6.197   3.622  1.00 20.00     0.011 C 
HETATM    5  C3  UNL     1     -32.954   5.206   2.452  1.00 20.00     0.012 C 
BRANCH   4   6
HETATM    6  C7  UNL     1     -32.078   7.493   3.275  1.00 20.00     0.082 C 
HETATM    7  C4  UNL     1     -32.375   8.020   1.874  1.00 20.00     0.027 C 
HETATM    8 CL8  UNL     1     -32.376   8.802   4.463  1.00 20.00    -0.125 Cl
ENDBRANCH   4   6
ENDBRANCH   3   4
TORSDOF 2
ENDMDL
MODEL 2
REMARK VINA RESULT:      -4.2      1.412      2.121
REMARK  2 active torsions:
REMARK  status: ('A' for Active; 'I' for Inactive)
REMARK    1  A    between atoms: C5_5  and  C6_6 
REMARK    2  A    between atoms: C6_6  and  C7_7 
ROOT
HETATM    1  C1  UNL     1     -34.434   5.195   6.695  1.00 20.00     0.012 C 
HETATM    2  C2  UNL     1     -34.571   5.753   5.640  1.00 20.00    -0.117 C 
HETATM    3  C5  UNL     1     -34.745   6.431   4.344  1.00 20.00     0.098 C 
ENDROOT
BRANCH   3   4
HETATM    4  C6  UNL     1     -33.613   7.445   4.060  1.00 20.00     0.011 C 
HETATM    5  C3  UNL     1     -33.060   8.028   5.369  1.00 20.00     0.012 C 
BRANCH   4   6
HETATM    6  C7  UNL     1     -32.524   6.806   3.158  1.00 20.00     0.082 C 
HETATM    7  C4  UNL     1     -32.895   5.413   2.657  1.00 20.00     0.027 C 
HETATM    8 CL8  UNL     1     -32.118   7.839   1.751  1.00 20.00    -0.125 Cl
ENDBRANCH   4   6
ENDBRANCH   3   4
TORSDOF 2
ENDMDL
MODEL 3
REMARK VINA RESULT:      -4.1      2.047      3.947
REMARK  2 active torsions:
REMARK  status: ('A' for Active; 'I' for Inactive)
REMARK    1  A    between atoms: C5_5  and  C6_6 
REMARK    2  A    between atoms: C6_6  and  C7_7 
ROOT
HETATM    1  C1  UNL     1     -32.110   8.028   2.520  1.00 20.00     0.012 C 
HETATM    2  C2  UNL     1     -32.611   8.058   3.610  1.00 20.00    -0.117 C 
HETATM    3  C5  UNL     1     -33.224   8.103   4.949  1.00 20.00     0.098 C 
ENDROOT
BRANCH   3   4
HETATM    4  C6  UNL     1     -33.579   6.693   5.475  1.00 20.00     0.011 C 
HETATM    5  C3  UNL     1     -34.444   6.784   6.741  1.00 20.00     0.012 C 
BRANCH   4   6
HETATM    6  C7  UNL     1     -34.216   5.836   4.349  1.00 20.00     0.082 C 
HETATM    7  C4  UNL     1     -33.943   4.343   4.498  1.00 20.00     0.027 C 
HETATM    8 CL8  UNL     1     -35.985   6.092   4.221  1.00 20.00    -0.125 Cl
ENDBRANCH   4   6
ENDBRANCH   3   4
TORSDOF 2
ENDMDL
MODEL 4
REMARK VINA RESULT:      -4.1      1.818      3.890
REMARK  2 active torsions:
REMARK  status: ('A' for Active; 'I' for Inactive)
REMARK    1  A    between atoms: C5_5  and  C6_6 
REMARK    2  A    between atoms: C6_6  and  C7_7 
ROOT
HETATM    1  C1  UNL     1     -32.446   8.877   0.635  1.00 20.00     0.012 C 
HETATM    2  C2  UNL     1     -32.295   8.287   1.670  1.00 20.00    -0.117 C 
HETATM    3  C5  UNL     1     -32.102   7.567   2.940  1.00 20.00     0.098 C 
ENDROOT
BRANCH   3   4
HETATM    4  C6  UNL     1     -33.244   6.565   3.222  1.00 20.00     0.011 C 
HETATM    5  C3  UNL     1     -32.885   5.165   2.702  1.00 20.00     0.012 C 
BRANCH   4   6
HETATM    6  C7  UNL     1     -33.631   6.589   4.725  1.00 20.00     0.082 C 
HETATM    7  C4  UNL     1     -33.649   7.992   5.322  1.00 20.00     0.027 C 
HETATM    8 CL8  UNL     1     -35.214   5.808   5.030  1.00 20.00    -0.125 Cl
ENDBRANCH   4   6
ENDBRANCH   3   4
TORSDOF 2
ENDMDL
MODEL 5
REMARK VINA RESULT:      -4.1      1.858      4.018
REMARK  2 active torsions:
REMARK  status: ('A' for Active; 'I' for Inactive)
REMARK    1  A    between atoms: C5_5  and  C6_6 
REMARK    2  A    between atoms: C6_6  and  C7_7 
ROOT
HETATM    1  C1  UNL     1     -32.901   9.496   1.441  1.00 20.00     0.012 C 
HETATM    2  C2  UNL     1     -32.590   8.553   2.117  1.00 20.00    -0.117 C 
HETATM    3  C5  UNL     1     -32.207   7.393   2.939  1.00 20.00     0.098 C 
ENDROOT
BRANCH   3   4
HETATM    4  C6  UNL     1     -32.543   7.600   4.434  1.00 20.00     0.011 C 
HETATM    5  C3  UNL     1     -32.351   9.070   4.838  1.00 20.00     0.012 C 
BRANCH   4   6
HETATM    6  C7  UNL     1     -33.956   7.048   4.756  1.00 20.00     0.082 C 
HETATM    7  C4  UNL     1     -34.227   5.680   4.136  1.00 20.00     0.027 C 
HETATM    8 CL8  UNL     1     -34.262   6.955   6.519  1.00 20.00    -0.125 Cl
ENDBRANCH   4   6
ENDBRANCH   3   4
TORSDOF 2
ENDMDL
MODEL 6
REMARK VINA RESULT:      -4.0      1.854      3.895
REMARK  2 active torsions:
REMARK  status: ('A' for Active; 'I' for Inactive)
REMARK    1  A    between atoms: C5_5  and  C6_6 
REMARK    2  A    between atoms: C6_6  and  C7_7 
ROOT
HETATM    1  C1  UNL     1     -32.824   4.982   2.242  1.00 20.00     0.012 C 
HETATM    2  C2  UNL     1     -32.764   6.010   2.860  1.00 20.00    -0.117 C 
HETATM    3  C5  UNL     1     -32.686   7.273   3.613  1.00 20.00     0.098 C 
ENDROOT
BRANCH   3   4
HETATM    4  C6  UNL     1     -33.302   7.150   5.025  1.00 20.00     0.011 C 
HETATM    5  C3  UNL     1     -33.973   8.467   5.445  1.00 20.00     0.012 C 
BRANCH   4   6
HETATM    6  C7  UNL     1     -34.245   5.921   5.102  1.00 20.00     0.082 C 
HETATM    7  C4  UNL     1     -34.526   5.463   6.530  1.00 20.00     0.027 C 
HETATM    8 CL8  UNL     1     -35.805   6.210   4.268  1.00 20.00    -0.125 Cl
ENDBRANCH   4   6
ENDBRANCH   3   4
TORSDOF 2
ENDMDL
MODEL 7
REMARK VINA RESULT:      -3.9      1.945      2.558
REMARK  2 active torsions:
REMARK  status: ('A' for Active; 'I' for Inactive)
REMARK    1  A    between atoms: C5_5  and  C6_6 
REMARK    2  A    between atoms: C6_6  and  C7_7 
ROOT
HETATM    1  C1  UNL     1     -33.822   3.938   4.643  1.00 20.00     0.012 C 
HETATM    2  C2  UNL     1     -34.367   5.003   4.545  1.00 20.00    -0.117 C 
HETATM    3  C5  UNL     1     -35.041   6.307   4.419  1.00 20.00     0.098 C 
ENDROOT
BRANCH   3   4
HETATM    4  C6  UNL     1     -34.273   7.433   5.149  1.00 20.00     0.011 C 
HETATM    5  C3  UNL     1     -33.620   6.905   6.435  1.00 20.00     0.012 C 
BRANCH   4   6
HETATM    6  C7  UNL     1     -33.274   8.124   4.184  1.00 20.00     0.082 C 
HETATM    7  C4  UNL     1     -32.230   8.975   4.902  1.00 20.00     0.027 C 
HETATM    8 CL8  UNL     1     -32.434   6.951   3.122  1.00 20.00    -0.125 Cl
ENDBRANCH   4   6
ENDBRANCH   3   4
TORSDOF 2
ENDMDL
MODEL 8
REMARK VINA RESULT:      -3.8      2.335      3.624
REMARK  2 active torsions:
REMARK  status: ('A' for Active; 'I' for Inactive)
REMARK    1  A    between atoms: C5_5  and  C6_6 
REMARK    2  A    between atoms: C6_6  and  C7_7 
ROOT
HETATM    1  C1  UNL     1     -31.939   9.497   4.785  1.00 20.00     0.012 C 
HETATM    2  C2  UNL     1     -32.699   8.620   5.094  1.00 20.00    -0.117 C 
HETATM    3  C5  UNL     1     -33.628   7.545   5.480  1.00 20.00     0.098 C 
ENDROOT
BRANCH   3   4
HETATM    4  C6  UNL     1     -34.051   6.677   4.273  1.00 20.00     0.011 C 
HETATM    5  C3  UNL     1     -32.881   6.496   3.294  1.00 20.00     0.012 C 
BRANCH   4   6
HETATM    6  C7  UNL     1     -34.670   5.339   4.754  1.00 20.00     0.082 C 
HETATM    7  C4  UNL     1     -33.917   4.109   4.254  1.00 20.00     0.027 C 
HETATM    8 CL8  UNL     1     -34.798   5.254   6.540  1.00 20.00    -0.125 Cl
ENDBRANCH   4   6
ENDBRANCH   3   4
TORSDOF 2
ENDMDL
MODEL 9
REMARK VINA RESULT:      -3.7     11.921     12.718
REMARK  2 active torsions:
REMARK  status: ('A' for Active; 'I' for Inactive)
REMARK    1  A    between atoms: C5_5  and  C6_6 
REMARK    2  A    between atoms: C6_6  and  C7_7 
ROOT
HETATM    1  C1  UNL     1     -33.333  15.568  -3.947  1.00 20.00     0.012 C 
HETATM    2  C2  UNL     1     -33.445  16.245  -2.962  1.00 20.00    -0.117 C 
HETATM    3  C5  UNL     1     -33.589  17.073  -1.752  1.00 20.00     0.098 C 
ENDROOT
BRANCH   3   4
HETATM    4  C6  UNL     1     -32.509  18.175  -1.666  1.00 20.00     0.011 C 
HETATM    5  C3  UNL     1     -32.713  19.227  -2.767  1.00 20.00     0.012 C 
BRANCH   4   6
HETATM    6  C7  UNL     1     -32.455  18.775  -0.237  1.00 20.00     0.082 C 
HETATM    7  C4  UNL     1     -33.624  18.345   0.644  1.00 20.00     0.027 C 
HETATM    8 CL8  UNL     1     -30.921  18.388   0.604  1.00 20.00    -0.125 Cl
ENDBRANCH   4   6
ENDBRANCH   3   4
TORSDOF 2
ENDMDL
