MODEL 1
REMARK VINA RESULT:      -4.3      0.000      0.000
REMARK  2 active torsions:
REMARK  status: ('A' for Active; 'I' for Inactive)
REMARK    1  A    between atoms: C2_2  and  C7_7 
REMARK    2  A    between atoms: C7_7  and  C8_8 
ROOT
HETATM    1  C7  UNL     1     -34.147   7.906   4.572  1.00 20.00     0.035 C 
ENDROOT
BRANCH   1   2
HETATM    2  C2  UNL     1     -34.003   7.382   5.975  1.00 20.00    -0.030 C 
HETATM    3  C1  UNL     1     -34.248   6.110   6.323  1.00 20.00    -0.035 C 
HETATM    4  C3  UNL     1     -34.693   5.056   5.365  1.00 20.00     0.035 C 
ENDBRANCH   1   2
BRANCH   1   5
HETATM    5  C8  UNL     1     -32.815   8.247   3.848  1.00 20.00    -0.048 C 
HETATM    6  C4  UNL     1     -33.018   9.348   2.793  1.00 20.00     0.014 C 
HETATM    7  C5  UNL     1     -32.221   6.999   3.172  1.00 20.00     0.014 C 
HETATM    8  C6  UNL     1     -31.811   8.758   4.900  1.00 20.00     0.014 C 
ENDBRANCH   1   5
TORSDOF 2
ENDMDL
MODEL 2
REMARK VINA RESULT:      -4.2      0.040      1.530
REMARK  2 active torsions:
REMARK  status: ('A' for Active; 'I' for Inactive)
REMARK    1  A    between atoms: C2_2  and  C7_7 
REMARK    2  A    between atoms: C7_7  and  C8_8 
ROOT
HETATM    1  C7  UNL     1     -34.135   7.865   4.535  1.00 20.00     0.035 C 
ENDROOT
BRANCH   1   2
HETATM    2  C2  UNL     1     -34.021   7.390   5.958  1.00 20.00    -0.030 C 
HETATM    3  C1  UNL     1     -34.266   6.129   6.344  1.00 20.00    -0.035 C 
HETATM    4  C3  UNL     1     -34.681   5.040   5.412  1.00 20.00     0.035 C 
ENDBRANCH   1   2
BRANCH   1   5
HETATM    5  C8  UNL     1     -32.797   8.276   3.861  1.00 20.00    -0.048 C 
HETATM    6  C4  UNL     1     -31.785   8.797   4.896  1.00 20.00     0.014 C 
HETATM    7  C5  UNL     1     -33.030   9.357   2.790  1.00 20.00     0.014 C 
HETATM    8  C6  UNL     1     -32.199   7.031   3.177  1.00 20.00     0.014 C 
ENDBRANCH   1   5
TORSDOF 2
ENDMDL
MODEL 3
REMARK VINA RESULT:      -4.1      1.262      3.744
REMARK  2 active torsions:
REMARK  status: ('A' for Active; 'I' for Inactive)
REMARK    1  A    between atoms: C2_2  and  C7_7 
REMARK    2  A    between atoms: C7_7  and  C8_8 
ROOT
HETATM    1  C7  UNL     1     -34.321   7.548   4.949  1.00 20.00     0.035 C 
ENDROOT
BRANCH   1   2
HETATM    2  C2  UNL     1     -32.891   7.914   5.234  1.00 20.00    -0.030 C 
HETATM    3  C1  UNL     1     -32.074   8.486   4.336  1.00 20.00    -0.035 C 
HETATM    4  C3  UNL     1     -32.483   8.832   2.944  1.00 20.00     0.035 C 
ENDBRANCH   1   2
BRANCH   1   5
HETATM    5  C8  UNL     1     -34.602   6.028   4.789  1.00 20.00    -0.048 C 
HETATM    6  C4  UNL     1     -34.515   5.297   6.140  1.00 20.00     0.014 C 
HETATM    7  C5  UNL     1     -33.612   5.387   3.800  1.00 20.00     0.014 C 
HETATM    8  C6  UNL     1     -36.029   5.858   4.232  1.00 20.00     0.014 C 
ENDBRANCH   1   5
TORSDOF 2
ENDMDL
MODEL 4
REMARK VINA RESULT:      -4.1      1.061      3.775
REMARK  2 active torsions:
REMARK  status: ('A' for Active; 'I' for Inactive)
REMARK    1  A    between atoms: C2_2  and  C7_7 
REMARK    2  A    between atoms: C7_7  and  C8_8 
ROOT
HETATM    1  C7  UNL     1     -33.416   6.839   5.513  1.00 20.00     0.035 C 
ENDROOT
BRANCH   1   2
HETATM    2  C2  UNL     1     -33.588   8.123   4.748  1.00 20.00    -0.030 C 
HETATM    3  C1  UNL     1     -32.928   8.411   3.616  1.00 20.00    -0.035 C 
HETATM    4  C3  UNL     1     -31.942   7.493   2.973  1.00 20.00     0.035 C 
ENDBRANCH   1   2
BRANCH   1   5
HETATM    5  C8  UNL     1     -34.435   5.717   5.170  1.00 20.00    -0.048 C 
HETATM    6  C4  UNL     1     -33.785   4.609   4.323  1.00 20.00     0.014 C 
HETATM    7  C5  UNL     1     -35.648   6.288   4.415  1.00 20.00     0.014 C 
HETATM    8  C6  UNL     1     -34.929   5.096   6.492  1.00 20.00     0.014 C 
ENDBRANCH   1   5
TORSDOF 2
ENDMDL
MODEL 5
REMARK VINA RESULT:      -4.0      1.072      3.737
REMARK  2 active torsions:
REMARK  status: ('A' for Active; 'I' for Inactive)
REMARK    1  A    between atoms: C2_2  and  C7_7 
REMARK    2  A    between atoms: C7_7  and  C8_8 
ROOT
HETATM    1  C7  UNL     1     -33.380   6.827   5.473  1.00 20.00     0.035 C 
ENDROOT
BRANCH   1   2
HETATM    2  C2  UNL     1     -33.569   8.120   4.729  1.00 20.00    -0.030 C 
HETATM    3  C1  UNL     1     -32.937   8.421   3.585  1.00 20.00    -0.035 C 
HETATM    4  C3  UNL     1     -31.969   7.511   2.907  1.00 20.00     0.035 C 
ENDBRANCH   1   2
BRANCH   1   5
HETATM    5  C8  UNL     1     -34.441   5.730   5.184  1.00 20.00    -0.048 C 
HETATM    6  C4  UNL     1     -35.641   6.301   4.408  1.00 20.00     0.014 C 
HETATM    7  C5  UNL     1     -34.941   5.088   6.490  1.00 20.00     0.014 C 
HETATM    8  C6  UNL     1     -33.780   4.635   4.323  1.00 20.00     0.014 C 
ENDBRANCH   1   5
TORSDOF 2
ENDMDL
MODEL 6
REMARK VINA RESULT:      -3.7      8.510      9.633
REMARK  2 active torsions:
REMARK  status: ('A' for Active; 'I' for Inactive)
REMARK    1  A    between atoms: C2_2  and  C7_7 
REMARK    2  A    between atoms: C7_7  and  C8_8 
ROOT
HETATM    1  C7  UNL     1     -40.850  12.135   6.116  1.00 20.00     0.035 C 
ENDROOT
BRANCH   1   2
HETATM    2  C2  UNL     1     -39.352  12.182   6.244  1.00 20.00    -0.030 C 
HETATM    3  C1  UNL     1     -38.510  11.976   5.220  1.00 20.00    -0.035 C 
HETATM    4  C3  UNL     1     -38.953  11.675   3.827  1.00 20.00     0.035 C 
ENDBRANCH   1   2
BRANCH   1   5
HETATM    5  C8  UNL     1     -41.575  13.503   6.246  1.00 20.00    -0.048 C 
HETATM    6  C4  UNL     1     -41.877  14.110   4.865  1.00 20.00     0.014 C 
HETATM    7  C5  UNL     1     -40.731  14.497   7.064  1.00 20.00     0.014 C 
HETATM    8  C6  UNL     1     -42.910  13.273   6.981  1.00 20.00     0.014 C 
ENDBRANCH   1   5
TORSDOF 2
ENDMDL
MODEL 7
REMARK VINA RESULT:      -3.7      8.547      9.647
REMARK  2 active torsions:
REMARK  status: ('A' for Active; 'I' for Inactive)
REMARK    1  A    between atoms: C2_2  and  C7_7 
REMARK    2  A    between atoms: C7_7  and  C8_8 
ROOT
HETATM    1  C7  UNL     1     -40.888  12.156   6.125  1.00 20.00     0.035 C 
ENDROOT
BRANCH   1   2
HETATM    2  C2  UNL     1     -39.392  12.228   6.259  1.00 20.00    -0.030 C 
HETATM    3  C1  UNL     1     -38.542  12.007   5.244  1.00 20.00    -0.035 C 
HETATM    4  C3  UNL     1     -38.974  11.663   3.858  1.00 20.00     0.035 C 
ENDBRANCH   1   2
BRANCH   1   5
HETATM    5  C8  UNL     1     -41.632  13.517   6.215  1.00 20.00    -0.048 C 
HETATM    6  C4  UNL     1     -42.990  13.367   6.923  1.00 20.00     0.014 C 
HETATM    7  C5  UNL     1     -41.853  14.118   4.816  1.00 20.00     0.014 C 
HETATM    8  C6  UNL     1     -40.760  14.490   7.034  1.00 20.00     0.014 C 
ENDBRANCH   1   5
TORSDOF 2
ENDMDL
MODEL 8
REMARK VINA RESULT:      -3.3      1.393      2.514
REMARK  2 active torsions:
REMARK  status: ('A' for Active; 'I' for Inactive)
REMARK    1  A    between atoms: C2_2  and  C7_7 
REMARK    2  A    between atoms: C7_7  and  C8_8 
ROOT
HETATM    1  C7  UNL     1     -34.588   6.923   4.362  1.00 20.00     0.035 C 
ENDROOT
BRANCH   1   2
HETATM    2  C2  UNL     1     -34.598   5.431   4.557  1.00 20.00    -0.030 C 
HETATM    3  C1  UNL     1     -33.891   4.576   3.804  1.00 20.00    -0.035 C 
HETATM    4  C3  UNL     1     -33.005   4.997   2.678  1.00 20.00     0.035 C 
ENDBRANCH   1   2
BRANCH   1   5
HETATM    5  C8  UNL     1     -33.591   7.706   5.259  1.00 20.00    -0.048 C 
HETATM    6  C4  UNL     1     -34.205   9.026   5.759  1.00 20.00     0.014 C 
HETATM    7  C5  UNL     1     -32.288   8.009   4.500  1.00 20.00     0.014 C 
HETATM    8  C6  UNL     1     -33.253   6.831   6.482  1.00 20.00     0.014 C 
ENDBRANCH   1   5
TORSDOF 2
ENDMDL
MODEL 9
REMARK VINA RESULT:      -3.3     11.534     12.449
REMARK  2 active torsions:
REMARK  status: ('A' for Active; 'I' for Inactive)
REMARK    1  A    between atoms: C2_2  and  C7_7 
REMARK    2  A    between atoms: C7_7  and  C8_8 
ROOT
HETATM    1  C7  UNL     1     -32.919  18.135  -0.490  1.00 20.00     0.035 C 
ENDROOT
BRANCH   1   2
HETATM    2  C2  UNL     1     -31.485  18.580  -0.408  1.00 20.00    -0.030 C 
HETATM    3  C1  UNL     1     -30.815  18.725   0.746  1.00 20.00    -0.035 C 
HETATM    4  C3  UNL     1     -31.408  18.464   2.090  1.00 20.00     0.035 C 
ENDBRANCH   1   2
BRANCH   1   5
HETATM    5  C8  UNL     1     -33.513  18.062  -1.924  1.00 20.00    -0.048 C 
HETATM    6  C4  UNL     1     -34.975  18.541  -1.950  1.00 20.00     0.014 C 
HETATM    7  C5  UNL     1     -33.438  16.629  -2.479  1.00 20.00     0.014 C 
HETATM    8  C6  UNL     1     -32.682  18.985  -2.838  1.00 20.00     0.014 C 
ENDBRANCH   1   5
TORSDOF 2
ENDMDL
