MODEL 1
REMARK VINA RESULT:      -4.7      0.000      0.000
REMARK  2 active torsions:
REMARK  status: ('A' for Active; 'I' for Inactive)
REMARK    1  A    between atoms: C5_5  and  C6_6 
REMARK    2  A    between atoms: C6_6  and  C7_7 
ROOT
HETATM    1  C1  UNL     1     -34.629   5.390   6.366  1.00 20.00     0.012 C 
HETATM    2  C2  UNL     1     -34.404   6.304   5.621  1.00 20.00    -0.117 C 
HETATM    3  C5  UNL     1     -34.135   7.426   4.707  1.00 20.00     0.098 C 
ENDROOT
BRANCH   3   4
HETATM    4  C6  UNL     1     -32.622   7.673   4.515  1.00 20.00     0.011 C 
HETATM    5  C3  UNL     1     -32.264   9.138   4.812  1.00 20.00     0.012 C 
BRANCH   4   6
HETATM    6  C7  UNL     1     -32.153   7.198   3.115  1.00 20.00     0.082 C 
HETATM    7  C4  UNL     1     -32.431   8.213   2.010  1.00 20.00     0.027 C 
HETATM    8 CL8  UNL     1     -32.873   5.624   2.649  1.00 20.00    -0.125 Cl
ENDBRANCH   4   6
ENDBRANCH   3   4
TORSDOF 2
ENDMDL
MODEL 2
REMARK VINA RESULT:      -4.5      1.035      3.685
REMARK  2 active torsions:
REMARK  status: ('A' for Active; 'I' for Inactive)
REMARK    1  A    between atoms: C5_5  and  C6_6 
REMARK    2  A    between atoms: C6_6  and  C7_7 
ROOT
HETATM    1  C1  UNL     1     -32.196   8.474   0.777  1.00 20.00     0.012 C 
HETATM    2  C2  UNL     1     -32.236   7.928   1.845  1.00 20.00    -0.117 C 
HETATM    3  C5  UNL     1     -32.283   7.253   3.152  1.00 20.00     0.098 C 
ENDROOT
BRANCH   3   4
HETATM    4  C6  UNL     1     -33.218   7.975   4.149  1.00 20.00     0.011 C 
HETATM    5  C3  UNL     1     -32.410   8.838   5.131  1.00 20.00     0.012 C 
BRANCH   4   6
HETATM    6  C7  UNL     1     -34.166   6.968   4.852  1.00 20.00     0.082 C 
HETATM    7  C4  UNL     1     -33.877   6.809   6.342  1.00 20.00     0.027 C 
HETATM    8 CL8  UNL     1     -34.141   5.351   4.082  1.00 20.00    -0.125 Cl
ENDBRANCH   4   6
ENDBRANCH   3   4
TORSDOF 2
ENDMDL
MODEL 3
REMARK VINA RESULT:      -4.4      1.109      3.512
REMARK  2 active torsions:
REMARK  status: ('A' for Active; 'I' for Inactive)
REMARK    1  A    between atoms: C5_5  and  C6_6 
REMARK    2  A    between atoms: C6_6  and  C7_7 
ROOT
HETATM    1  C1  UNL     1     -32.865   9.433   2.024  1.00 20.00     0.012 C 
HETATM    2  C2  UNL     1     -32.695   8.698   2.957  1.00 20.00    -0.117 C 
HETATM    3  C5  UNL     1     -32.479   7.795   4.100  1.00 20.00     0.098 C 
ENDROOT
BRANCH   3   4
HETATM    4  C6  UNL     1     -33.808   7.265   4.684  1.00 20.00     0.011 C 
HETATM    5  C3  UNL     1     -33.729   7.158   6.215  1.00 20.00     0.012 C 
BRANCH   4   6
HETATM    6  C7  UNL     1     -34.229   5.940   3.996  1.00 20.00     0.082 C 
HETATM    7  C4  UNL     1     -34.577   4.832   4.986  1.00 20.00     0.027 C 
HETATM    8 CL8  UNL     1     -32.982   5.331   2.862  1.00 20.00    -0.125 Cl
ENDBRANCH   4   6
ENDBRANCH   3   4
TORSDOF 2
ENDMDL
MODEL 4
REMARK VINA RESULT:      -4.3      2.063      3.289
REMARK  2 active torsions:
REMARK  status: ('A' for Active; 'I' for Inactive)
REMARK    1  A    between atoms: C5_5  and  C6_6 
REMARK    2  A    between atoms: C6_6  and  C7_7 
ROOT
HETATM    1  C1  UNL     1     -32.884   4.766   2.293  1.00 20.00     0.012 C 
HETATM    2  C2  UNL     1     -32.661   5.860   2.736  1.00 20.00    -0.117 C 
HETATM    3  C5  UNL     1     -32.380   7.200   3.276  1.00 20.00     0.098 C 
ENDROOT
BRANCH   3   4
HETATM    4  C6  UNL     1     -33.473   7.672   4.262  1.00 20.00     0.011 C 
HETATM    5  C3  UNL     1     -32.938   8.781   5.182  1.00 20.00     0.012 C 
BRANCH   4   6
HETATM    6  C7  UNL     1     -34.081   6.473   5.035  1.00 20.00     0.082 C 
HETATM    7  C4  UNL     1     -35.441   6.038   4.496  1.00 20.00     0.027 C 
HETATM    8 CL8  UNL     1     -34.229   6.794   6.791  1.00 20.00    -0.125 Cl
ENDBRANCH   4   6
ENDBRANCH   3   4
TORSDOF 2
ENDMDL
MODEL 5
REMARK VINA RESULT:      -4.1      1.707      3.723
REMARK  2 active torsions:
REMARK  status: ('A' for Active; 'I' for Inactive)
REMARK    1  A    between atoms: C5_5  and  C6_6 
REMARK    2  A    between atoms: C6_6  and  C7_7 
ROOT
HETATM    1  C1  UNL     1     -32.222   9.249   5.145  1.00 20.00     0.012 C 
HETATM    2  C2  UNL     1     -32.384   8.372   4.342  1.00 20.00    -0.117 C 
HETATM    3  C5  UNL     1     -32.583   7.301   3.351  1.00 20.00     0.098 C 
ENDROOT
BRANCH   3   4
HETATM    4  C6  UNL     1     -33.158   6.016   3.988  1.00 20.00     0.011 C 
HETATM    5  C3  UNL     1     -33.478   4.967   2.912  1.00 20.00     0.012 C 
BRANCH   4   6
HETATM    6  C7  UNL     1     -34.366   6.343   4.906  1.00 20.00     0.082 C 
HETATM    7  C4  UNL     1     -34.296   5.650   6.264  1.00 20.00     0.027 C 
HETATM    8 CL8  UNL     1     -35.936   5.951   4.136  1.00 20.00    -0.125 Cl
ENDBRANCH   4   6
ENDBRANCH   3   4
TORSDOF 2
ENDMDL
MODEL 6
REMARK VINA RESULT:      -4.0      1.449      3.875
REMARK  2 active torsions:
REMARK  status: ('A' for Active; 'I' for Inactive)
REMARK    1  A    between atoms: C5_5  and  C6_6 
REMARK    2  A    between atoms: C6_6  and  C7_7 
ROOT
HETATM    1  C1  UNL     1     -32.651   9.075   1.217  1.00 20.00     0.012 C 
HETATM    2  C2  UNL     1     -32.650   8.793   2.385  1.00 20.00    -0.117 C 
HETATM    3  C5  UNL     1     -32.646   8.455   3.817  1.00 20.00     0.098 C 
ENDROOT
BRANCH   3   4
HETATM    4  C6  UNL     1     -32.849   6.942   4.059  1.00 20.00     0.011 C 
HETATM    5  C3  UNL     1     -32.777   6.161   2.737  1.00 20.00     0.012 C 
BRANCH   4   6
HETATM    6  C7  UNL     1     -34.151   6.676   4.860  1.00 20.00     0.082 C 
HETATM    7  C4  UNL     1     -34.028   7.023   6.341  1.00 20.00     0.027 C 
HETATM    8 CL8  UNL     1     -34.715   4.982   4.707  1.00 20.00    -0.125 Cl
ENDBRANCH   4   6
ENDBRANCH   3   4
TORSDOF 2
ENDMDL
MODEL 7
REMARK VINA RESULT:      -3.9      1.407      3.435
REMARK  2 active torsions:
REMARK  status: ('A' for Active; 'I' for Inactive)
REMARK    1  A    between atoms: C5_5  and  C6_6 
REMARK    2  A    between atoms: C6_6  and  C7_7 
ROOT
HETATM    1  C1  UNL     1     -32.519   8.507   3.990  1.00 20.00     0.012 C 
HETATM    2  C2  UNL     1     -32.979   8.047   4.998  1.00 20.00    -0.117 C 
HETATM    3  C5  UNL     1     -33.539   7.485   6.238  1.00 20.00     0.098 C 
ENDROOT
BRANCH   3   4
HETATM    4  C6  UNL     1     -34.517   6.321   5.962  1.00 20.00     0.011 C 
HETATM    5  C3  UNL     1     -34.109   5.064   6.747  1.00 20.00     0.012 C 
BRANCH   4   6
HETATM    6  C7  UNL     1     -34.669   6.071   4.438  1.00 20.00     0.082 C 
HETATM    7  C4  UNL     1     -36.119   6.105   3.964  1.00 20.00     0.027 C 
HETATM    8 CL8  UNL     1     -33.926   4.524   3.921  1.00 20.00    -0.125 Cl
ENDBRANCH   4   6
ENDBRANCH   3   4
TORSDOF 2
ENDMDL
MODEL 8
REMARK VINA RESULT:      -3.9      2.300      3.286
REMARK  2 active torsions:
REMARK  status: ('A' for Active; 'I' for Inactive)
REMARK    1  A    between atoms: C5_5  and  C6_6 
REMARK    2  A    between atoms: C6_6  and  C7_7 
ROOT
HETATM    1  C1  UNL     1     -32.826   4.871   2.285  1.00 20.00     0.012 C 
HETATM    2  C2  UNL     1     -33.562   5.168   3.186  1.00 20.00    -0.117 C 
HETATM    3  C5  UNL     1     -34.470   5.531   4.287  1.00 20.00     0.098 C 
ENDROOT
BRANCH   3   4
HETATM    4  C6  UNL     1     -33.788   6.448   5.327  1.00 20.00     0.011 C 
HETATM    5  C3  UNL     1     -34.544   6.417   6.664  1.00 20.00     0.012 C 
BRANCH   4   6
HETATM    6  C7  UNL     1     -33.595   7.881   4.764  1.00 20.00     0.082 C 
HETATM    7  C4  UNL     1     -32.195   8.127   4.208  1.00 20.00     0.027 C 
HETATM    8 CL8  UNL     1     -33.969   9.149   5.974  1.00 20.00    -0.125 Cl
ENDBRANCH   4   6
ENDBRANCH   3   4
TORSDOF 2
ENDMDL
MODEL 9
REMARK VINA RESULT:      -3.9      1.355      2.020
REMARK  2 active torsions:
REMARK  status: ('A' for Active; 'I' for Inactive)
REMARK    1  A    between atoms: C5_5  and  C6_6 
REMARK    2  A    between atoms: C6_6  and  C7_7 
ROOT
HETATM    1  C1  UNL     1     -34.789   5.015   6.717  1.00 20.00     0.012 C 
HETATM    2  C2  UNL     1     -34.407   6.014   6.173  1.00 20.00    -0.117 C 
HETATM    3  C5  UNL     1     -33.940   7.244   5.512  1.00 20.00     0.098 C 
ENDROOT
BRANCH   3   4
HETATM    4  C6  UNL     1     -33.620   7.017   4.017  1.00 20.00     0.011 C 
HETATM    5  C3  UNL     1     -33.639   5.518   3.675  1.00 20.00     0.012 C 
BRANCH   4   6
HETATM    6  C7  UNL     1     -32.296   7.721   3.618  1.00 20.00     0.082 C 
HETATM    7  C4  UNL     1     -32.098   9.067   4.311  1.00 20.00     0.027 C 
HETATM    8 CL8  UNL     1     -32.151   7.954   1.848  1.00 20.00    -0.125 Cl
ENDBRANCH   4   6
ENDBRANCH   3   4
TORSDOF 2
ENDMDL
