MODEL 1
REMARK VINA RESULT:      -4.5      0.000      0.000
REMARK  2 active torsions:
REMARK  status: ('A' for Active; 'I' for Inactive)
REMARK    1  A    between atoms: C2_2  and  C9_9 
REMARK    2  A    between atoms: C6_6  and  C9_9 
ROOT
HETATM    1  C3  UNL     1     -34.597   5.461   6.688  1.00 20.00     0.002 C 
HETATM    2  C4  UNL     1     -34.095   6.888   6.443  1.00 20.00     0.006 C 
HETATM    3  C5  UNL     1     -34.452   4.722   5.356  1.00 20.00     0.020 C 
HETATM    4  C6  UNL     1     -33.594   6.903   4.996  1.00 20.00     0.008 C 
HETATM    5  C7  UNL     1     -34.427   5.821   4.298  1.00 20.00     0.086 C 
HETATM    6 CL10 UNL     1     -36.099   6.341   3.924  1.00 20.00    -0.125 Cl
ENDROOT
BRANCH   4   7
HETATM    7  C9  UNL     1     -33.622   8.260   4.362  1.00 20.00     0.039 C 
BRANCH   7   8
HETATM    8  C2  UNL     1     -32.748   8.350   3.134  1.00 20.00    -0.093 C 
HETATM    9  C1  UNL     1     -31.829   7.411   2.859  1.00 20.00     0.014 C 
HETATM   10  C8  UNL     1     -32.926   9.552   2.254  1.00 20.00     0.042 C 
ENDBRANCH   7   8
ENDBRANCH   4   7
TORSDOF 2
ENDMDL
MODEL 2
REMARK VINA RESULT:      -3.9     12.085     13.103
REMARK  2 active torsions:
REMARK  status: ('A' for Active; 'I' for Inactive)
REMARK    1  A    between atoms: C2_2  and  C9_9 
REMARK    2  A    between atoms: C6_6  and  C9_9 
ROOT
HETATM    1  C3  UNL     1     -33.653  16.664  -3.888  1.00 20.00     0.002 C 
HETATM    2  C4  UNL     1     -33.458  16.446  -2.383  1.00 20.00     0.006 C 
HETATM    3  C5  UNL     1     -33.642  18.179  -4.105  1.00 20.00     0.020 C 
HETATM    4  C6  UNL     1     -33.252  17.843  -1.790  1.00 20.00     0.008 C 
HETATM    5  C7  UNL     1     -34.007  18.773  -2.747  1.00 20.00     0.086 C 
HETATM    6 CL10 UNL     1     -35.782  18.734  -2.527  1.00 20.00    -0.125 Cl
ENDROOT
BRANCH   4   7
HETATM    7  C9  UNL     1     -33.632  17.945  -0.344  1.00 20.00     0.039 C 
BRANCH   7   8
HETATM    8  C2  UNL     1     -32.560  18.594   0.497  1.00 20.00    -0.093 C 
HETATM    9  C1  UNL     1     -32.854  19.208   1.654  1.00 20.00     0.014 C 
HETATM   10  C8  UNL     1     -31.156  18.554  -0.033  1.00 20.00     0.042 C 
ENDBRANCH   7   8
ENDBRANCH   4   7
TORSDOF 2
ENDMDL
MODEL 3
REMARK VINA RESULT:      -3.9      9.158     10.028
REMARK  2 active torsions:
REMARK  status: ('A' for Active; 'I' for Inactive)
REMARK    1  A    between atoms: C2_2  and  C9_9 
REMARK    2  A    between atoms: C6_6  and  C9_9 
ROOT
HETATM    1  C3  UNL     1     -42.702  15.069   5.574  1.00 20.00     0.002 C 
HETATM    2  C4  UNL     1     -41.805  13.998   4.943  1.00 20.00     0.006 C 
HETATM    3  C5  UNL     1     -42.447  15.004   7.082  1.00 20.00     0.020 C 
HETATM    4  C6  UNL     1     -40.994  13.408   6.100  1.00 20.00     0.008 C 
HETATM    5  C7  UNL     1     -41.892  13.604   7.327  1.00 20.00     0.086 C 
HETATM    6 CL10 UNL     1     -43.237  12.427   7.420  1.00 20.00    -0.125 Cl
ENDROOT
BRANCH   4   7
HETATM    7  C9  UNL     1     -40.521  12.008   5.852  1.00 20.00     0.039 C 
BRANCH   7   8
HETATM    8  C2  UNL     1     -39.133  11.956   5.263  1.00 20.00    -0.093 C 
HETATM    9  C1  UNL     1     -38.044  12.175   6.017  1.00 20.00     0.014 C 
HETATM   10  C8  UNL     1     -39.023  11.685   3.791  1.00 20.00     0.042 C 
ENDBRANCH   7   8
ENDBRANCH   4   7
TORSDOF 2
ENDMDL
MODEL 4
REMARK VINA RESULT:      -3.9      1.616      2.209
REMARK  2 active torsions:
REMARK  status: ('A' for Active; 'I' for Inactive)
REMARK    1  A    between atoms: C2_2  and  C9_9 
REMARK    2  A    between atoms: C6_6  and  C9_9 
ROOT
HETATM    1  C3  UNL     1     -34.449   4.440   4.458  1.00 20.00     0.002 C 
HETATM    2  C4  UNL     1     -33.243   4.984   3.685  1.00 20.00     0.006 C 
HETATM    3  C5  UNL     1     -35.275   5.659   4.875  1.00 20.00     0.020 C 
HETATM    4  C6  UNL     1     -33.458   6.499   3.604  1.00 20.00     0.008 C 
HETATM    5  C7  UNL     1     -34.293   6.826   4.847  1.00 20.00     0.086 C 
HETATM    6 CL10 UNL     1     -33.339   6.851   6.361  1.00 20.00    -0.125 Cl
ENDROOT
BRANCH   4   7
HETATM    7  C9  UNL     1     -32.189   7.279   3.445  1.00 20.00     0.039 C 
BRANCH   7   8
HETATM    8  C2  UNL     1     -32.414   8.772   3.472  1.00 20.00    -0.093 C 
HETATM    9  C1  UNL     1     -32.222   9.488   4.591  1.00 20.00     0.014 C 
HETATM   10  C8  UNL     1     -32.897   9.414   2.204  1.00 20.00     0.042 C 
ENDBRANCH   7   8
ENDBRANCH   4   7
TORSDOF 2
ENDMDL
MODEL 5
REMARK VINA RESULT:      -3.8      9.179     10.053
REMARK  2 active torsions:
REMARK  status: ('A' for Active; 'I' for Inactive)
REMARK    1  A    between atoms: C2_2  and  C9_9 
REMARK    2  A    between atoms: C6_6  and  C9_9 
ROOT
HETATM    1  C3  UNL     1     -42.997  14.809   6.776  1.00 20.00     0.002 C 
HETATM    2  C4  UNL     1     -42.677  13.373   6.348  1.00 20.00     0.006 C 
HETATM    3  C5  UNL     1     -41.685  15.589   6.668  1.00 20.00     0.020 C 
HETATM    4  C6  UNL     1     -41.206  13.390   5.922  1.00 20.00     0.008 C 
HETATM    5  C7  UNL     1     -40.590  14.529   6.743  1.00 20.00     0.086 C 
HETATM    6 CL10 UNL     1     -40.287  14.091   8.452  1.00 20.00    -0.125 Cl
ENDROOT
BRANCH   4   7
HETATM    7  C9  UNL     1     -40.529  12.058   6.039  1.00 20.00     0.039 C 
BRANCH   7   8
HETATM    8  C2  UNL     1     -39.241  11.987   5.257  1.00 20.00    -0.093 C 
HETATM    9  C1  UNL     1     -39.236  11.742   3.937  1.00 20.00     0.014 C 
HETATM   10  C8  UNL     1     -37.963  12.166   6.024  1.00 20.00     0.042 C 
ENDBRANCH   7   8
ENDBRANCH   4   7
TORSDOF 2
ENDMDL
MODEL 6
REMARK VINA RESULT:      -3.7      1.621      3.852
REMARK  2 active torsions:
REMARK  status: ('A' for Active; 'I' for Inactive)
REMARK    1  A    between atoms: C2_2  and  C9_9 
REMARK    2  A    between atoms: C6_6  and  C9_9 
ROOT
HETATM    1  C3  UNL     1     -32.150   8.584   5.204  1.00 20.00     0.002 C 
HETATM    2  C4  UNL     1     -33.293   7.649   5.613  1.00 20.00     0.006 C 
HETATM    3  C5  UNL     1     -32.440   9.009   3.762  1.00 20.00     0.020 C 
HETATM    4  C6  UNL     1     -34.256   7.633   4.422  1.00 20.00     0.008 C 
HETATM    5  C7  UNL     1     -33.361   7.924   3.211  1.00 20.00     0.086 C 
HETATM    6 CL10 UNL     1     -32.390   6.514   2.689  1.00 20.00    -0.125 Cl
ENDROOT
BRANCH   4   7
HETATM    7  C9  UNL     1     -35.088   6.390   4.336  1.00 20.00     0.039 C 
BRANCH   7   8
HETATM    8  C2  UNL     1     -34.519   5.250   5.145  1.00 20.00    -0.093 C 
HETATM    9  C1  UNL     1     -33.901   4.214   4.556  1.00 20.00     0.014 C 
HETATM   10  C8  UNL     1     -34.706   5.306   6.633  1.00 20.00     0.042 C 
ENDBRANCH   7   8
ENDBRANCH   4   7
TORSDOF 2
ENDMDL
MODEL 7
REMARK VINA RESULT:      -3.7     12.013     13.042
REMARK  2 active torsions:
REMARK  status: ('A' for Active; 'I' for Inactive)
REMARK    1  A    between atoms: C2_2  and  C9_9 
REMARK    2  A    between atoms: C6_6  and  C9_9 
ROOT
HETATM    1  C3  UNL     1     -33.793  18.442  -1.366  1.00 20.00     0.002 C 
HETATM    2  C4  UNL     1     -33.067  17.169  -1.810  1.00 20.00     0.006 C 
HETATM    3  C5  UNL     1     -34.989  18.602  -2.307  1.00 20.00     0.020 C 
HETATM    4  C6  UNL     1     -33.918  16.584  -2.941  1.00 20.00     0.008 C 
HETATM    5  C7  UNL     1     -34.618  17.803  -3.553  1.00 20.00     0.086 C 
HETATM    6 CL10 UNL     1     -33.552  18.782  -4.605  1.00 20.00    -0.125 Cl
ENDROOT
BRANCH   4   7
HETATM    7  C9  UNL     1     -33.145  15.726  -3.895  1.00 20.00     0.039 C 
BRANCH   7   8
HETATM    8  C2  UNL     1     -34.035  14.943  -4.829  1.00 20.00    -0.093 C 
HETATM    9  C1  UNL     1     -34.927  14.053  -4.364  1.00 20.00     0.014 C 
HETATM   10  C8  UNL     1     -33.856  15.175  -6.301  1.00 20.00     0.042 C 
ENDBRANCH   7   8
ENDBRANCH   4   7
TORSDOF 2
ENDMDL
MODEL 8
REMARK VINA RESULT:      -3.6     12.007     12.928
REMARK  2 active torsions:
REMARK  status: ('A' for Active; 'I' for Inactive)
REMARK    1  A    between atoms: C2_2  and  C9_9 
REMARK    2  A    between atoms: C6_6  and  C9_9 
ROOT
HETATM    1  C3  UNL     1     -32.261  18.836   0.313  1.00 20.00     0.002 C 
HETATM    2  C4  UNL     1     -31.833  18.780  -1.158  1.00 20.00     0.006 C 
HETATM    3  C5  UNL     1     -33.480  17.920   0.438  1.00 20.00     0.020 C 
HETATM    4  C6  UNL     1     -32.767  17.762  -1.818  1.00 20.00     0.008 C 
HETATM    5  C7  UNL     1     -34.047  17.825  -0.976  1.00 20.00     0.086 C 
HETATM    6 CL10 UNL     1     -35.057  19.262  -1.321  1.00 20.00    -0.125 Cl
ENDROOT
BRANCH   4   7
HETATM    7  C9  UNL     1     -32.943  17.972  -3.291  1.00 20.00     0.039 C 
BRANCH   7   8
HETATM    8  C2  UNL     1     -33.778  16.895  -3.939  1.00 20.00    -0.093 C 
HETATM    9  C1  UNL     1     -34.913  17.189  -4.594  1.00 20.00     0.014 C 
HETATM   10  C8  UNL     1     -33.306  15.479  -3.789  1.00 20.00     0.042 C 
ENDBRANCH   7   8
ENDBRANCH   4   7
TORSDOF 2
ENDMDL
MODEL 9
REMARK VINA RESULT:      -3.5      9.240      9.926
REMARK  2 active torsions:
REMARK  status: ('A' for Active; 'I' for Inactive)
REMARK    1  A    between atoms: C2_2  and  C9_9 
REMARK    2  A    between atoms: C6_6  and  C9_9 
ROOT
HETATM    1  C3  UNL     1     -41.690  14.531   8.454  1.00 20.00     0.002 C 
HETATM    2  C4  UNL     1     -40.626  14.276   7.381  1.00 20.00     0.006 C 
HETATM    3  C5  UNL     1     -42.801  13.509   8.206  1.00 20.00     0.020 C 
HETATM    4  C6  UNL     1     -41.117  13.053   6.600  1.00 20.00     0.008 C 
HETATM    5  C7  UNL     1     -42.643  13.104   6.743  1.00 20.00     0.086 C 
HETATM    6 CL10 UNL     1     -43.417  14.325   5.689  1.00 20.00    -0.125 Cl
ENDROOT
BRANCH   4   7
HETATM    7  C9  UNL     1     -40.594  12.985   5.197  1.00 20.00     0.039 C 
BRANCH   7   8
HETATM    8  C2  UNL     1     -39.351  12.137   5.079  1.00 20.00    -0.093 C 
HETATM    9  C1  UNL     1     -38.647  11.771   6.162  1.00 20.00     0.014 C 
HETATM   10  C8  UNL     1     -38.916  11.749   3.696  1.00 20.00     0.042 C 
ENDBRANCH   7   8
ENDBRANCH   4   7
TORSDOF 2
ENDMDL
