MODEL 1
REMARK VINA RESULT:      -4.3      0.000      0.000
REMARK  3 active torsions:
REMARK  status: ('A' for Active; 'I' for Inactive)
REMARK    1  A    between atoms: C2_2  and  C6_6 
REMARK    2  A    between atoms: C6_6  and  C7_7 
REMARK    3  A    between atoms: C7_7  and  C8_8 
ROOT
HETATM    1  C4  UNL     1     -32.980   5.169   2.462  1.00 20.00     0.011 C 
HETATM    2  C7  UNL     1     -32.867   6.183   3.611  1.00 20.00    -0.001 C 
ENDROOT
BRANCH   2   3
HETATM    3  C6  UNL     1     -34.250   6.511   4.226  1.00 20.00     0.038 C 
BRANCH   3   4
HETATM    4  C2  UNL     1     -34.399   6.129   5.684  1.00 20.00    -0.093 C 
HETATM    5  C1  UNL     1     -34.638   4.861   6.056  1.00 20.00     0.014 C 
HETATM    6  C3  UNL     1     -34.225   7.220   6.701  1.00 20.00     0.042 C 
ENDBRANCH   3   4
ENDBRANCH   2   3
BRANCH   2   7
HETATM    7  C8  UNL     1     -32.063   7.435   3.186  1.00 20.00     0.057 C 
HETATM    8  C5  UNL     1     -32.361   7.907   1.768  1.00 20.00     0.022 C 
HETATM    9 BR9  UNL     1     -32.335   8.949   4.402  1.00 20.00    -0.091 Br
ENDBRANCH   2   7
TORSDOF 3
ENDMDL
MODEL 2
REMARK VINA RESULT:      -4.0      1.550      2.347
REMARK  3 active torsions:
REMARK  status: ('A' for Active; 'I' for Inactive)
REMARK    1  A    between atoms: C2_2  and  C6_6 
REMARK    2  A    between atoms: C6_6  and  C7_7 
REMARK    3  A    between atoms: C7_7  and  C8_8 
ROOT
HETATM    1  C4  UNL     1     -32.684   9.210   4.415  1.00 20.00     0.011 C 
HETATM    2  C7  UNL     1     -33.138   7.766   4.147  1.00 20.00    -0.001 C 
ENDROOT
BRANCH   2   3
HETATM    3  C6  UNL     1     -33.235   6.943   5.455  1.00 20.00     0.038 C 
BRANCH   3   4
HETATM    4  C2  UNL     1     -34.472   6.075   5.564  1.00 20.00    -0.093 C 
HETATM    5  C1  UNL     1     -34.668   5.263   6.615  1.00 20.00     0.014 C 
HETATM    6  C3  UNL     1     -35.492   6.195   4.469  1.00 20.00     0.042 C 
ENDBRANCH   3   4
ENDBRANCH   2   3
BRANCH   2   7
HETATM    7  C8  UNL     1     -32.274   7.094   3.053  1.00 20.00     0.057 C 
HETATM    8  C5  UNL     1     -32.737   5.692   2.675  1.00 20.00     0.022 C 
HETATM    9 BR9  UNL     1     -32.172   8.166   1.414  1.00 20.00    -0.091 Br
ENDBRANCH   2   7
TORSDOF 3
ENDMDL
MODEL 3
REMARK VINA RESULT:      -3.8      1.915      4.163
REMARK  3 active torsions:
REMARK  status: ('A' for Active; 'I' for Inactive)
REMARK    1  A    between atoms: C2_2  and  C6_6 
REMARK    2  A    between atoms: C6_6  and  C7_7 
REMARK    3  A    between atoms: C7_7  and  C8_8 
ROOT
HETATM    1  C4  UNL     1     -32.951   5.326   2.811  1.00 20.00     0.011 C 
HETATM    2  C7  UNL     1     -33.134   6.770   3.305  1.00 20.00    -0.001 C 
ENDROOT
BRANCH   2   3
HETATM    3  C6  UNL     1     -31.983   7.690   2.830  1.00 20.00     0.038 C 
BRANCH   3   4
HETATM    4  C2  UNL     1     -32.296   8.504   1.590  1.00 20.00    -0.093 C 
HETATM    5  C1  UNL     1     -31.944   8.079   0.366  1.00 20.00     0.014 C 
HETATM    6  C3  UNL     1     -33.056   9.784   1.784  1.00 20.00     0.042 C 
ENDBRANCH   3   4
ENDBRANCH   2   3
BRANCH   2   7
HETATM    7  C8  UNL     1     -33.379   6.820   4.832  1.00 20.00     0.057 C 
HETATM    8  C5  UNL     1     -33.711   8.212   5.358  1.00 20.00     0.022 C 
HETATM    9 BR9  UNL     1     -34.801   5.597   5.404  1.00 20.00    -0.091 Br
ENDBRANCH   2   7
TORSDOF 3
ENDMDL
MODEL 4
REMARK VINA RESULT:      -3.7      9.012     10.442
REMARK  3 active torsions:
REMARK  status: ('A' for Active; 'I' for Inactive)
REMARK    1  A    between atoms: C2_2  and  C6_6 
REMARK    2  A    between atoms: C6_6  and  C7_7 
REMARK    3  A    between atoms: C7_7  and  C8_8 
ROOT
HETATM    1  C4  UNL     1     -41.952  14.067   4.688  1.00 20.00     0.011 C 
HETATM    2  C7  UNL     1     -41.066  13.700   5.888  1.00 20.00    -0.001 C 
ENDROOT
BRANCH   2   3
HETATM    3  C6  UNL     1     -40.591  12.227   5.823  1.00 20.00     0.038 C 
BRANCH   3   4
HETATM    4  C2  UNL     1     -39.195  12.038   5.269  1.00 20.00    -0.093 C 
HETATM    5  C1  UNL     1     -38.107  12.192   6.040  1.00 20.00     0.014 C 
HETATM    6  C3  UNL     1     -39.078  11.628   3.829  1.00 20.00     0.042 C 
ENDBRANCH   3   4
ENDBRANCH   2   3
BRANCH   2   7
HETATM    7  C8  UNL     1     -41.743  14.075   7.228  1.00 20.00     0.057 C 
HETATM    8  C5  UNL     1     -42.715  13.022   7.745  1.00 20.00     0.022 C 
HETATM    9 BR9  UNL     1     -40.442  14.453   8.646  1.00 20.00    -0.091 Br
ENDBRANCH   2   7
TORSDOF 3
ENDMDL
MODEL 5
REMARK VINA RESULT:      -3.6      1.363      3.992
REMARK  3 active torsions:
REMARK  status: ('A' for Active; 'I' for Inactive)
REMARK    1  A    between atoms: C2_2  and  C6_6 
REMARK    2  A    between atoms: C6_6  and  C7_7 
REMARK    3  A    between atoms: C7_7  and  C8_8 
ROOT
HETATM    1  C4  UNL     1     -32.884   4.859   2.756  1.00 20.00     0.011 C 
HETATM    2  C7  UNL     1     -33.413   6.248   3.149  1.00 20.00    -0.001 C 
ENDROOT
BRANCH   2   3
HETATM    3  C6  UNL     1     -32.274   7.295   3.227  1.00 20.00     0.038 C 
BRANCH   3   4
HETATM    4  C2  UNL     1     -32.428   8.466   2.279  1.00 20.00    -0.093 C 
HETATM    5  C1  UNL     1     -32.893   9.653   2.701  1.00 20.00     0.014 C 
HETATM    6  C3  UNL     1     -31.995   8.258   0.857  1.00 20.00     0.042 C 
ENDBRANCH   3   4
ENDBRANCH   2   3
BRANCH   2   7
HETATM    7  C8  UNL     1     -34.285   6.182   4.425  1.00 20.00     0.057 C 
HETATM    8  C5  UNL     1     -34.415   4.782   5.013  1.00 20.00     0.022 C 
HETATM    9 BR9  UNL     1     -33.640   7.380   5.837  1.00 20.00    -0.091 Br
ENDBRANCH   2   7
TORSDOF 3
ENDMDL
MODEL 6
REMARK VINA RESULT:      -3.6     12.279     13.211
REMARK  3 active torsions:
REMARK  status: ('A' for Active; 'I' for Inactive)
REMARK    1  A    between atoms: C2_2  and  C6_6 
REMARK    2  A    between atoms: C6_6  and  C7_7 
REMARK    3  A    between atoms: C7_7  and  C8_8 
ROOT
HETATM    1  C4  UNL     1     -33.256  15.644  -3.717  1.00 20.00     0.011 C 
HETATM    2  C7  UNL     1     -33.183  17.029  -3.054  1.00 20.00    -0.001 C 
ENDROOT
BRANCH   2   3
HETATM    3  C6  UNL     1     -33.624  16.979  -1.571  1.00 20.00     0.038 C 
BRANCH   3   4
HETATM    4  C2  UNL     1     -33.171  18.161  -0.738  1.00 20.00    -0.093 C 
HETATM    5  C1  UNL     1     -34.046  18.909  -0.048  1.00 20.00     0.014 C 
HETATM    6  C3  UNL     1     -31.696  18.434  -0.681  1.00 20.00     0.042 C 
ENDBRANCH   3   4
ENDBRANCH   2   3
BRANCH   2   7
HETATM    7  C8  UNL     1     -33.931  18.097  -3.889  1.00 20.00     0.057 C 
HETATM    8  C5  UNL     1     -33.052  19.260  -4.332  1.00 20.00     0.022 C 
HETATM    9 BR9  UNL     1     -34.789  17.339  -5.481  1.00 20.00    -0.091 Br
ENDBRANCH   2   7
TORSDOF 3
ENDMDL
MODEL 7
REMARK VINA RESULT:      -3.6     12.304     13.074
REMARK  3 active torsions:
REMARK  status: ('A' for Active; 'I' for Inactive)
REMARK    1  A    between atoms: C2_2  and  C6_6 
REMARK    2  A    between atoms: C6_6  and  C7_7 
REMARK    3  A    between atoms: C7_7  and  C8_8 
ROOT
HETATM    1  C4  UNL     1     -33.336  15.930  -3.436  1.00 20.00     0.011 C 
HETATM    2  C7  UNL     1     -33.266  17.320  -2.784  1.00 20.00    -0.001 C 
ENDROOT
BRANCH   2   3
HETATM    3  C6  UNL     1     -33.686  17.277  -1.294  1.00 20.00     0.038 C 
BRANCH   3   4
HETATM    4  C2  UNL     1     -32.884  18.186  -0.386  1.00 20.00    -0.093 C 
HETATM    5  C1  UNL     1     -31.611  18.510  -0.665  1.00 20.00     0.014 C 
HETATM    6  C3  UNL     1     -33.585  18.744   0.819  1.00 20.00     0.042 C 
ENDBRANCH   3   4
ENDBRANCH   2   3
BRANCH   2   7
HETATM    7  C8  UNL     1     -34.032  18.376  -3.616  1.00 20.00     0.057 C 
HETATM    8  C5  UNL     1     -34.333  17.937  -5.044  1.00 20.00     0.022 C 
HETATM    9 BR9  UNL     1     -35.719  18.913  -2.774  1.00 20.00    -0.091 Br
ENDBRANCH   2   7
TORSDOF 3
ENDMDL
MODEL 8
REMARK VINA RESULT:      -3.6      2.111      4.112
REMARK  3 active torsions:
REMARK  status: ('A' for Active; 'I' for Inactive)
REMARK    1  A    between atoms: C2_2  and  C6_6 
REMARK    2  A    between atoms: C6_6  and  C7_7 
REMARK    3  A    between atoms: C7_7  and  C8_8 
ROOT
HETATM    1  C4  UNL     1     -34.410   6.910   7.039  1.00 20.00     0.011 C 
HETATM    2  C7  UNL     1     -33.995   6.626   5.586  1.00 20.00    -0.001 C 
ENDROOT
BRANCH   2   3
HETATM    3  C6  UNL     1     -33.997   7.914   4.726  1.00 20.00     0.038 C 
BRANCH   3   4
HETATM    4  C2  UNL     1     -32.635   8.330   4.210  1.00 20.00    -0.093 C 
HETATM    5  C1  UNL     1     -31.905   9.268   4.835  1.00 20.00     0.014 C 
HETATM    6  C3  UNL     1     -32.115   7.618   2.995  1.00 20.00     0.042 C 
ENDBRANCH   3   4
ENDBRANCH   2   3
BRANCH   2   7
HETATM    7  C8  UNL     1     -34.824   5.471   4.975  1.00 20.00     0.057 C 
HETATM    8  C5  UNL     1     -36.005   5.937   4.133  1.00 20.00     0.022 C 
HETATM    9 BR9  UNL     1     -33.733   4.264   3.881  1.00 20.00    -0.091 Br
ENDBRANCH   2   7
TORSDOF 3
ENDMDL
MODEL 9
REMARK VINA RESULT:      -3.5     12.146     13.091
REMARK  3 active torsions:
REMARK  status: ('A' for Active; 'I' for Inactive)
REMARK    1  A    between atoms: C2_2  and  C6_6 
REMARK    2  A    between atoms: C6_6  and  C7_7 
REMARK    3  A    between atoms: C7_7  and  C8_8 
ROOT
HETATM    1  C4  UNL     1     -33.295  18.708  -4.025  1.00 20.00     0.011 C 
HETATM    2  C7  UNL     1     -33.901  17.411  -3.466  1.00 20.00    -0.001 C 
ENDROOT
BRANCH   2   3
HETATM    3  C6  UNL     1     -33.127  16.905  -2.223  1.00 20.00     0.038 C 
BRANCH   3   4
HETATM    4  C2  UNL     1     -33.046  17.898  -1.082  1.00 20.00    -0.093 C 
HETATM    5  C1  UNL     1     -34.141  18.277  -0.404  1.00 20.00     0.014 C 
HETATM    6  C3  UNL     1     -31.684  18.408  -0.713  1.00 20.00     0.042 C 
ENDBRANCH   3   4
ENDBRANCH   2   3
BRANCH   2   7
HETATM    7  C8  UNL     1     -34.069  16.341  -4.571  1.00 20.00     0.057 C 
HETATM    8  C5  UNL     1     -33.850  14.913  -4.086  1.00 20.00     0.022 C 
HETATM    9 BR9  UNL     1     -35.825  16.429  -5.439  1.00 20.00    -0.091 Br
ENDBRANCH   2   7
TORSDOF 3
ENDMDL
