MODEL 1
REMARK VINA RESULT:      -4.5      0.000      0.000
REMARK  4 active torsions:
REMARK  status: ('A' for Active; 'I' for Inactive)
REMARK    1  A    between atoms: C3_3  and  C9_9 
REMARK    2  A    between atoms: C6_6  and  C8_8 
REMARK    3  A    between atoms: C7_7  and  C9_9 
REMARK    4  A    between atoms: C8_8  and  C9_9 
ROOT
HETATM    1  C1  UNL     1     -32.565   8.842   0.856  1.00 20.00     0.012 C 
HETATM    2  C2  UNL     1     -32.625   8.876   2.054  1.00 20.00    -0.117 C 
HETATM    3  C6  UNL     1     -32.698   8.921   3.522  1.00 20.00     0.093 C 
ENDROOT
BRANCH   3   4
HETATM    4  C8  UNL     1     -32.524   7.522   4.125  1.00 20.00     0.024 C 
BRANCH   4   5
HETATM    5  C9  UNL     1     -33.871   6.821   4.374  1.00 20.00     0.055 C 
BRANCH   5   6
HETATM    6  C3  UNL     1     -34.175   6.679   5.867  1.00 20.00     0.127 C 
HETATM    7  C4  UNL     1     -34.539   5.301   6.361  1.00 20.00     0.091 C 
HETATM    8  O10 UNL     1     -34.105   7.627   6.648  1.00 20.00    -0.298 OA
ENDBRANCH   5   6
BRANCH   5   9
HETATM    9  C7  UNL     1     -33.956   5.448   3.683  1.00 20.00     0.007 C 
HETATM   10  C5  UNL     1     -32.888   5.195   2.626  1.00 20.00     0.006 C 
ENDBRANCH   5   9
ENDBRANCH   4   5
ENDBRANCH   3   4
TORSDOF 4
ENDMDL
MODEL 2
REMARK VINA RESULT:      -4.0      1.540      2.275
REMARK  4 active torsions:
REMARK  status: ('A' for Active; 'I' for Inactive)
REMARK    1  A    between atoms: C3_3  and  C9_9 
REMARK    2  A    between atoms: C6_6  and  C8_8 
REMARK    3  A    between atoms: C7_7  and  C9_9 
REMARK    4  A    between atoms: C8_8  and  C9_9 
ROOT
HETATM    1  C1  UNL     1     -32.595   8.918   0.565  1.00 20.00     0.012 C 
HETATM    2  C2  UNL     1     -32.299   8.133   1.423  1.00 20.00    -0.117 C 
HETATM    3  C6  UNL     1     -31.934   7.170   2.473  1.00 20.00     0.093 C 
ENDROOT
BRANCH   3   4
HETATM    4  C8  UNL     1     -33.170   6.430   2.996  1.00 20.00     0.024 C 
BRANCH   4   5
HETATM    5  C9  UNL     1     -33.453   6.739   4.477  1.00 20.00     0.055 C 
BRANCH   5   6
HETATM    6  C3  UNL     1     -34.651   5.949   5.007  1.00 20.00     0.127 C 
HETATM    7  C4  UNL     1     -34.535   5.391   6.404  1.00 20.00     0.091 C 
HETATM    8  O10 UNL     1     -35.679   5.788   4.351  1.00 20.00    -0.298 OA
ENDBRANCH   5   6
BRANCH   5   9
HETATM    9  C7  UNL     1     -33.654   8.243   4.735  1.00 20.00     0.007 C 
HETATM   10  C5  UNL     1     -32.399   8.994   5.163  1.00 20.00     0.006 C 
ENDBRANCH   5   9
ENDBRANCH   4   5
ENDBRANCH   3   4
TORSDOF 4
ENDMDL
MODEL 3
REMARK VINA RESULT:      -4.0      1.871      4.318
REMARK  4 active torsions:
REMARK  status: ('A' for Active; 'I' for Inactive)
REMARK    1  A    between atoms: C3_3  and  C9_9 
REMARK    2  A    between atoms: C6_6  and  C8_8 
REMARK    3  A    between atoms: C7_7  and  C9_9 
REMARK    4  A    between atoms: C8_8  and  C9_9 
ROOT
HETATM    1  C1  UNL     1     -34.726   5.579   6.477  1.00 20.00     0.012 C 
HETATM    2  C2  UNL     1     -34.105   6.523   6.073  1.00 20.00    -0.117 C 
HETATM    3  C6  UNL     1     -33.344   7.681   5.582  1.00 20.00     0.093 C 
ENDROOT
BRANCH   3   4
HETATM    4  C8  UNL     1     -33.682   7.980   4.117  1.00 20.00     0.024 C 
BRANCH   4   5
HETATM    5  C9  UNL     1     -32.435   7.966   3.214  1.00 20.00     0.055 C 
BRANCH   5   6
HETATM    6  C3  UNL     1     -32.584   8.907   2.017  1.00 20.00     0.127 C 
HETATM    7  C4  UNL     1     -32.123   8.387   0.679  1.00 20.00     0.091 C 
HETATM    8  O10 UNL     1     -33.078  10.030   2.118  1.00 20.00    -0.298 OA
ENDBRANCH   5   6
BRANCH   5   9
HETATM    9  C7  UNL     1     -32.075   6.549   2.732  1.00 20.00     0.007 C 
HETATM   10  C5  UNL     1     -33.223   5.547   2.769  1.00 20.00     0.006 C 
ENDBRANCH   5   9
ENDBRANCH   4   5
ENDBRANCH   3   4
TORSDOF 4
ENDMDL
MODEL 4
REMARK VINA RESULT:      -3.9      2.024      4.538
REMARK  4 active torsions:
REMARK  status: ('A' for Active; 'I' for Inactive)
REMARK    1  A    between atoms: C3_3  and  C9_9 
REMARK    2  A    between atoms: C6_6  and  C8_8 
REMARK    3  A    between atoms: C7_7  and  C9_9 
REMARK    4  A    between atoms: C8_8  and  C9_9 
ROOT
HETATM    1  C1  UNL     1     -34.771   5.318   5.016  1.00 20.00     0.012 C 
HETATM    2  C2  UNL     1     -34.106   5.338   4.017  1.00 20.00    -0.117 C 
HETATM    3  C6  UNL     1     -33.292   5.359   2.793  1.00 20.00     0.093 C 
ENDROOT
BRANCH   3   4
HETATM    4  C8  UNL     1     -32.225   6.457   2.859  1.00 20.00     0.024 C 
BRANCH   4   5
HETATM    5  C9  UNL     1     -32.835   7.854   3.071  1.00 20.00     0.055 C 
BRANCH   5   6
HETATM    6  C3  UNL     1     -32.612   8.765   1.862  1.00 20.00     0.127 C 
HETATM    7  C4  UNL     1     -31.918   8.156   0.669  1.00 20.00     0.091 C 
HETATM    8  O10 UNL     1     -32.997   9.933   1.836  1.00 20.00    -0.298 OA
ENDBRANCH   5   6
BRANCH   5   9
HETATM    9  C7  UNL     1     -32.318   8.535   4.351  1.00 20.00     0.007 C 
HETATM   10  C5  UNL     1     -33.320   8.588   5.498  1.00 20.00     0.006 C 
ENDBRANCH   5   9
ENDBRANCH   4   5
ENDBRANCH   3   4
TORSDOF 4
ENDMDL
MODEL 5
REMARK VINA RESULT:      -3.9      1.422      2.607
REMARK  4 active torsions:
REMARK  status: ('A' for Active; 'I' for Inactive)
REMARK    1  A    between atoms: C3_3  and  C9_9 
REMARK    2  A    between atoms: C6_6  and  C8_8 
REMARK    3  A    between atoms: C7_7  and  C9_9 
REMARK    4  A    between atoms: C8_8  and  C9_9 
ROOT
HETATM    1  C1  UNL     1     -32.826   9.440   0.309  1.00 20.00     0.012 C 
HETATM    2  C2  UNL     1     -32.800   9.281   1.498  1.00 20.00    -0.117 C 
HETATM    3  C6  UNL     1     -32.768   9.091   2.956  1.00 20.00     0.093 C 
ENDROOT
BRANCH   3   4
HETATM    4  C8  UNL     1     -32.063   7.780   3.324  1.00 20.00     0.024 C 
BRANCH   4   5
HETATM    5  C9  UNL     1     -32.868   6.950   4.341  1.00 20.00     0.055 C 
BRANCH   5   6
HETATM    6  C3  UNL     1     -33.622   5.799   3.670  1.00 20.00     0.127 C 
HETATM    7  C4  UNL     1     -32.927   5.104   2.526  1.00 20.00     0.091 C 
HETATM    8  O10 UNL     1     -34.731   5.427   4.050  1.00 20.00    -0.298 OA
ENDBRANCH   5   6
BRANCH   5   9
HETATM    9  C7  UNL     1     -33.840   7.811   5.166  1.00 20.00     0.007 C 
HETATM   10  C5  UNL     1     -34.141   7.279   6.562  1.00 20.00     0.006 C 
ENDBRANCH   5   9
ENDBRANCH   4   5
ENDBRANCH   3   4
TORSDOF 4
ENDMDL
MODEL 6
REMARK VINA RESULT:      -3.9      9.429     10.203
REMARK  4 active torsions:
REMARK  status: ('A' for Active; 'I' for Inactive)
REMARK    1  A    between atoms: C3_3  and  C9_9 
REMARK    2  A    between atoms: C6_6  and  C8_8 
REMARK    3  A    between atoms: C7_7  and  C9_9 
REMARK    4  A    between atoms: C8_8  and  C9_9 
ROOT
HETATM    1  C1  UNL     1     -38.965  11.727   3.394  1.00 20.00     0.012 C 
HETATM    2  C2  UNL     1     -39.198  11.740   4.571  1.00 20.00    -0.117 C 
HETATM    3  C6  UNL     1     -39.482  11.754   6.014  1.00 20.00     0.093 C 
ENDROOT
BRANCH   3   4
HETATM    4  C8  UNL     1     -40.869  12.341   6.297  1.00 20.00     0.024 C 
BRANCH   4   5
HETATM    5  C9  UNL     1     -40.861  13.880   6.307  1.00 20.00     0.055 C 
BRANCH   5   6
HETATM    6  C3  UNL     1     -40.590  14.442   7.704  1.00 20.00     0.127 C 
HETATM    7  C4  UNL     1     -40.502  15.943   7.830  1.00 20.00     0.091 C 
HETATM    8  O10 UNL     1     -40.472  13.721   8.694  1.00 20.00    -0.298 OA
ENDBRANCH   5   6
BRANCH   5   9
HETATM    9  C7  UNL     1     -42.160  14.479   5.738  1.00 20.00     0.007 C 
HETATM   10  C5  UNL     1     -42.248  14.491   4.217  1.00 20.00     0.006 C 
ENDBRANCH   5   9
ENDBRANCH   4   5
ENDBRANCH   3   4
TORSDOF 4
ENDMDL
MODEL 7
REMARK VINA RESULT:      -3.7     12.006     13.427
REMARK  4 active torsions:
REMARK  status: ('A' for Active; 'I' for Inactive)
REMARK    1  A    between atoms: C3_3  and  C9_9 
REMARK    2  A    between atoms: C6_6  and  C8_8 
REMARK    3  A    between atoms: C7_7  and  C9_9 
REMARK    4  A    between atoms: C8_8  and  C9_9 
ROOT
HETATM    1  C1  UNL     1     -33.357  17.394  -1.520  1.00 20.00     0.012 C 
HETATM    2  C2  UNL     1     -33.429  16.653  -2.461  1.00 20.00    -0.117 C 
HETATM    3  C6  UNL     1     -33.513  15.742  -3.612  1.00 20.00     0.093 C 
ENDROOT
BRANCH   3   4
HETATM    4  C8  UNL     1     -34.153  16.439  -4.819  1.00 20.00     0.024 C 
BRANCH   4   5
HETATM    5  C9  UNL     1     -35.422  15.715  -5.306  1.00 20.00     0.055 C 
BRANCH   5   6
HETATM    6  C3  UNL     1     -35.231  15.097  -6.692  1.00 20.00     0.127 C 
HETATM    7  C4  UNL     1     -34.005  15.518  -7.464  1.00 20.00     0.091 C 
HETATM    8  O10 UNL     1     -36.016  14.273  -7.161  1.00 20.00    -0.298 OA
ENDBRANCH   5   6
BRANCH   5   9
HETATM    9  C7  UNL     1     -36.660  16.630  -5.299  1.00 20.00     0.007 C 
HETATM   10  C5  UNL     1     -36.449  17.990  -4.645  1.00 20.00     0.006 C 
ENDBRANCH   5   9
ENDBRANCH   4   5
ENDBRANCH   3   4
TORSDOF 4
ENDMDL
MODEL 8
REMARK VINA RESULT:      -3.7      9.715     10.637
REMARK  4 active torsions:
REMARK  status: ('A' for Active; 'I' for Inactive)
REMARK    1  A    between atoms: C3_3  and  C9_9 
REMARK    2  A    between atoms: C6_6  and  C8_8 
REMARK    3  A    between atoms: C7_7  and  C9_9 
REMARK    4  A    between atoms: C8_8  and  C9_9 
ROOT
HETATM    1  C1  UNL     1     -38.886  11.617   3.706  1.00 20.00     0.012 C 
HETATM    2  C2  UNL     1     -39.246  11.849   4.827  1.00 20.00    -0.117 C 
HETATM    3  C6  UNL     1     -39.684  12.132   6.202  1.00 20.00     0.093 C 
ENDROOT
BRANCH   3   4
HETATM    4  C8  UNL     1     -41.201  12.346   6.263  1.00 20.00     0.024 C 
BRANCH   4   5
HETATM    5  C9  UNL     1     -41.574  13.823   6.483  1.00 20.00     0.055 C 
BRANCH   5   6
HETATM    6  C3  UNL     1     -42.047  14.491   5.191  1.00 20.00     0.127 C 
HETATM    7  C4  UNL     1     -42.769  15.809   5.330  1.00 20.00     0.091 C 
HETATM    8  O10 UNL     1     -41.834  14.006   4.080  1.00 20.00    -0.298 OA
ENDBRANCH   5   6
BRANCH   5   9
HETATM    9  C7  UNL     1     -40.426  14.633   7.110  1.00 20.00     0.007 C 
HETATM   10  C5  UNL     1     -40.488  14.766   8.627  1.00 20.00     0.006 C 
ENDBRANCH   5   9
ENDBRANCH   4   5
ENDBRANCH   3   4
TORSDOF 4
ENDMDL
MODEL 9
REMARK VINA RESULT:      -3.7     11.741     12.764
REMARK  4 active torsions:
REMARK  status: ('A' for Active; 'I' for Inactive)
REMARK    1  A    between atoms: C3_3  and  C9_9 
REMARK    2  A    between atoms: C6_6  and  C8_8 
REMARK    3  A    between atoms: C7_7  and  C9_9 
REMARK    4  A    between atoms: C8_8  and  C9_9 
ROOT
HETATM    1  C1  UNL     1     -31.590  18.582  -0.544  1.00 20.00     0.012 C 
HETATM    2  C2  UNL     1     -32.482  17.975  -1.070  1.00 20.00    -0.117 C 
HETATM    3  C6  UNL     1     -33.577  17.232  -1.711  1.00 20.00     0.093 C 
ENDROOT
BRANCH   3   4
HETATM    4  C8  UNL     1     -33.078  16.472  -2.946  1.00 20.00     0.024 C 
BRANCH   4   5
HETATM    5  C9  UNL     1     -34.184  16.274  -3.998  1.00 20.00     0.055 C 
BRANCH   5   6
HETATM    6  C3  UNL     1     -33.984  14.988  -4.803  1.00 20.00     0.127 C 
HETATM    7  C4  UNL     1     -34.072  15.104  -6.304  1.00 20.00     0.091 C 
HETATM    8  O10 UNL     1     -33.737  13.907  -4.269  1.00 20.00    -0.298 OA
ENDBRANCH   5   6
BRANCH   5   9
HETATM    9  C7  UNL     1     -34.315  17.479  -4.947  1.00 20.00     0.007 C 
HETATM   10  C5  UNL     1     -35.568  18.322  -4.744  1.00 20.00     0.006 C 
ENDBRANCH   5   9
ENDBRANCH   4   5
ENDBRANCH   3   4
TORSDOF 4
ENDMDL
