MODEL 1
REMARK VINA RESULT:      -4.7      0.000      0.000
REMARK  4 active torsions:
REMARK  status: ('A' for Active; 'I' for Inactive)
REMARK    1  A    between atoms: C4_4  and  C8_8 
REMARK    2  A    between atoms: C8_8  and  C11_11 
REMARK    3  A    between atoms: C9_9  and  C10_10 
REMARK    4  A    between atoms: C10_10  and  C11_11 
ROOT
HETATM    1  C1  UNL     1     -34.787   4.976   6.351  1.00 20.00     0.002 C 
HETATM    2  C2  UNL     1     -34.500   6.479   6.297  1.00 20.00     0.006 C 
HETATM    3  C3  UNL     1     -34.285   4.395   5.029  1.00 20.00     0.020 C 
HETATM    4  C4  UNL     1     -33.662   6.695   5.033  1.00 20.00     0.004 C 
HETATM    5  C5  UNL     1     -34.184   5.600   4.103  1.00 20.00     0.086 C 
HETATM    6 CL12 UNL     1     -33.111   5.290   2.728  1.00 20.00    -0.125 Cl
ENDROOT
BRANCH   4   7
HETATM    7  C8  UNL     1     -33.797   8.103   4.472  1.00 20.00     0.010 C 
BRANCH   7   8
HETATM    8  C11 UNL     1     -32.489   8.660   3.879  1.00 20.00    -0.018 C 
HETATM    9  C7  UNL     1     -31.817   9.590   4.896  1.00 20.00     0.010 C 
BRANCH   8  10
HETATM   10  C10 UNL     1     -32.650   9.350   2.508  1.00 20.00     0.004 C 
BRANCH  10  11
HETATM   11  C9  UNL     1     -32.239   8.504   1.301  1.00 20.00    -0.004 C 
HETATM   12  C6  UNL     1     -32.804   9.075   0.009  1.00 20.00     0.005 C 
ENDBRANCH  10  11
ENDBRANCH   8  10
ENDBRANCH   7   8
ENDBRANCH   4   7
TORSDOF 4
ENDMDL
MODEL 2
REMARK VINA RESULT:      -4.3     11.480     12.460
REMARK  4 active torsions:
REMARK  status: ('A' for Active; 'I' for Inactive)
REMARK    1  A    between atoms: C4_4  and  C8_8 
REMARK    2  A    between atoms: C8_8  and  C11_11 
REMARK    3  A    between atoms: C9_9  and  C10_10 
REMARK    4  A    between atoms: C10_10  and  C11_11 
ROOT
HETATM    1  C1  UNL     1     -30.903  18.690   0.906  1.00 20.00     0.002 C 
HETATM    2  C2  UNL     1     -31.385  18.436  -0.526  1.00 20.00     0.006 C 
HETATM    3  C3  UNL     1     -32.159  18.908   1.749  1.00 20.00     0.020 C 
HETATM    4  C4  UNL     1     -32.909  18.315  -0.433  1.00 20.00     0.004 C 
HETATM    5  C5  UNL     1     -33.241  19.246   0.732  1.00 20.00     0.086 C 
HETATM    6 CL12 UNL     1     -34.868  18.984   1.385  1.00 20.00    -0.125 Cl
ENDROOT
BRANCH   4   7
HETATM    7  C8  UNL     1     -33.607  18.677  -1.736  1.00 20.00     0.010 C 
BRANCH   7   8
HETATM    8  C11 UNL     1     -33.163  17.819  -2.934  1.00 20.00    -0.018 C 
HETATM    9  C7  UNL     1     -33.797  18.361  -4.221  1.00 20.00     0.010 C 
BRANCH   8  10
HETATM   10  C10 UNL     1     -33.427  16.307  -2.772  1.00 20.00     0.004 C 
BRANCH  10  11
HETATM   11  C9  UNL     1     -33.035  15.444  -3.974  1.00 20.00    -0.004 C 
HETATM   12  C6  UNL     1     -34.154  14.486  -4.354  1.00 20.00     0.005 C 
ENDBRANCH  10  11
ENDBRANCH   8  10
ENDBRANCH   7   8
ENDBRANCH   4   7
TORSDOF 4
ENDMDL
MODEL 3
REMARK VINA RESULT:      -4.2     11.743     12.735
REMARK  4 active torsions:
REMARK  status: ('A' for Active; 'I' for Inactive)
REMARK    1  A    between atoms: C4_4  and  C8_8 
REMARK    2  A    between atoms: C8_8  and  C11_11 
REMARK    3  A    between atoms: C9_9  and  C10_10 
REMARK    4  A    between atoms: C10_10  and  C11_11 
ROOT
HETATM    1  C1  UNL     1     -33.884  15.003  -4.194  1.00 20.00     0.002 C 
HETATM    2  C2  UNL     1     -33.140  15.917  -3.216  1.00 20.00     0.006 C 
HETATM    3  C3  UNL     1     -34.644  15.923  -5.150  1.00 20.00     0.020 C 
HETATM    4  C4  UNL     1     -33.329  17.339  -3.755  1.00 20.00     0.004 C 
HETATM    5  C5  UNL     1     -34.704  17.258  -4.418  1.00 20.00     0.086 C 
HETATM    6 CL12 UNL     1     -35.018  18.605  -5.526  1.00 20.00    -0.125 Cl
ENDROOT
BRANCH   4   7
HETATM    7  C8  UNL     1     -33.226  18.398  -2.667  1.00 20.00     0.010 C 
BRANCH   7   8
HETATM    8  C11 UNL     1     -32.836  17.833  -1.289  1.00 20.00    -0.018 C 
HETATM    9  C7  UNL     1     -34.011  17.987  -0.316  1.00 20.00     0.010 C 
BRANCH   8  10
HETATM   10  C10 UNL     1     -31.537  18.422  -0.700  1.00 20.00     0.004 C 
BRANCH  10  11
HETATM   11  C9  UNL     1     -31.668  19.010   0.707  1.00 20.00    -0.004 C 
HETATM   12  C6  UNL     1     -30.796  18.259   1.702  1.00 20.00     0.005 C 
ENDBRANCH  10  11
ENDBRANCH   8  10
ENDBRANCH   7   8
ENDBRANCH   4   7
TORSDOF 4
ENDMDL
MODEL 4
REMARK VINA RESULT:      -3.9     11.196     12.458
REMARK  4 active torsions:
REMARK  status: ('A' for Active; 'I' for Inactive)
REMARK    1  A    between atoms: C4_4  and  C8_8 
REMARK    2  A    between atoms: C8_8  and  C11_11 
REMARK    3  A    between atoms: C9_9  and  C10_10 
REMARK    4  A    between atoms: C10_10  and  C11_11 
ROOT
HETATM    1  C1  UNL     1     -35.847  13.766  -4.785  1.00 20.00     0.002 C 
HETATM    2  C2  UNL     1     -34.579  14.056  -3.975  1.00 20.00     0.006 C 
HETATM    3  C3  UNL     1     -35.892  14.809  -5.901  1.00 20.00     0.020 C 
HETATM    4  C4  UNL     1     -33.824  15.131  -4.762  1.00 20.00     0.004 C 
HETATM    5  C5  UNL     1     -34.959  15.914  -5.421  1.00 20.00     0.086 C 
HETATM    6 CL12 UNL     1     -34.409  16.941  -6.756  1.00 20.00    -0.125 Cl
ENDROOT
BRANCH   4   7
HETATM    7  C8  UNL     1     -32.917  15.977  -3.880  1.00 20.00     0.010 C 
BRANCH   7   8
HETATM    8  C11 UNL     1     -33.654  17.112  -3.145  1.00 20.00    -0.018 C 
HETATM    9  C7  UNL     1     -33.123  18.468  -3.626  1.00 20.00     0.010 C 
BRANCH   8  10
HETATM   10  C10 UNL     1     -33.617  17.008  -1.606  1.00 20.00     0.004 C 
BRANCH  10  11
HETATM   11  C9  UNL     1     -34.069  18.264  -0.857  1.00 20.00    -0.004 C 
HETATM   12  C6  UNL     1     -33.410  18.356   0.511  1.00 20.00     0.005 C 
ENDBRANCH  10  11
ENDBRANCH   8  10
ENDBRANCH   7   8
ENDBRANCH   4   7
TORSDOF 4
ENDMDL
MODEL 5
REMARK VINA RESULT:      -3.9     10.287     11.268
REMARK  4 active torsions:
REMARK  status: ('A' for Active; 'I' for Inactive)
REMARK    1  A    between atoms: C4_4  and  C8_8 
REMARK    2  A    between atoms: C8_8  and  C11_11 
REMARK    3  A    between atoms: C9_9  and  C10_10 
REMARK    4  A    between atoms: C10_10  and  C11_11 
ROOT
HETATM    1  C1  UNL     1     -40.346  14.937  10.607  1.00 20.00     0.002 C 
HETATM    2  C2  UNL     1     -40.199  15.233   9.111  1.00 20.00     0.006 C 
HETATM    3  C3  UNL     1     -41.514  13.960  10.739  1.00 20.00     0.020 C 
HETATM    4  C4  UNL     1     -41.154  14.266   8.404  1.00 20.00     0.004 C 
HETATM    5  C5  UNL     1     -42.276  14.106   9.429  1.00 20.00     0.086 C 
HETATM    6 CL12 UNL     1     -43.313  12.705   9.107  1.00 20.00    -0.125 Cl
ENDROOT
BRANCH   4   7
HETATM    7  C8  UNL     1     -41.618  14.785   7.051  1.00 20.00     0.010 C 
BRANCH   7   8
HETATM    8  C11 UNL     1     -41.129  13.937   5.863  1.00 20.00    -0.018 C 
HETATM    9  C7  UNL     1     -42.059  14.144   4.662  1.00 20.00     0.010 C 
BRANCH   8  10
HETATM   10  C10 UNL     1     -40.945  12.437   6.178  1.00 20.00     0.004 C 
BRANCH  10  11
HETATM   11  C9  UNL     1     -39.527  11.897   5.974  1.00 20.00    -0.004 C 
HETATM   12  C6  UNL     1     -39.221  11.699   4.497  1.00 20.00     0.005 C 
ENDBRANCH  10  11
ENDBRANCH   8  10
ENDBRANCH   7   8
ENDBRANCH   4   7
TORSDOF 4
ENDMDL
MODEL 6
REMARK VINA RESULT:      -3.9     10.523     11.620
REMARK  4 active torsions:
REMARK  status: ('A' for Active; 'I' for Inactive)
REMARK    1  A    between atoms: C4_4  and  C8_8 
REMARK    2  A    between atoms: C8_8  and  C11_11 
REMARK    3  A    between atoms: C9_9  and  C10_10 
REMARK    4  A    between atoms: C10_10  and  C11_11 
ROOT
HETATM    1  C1  UNL     1     -41.202  17.304   8.439  1.00 20.00     0.002 C 
HETATM    2  C2  UNL     1     -40.673  16.194   7.525  1.00 20.00     0.006 C 
HETATM    3  C3  UNL     1     -41.252  16.714   9.848  1.00 20.00     0.020 C 
HETATM    4  C4  UNL     1     -40.244  15.060   8.461  1.00 20.00     0.004 C 
HETATM    5  C5  UNL     1     -41.222  15.207   9.626  1.00 20.00     0.086 C 
HETATM    6 CL12 UNL     1     -40.704  14.335  11.079  1.00 20.00    -0.125 Cl
ENDROOT
BRANCH   4   7
HETATM    7  C8  UNL     1     -40.283  13.696   7.787  1.00 20.00     0.010 C 
BRANCH   7   8
HETATM    8  C11 UNL     1     -41.317  13.597   6.651  1.00 20.00    -0.018 C 
HETATM    9  C7  UNL     1     -42.509  12.747   7.109  1.00 20.00     0.010 C 
BRANCH   8  10
HETATM   10  C10 UNL     1     -40.749  13.090   5.308  1.00 20.00     0.004 C 
BRANCH  10  11
HETATM   11  C9  UNL     1     -39.741  11.944   5.419  1.00 20.00    -0.004 C 
HETATM   12  C6  UNL     1     -39.075  11.664   4.080  1.00 20.00     0.005 C 
ENDBRANCH  10  11
ENDBRANCH   8  10
ENDBRANCH   7   8
ENDBRANCH   4   7
TORSDOF 4
ENDMDL
MODEL 7
REMARK VINA RESULT:      -3.8      1.660      2.022
REMARK  4 active torsions:
REMARK  status: ('A' for Active; 'I' for Inactive)
REMARK    1  A    between atoms: C4_4  and  C8_8 
REMARK    2  A    between atoms: C8_8  and  C11_11 
REMARK    3  A    between atoms: C9_9  and  C10_10 
REMARK    4  A    between atoms: C10_10  and  C11_11 
ROOT
HETATM    1  C1  UNL     1     -34.257   4.402   4.852  1.00 20.00     0.002 C 
HETATM    2  C2  UNL     1     -34.276   5.583   3.877  1.00 20.00     0.006 C 
HETATM    3  C3  UNL     1     -34.349   5.001   6.255  1.00 20.00     0.020 C 
HETATM    4  C4  UNL     1     -34.580   6.818   4.731  1.00 20.00     0.004 C 
HETATM    5  C5  UNL     1     -33.939   6.456   6.070  1.00 20.00     0.086 C 
HETATM    6 CL12 UNL     1     -34.501   7.477   7.405  1.00 20.00    -0.125 Cl
ENDROOT
BRANCH   4   7
HETATM    7  C8  UNL     1     -34.048   8.104   4.115  1.00 20.00     0.010 C 
BRANCH   7   8
HETATM    8  C11 UNL     1     -32.524   8.100   3.898  1.00 20.00    -0.018 C 
HETATM    9  C7  UNL     1     -31.874   9.173   4.780  1.00 20.00     0.010 C 
BRANCH   8  10
HETATM   10  C10 UNL     1     -32.087   8.243   2.425  1.00 20.00     0.004 C 
BRANCH  10  11
HETATM   11  C9  UNL     1     -32.808   9.337   1.634  1.00 20.00    -0.004 C 
HETATM   12  C6  UNL     1     -32.732   9.076   0.137  1.00 20.00     0.005 C 
ENDBRANCH  10  11
ENDBRANCH   8  10
ENDBRANCH   7   8
ENDBRANCH   4   7
TORSDOF 4
ENDMDL
MODEL 8
REMARK VINA RESULT:      -3.8     10.436     11.447
REMARK  4 active torsions:
REMARK  status: ('A' for Active; 'I' for Inactive)
REMARK    1  A    between atoms: C4_4  and  C8_8 
REMARK    2  A    between atoms: C8_8  and  C11_11 
REMARK    3  A    between atoms: C9_9  and  C10_10 
REMARK    4  A    between atoms: C10_10  and  C11_11 
ROOT
HETATM    1  C1  UNL     1     -40.378  15.550   9.636  1.00 20.00     0.002 C 
HETATM    2  C2  UNL     1     -41.092  14.311   9.088  1.00 20.00     0.006 C 
HETATM    3  C3  UNL     1     -40.739  16.704   8.700  1.00 20.00     0.020 C 
HETATM    4  C4  UNL     1     -42.004  14.822   7.968  1.00 20.00     0.004 C 
HETATM    5  C5  UNL     1     -41.222  16.019   7.428  1.00 20.00     0.086 C 
HETATM    6 CL12 UNL     1     -42.210  17.099   6.430  1.00 20.00    -0.125 Cl
ENDROOT
BRANCH   4   7
HETATM    7  C8  UNL     1     -42.307  13.757   6.925  1.00 20.00     0.010 C 
BRANCH   7   8
HETATM    8  C11 UNL     1     -41.190  13.580   5.880  1.00 20.00    -0.018 C 
HETATM    9  C7  UNL     1     -41.723  13.940   4.488  1.00 20.00     0.010 C 
BRANCH   8  10
HETATM   10  C10 UNL     1     -40.524  12.187   5.884  1.00 20.00     0.004 C 
BRANCH  10  11
HETATM   11  C9  UNL     1     -39.056  12.166   5.452  1.00 20.00    -0.004 C 
HETATM   12  C6  UNL     1     -38.906  11.623   4.038  1.00 20.00     0.005 C 
ENDBRANCH  10  11
ENDBRANCH   8  10
ENDBRANCH   7   8
ENDBRANCH   4   7
TORSDOF 4
ENDMDL
MODEL 9
REMARK VINA RESULT:      -3.8      1.063      4.576
REMARK  4 active torsions:
REMARK  status: ('A' for Active; 'I' for Inactive)
REMARK    1  A    between atoms: C4_4  and  C8_8 
REMARK    2  A    between atoms: C8_8  and  C11_11 
REMARK    3  A    between atoms: C9_9  and  C10_10 
REMARK    4  A    between atoms: C10_10  and  C11_11 
ROOT
HETATM    1  C1  UNL     1     -32.566   9.538   0.936  1.00 20.00     0.002 C 
HETATM    2  C2  UNL     1     -32.873   9.773   2.418  1.00 20.00     0.006 C 
HETATM    3  C3  UNL     1     -32.380   8.030   0.769  1.00 20.00     0.020 C 
HETATM    4  C4  UNL     1     -33.053   8.380   3.028  1.00 20.00     0.004 C 
HETATM    5  C5  UNL     1     -32.109   7.527   2.181  1.00 20.00     0.086 C 
HETATM    6 CL12 UNL     1     -32.421   5.789   2.335  1.00 20.00    -0.125 Cl
ENDROOT
BRANCH   4   7
HETATM    7  C8  UNL     1     -32.749   8.348   4.519  1.00 20.00     0.010 C 
BRANCH   7   8
HETATM    8  C11 UNL     1     -33.906   7.802   5.374  1.00 20.00    -0.018 C 
HETATM    9  C7  UNL     1     -33.360   7.272   6.705  1.00 20.00     0.010 C 
BRANCH   8  10
HETATM   10  C10 UNL     1     -34.784   6.748   4.668  1.00 20.00     0.004 C 
BRANCH  10  11
HETATM   11  C9  UNL     1     -34.910   5.409   5.399  1.00 20.00    -0.004 C 
HETATM   12  C6  UNL     1     -34.179   4.303   4.653  1.00 20.00     0.005 C 
ENDBRANCH  10  11
ENDBRANCH   8  10
ENDBRANCH   7   8
ENDBRANCH   4   7
TORSDOF 4
ENDMDL
