MODEL 1
REMARK VINA RESULT:      -4.5      0.000      0.000
REMARK  3 active torsions:
REMARK  status: ('A' for Active; 'I' for Inactive)
REMARK    1  A    between atoms: C4_4  and  C9_9 
REMARK    2  A    between atoms: C5_5  and  C10_10 
REMARK    3  A    between atoms: C9_9  and  C11_11 
ROOT
HETATM    1  C1  UNL     1     -34.979  18.603  -2.077  1.00 20.00     0.006 C 
HETATM    2  C2  UNL     1     -34.895  18.681  -3.599  1.00 20.00     0.021 C 
HETATM    3  C3  UNL     1     -33.424  16.617  -2.088  1.00 20.00     0.010 C 
HETATM    4  C4  UNL     1     -33.733  17.975  -1.442  1.00 20.00    -0.014 C 
HETATM    5  C5  UNL     1     -33.328  16.672  -3.624  1.00 20.00     0.004 C 
HETATM    6  C6  UNL     1     -34.596  17.314  -4.220  1.00 20.00     0.086 C 
HETATM    7 CL12 UNL     1     -34.454  17.514  -5.996  1.00 20.00    -0.125 Cl
ENDROOT
BRANCH   4   8
HETATM    8  C9  UNL     1     -32.528  18.918  -1.496  1.00 20.00     0.004 C 
BRANCH   8   9
HETATM    9  C11 UNL     1     -31.458  18.503  -0.494  1.00 20.00    -0.004 C 
HETATM   10  C8  UNL     1     -31.981  18.585   0.932  1.00 20.00     0.005 C 
ENDBRANCH   8   9
ENDBRANCH   4   8
BRANCH   5  11
HETATM   11  C10 UNL     1     -33.084  15.256  -4.163  1.00 20.00     0.001 C 
HETATM   12  C7  UNL     1     -34.325  14.431  -4.108  1.00 20.00     0.005 C 
ENDBRANCH   5  11
TORSDOF 3
ENDMDL
MODEL 2
REMARK VINA RESULT:      -4.3     11.058     12.298
REMARK  3 active torsions:
REMARK  status: ('A' for Active; 'I' for Inactive)
REMARK    1  A    between atoms: C4_4  and  C9_9 
REMARK    2  A    between atoms: C5_5  and  C10_10 
REMARK    3  A    between atoms: C9_9  and  C11_11 
ROOT
HETATM    1  C1  UNL     1     -32.226   8.880   4.827  1.00 20.00     0.006 C 
HETATM    2  C2  UNL     1     -33.418   8.301   5.585  1.00 20.00     0.021 C 
HETATM    3  C3  UNL     1     -32.399   7.025   3.126  1.00 20.00     0.010 C 
HETATM    4  C4  UNL     1     -32.246   8.538   3.332  1.00 20.00    -0.014 C 
HETATM    5  C5  UNL     1     -33.601   6.418   3.876  1.00 20.00     0.004 C 
HETATM    6  C6  UNL     1     -33.545   6.791   5.372  1.00 20.00     0.086 C 
HETATM    7 CL12 UNL     1     -35.001   6.212   6.243  1.00 20.00    -0.125 Cl
ENDROOT
BRANCH   4   8
HETATM    8  C9  UNL     1     -33.322   9.327   2.581  1.00 20.00     0.004 C 
BRANCH   8   9
HETATM    9  C11 UNL     1     -32.759   9.953   1.311  1.00 20.00    -0.004 C 
HETATM   10  C8  UNL     1     -32.689   8.937   0.182  1.00 20.00     0.005 C 
ENDBRANCH   8   9
ENDBRANCH   4   8
BRANCH   5  11
HETATM   11  C10 UNL     1     -33.617   4.900   3.654  1.00 20.00     0.001 C 
HETATM   12  C7  UNL     1     -32.839   4.519   2.441  1.00 20.00     0.005 C 
ENDBRANCH   5  11
TORSDOF 3
ENDMDL
MODEL 3
REMARK VINA RESULT:      -4.2     12.637     13.801
REMARK  3 active torsions:
REMARK  status: ('A' for Active; 'I' for Inactive)
REMARK    1  A    between atoms: C4_4  and  C9_9 
REMARK    2  A    between atoms: C5_5  and  C10_10 
REMARK    3  A    between atoms: C9_9  and  C11_11 
ROOT
HETATM    1  C1  UNL     1     -42.632  13.221   6.233  1.00 20.00     0.006 C 
HETATM    2  C2  UNL     1     -42.924  12.957   7.708  1.00 20.00     0.021 C 
HETATM    3  C3  UNL     1     -40.511  14.432   6.863  1.00 20.00     0.010 C 
HETATM    4  C4  UNL     1     -41.135  13.377   5.939  1.00 20.00    -0.014 C 
HETATM    5  C5  UNL     1     -40.786  14.184   8.358  1.00 20.00     0.004 C 
HETATM    6  C6  UNL     1     -42.300  14.027   8.607  1.00 20.00     0.086 C 
HETATM    7 CL12 UNL     1     -42.638  13.603  10.316  1.00 20.00    -0.125 Cl
ENDROOT
BRANCH   4   8
HETATM    8  C9  UNL     1     -40.395  12.040   6.021  1.00 20.00     0.004 C 
BRANCH   8   9
HETATM    9  C11 UNL     1     -38.993  12.150   5.435  1.00 20.00    -0.004 C 
HETATM   10  C8  UNL     1     -38.959  11.663   3.995  1.00 20.00     0.005 C 
ENDBRANCH   8   9
ENDBRANCH   4   8
BRANCH   5  11
HETATM   11  C10 UNL     1     -40.176  15.328   9.178  1.00 20.00     0.001 C 
HETATM   12  C7  UNL     1     -40.881  16.617   8.923  1.00 20.00     0.005 C 
ENDBRANCH   5  11
TORSDOF 3
ENDMDL
MODEL 4
REMARK VINA RESULT:      -3.9      1.579      3.120
REMARK  3 active torsions:
REMARK  status: ('A' for Active; 'I' for Inactive)
REMARK    1  A    between atoms: C4_4  and  C9_9 
REMARK    2  A    between atoms: C5_5  and  C10_10 
REMARK    3  A    between atoms: C9_9  and  C11_11 
ROOT
HETATM    1  C1  UNL     1     -32.763  15.508  -3.817  1.00 20.00     0.006 C 
HETATM    2  C2  UNL     1     -34.041  14.788  -4.237  1.00 20.00     0.021 C 
HETATM    3  C3  UNL     1     -33.881  17.735  -4.211  1.00 20.00     0.010 C 
HETATM    4  C4  UNL     1     -33.026  16.905  -3.243  1.00 20.00    -0.014 C 
HETATM    5  C5  UNL     1     -35.181  17.031  -4.645  1.00 20.00     0.004 C 
HETATM    6  C6  UNL     1     -34.871  15.630  -5.210  1.00 20.00     0.086 C 
HETATM    7 CL12 UNL     1     -36.376  14.735  -5.596  1.00 20.00    -0.125 Cl
ENDROOT
BRANCH   4   8
HETATM    8  C9  UNL     1     -33.649  16.840  -1.847  1.00 20.00     0.004 C 
BRANCH   8   9
HETATM    9  C11 UNL     1     -33.395  18.125  -1.069  1.00 20.00    -0.004 C 
HETATM   10  C8  UNL     1     -31.905  18.371  -0.887  1.00 20.00     0.005 C 
ENDBRANCH   8   9
ENDBRANCH   4   8
BRANCH   5  11
HETATM   11  C10 UNL     1     -35.918  17.917  -5.657  1.00 20.00     0.001 C 
HETATM   12  C7  UNL     1     -35.202  17.964  -6.964  1.00 20.00     0.005 C 
ENDBRANCH   5  11
TORSDOF 3
ENDMDL
MODEL 5
REMARK VINA RESULT:      -3.8     11.196     12.544
REMARK  3 active torsions:
REMARK  status: ('A' for Active; 'I' for Inactive)
REMARK    1  A    between atoms: C4_4  and  C9_9 
REMARK    2  A    between atoms: C5_5  and  C10_10 
REMARK    3  A    between atoms: C9_9  and  C11_11 
ROOT
HETATM    1  C1  UNL     1     -31.566   8.236   4.082  1.00 20.00     0.006 C 
HETATM    2  C2  UNL     1     -32.502   8.396   5.278  1.00 20.00     0.021 C 
HETATM    3  C3  UNL     1     -33.124   6.520   3.085  1.00 20.00     0.010 C 
HETATM    4  C4  UNL     1     -32.294   7.783   2.811  1.00 20.00    -0.014 C 
HETATM    5  C5  UNL     1     -34.082   6.660   4.284  1.00 20.00     0.004 C 
HETATM    6  C6  UNL     1     -33.311   7.122   5.537  1.00 20.00     0.086 C 
HETATM    7 CL12 UNL     1     -34.421   7.423   6.912  1.00 20.00    -0.125 Cl
ENDROOT
BRANCH   4   8
HETATM    8  C9  UNL     1     -33.146   8.904   2.210  1.00 20.00     0.004 C 
BRANCH   8   9
HETATM    9  C11 UNL     1     -32.512   9.456   0.939  1.00 20.00    -0.004 C 
HETATM   10  C8  UNL     1     -32.987   8.693  -0.287  1.00 20.00     0.005 C 
ENDBRANCH   8   9
ENDBRANCH   4   8
BRANCH   5  11
HETATM   11  C10 UNL     1     -34.806   5.326   4.506  1.00 20.00     0.001 C 
HETATM   12  C7  UNL     1     -33.856   4.177   4.473  1.00 20.00     0.005 C 
ENDBRANCH   5  11
TORSDOF 3
ENDMDL
MODEL 6
REMARK VINA RESULT:      -3.8     24.602     25.775
REMARK  3 active torsions:
REMARK  status: ('A' for Active; 'I' for Inactive)
REMARK    1  A    between atoms: C4_4  and  C9_9 
REMARK    2  A    between atoms: C5_5  and  C10_10 
REMARK    3  A    between atoms: C9_9  and  C11_11 
ROOT
HETATM    1  C1  UNL     1     -23.723  -2.795  12.168  1.00 20.00     0.006 C 
HETATM    2  C2  UNL     1     -24.460  -1.460  12.209  1.00 20.00     0.021 C 
HETATM    3  C3  UNL     1     -25.328  -3.634  10.411  1.00 20.00     0.010 C 
HETATM    4  C4  UNL     1     -23.852  -3.507  10.816  1.00 20.00    -0.014 C 
HETATM    5  C5  UNL     1     -26.092  -2.296  10.439  1.00 20.00     0.004 C 
HETATM    6  C6  UNL     1     -25.931  -1.613  11.812  1.00 20.00     0.086 C 
HETATM    7 CL12 UNL     1     -26.697   0.008  11.827  1.00 20.00    -0.125 Cl
ENDROOT
BRANCH   4   8
HETATM    8  C9  UNL     1     -23.020  -2.822   9.729  1.00 20.00     0.004 C 
BRANCH   8   9
HETATM    9  C11 UNL     1     -23.439  -3.288   8.340  1.00 20.00    -0.004 C 
HETATM   10  C8  UNL     1     -22.324  -4.069   7.663  1.00 20.00     0.005 C 
ENDBRANCH   8   9
ENDBRANCH   4   8
BRANCH   5  11
HETATM   11  C10 UNL     1     -27.563  -2.551  10.084  1.00 20.00     0.001 C 
HETATM   12  C7  UNL     1     -28.246  -3.355  11.138  1.00 20.00     0.005 C 
ENDBRANCH   5  11
TORSDOF 3
ENDMDL
MODEL 7
REMARK VINA RESULT:      -3.6     12.145     13.140
REMARK  3 active torsions:
REMARK  status: ('A' for Active; 'I' for Inactive)
REMARK    1  A    between atoms: C4_4  and  C9_9 
REMARK    2  A    between atoms: C5_5  and  C10_10 
REMARK    3  A    between atoms: C9_9  and  C11_11 
ROOT
HETATM    1  C1  UNL     1     -42.506  12.618   7.093  1.00 20.00     0.006 C 
HETATM    2  C2  UNL     1     -42.720  13.821   8.008  1.00 20.00     0.021 C 
HETATM    3  C3  UNL     1     -41.995  14.167   5.168  1.00 20.00     0.010 C 
HETATM    4  C4  UNL     1     -41.547  12.914   5.933  1.00 20.00    -0.014 C 
HETATM    5  C5  UNL     1     -42.211  15.397   6.070  1.00 20.00     0.004 C 
HETATM    6  C6  UNL     1     -43.175  15.054   7.224  1.00 20.00     0.086 C 
HETATM    7 CL12 UNL     1     -43.339  16.427   8.365  1.00 20.00    -0.125 Cl
ENDROOT
BRANCH   4   8
HETATM    8  C9  UNL     1     -40.096  13.025   6.407  1.00 20.00     0.004 C 
BRANCH   8   9
HETATM    9  C11 UNL     1     -39.273  11.827   5.951  1.00 20.00    -0.004 C 
HETATM   10  C8  UNL     1     -39.193  11.761   4.434  1.00 20.00     0.005 C 
ENDBRANCH   8   9
ENDBRANCH   4   8
BRANCH   5  11
HETATM   11  C10 UNL     1     -42.719  16.564   5.214  1.00 20.00     0.001 C 
HETATM   12  C7  UNL     1     -42.807  16.187   3.774  1.00 20.00     0.005 C 
ENDBRANCH   5  11
TORSDOF 3
ENDMDL
MODEL 8
REMARK VINA RESULT:      -3.5     11.595     12.807
REMARK  3 active torsions:
REMARK  status: ('A' for Active; 'I' for Inactive)
REMARK    1  A    between atoms: C4_4  and  C9_9 
REMARK    2  A    between atoms: C5_5  and  C10_10 
REMARK    3  A    between atoms: C9_9  and  C11_11 
ROOT
HETATM    1  C1  UNL     1     -40.975  13.932   7.741  1.00 20.00     0.006 C 
HETATM    2  C2  UNL     1     -40.322  15.307   7.630  1.00 20.00     0.021 C 
HETATM    3  C3  UNL     1     -42.806  14.670   6.170  1.00 20.00     0.010 C 
HETATM    4  C4  UNL     1     -41.797  13.561   6.501  1.00 20.00    -0.014 C 
HETATM    5  C5  UNL     1     -42.169  16.068   6.047  1.00 20.00     0.004 C 
HETATM    6  C6  UNL     1     -41.349  16.397   7.310  1.00 20.00     0.086 C 
HETATM    7 CL12 UNL     1     -40.486  17.960   7.138  1.00 20.00    -0.125 Cl
ENDROOT
BRANCH   4   8
HETATM    8  C9  UNL     1     -40.905  13.228   5.303  1.00 20.00     0.004 C 
BRANCH   8   9
HETATM    9  C11 UNL     1     -40.000  12.040   5.603  1.00 20.00    -0.004 C 
HETATM   10  C8  UNL     1     -39.130  11.695   4.405  1.00 20.00     0.005 C 
ENDBRANCH   8   9
ENDBRANCH   4   8
BRANCH   5  11
HETATM   11  C10 UNL     1     -43.272  17.101   5.783  1.00 20.00     0.001 C 
HETATM   12  C7  UNL     1     -43.063  17.802   4.484  1.00 20.00     0.005 C 
ENDBRANCH   5  11
TORSDOF 3
ENDMDL
MODEL 9
REMARK VINA RESULT:      -3.4     12.023     12.741
REMARK  3 active torsions:
REMARK  status: ('A' for Active; 'I' for Inactive)
REMARK    1  A    between atoms: C4_4  and  C9_9 
REMARK    2  A    between atoms: C5_5  and  C10_10 
REMARK    3  A    between atoms: C9_9  and  C11_11 
ROOT
HETATM    1  C1  UNL     1     -42.918  14.716   7.586  1.00 20.00     0.006 C 
HETATM    2  C2  UNL     1     -42.855  15.191   6.138  1.00 20.00     0.021 C 
HETATM    3  C3  UNL     1     -40.929  13.216   7.186  1.00 20.00     0.010 C 
HETATM    4  C4  UNL     1     -41.557  14.257   8.124  1.00 20.00    -0.014 C 
HETATM    5  C5  UNL     1     -40.848  13.677   5.719  1.00 20.00     0.004 C 
HETATM    6  C6  UNL     1     -42.234  14.133   5.221  1.00 20.00     0.086 C 
HETATM    7 CL12 UNL     1     -42.143  14.801   3.560  1.00 20.00    -0.125 Cl
ENDROOT
BRANCH   4   8
HETATM    8  C9  UNL     1     -40.616  15.438   8.375  1.00 20.00     0.004 C 
BRANCH   8   9
HETATM    9  C11 UNL     1     -40.068  15.412   9.797  1.00 20.00    -0.004 C 
HETATM   10  C8  UNL     1     -40.709  14.301  10.613  1.00 20.00     0.005 C 
ENDBRANCH   8   9
ENDBRANCH   4   8
BRANCH   5  11
HETATM   11  C10 UNL     1     -40.270  12.539   4.867  1.00 20.00     0.001 C 
HETATM   12  C7  UNL     1     -39.166  11.832   5.578  1.00 20.00     0.005 C 
ENDBRANCH   5  11
TORSDOF 3
ENDMDL
