MODEL 1
REMARK VINA RESULT:      -4.7      0.000      0.000
REMARK  2 active torsions:
REMARK  status: ('A' for Active; 'I' for Inactive)
REMARK    1  A    between atoms: C5_5  and  N8_8 
REMARK    2  A    between atoms: C6_6  and  N8_8 
ROOT
HETATM    1  N8  UNL     1     -33.305   6.996   5.828  1.00 20.00     0.097 N 
HETATM    2  H22 UNL     1     -32.891   7.199   6.734  1.00 20.00     0.317 HD
ENDROOT
BRANCH   1   3
HETATM    3  C5  UNL     1     -33.403   8.243   5.065  1.00 20.00     0.225 A 
HETATM    4  C1  UNL     1     -32.185   9.105   4.848  1.00 20.00     0.042 A 
HETATM    5  C4  UNL     1     -32.815   8.393   3.683  1.00 20.00     0.016 A 
HETATM    6  C7  UNL     1     -32.089   7.285   3.000  1.00 20.00     0.012 C 
ENDBRANCH   1   3
BRANCH   1   7
HETATM    7  C6  UNL     1     -34.619   6.404   6.013  1.00 20.00     0.268 C 
HETATM    8  C2  UNL     1     -34.448   4.914   6.304  1.00 20.00     0.205 C 
HETATM    9  O9  UNL     1     -34.737   4.572   4.924  1.00 20.00    -0.387 OA
HETATM   10  C3  UNL     1     -35.142   5.939   4.655  1.00 20.00     0.205 C 
ENDBRANCH   1   7
TORSDOF 2
ENDMDL
MODEL 2
REMARK VINA RESULT:      -3.8      1.904      3.842
REMARK  2 active torsions:
REMARK  status: ('A' for Active; 'I' for Inactive)
REMARK    1  A    between atoms: C5_5  and  N8_8 
REMARK    2  A    between atoms: C6_6  and  N8_8 
ROOT
HETATM    1  N8  UNL     1     -33.587   8.159   4.895  1.00 20.00     0.097 N 
HETATM    2  H22 UNL     1     -33.856   8.963   5.456  1.00 20.00     0.317 HD
ENDROOT
BRANCH   1   3
HETATM    3  C5  UNL     1     -33.476   6.990   5.773  1.00 20.00     0.225 A 
HETATM    4  C1  UNL     1     -34.546   6.695   6.792  1.00 20.00     0.042 A 
HETATM    5  C4  UNL     1     -34.358   5.775   5.617  1.00 20.00     0.016 A 
HETATM    6  C7  UNL     1     -35.408   5.682   4.564  1.00 20.00     0.012 C 
ENDBRANCH   1   3
BRANCH   1   7
HETATM    7  C6  UNL     1     -32.322   8.425   4.233  1.00 20.00     0.268 C 
HETATM    8  C2  UNL     1     -32.589   9.260   2.982  1.00 20.00     0.205 C 
HETATM    9  O9  UNL     1     -32.527   8.083   2.136  1.00 20.00    -0.387 OA
HETATM   10  C3  UNL     1     -32.036   7.291   3.248  1.00 20.00     0.205 C 
ENDBRANCH   1   7
TORSDOF 2
ENDMDL
MODEL 3
REMARK VINA RESULT:      -3.8      1.167      1.373
REMARK  2 active torsions:
REMARK  status: ('A' for Active; 'I' for Inactive)
REMARK    1  A    between atoms: C5_5  and  N8_8 
REMARK    2  A    between atoms: C6_6  and  N8_8 
ROOT
HETATM    1  N8  UNL     1     -33.645   6.564   4.118  1.00 20.00     0.097 N 
HETATM    2  H22 UNL     1     -32.816   6.059   4.417  1.00 20.00     0.317 HD
ENDROOT
BRANCH   1   3
HETATM    3  C5  UNL     1     -33.372   8.002   4.194  1.00 20.00     0.225 A 
HETATM    4  C1  UNL     1     -31.972   8.503   4.440  1.00 20.00     0.042 A 
HETATM    5  C4  UNL     1     -32.630   8.742   3.109  1.00 20.00     0.016 A 
HETATM    6  C7  UNL     1     -32.116   8.062   1.886  1.00 20.00     0.012 C 
ENDBRANCH   1   3
BRANCH   1   7
HETATM    7  C6  UNL     1     -34.768   6.209   4.970  1.00 20.00     0.268 C 
HETATM    8  C2  UNL     1     -34.410   6.544   6.417  1.00 20.00     0.205 C 
HETATM    9  O9  UNL     1     -34.057   5.163   6.690  1.00 20.00    -0.387 OA
HETATM   10  C3  UNL     1     -34.608   4.755   5.411  1.00 20.00     0.205 C 
ENDBRANCH   1   7
TORSDOF 2
ENDMDL
MODEL 4
REMARK VINA RESULT:      -3.8     15.303     16.334
REMARK  2 active torsions:
REMARK  status: ('A' for Active; 'I' for Inactive)
REMARK    1  A    between atoms: C5_5  and  N8_8 
REMARK    2  A    between atoms: C6_6  and  N8_8 
ROOT
HETATM    1  N8  UNL     1     -23.112  17.037  10.501  1.00 20.00     0.097 N 
HETATM    2  H22 UNL     1     -22.612  16.173  10.311  1.00 20.00     0.317 HD
ENDROOT
BRANCH   1   3
HETATM    3  C5  UNL     1     -22.205  18.166  10.276  1.00 20.00     0.225 A 
HETATM    4  C1  UNL     1     -21.293  18.186   9.076  1.00 20.00     0.042 A 
HETATM    5  C4  UNL     1     -22.425  19.172   9.172  1.00 20.00     0.016 A 
HETATM    6  C7  UNL     1     -23.576  19.084   8.230  1.00 20.00     0.012 C 
ENDBRANCH   1   3
BRANCH   1   7
HETATM    7  C6  UNL     1     -23.593  17.032  11.872  1.00 20.00     0.268 C 
HETATM    8  C2  UNL     1     -25.120  16.985  11.856  1.00 20.00     0.205 C 
HETATM    9  O9  UNL     1     -25.205  18.418  12.070  1.00 20.00    -0.387 OA
HETATM   10  C3  UNL     1     -23.779  18.478  12.332  1.00 20.00     0.205 C 
ENDBRANCH   1   7
TORSDOF 2
ENDMDL
MODEL 5
REMARK VINA RESULT:      -3.7      1.896      3.738
REMARK  2 active torsions:
REMARK  status: ('A' for Active; 'I' for Inactive)
REMARK    1  A    between atoms: C5_5  and  N8_8 
REMARK    2  A    between atoms: C6_6  and  N8_8 
ROOT
HETATM    1  N8  UNL     1     -33.384   7.006   5.743  1.00 20.00     0.097 N 
HETATM    2  H22 UNL     1     -32.623   6.346   5.604  1.00 20.00     0.317 HD
ENDROOT
BRANCH   1   3
HETATM    3  C5  UNL     1     -34.644   6.262   5.823  1.00 20.00     0.225 A 
HETATM    4  C1  UNL     1     -35.502   6.076   4.598  1.00 20.00     0.042 A 
HETATM    5  C4  UNL     1     -34.812   4.890   5.216  1.00 20.00     0.016 A 
HETATM    6  C7  UNL     1     -33.712   4.200   4.486  1.00 20.00     0.012 C 
ENDBRANCH   1   3
BRANCH   1   7
HETATM    7  C6  UNL     1     -33.417   7.953   4.642  1.00 20.00     0.268 C 
HETATM    8  C2  UNL     1     -32.532   7.425   3.514  1.00 20.00     0.205 C 
HETATM    9  O9  UNL     1     -31.435   8.282   3.921  1.00 20.00    -0.387 OA
HETATM   10  C3  UNL     1     -32.306   8.982   4.847  1.00 20.00     0.205 C 
ENDBRANCH   1   7
TORSDOF 2
ENDMDL
MODEL 6
REMARK VINA RESULT:      -3.7     16.006     16.533
REMARK  2 active torsions:
REMARK  status: ('A' for Active; 'I' for Inactive)
REMARK    1  A    between atoms: C5_5  and  N8_8 
REMARK    2  A    between atoms: C6_6  and  N8_8 
ROOT
HETATM    1  N8  UNL     1     -23.301  17.079  10.197  1.00 20.00     0.097 N 
HETATM    2  H22 UNL     1     -24.199  17.247   9.751  1.00 20.00     0.317 HD
ENDROOT
BRANCH   1   3
HETATM    3  C5  UNL     1     -23.459  17.228  11.646  1.00 20.00     0.225 A 
HETATM    4  C1  UNL     1     -23.078  18.517  12.329  1.00 20.00     0.042 A 
HETATM    5  C4  UNL     1     -24.524  18.107  12.256  1.00 20.00     0.016 A 
HETATM    6  C7  UNL     1     -25.484  18.891  11.428  1.00 20.00     0.012 C 
ENDBRANCH   1   3
BRANCH   1   7
HETATM    7  C6  UNL     1     -22.319  18.022   9.689  1.00 20.00     0.268 C 
HETATM    8  C2  UNL     1     -22.980  18.891   8.621  1.00 20.00     0.205 C 
HETATM    9  O9  UNL     1     -22.418  18.079   7.558  1.00 20.00    -0.387 OA
HETATM   10  C3  UNL     1     -21.583  17.378   8.514  1.00 20.00     0.205 C 
ENDBRANCH   1   7
TORSDOF 2
ENDMDL
MODEL 7
REMARK VINA RESULT:      -3.6      9.731     10.292
REMARK  2 active torsions:
REMARK  status: ('A' for Active; 'I' for Inactive)
REMARK    1  A    between atoms: C5_5  and  N8_8 
REMARK    2  A    between atoms: C6_6  and  N8_8 
ROOT
HETATM    1  N8  UNL     1     -39.953  14.154   7.253  1.00 20.00     0.097 N 
HETATM    2  H22 UNL     1     -39.534  14.760   6.553  1.00 20.00     0.317 HD
ENDROOT
BRANCH   1   3
HETATM    3  C5  UNL     1     -40.753  13.132   6.572  1.00 20.00     0.225 A 
HETATM    4  C1  UNL     1     -40.989  13.210   5.085  1.00 20.00     0.042 A 
HETATM    5  C4  UNL     1     -40.139  12.106   5.651  1.00 20.00     0.016 A 
HETATM    6  C7  UNL     1     -38.677  12.063   5.365  1.00 20.00     0.012 C 
ENDBRANCH   1   3
BRANCH   1   7
HETATM    7  C6  UNL     1     -40.782  14.942   8.148  1.00 20.00     0.268 C 
HETATM    8  C2  UNL     1     -40.159  14.917   9.542  1.00 20.00     0.205 C 
HETATM    9  O9  UNL     1     -41.072  13.877   9.975  1.00 20.00    -0.387 OA
HETATM   10  C3  UNL     1     -41.847  14.031   8.759  1.00 20.00     0.205 C 
ENDBRANCH   1   7
TORSDOF 2
ENDMDL
MODEL 8
REMARK VINA RESULT:      -3.6     12.440     13.019
REMARK  2 active torsions:
REMARK  status: ('A' for Active; 'I' for Inactive)
REMARK    1  A    between atoms: C5_5  and  N8_8 
REMARK    2  A    between atoms: C6_6  and  N8_8 
ROOT
HETATM    1  N8  UNL     1     -34.412  15.632  -3.670  1.00 20.00     0.097 N 
HETATM    2  H22 UNL     1     -35.154  16.247  -3.992  1.00 20.00     0.317 HD
ENDROOT
BRANCH   1   3
HETATM    3  C5  UNL     1     -33.173  16.406  -3.559  1.00 20.00     0.225 A 
HETATM    4  C1  UNL     1     -33.201  17.910  -3.651  1.00 20.00     0.042 A 
HETATM    5  C4  UNL     1     -32.851  17.247  -2.348  1.00 20.00     0.016 A 
HETATM    6  C7  UNL     1     -33.774  17.353  -1.182  1.00 20.00     0.012 C 
ENDBRANCH   1   3
BRANCH   1   7
HETATM    7  C6  UNL     1     -34.248  14.533  -4.606  1.00 20.00     0.268 C 
HETATM    8  C2  UNL     1     -34.050  15.109  -6.007  1.00 20.00     0.205 C 
HETATM    9  O9  UNL     1     -35.444  14.885  -6.339  1.00 20.00    -0.387 OA
HETATM   10  C3  UNL     1     -35.626  14.117  -5.121  1.00 20.00     0.205 C 
ENDBRANCH   1   7
TORSDOF 2
ENDMDL
MODEL 9
REMARK VINA RESULT:      -3.6     12.832     13.809
REMARK  2 active torsions:
REMARK  status: ('A' for Active; 'I' for Inactive)
REMARK    1  A    between atoms: C5_5  and  N8_8 
REMARK    2  A    between atoms: C6_6  and  N8_8 
ROOT
HETATM    1  N8  UNL     1     -34.183  16.227  -5.831  1.00 20.00     0.097 N 
HETATM    2  H22 UNL     1     -33.560  15.875  -6.553  1.00 20.00     0.317 HD
ENDROOT
BRANCH   1   3
HETATM    3  C5  UNL     1     -34.042  15.388  -4.638  1.00 20.00     0.225 A 
HETATM    4  C1  UNL     1     -32.676  15.016  -4.122  1.00 20.00     0.042 A 
HETATM    5  C4  UNL     1     -33.555  15.935  -3.318  1.00 20.00     0.016 A 
HETATM    6  C7  UNL     1     -33.178  17.365  -3.137  1.00 20.00     0.012 C 
ENDBRANCH   1   3
BRANCH   1   7
HETATM    7  C6  UNL     1     -35.553  16.206  -6.314  1.00 20.00     0.268 C 
HETATM    8  C2  UNL     1     -36.217  14.912  -5.846  1.00 20.00     0.205 C 
HETATM    9  O9  UNL     1     -35.992  14.286  -7.135  1.00 20.00    -0.387 OA
HETATM   10  C3  UNL     1     -35.576  15.557  -7.697  1.00 20.00     0.205 C 
ENDBRANCH   1   7
TORSDOF 2
ENDMDL
