MODEL 1
REMARK VINA RESULT:      -4.4      0.000      0.000
REMARK  0 active torsions:
REMARK  status: ('A' for Active; 'I' for Inactive)
ROOT
HETATM    1  C1  UNL     1     -32.261   6.578   2.354  1.00 20.00     0.002 A 
HETATM    2  C2  UNL     1     -33.197   5.693   2.892  1.00 20.00     0.009 A 
HETATM    3  C3  UNL     1     -31.890   7.739   3.050  1.00 20.00     0.019 A 
HETATM    4  C4  UNL     1     -33.743   5.986   4.131  1.00 20.00    -0.032 A 
HETATM    5  C5  UNL     1     -33.366   7.141   4.828  1.00 20.00    -0.033 A 
HETATM    6  C6  UNL     1     -32.448   8.031   4.296  1.00 20.00     0.017 A 
HETATM    7  C7  UNL     1     -34.116   7.254   6.120  1.00 20.00     0.042 C 
HETATM    8  C8  UNL     1     -34.601   5.807   6.304  1.00 20.00     0.030 C 
HETATM    9  C9  UNL     1     -34.774   5.213   4.894  1.00 20.00     0.116 C 
HETATM   10 CL10 UNL     1     -36.395   5.546   4.246  1.00 20.00    -0.120 Cl
HETATM   11 BR11 UNL     1     -31.945   9.615   5.194  1.00 20.00    -0.051 Br
ENDROOT
TORSDOF 0
ENDMDL
MODEL 2
REMARK VINA RESULT:      -4.2      1.891      2.799
REMARK  0 active torsions:
REMARK  status: ('A' for Active; 'I' for Inactive)
ROOT
HETATM    1  C1  UNL     1     -32.666   9.158   5.439  1.00 20.00     0.002 A 
HETATM    2  C2  UNL     1     -33.478   8.232   6.098  1.00 20.00     0.009 A 
HETATM    3  C3  UNL     1     -32.250   8.934   4.117  1.00 20.00     0.019 A 
HETATM    4  C4  UNL     1     -33.867   7.094   5.411  1.00 20.00    -0.032 A 
HETATM    5  C5  UNL     1     -33.457   6.875   4.089  1.00 20.00    -0.033 A 
HETATM    6  C6  UNL     1     -32.642   7.782   3.433  1.00 20.00     0.017 A 
HETATM    7  C7  UNL     1     -33.976   5.566   3.579  1.00 20.00     0.042 C 
HETATM    8  C8  UNL     1     -35.111   5.291   4.578  1.00 20.00     0.030 C 
HETATM    9  C9  UNL     1     -34.705   5.955   5.906  1.00 20.00     0.116 C 
HETATM   10 CL10 UNL     1     -33.723   4.860   6.904  1.00 20.00    -0.120 Cl
HETATM   11 BR11 UNL     1     -32.043   7.501   1.664  1.00 20.00    -0.051 Br
ENDROOT
TORSDOF 0
ENDMDL
MODEL 3
REMARK VINA RESULT:      -4.0     12.306     13.553
REMARK  0 active torsions:
REMARK  status: ('A' for Active; 'I' for Inactive)
ROOT
HETATM    1  C1  UNL     1     -34.299  14.443  -4.688  1.00 20.00     0.002 A 
HETATM    2  C2  UNL     1     -33.525  15.137  -3.756  1.00 20.00     0.009 A 
HETATM    3  C3  UNL     1     -35.246  15.117  -5.477  1.00 20.00     0.019 A 
HETATM    4  C4  UNL     1     -33.710  16.505  -3.636  1.00 20.00    -0.032 A 
HETATM    5  C5  UNL     1     -34.649  17.177  -4.428  1.00 20.00    -0.033 A 
HETATM    6  C6  UNL     1     -35.430  16.494  -5.346  1.00 20.00     0.017 A 
HETATM    7  C7  UNL     1     -34.688  18.635  -4.091  1.00 20.00     0.042 C 
HETATM    8  C8  UNL     1     -33.343  18.803  -3.365  1.00 20.00     0.030 C 
HETATM    9  C9  UNL     1     -33.025  17.452  -2.700  1.00 20.00     0.116 C 
HETATM   10 CL10 UNL     1     -33.748  17.343  -1.080  1.00 20.00    -0.120 Cl
HETATM   11 BR11 UNL     1     -36.730  17.364  -6.405  1.00 20.00    -0.051 Br
ENDROOT
TORSDOF 0
ENDMDL
MODEL 4
REMARK VINA RESULT:      -3.9      2.565      4.131
REMARK  0 active torsions:
REMARK  status: ('A' for Active; 'I' for Inactive)
ROOT
HETATM    1  C1  UNL     1     -33.262   8.742   6.039  1.00 20.00     0.002 A 
HETATM    2  C2  UNL     1     -32.566   9.045   4.867  1.00 20.00     0.009 A 
HETATM    3  C3  UNL     1     -33.969   7.535   6.161  1.00 20.00     0.019 A 
HETATM    4  C4  UNL     1     -32.585   8.122   3.834  1.00 20.00    -0.032 A 
HETATM    5  C5  UNL     1     -33.285   6.915   3.960  1.00 20.00    -0.033 A 
HETATM    6  C6  UNL     1     -33.988   6.612   5.113  1.00 20.00     0.017 A 
HETATM    7  C7  UNL     1     -33.184   6.106   2.703  1.00 20.00     0.042 C 
HETATM    8  C8  UNL     1     -31.966   6.760   2.031  1.00 20.00     0.030 C 
HETATM    9  C9  UNL     1     -31.944   8.230   2.485  1.00 20.00     0.116 C 
HETATM   10 CL10 UNL     1     -32.930   9.252   1.417  1.00 20.00    -0.120 Cl
HETATM   11 BR11 UNL     1     -34.970   5.010   5.302  1.00 20.00    -0.051 Br
ENDROOT
TORSDOF 0
ENDMDL
MODEL 5
REMARK VINA RESULT:      -3.7     12.423     13.670
REMARK  0 active torsions:
REMARK  status: ('A' for Active; 'I' for Inactive)
ROOT
HETATM    1  C1  UNL     1     -34.556  18.848  -5.896  1.00 20.00     0.002 A 
HETATM    2  C2  UNL     1     -34.762  17.525  -6.290  1.00 20.00     0.009 A 
HETATM    3  C3  UNL     1     -33.993  19.144  -4.644  1.00 20.00     0.019 A 
HETATM    4  C4  UNL     1     -34.392  16.514  -5.419  1.00 20.00    -0.032 A 
HETATM    5  C5  UNL     1     -33.824  16.810  -4.173  1.00 20.00    -0.033 A 
HETATM    6  C6  UNL     1     -33.628  18.119  -3.769  1.00 20.00     0.017 A 
HETATM    7  C7  UNL     1     -33.543  15.557  -3.403  1.00 20.00     0.042 C 
HETATM    8  C8  UNL     1     -33.567  14.510  -4.528  1.00 20.00     0.030 C 
HETATM    9  C9  UNL     1     -34.536  15.035  -5.602  1.00 20.00     0.116 C 
HETATM   10 CL10 UNL     1     -36.208  14.535  -5.266  1.00 20.00    -0.120 Cl
HETATM   11 BR11 UNL     1     -32.897  18.554  -2.082  1.00 20.00    -0.051 Br
ENDROOT
TORSDOF 0
ENDMDL
MODEL 6
REMARK VINA RESULT:      -3.7     12.676     13.869
REMARK  0 active torsions:
REMARK  status: ('A' for Active; 'I' for Inactive)
ROOT
HETATM    1  C1  UNL     1     -33.014  15.875  -3.349  1.00 20.00     0.002 A 
HETATM    2  C2  UNL     1     -33.395  15.169  -4.491  1.00 20.00     0.009 A 
HETATM    3  C3  UNL     1     -33.636  17.090  -3.017  1.00 20.00     0.019 A 
HETATM    4  C4  UNL     1     -34.404  15.693  -5.283  1.00 20.00    -0.032 A 
HETATM    5  C5  UNL     1     -35.028  16.901  -4.947  1.00 20.00    -0.033 A 
HETATM    6  C6  UNL     1     -34.648  17.614  -3.822  1.00 20.00     0.017 A 
HETATM    7  C7  UNL     1     -36.057  17.274  -5.969  1.00 20.00     0.042 C 
HETATM    8  C8  UNL     1     -36.284  15.920  -6.662  1.00 20.00     0.030 C 
HETATM    9  C9  UNL     1     -34.962  15.140  -6.557  1.00 20.00     0.116 C 
HETATM   10 CL10 UNL     1     -33.880  15.515  -7.916  1.00 20.00    -0.120 Cl
HETATM   11 BR11 UNL     1     -35.444  19.263  -3.360  1.00 20.00    -0.051 Br
ENDROOT
TORSDOF 0
ENDMDL
MODEL 7
REMARK VINA RESULT:      -3.7      2.401      3.827
REMARK  0 active torsions:
REMARK  status: ('A' for Active; 'I' for Inactive)
ROOT
HETATM    1  C1  UNL     1     -34.656   4.961   5.912  1.00 20.00     0.002 A 
HETATM    2  C2  UNL     1     -34.323   6.227   6.398  1.00 20.00     0.009 A 
HETATM    3  C3  UNL     1     -34.288   4.573   4.614  1.00 20.00     0.019 A 
HETATM    4  C4  UNL     1     -33.617   7.085   5.570  1.00 20.00    -0.032 A 
HETATM    5  C5  UNL     1     -33.244   6.693   4.278  1.00 20.00    -0.033 A 
HETATM    6  C6  UNL     1     -33.581   5.444   3.783  1.00 20.00     0.017 A 
HETATM    7  C7  UNL     1     -32.524   7.799   3.571  1.00 20.00     0.042 C 
HETATM    8  C8  UNL     1     -32.109   8.684   4.758  1.00 20.00     0.030 C 
HETATM    9  C9  UNL     1     -33.173   8.487   5.852  1.00 20.00     0.116 C 
HETATM   10 CL10 UNL     1     -34.531   9.614   5.644  1.00 20.00    -0.120 Cl
HETATM   11 BR11 UNL     1     -33.124   4.898   2.034  1.00 20.00    -0.051 Br
ENDROOT
TORSDOF 0
ENDMDL
MODEL 8
REMARK VINA RESULT:      -3.7     13.040     14.302
REMARK  0 active torsions:
REMARK  status: ('A' for Active; 'I' for Inactive)
ROOT
HETATM    1  C1  UNL     1     -33.812  14.697  -5.032  1.00 20.00     0.002 A 
HETATM    2  C2  UNL     1     -34.358  15.463  -6.063  1.00 20.00     0.009 A 
HETATM    3  C3  UNL     1     -33.512  15.278  -3.789  1.00 20.00     0.019 A 
HETATM    4  C4  UNL     1     -34.601  16.807  -5.827  1.00 20.00    -0.032 A 
HETATM    5  C5  UNL     1     -34.308  17.383  -4.585  1.00 20.00    -0.033 A 
HETATM    6  C6  UNL     1     -33.755  16.634  -3.560  1.00 20.00     0.017 A 
HETATM    7  C7  UNL     1     -34.625  18.847  -4.587  1.00 20.00     0.042 C 
HETATM    8  C8  UNL     1     -35.570  18.940  -5.796  1.00 20.00     0.030 C 
HETATM    9  C9  UNL     1     -35.150  17.828  -6.774  1.00 20.00     0.116 C 
HETATM   10 CL10 UNL     1     -33.876  18.387  -7.880  1.00 20.00    -0.120 Cl
HETATM   11 BR11 UNL     1     -33.316  17.388  -1.885  1.00 20.00    -0.051 Br
ENDROOT
TORSDOF 0
ENDMDL
MODEL 9
REMARK VINA RESULT:      -3.6     12.780     14.062
REMARK  0 active torsions:
REMARK  status: ('A' for Active; 'I' for Inactive)
ROOT
HETATM    1  C1  UNL     1     -33.340  16.826  -2.267  1.00 20.00     0.002 A 
HETATM    2  C2  UNL     1     -34.204  17.921  -2.205  1.00 20.00     0.009 A 
HETATM    3  C3  UNL     1     -33.306  16.002  -3.403  1.00 20.00     0.019 A 
HETATM    4  C4  UNL     1     -35.021  18.175  -3.296  1.00 20.00    -0.032 A 
HETATM    5  C5  UNL     1     -34.981  17.357  -4.432  1.00 20.00    -0.033 A 
HETATM    6  C6  UNL     1     -34.136  16.262  -4.495  1.00 20.00     0.017 A 
HETATM    7  C7  UNL     1     -35.974  17.813  -5.455  1.00 20.00     0.042 C 
HETATM    8  C8  UNL     1     -36.242  19.251  -4.981  1.00 20.00     0.030 C 
HETATM    9  C9  UNL     1     -36.039  19.262  -3.455  1.00 20.00     0.116 C 
HETATM   10 CL10 UNL     1     -37.536  18.830  -2.600  1.00 20.00    -0.120 Cl
HETATM   11 BR11 UNL     1     -34.082  15.118  -5.997  1.00 20.00    -0.051 Br
ENDROOT
TORSDOF 0
ENDMDL
