MODEL 1
REMARK VINA RESULT:      -4.3      0.000      0.000
REMARK  4 active torsions:
REMARK  status: ('A' for Active; 'I' for Inactive)
REMARK    1  A    between atoms: C5_5  and  C9_9 
REMARK    2  A    between atoms: C7_7  and  C8_8 
REMARK    3  A    between atoms: C8_8  and  C9_9 
REMARK    4  A    between atoms: C9_9  and  O10_10 
ROOT
HETATM    1  C1  UNL     1     -34.724   4.968   6.296  1.00 20.00     0.012 C 
HETATM    2  C2  UNL     1     -34.315   6.096   6.240  1.00 20.00    -0.117 C 
HETATM    3  C7  UNL     1     -33.814   7.477   6.176  1.00 20.00     0.096 C 
ENDROOT
BRANCH   3   4
HETATM    4  C8  UNL     1     -33.965   8.050   4.761  1.00 20.00     0.050 C 
BRANCH   4   5
HETATM    5  C9  UNL     1     -32.637   8.482   4.100  1.00 20.00     0.059 C 
HETATM    6  C6  UNL     1     -32.832   9.612   3.119  1.00 20.00     0.046 C 
BRANCH   5   7
HETATM    7  C5  UNL     1     -32.007   7.275   3.392  1.00 20.00     0.019 A 
HETATM    8  C3  UNL     1     -32.879   6.194   2.816  1.00 20.00     0.008 A 
HETATM    9  C4  UNL     1     -32.129   7.122   1.902  1.00 20.00     0.008 A 
ENDBRANCH   5   7
BRANCH   5  10
HETATM   10  O10 UNL     1     -31.736   8.905   5.126  1.00 20.00    -0.390 OA
HETATM   11  H24 UNL     1     -30.845   8.830   4.754  1.00 20.00     0.210 HD
ENDBRANCH   5  10
ENDBRANCH   4   5
ENDBRANCH   3   4
TORSDOF 4
ENDMDL
MODEL 2
REMARK VINA RESULT:      -4.2      1.611      4.033
REMARK  4 active torsions:
REMARK  status: ('A' for Active; 'I' for Inactive)
REMARK    1  A    between atoms: C5_5  and  C9_9 
REMARK    2  A    between atoms: C7_7  and  C8_8 
REMARK    3  A    between atoms: C8_8  and  C9_9 
REMARK    4  A    between atoms: C9_9  and  O10_10 
ROOT
HETATM    1  C1  UNL     1     -32.558   9.066   0.810  1.00 20.00     0.012 C 
HETATM    2  C2  UNL     1     -32.377   8.232   1.656  1.00 20.00    -0.117 C 
HETATM    3  C7  UNL     1     -32.154   7.210   2.690  1.00 20.00     0.096 C 
ENDROOT
BRANCH   3   4
HETATM    4  C8  UNL     1     -32.253   7.819   4.094  1.00 20.00     0.050 C 
BRANCH   4   5
HETATM    5  C9  UNL     1     -33.540   7.448   4.863  1.00 20.00     0.059 C 
HETATM    6  C6  UNL     1     -33.315   7.393   6.354  1.00 20.00     0.046 C 
BRANCH   5   7
HETATM    7  C5  UNL     1     -34.060   6.094   4.361  1.00 20.00     0.019 A 
HETATM    8  C3  UNL     1     -34.514   5.047   5.340  1.00 20.00     0.008 A 
HETATM    9  C4  UNL     1     -35.520   5.754   4.475  1.00 20.00     0.008 A 
ENDBRANCH   5   7
BRANCH   5  10
HETATM   10  O10 UNL     1     -34.538   8.431   4.578  1.00 20.00    -0.390 OA
HETATM   11  H24 UNL     1     -34.615   8.469   3.614  1.00 20.00     0.210 HD
ENDBRANCH   5  10
ENDBRANCH   4   5
ENDBRANCH   3   4
TORSDOF 4
ENDMDL
MODEL 3
REMARK VINA RESULT:      -4.1     11.859     13.142
REMARK  4 active torsions:
REMARK  status: ('A' for Active; 'I' for Inactive)
REMARK    1  A    between atoms: C5_5  and  C9_9 
REMARK    2  A    between atoms: C7_7  and  C8_8 
REMARK    3  A    between atoms: C8_8  and  C9_9 
REMARK    4  A    between atoms: C9_9  and  O10_10 
ROOT
HETATM    1  C1  UNL     1     -33.442  16.942  -2.257  1.00 20.00     0.012 C 
HETATM    2  C2  UNL     1     -33.317  16.117  -3.121  1.00 20.00    -0.117 C 
HETATM    3  C7  UNL     1     -33.160  15.107  -4.179  1.00 20.00     0.096 C 
ENDROOT
BRANCH   3   4
HETATM    4  C8  UNL     1     -34.518  14.525  -4.587  1.00 20.00     0.050 C 
BRANCH   4   5
HETATM    5  C9  UNL     1     -35.041  15.017  -5.955  1.00 20.00     0.059 C 
HETATM    6  C6  UNL     1     -33.919  15.299  -6.923  1.00 20.00     0.046 C 
BRANCH   5   7
HETATM    7  C5  UNL     1     -35.888  16.280  -5.750  1.00 20.00     0.019 A 
HETATM    8  C3  UNL     1     -36.889  16.698  -6.792  1.00 20.00     0.008 A 
HETATM    9  C4  UNL     1     -37.360  16.167  -5.467  1.00 20.00     0.008 A 
ENDBRANCH   5   7
BRANCH   5  10
HETATM   10  O10 UNL     1     -35.889  14.008  -6.506  1.00 20.00    -0.390 OA
HETATM   11  H24 UNL     1     -35.938  13.302  -5.845  1.00 20.00     0.210 HD
ENDBRANCH   5  10
ENDBRANCH   4   5
ENDBRANCH   3   4
TORSDOF 4
ENDMDL
MODEL 4
REMARK VINA RESULT:      -4.0      2.101      4.481
REMARK  4 active torsions:
REMARK  status: ('A' for Active; 'I' for Inactive)
REMARK    1  A    between atoms: C5_5  and  C9_9 
REMARK    2  A    between atoms: C7_7  and  C8_8 
REMARK    3  A    between atoms: C8_8  and  C9_9 
REMARK    4  A    between atoms: C9_9  and  O10_10 
ROOT
HETATM    1  C1  UNL     1     -32.266   8.410   0.903  1.00 20.00     0.012 C 
HETATM    2  C2  UNL     1     -32.275   7.713   1.881  1.00 20.00    -0.117 C 
HETATM    3  C7  UNL     1     -32.282   6.861   3.080  1.00 20.00     0.096 C 
ENDROOT
BRANCH   3   4
HETATM    4  C8  UNL     1     -33.394   5.808   2.998  1.00 20.00     0.050 C 
BRANCH   4   5
HETATM    5  C9  UNL     1     -34.203   5.628   4.300  1.00 20.00     0.059 C 
HETATM    6  C6  UNL     1     -35.645   6.039   4.134  1.00 20.00     0.046 C 
BRANCH   5   7
HETATM    7  C5  UNL     1     -33.549   6.447   5.421  1.00 20.00     0.019 A 
HETATM    8  C3  UNL     1     -34.003   7.855   5.694  1.00 20.00     0.008 A 
HETATM    9  C4  UNL     1     -34.316   6.762   6.676  1.00 20.00     0.008 A 
ENDBRANCH   5   7
BRANCH   5  10
HETATM   10  O10 UNL     1     -34.152   4.251   4.680  1.00 20.00    -0.390 OA
HETATM   11  H24 UNL     1     -33.330   4.137   5.180  1.00 20.00     0.210 HD
ENDBRANCH   5  10
ENDBRANCH   4   5
ENDBRANCH   3   4
TORSDOF 4
ENDMDL
MODEL 5
REMARK VINA RESULT:      -4.0     11.793     12.780
REMARK  4 active torsions:
REMARK  status: ('A' for Active; 'I' for Inactive)
REMARK    1  A    between atoms: C5_5  and  C9_9 
REMARK    2  A    between atoms: C7_7  and  C8_8 
REMARK    3  A    between atoms: C8_8  and  C9_9 
REMARK    4  A    between atoms: C9_9  and  O10_10 
ROOT
HETATM    1  C1  UNL     1     -33.530  17.368  -1.472  1.00 20.00     0.012 C 
HETATM    2  C2  UNL     1     -33.425  16.731  -2.485  1.00 20.00    -0.117 C 
HETATM    3  C7  UNL     1     -33.293  15.950  -3.724  1.00 20.00     0.096 C 
ENDROOT
BRANCH   3   4
HETATM    4  C8  UNL     1     -34.323  16.399  -4.769  1.00 20.00     0.050 C 
BRANCH   4   5
HETATM    5  C9  UNL     1     -34.344  15.545  -6.055  1.00 20.00     0.059 C 
HETATM    6  C6  UNL     1     -34.238  16.392  -7.300  1.00 20.00     0.046 C 
BRANCH   5   7
HETATM    7  C5  UNL     1     -35.635  14.716  -6.093  1.00 20.00     0.019 A 
HETATM    8  C3  UNL     1     -36.049  13.905  -4.896  1.00 20.00     0.008 A 
HETATM    9  C4  UNL     1     -36.827  15.133  -5.278  1.00 20.00     0.008 A 
ENDBRANCH   5   7
BRANCH   5  10
HETATM   10  O10 UNL     1     -33.242  14.636  -6.015  1.00 20.00    -0.390 OA
HETATM   11  H24 UNL     1     -33.252  14.236  -5.133  1.00 20.00     0.210 HD
ENDBRANCH   5  10
ENDBRANCH   4   5
ENDBRANCH   3   4
TORSDOF 4
ENDMDL
MODEL 6
REMARK VINA RESULT:      -4.0      9.015     10.400
REMARK  4 active torsions:
REMARK  status: ('A' for Active; 'I' for Inactive)
REMARK    1  A    between atoms: C5_5  and  C9_9 
REMARK    2  A    between atoms: C7_7  and  C8_8 
REMARK    3  A    between atoms: C8_8  and  C9_9 
REMARK    4  A    between atoms: C9_9  and  O10_10 
ROOT
HETATM    1  C1  UNL     1     -38.946  11.678   3.367  1.00 20.00     0.012 C 
HETATM    2  C2  UNL     1     -39.221  11.693   4.536  1.00 20.00    -0.117 C 
HETATM    3  C7  UNL     1     -39.557  11.706   5.967  1.00 20.00     0.096 C 
ENDROOT
BRANCH   3   4
HETATM    4  C8  UNL     1     -39.861  13.132   6.446  1.00 20.00     0.050 C 
BRANCH   4   5
HETATM    5  C9  UNL     1     -41.347  13.395   6.773  1.00 20.00     0.059 C 
HETATM    6  C6  UNL     1     -42.113  13.891   5.571  1.00 20.00     0.046 C 
BRANCH   5   7
HETATM    7  C5  UNL     1     -41.442  14.416   7.915  1.00 20.00     0.019 A 
HETATM    8  C3  UNL     1     -40.416  14.422   9.013  1.00 20.00     0.008 A 
HETATM    9  C4  UNL     1     -40.449  15.540   8.010  1.00 20.00     0.008 A 
ENDBRANCH   5   7
BRANCH   5  10
HETATM   10  O10 UNL     1     -41.934  12.174   7.229  1.00 20.00    -0.390 OA
HETATM   11  H24 UNL     1     -41.818  12.159   8.190  1.00 20.00     0.210 HD
ENDBRANCH   5  10
ENDBRANCH   4   5
ENDBRANCH   3   4
TORSDOF 4
ENDMDL
MODEL 7
REMARK VINA RESULT:      -4.0      9.325     10.682
REMARK  4 active torsions:
REMARK  status: ('A' for Active; 'I' for Inactive)
REMARK    1  A    between atoms: C5_5  and  C9_9 
REMARK    2  A    between atoms: C7_7  and  C8_8 
REMARK    3  A    between atoms: C8_8  and  C9_9 
REMARK    4  A    between atoms: C9_9  and  O10_10 
ROOT
HETATM    1  C1  UNL     1     -38.917  11.620   3.737  1.00 20.00     0.012 C 
HETATM    2  C2  UNL     1     -39.276  11.877   4.853  1.00 20.00    -0.117 C 
HETATM    3  C7  UNL     1     -39.713  12.191   6.222  1.00 20.00     0.096 C 
ENDROOT
BRANCH   3   4
HETATM    4  C8  UNL     1     -41.223  12.456   6.269  1.00 20.00     0.050 C 
BRANCH   4   5
HETATM    5  C9  UNL     1     -41.645  13.587   7.233  1.00 20.00     0.059 C 
HETATM    6  C6  UNL     1     -42.660  14.514   6.611  1.00 20.00     0.046 C 
BRANCH   5   7
HETATM    7  C5  UNL     1     -40.402  14.380   7.660  1.00 20.00     0.019 A 
HETATM    8  C3  UNL     1     -40.516  15.839   8.005  1.00 20.00     0.008 A 
HETATM    9  C4  UNL     1     -40.245  14.831   9.086  1.00 20.00     0.008 A 
ENDBRANCH   5   7
BRANCH   5  10
HETATM   10  O10 UNL     1     -42.210  12.997   8.405  1.00 20.00    -0.390 OA
HETATM   11  H24 UNL     1     -43.081  13.403   8.522  1.00 20.00     0.210 HD
ENDBRANCH   5  10
ENDBRANCH   4   5
ENDBRANCH   3   4
TORSDOF 4
ENDMDL
MODEL 8
REMARK VINA RESULT:      -3.9     11.680     12.510
REMARK  4 active torsions:
REMARK  status: ('A' for Active; 'I' for Inactive)
REMARK    1  A    between atoms: C5_5  and  C9_9 
REMARK    2  A    between atoms: C7_7  and  C8_8 
REMARK    3  A    between atoms: C8_8  and  C9_9 
REMARK    4  A    between atoms: C9_9  and  O10_10 
ROOT
HETATM    1  C1  UNL     1     -31.424  18.650  -0.415  1.00 20.00     0.012 C 
HETATM    2  C2  UNL     1     -32.401  18.114  -0.863  1.00 20.00    -0.117 C 
HETATM    3  C7  UNL     1     -33.599  17.458  -1.408  1.00 20.00     0.096 C 
ENDROOT
BRANCH   3   4
HETATM    4  C8  UNL     1     -33.270  16.700  -2.700  1.00 20.00     0.050 C 
BRANCH   4   5
HETATM    5  C9  UNL     1     -34.116  17.119  -3.922  1.00 20.00     0.059 C 
HETATM    6  C6  UNL     1     -35.254  18.032  -3.538  1.00 20.00     0.046 C 
BRANCH   5   7
HETATM    7  C5  UNL     1     -34.661  15.864  -4.616  1.00 20.00     0.019 A 
HETATM    8  C3  UNL     1     -33.801  15.101  -5.585  1.00 20.00     0.008 A 
HETATM    9  C4  UNL     1     -34.135  14.505  -4.247  1.00 20.00     0.008 A 
ENDBRANCH   5   7
BRANCH   5  10
HETATM   10  O10 UNL     1     -33.267  17.797  -4.850  1.00 20.00    -0.390 OA
HETATM   11  H24 UNL     1     -32.384  17.415  -4.741  1.00 20.00     0.210 HD
ENDBRANCH   5  10
ENDBRANCH   4   5
ENDBRANCH   3   4
TORSDOF 4
ENDMDL
MODEL 9
REMARK VINA RESULT:      -3.9      2.146      3.618
REMARK  4 active torsions:
REMARK  status: ('A' for Active; 'I' for Inactive)
REMARK    1  A    between atoms: C5_5  and  C9_9 
REMARK    2  A    between atoms: C7_7  and  C8_8 
REMARK    3  A    between atoms: C8_8  and  C9_9 
REMARK    4  A    between atoms: C9_9  and  O10_10 
ROOT
HETATM    1  C1  UNL     1     -31.891   9.176   4.699  1.00 20.00     0.012 C 
HETATM    2  C2  UNL     1     -32.838   8.605   5.168  1.00 20.00    -0.117 C 
HETATM    3  C7  UNL     1     -33.997   7.907   5.747  1.00 20.00     0.096 C 
ENDROOT
BRANCH   3   4
HETATM    4  C8  UNL     1     -34.670   7.005   4.705  1.00 20.00     0.050 C 
BRANCH   4   5
HETATM    5  C9  UNL     1     -34.474   5.492   4.946  1.00 20.00     0.059 C 
HETATM    6  C6  UNL     1     -34.126   5.186   6.382  1.00 20.00     0.046 C 
BRANCH   5   7
HETATM    7  C5  UNL     1     -33.371   4.969   4.016  1.00 20.00     0.019 A 
HETATM    8  C3  UNL     1     -33.658   4.731   2.559  1.00 20.00     0.008 A 
HETATM    9  C4  UNL     1     -32.769   5.869   2.974  1.00 20.00     0.008 A 
ENDBRANCH   5   7
BRANCH   5  10
HETATM   10  O10 UNL     1     -35.687   4.818   4.606  1.00 20.00    -0.390 OA
HETATM   11  H24 UNL     1     -36.106   4.571   5.444  1.00 20.00     0.210 HD
ENDBRANCH   5  10
ENDBRANCH   4   5
ENDBRANCH   3   4
TORSDOF 4
ENDMDL
