MODEL 1
REMARK VINA RESULT:      -5.4      0.000      0.000
REMARK  2 active torsions:
REMARK  status: ('A' for Active; 'I' for Inactive)
REMARK    1  A    between atoms: C7_7  and  C9_9 
REMARK    2  A    between atoms: C8_8  and  C9_9 
ROOT
HETATM    1  C1  UNL     1     -32.537   9.048   0.810  1.00 20.00     0.012 C 
HETATM    2  C2  UNL     1     -32.327   8.340   1.757  1.00 20.00    -0.117 C 
HETATM    3  C8  UNL     1     -32.067   7.471   2.912  1.00 20.00     0.093 C 
ENDROOT
BRANCH   3   4
HETATM    4  C9  UNL     1     -32.819   7.969   4.137  1.00 20.00     0.024 C 
BRANCH   4   5
HETATM    5  C7  UNL     1     -34.002   7.077   4.454  1.00 20.00     0.056 C 
HETATM    6  C3  UNL     1     -34.167   6.816   5.937  1.00 20.00     0.131 C 
HETATM    7  C4  UNL     1     -34.451   5.363   6.227  1.00 20.00     0.079 C 
HETATM    8  O10 UNL     1     -34.081   7.675   6.806  1.00 20.00    -0.298 OA
HETATM    9  C5  UNL     1     -34.713   4.808   4.833  1.00 20.00     0.008 C 
HETATM   10  C6  UNL     1     -33.837   5.654   3.917  1.00 20.00     0.013 C 
ENDBRANCH   4   5
ENDBRANCH   3   4
TORSDOF 2
ENDMDL
MODEL 2
REMARK VINA RESULT:      -5.1      1.512      1.963
REMARK  2 active torsions:
REMARK  status: ('A' for Active; 'I' for Inactive)
REMARK    1  A    between atoms: C7_7  and  C9_9 
REMARK    2  A    between atoms: C8_8  and  C9_9 
ROOT
HETATM    1  C1  UNL     1     -32.922   9.508   1.202  1.00 20.00     0.012 C 
HETATM    2  C2  UNL     1     -32.599   9.075   2.275  1.00 20.00    -0.117 C 
HETATM    3  C8  UNL     1     -32.199   8.545   3.585  1.00 20.00     0.093 C 
ENDROOT
BRANCH   3   4
HETATM    4  C9  UNL     1     -33.416   8.334   4.472  1.00 20.00     0.024 C 
BRANCH   4   5
HETATM    5  C7  UNL     1     -33.357   6.994   5.175  1.00 20.00     0.056 C 
HETATM    6  C3  UNL     1     -33.832   5.848   4.305  1.00 20.00     0.131 C 
HETATM    7  C4  UNL     1     -34.751   4.913   5.053  1.00 20.00     0.079 C 
HETATM    8  O10 UNL     1     -33.515   5.690   3.133  1.00 20.00    -0.298 OA
HETATM    9  C5  UNL     1     -34.598   5.401   6.488  1.00 20.00     0.008 C 
HETATM   10  C6  UNL     1     -34.327   6.894   6.355  1.00 20.00     0.013 C 
ENDBRANCH   4   5
ENDBRANCH   3   4
TORSDOF 2
ENDMDL
MODEL 3
REMARK VINA RESULT:      -4.7      0.929      1.202
REMARK  2 active torsions:
REMARK  status: ('A' for Active; 'I' for Inactive)
REMARK    1  A    between atoms: C7_7  and  C9_9 
REMARK    2  A    between atoms: C8_8  and  C9_9 
ROOT
HETATM    1  C1  UNL     1     -32.501   8.748   0.533  1.00 20.00     0.012 C 
HETATM    2  C2  UNL     1     -32.305   8.242   1.605  1.00 20.00    -0.117 C 
HETATM    3  C8  UNL     1     -32.063   7.627   2.917  1.00 20.00     0.093 C 
ENDROOT
BRANCH   3   4
HETATM    4  C9  UNL     1     -32.777   6.288   3.021  1.00 20.00     0.024 C 
BRANCH   4   5
HETATM    5  C7  UNL     1     -33.942   6.362   3.986  1.00 20.00     0.056 C 
HETATM    6  C3  UNL     1     -33.652   7.219   5.201  1.00 20.00     0.131 C 
HETATM    7  C4  UNL     1     -34.114   6.564   6.479  1.00 20.00     0.079 C 
HETATM    8  O10 UNL     1     -33.106   8.315   5.162  1.00 20.00    -0.298 OA
HETATM    9  C5  UNL     1     -34.935   5.393   5.955  1.00 20.00     0.008 C 
HETATM   10  C6  UNL     1     -34.263   5.016   4.640  1.00 20.00     0.013 C 
ENDBRANCH   4   5
ENDBRANCH   3   4
TORSDOF 2
ENDMDL
MODEL 4
REMARK VINA RESULT:      -4.6     11.884     12.516
REMARK  2 active torsions:
REMARK  status: ('A' for Active; 'I' for Inactive)
REMARK    1  A    between atoms: C7_7  and  C9_9 
REMARK    2  A    between atoms: C8_8  and  C9_9 
ROOT
HETATM    1  C1  UNL     1     -33.196  15.195  -4.238  1.00 20.00     0.012 C 
HETATM    2  C2  UNL     1     -33.322  15.906  -3.279  1.00 20.00    -0.117 C 
HETATM    3  C8  UNL     1     -33.478  16.772  -2.103  1.00 20.00     0.093 C 
ENDROOT
BRANCH   3   4
HETATM    4  C9  UNL     1     -32.857  18.137  -2.356  1.00 20.00     0.024 C 
BRANCH   4   5
HETATM    5  C7  UNL     1     -32.911  19.003  -1.114  1.00 20.00     0.056 C 
HETATM    6  C3  UNL     1     -31.744  18.769  -0.177  1.00 20.00     0.131 C 
HETATM    7  C4  UNL     1     -32.185  18.668   1.262  1.00 20.00     0.079 C 
HETATM    8  O10 UNL     1     -30.577  18.671  -0.536  1.00 20.00    -0.298 OA
HETATM    9  C5  UNL     1     -33.639  19.115   1.179  1.00 20.00     0.008 C 
HETATM   10  C6  UNL     1     -34.096  18.669  -0.205  1.00 20.00     0.013 C 
ENDBRANCH   4   5
ENDBRANCH   3   4
TORSDOF 2
ENDMDL
MODEL 5
REMARK VINA RESULT:      -4.4      1.748      4.520
REMARK  2 active torsions:
REMARK  status: ('A' for Active; 'I' for Inactive)
REMARK    1  A    between atoms: C7_7  and  C9_9 
REMARK    2  A    between atoms: C8_8  and  C9_9 
ROOT
HETATM    1  C1  UNL     1     -34.775   5.040   5.734  1.00 20.00     0.012 C 
HETATM    2  C2  UNL     1     -34.388   6.163   5.914  1.00 20.00    -0.117 C 
HETATM    3  C8  UNL     1     -33.919   7.537   6.137  1.00 20.00     0.093 C 
ENDROOT
BRANCH   3   4
HETATM    4  C9  UNL     1     -32.743   7.857   5.228  1.00 20.00     0.024 C 
BRANCH   4   5
HETATM    5  C7  UNL     1     -33.203   8.120   3.809  1.00 20.00     0.056 C 
HETATM    6  C3  UNL     1     -32.608   7.156   2.804  1.00 20.00     0.131 C 
HETATM    7  C4  UNL     1     -32.121   7.861   1.563  1.00 20.00     0.079 C 
HETATM    8  O10 UNL     1     -32.526   5.945   2.971  1.00 20.00    -0.298 OA
HETATM    9  C5  UNL     1     -32.690   9.261   1.751  1.00 20.00     0.008 C 
HETATM   10  C6  UNL     1     -32.712   9.462   3.261  1.00 20.00     0.013 C 
ENDBRANCH   4   5
ENDBRANCH   3   4
TORSDOF 2
ENDMDL
MODEL 6
REMARK VINA RESULT:      -4.2     11.927     12.515
REMARK  2 active torsions:
REMARK  status: ('A' for Active; 'I' for Inactive)
REMARK    1  A    between atoms: C7_7  and  C9_9 
REMARK    2  A    between atoms: C8_8  and  C9_9 
ROOT
HETATM    1  C1  UNL     1     -29.069  18.962   3.983  1.00 20.00     0.012 C 
HETATM    2  C2  UNL     1     -29.703  18.648   3.013  1.00 20.00    -0.117 C 
HETATM    3  C8  UNL     1     -30.473  18.262   1.823  1.00 20.00     0.093 C 
ENDROOT
BRANCH   3   4
HETATM    4  C9  UNL     1     -31.872  18.855   1.875  1.00 20.00     0.024 C 
BRANCH   4   5
HETATM    5  C7  UNL     1     -32.442  19.036   0.483  1.00 20.00     0.056 C 
HETATM    6  C3  UNL     1     -33.740  18.284   0.272  1.00 20.00     0.131 C 
HETATM    7  C4  UNL     1     -33.766  17.560  -1.051  1.00 20.00     0.079 C 
HETATM    8  O10 UNL     1     -34.666  18.260   1.075  1.00 20.00    -0.298 OA
HETATM    9  C5  UNL     1     -32.532  18.124  -1.744  1.00 20.00     0.008 C 
HETATM   10  C6  UNL     1     -31.562  18.424  -0.608  1.00 20.00     0.013 C 
ENDBRANCH   4   5
ENDBRANCH   3   4
TORSDOF 2
ENDMDL
MODEL 7
REMARK VINA RESULT:      -4.1     12.008     12.901
REMARK  2 active torsions:
REMARK  status: ('A' for Active; 'I' for Inactive)
REMARK    1  A    between atoms: C7_7  and  C9_9 
REMARK    2  A    between atoms: C8_8  and  C9_9 
ROOT
HETATM    1  C1  UNL     1     -31.529  18.550  -0.508  1.00 20.00     0.012 C 
HETATM    2  C2  UNL     1     -32.442  18.011  -1.072  1.00 20.00    -0.117 C 
HETATM    3  C8  UNL     1     -33.561  17.353  -1.758  1.00 20.00     0.093 C 
ENDROOT
BRANCH   3   4
HETATM    4  C9  UNL     1     -33.057  16.506  -2.916  1.00 20.00     0.024 C 
BRANCH   4   5
HETATM    5  C7  UNL     1     -34.164  16.223  -3.910  1.00 20.00     0.056 C 
HETATM    6  C3  UNL     1     -33.899  14.995  -4.758  1.00 20.00     0.131 C 
HETATM    7  C4  UNL     1     -34.209  15.236  -6.215  1.00 20.00     0.079 C 
HETATM    8  O10 UNL     1     -33.482  13.929  -4.322  1.00 20.00    -0.298 OA
HETATM    9  C5  UNL     1     -34.924  16.580  -6.167  1.00 20.00     0.008 C 
HETATM   10  C6  UNL     1     -34.293  17.305  -4.984  1.00 20.00     0.013 C 
ENDBRANCH   4   5
ENDBRANCH   3   4
TORSDOF 2
ENDMDL
MODEL 8
REMARK VINA RESULT:      -4.0      9.516     10.308
REMARK  2 active torsions:
REMARK  status: ('A' for Active; 'I' for Inactive)
REMARK    1  A    between atoms: C7_7  and  C9_9 
REMARK    2  A    between atoms: C8_8  and  C9_9 
ROOT
HETATM    1  C1  UNL     1     -38.929  11.704   3.426  1.00 20.00     0.012 C 
HETATM    2  C2  UNL     1     -39.206  11.712   4.595  1.00 20.00    -0.117 C 
HETATM    3  C8  UNL     1     -39.541  11.719   6.025  1.00 20.00     0.093 C 
ENDROOT
BRANCH   3   4
HETATM    4  C9  UNL     1     -40.904  12.353   6.253  1.00 20.00     0.024 C 
BRANCH   4   5
HETATM    5  C7  UNL     1     -40.794  13.859   6.378  1.00 20.00     0.056 C 
HETATM    6  C3  UNL     1     -40.818  14.337   7.815  1.00 20.00     0.131 C 
HETATM    7  C4  UNL     1     -41.719  15.533   7.998  1.00 20.00     0.079 C 
HETATM    8  O10 UNL     1     -40.183  13.822   8.727  1.00 20.00    -0.298 OA
HETATM    9  C5  UNL     1     -42.033  15.916   6.558  1.00 20.00     0.008 C 
HETATM   10  C6  UNL     1     -42.004  14.595   5.798  1.00 20.00     0.013 C 
ENDBRANCH   4   5
ENDBRANCH   3   4
TORSDOF 2
ENDMDL
MODEL 9
REMARK VINA RESULT:      -4.0     12.025     12.940
REMARK  2 active torsions:
REMARK  status: ('A' for Active; 'I' for Inactive)
REMARK    1  A    between atoms: C7_7  and  C9_9 
REMARK    2  A    between atoms: C8_8  and  C9_9 
ROOT
HETATM    1  C1  UNL     1     -31.120  18.441   0.323  1.00 20.00     0.012 C 
HETATM    2  C2  UNL     1     -31.783  18.459  -0.678  1.00 20.00    -0.117 C 
HETATM    3  C8  UNL     1     -32.593  18.487  -1.903  1.00 20.00     0.093 C 
ENDROOT
BRANCH   3   4
HETATM    4  C9  UNL     1     -33.266  17.142  -2.130  1.00 20.00     0.024 C 
BRANCH   4   5
HETATM    5  C7  UNL     1     -33.299  16.788  -3.603  1.00 20.00     0.056 C 
HETATM    6  C3  UNL     1     -34.612  17.144  -4.268  1.00 20.00     0.131 C 
HETATM    7  C4  UNL     1     -35.113  16.036  -5.161  1.00 20.00     0.079 C 
HETATM    8  O10 UNL     1     -35.206  18.204  -4.107  1.00 20.00    -0.298 OA
HETATM    9  C5  UNL     1     -33.910  15.103  -5.210  1.00 20.00     0.008 C 
HETATM   10  C6  UNL     1     -33.236  15.280  -3.856  1.00 20.00     0.013 C 
ENDBRANCH   4   5
ENDBRANCH   3   4
TORSDOF 2
ENDMDL
