MODEL 1
REMARK VINA RESULT:      -5.0      0.000      0.000
REMARK  4 active torsions:
REMARK  status: ('A' for Active; 'I' for Inactive)
REMARK    1  A    between atoms: C3_3  and  C7_7 
REMARK    2  A    between atoms: C3_3  and  C9_9 
REMARK    3  A    between atoms: C6_6  and  C8_8 
REMARK    4  A    between atoms: C7_7  and  C8_8 
ROOT
HETATM    1  C1  UNL     1     -32.850   5.043   2.556  1.00 20.00     0.012 C 
HETATM    2  C2  UNL     1     -32.551   6.203   2.626  1.00 20.00    -0.117 C 
HETATM    3  C6  UNL     1     -32.182   7.623   2.705  1.00 20.00     0.093 C 
ENDROOT
BRANCH   3   4
HETATM    4  C8  UNL     1     -32.292   8.141   4.139  1.00 20.00     0.019 C 
BRANCH   4   5
HETATM    5  C7  UNL     1     -33.726   8.046   4.657  1.00 20.00     0.079 C 
BRANCH   5   6
HETATM    6  C3  UNL     1     -33.850   7.137   5.871  1.00 20.00     0.130 C 
HETATM    7  O10 UNL     1     -33.131   7.269   6.863  1.00 20.00    -0.298 OA
BRANCH   6   8
HETATM    8  C9  UNL     1     -34.897   6.028   5.780  1.00 20.00     0.047 C 
HETATM    9  C4  UNL     1     -34.262   4.658   6.007  1.00 20.00     0.017 C 
HETATM   10  C5  UNL     1     -35.593   6.089   4.427  1.00 20.00     0.017 C 
ENDBRANCH   6   8
ENDBRANCH   5   6
ENDBRANCH   4   5
ENDBRANCH   3   4
TORSDOF 4
ENDMDL
MODEL 2
REMARK VINA RESULT:      -5.0      1.296      3.658
REMARK  4 active torsions:
REMARK  status: ('A' for Active; 'I' for Inactive)
REMARK    1  A    between atoms: C3_3  and  C7_7 
REMARK    2  A    between atoms: C3_3  and  C9_9 
REMARK    3  A    between atoms: C6_6  and  C8_8 
REMARK    4  A    between atoms: C7_7  and  C8_8 
ROOT
HETATM    1  C1  UNL     1     -34.101   4.209   4.433  1.00 20.00     0.012 C 
HETATM    2  C2  UNL     1     -34.362   4.985   5.312  1.00 20.00    -0.117 C 
HETATM    3  C6  UNL     1     -34.686   5.930   6.388  1.00 20.00     0.093 C 
ENDROOT
BRANCH   3   4
HETATM    4  C8  UNL     1     -33.886   7.225   6.244  1.00 20.00     0.019 C 
BRANCH   4   5
HETATM    5  C7  UNL     1     -33.931   7.750   4.810  1.00 20.00     0.079 C 
BRANCH   5   6
HETATM    6  C3  UNL     1     -32.649   8.467   4.411  1.00 20.00     0.130 C 
HETATM    7  O10 UNL     1     -32.085   9.264   5.162  1.00 20.00    -0.298 OA
BRANCH   6   8
HETATM    8  C9  UNL     1     -32.116   8.167   3.012  1.00 20.00     0.047 C 
HETATM    9  C4  UNL     1     -32.737   9.104   1.978  1.00 20.00     0.017 C 
HETATM   10  C5  UNL     1     -32.388   6.710   2.659  1.00 20.00     0.017 C 
ENDBRANCH   6   8
ENDBRANCH   5   6
ENDBRANCH   4   5
ENDBRANCH   3   4
TORSDOF 4
ENDMDL
MODEL 3
REMARK VINA RESULT:      -4.7      1.315      2.122
REMARK  4 active torsions:
REMARK  status: ('A' for Active; 'I' for Inactive)
REMARK    1  A    between atoms: C3_3  and  C7_7 
REMARK    2  A    between atoms: C3_3  and  C9_9 
REMARK    3  A    between atoms: C6_6  and  C8_8 
REMARK    4  A    between atoms: C7_7  and  C8_8 
ROOT
HETATM    1  C1  UNL     1     -32.147   7.400   2.253  1.00 20.00     0.012 C 
HETATM    2  C2  UNL     1     -32.194   7.904   3.342  1.00 20.00    -0.117 C 
HETATM    3  C6  UNL     1     -32.246   8.521   4.674  1.00 20.00     0.093 C 
ENDROOT
BRANCH   3   4
HETATM    4  C8  UNL     1     -33.628   8.354   5.305  1.00 20.00     0.019 C 
BRANCH   4   5
HETATM    5  C7  UNL     1     -33.613   7.297   6.408  1.00 20.00     0.079 C 
BRANCH   5   6
HETATM    6  C3  UNL     1     -34.395   6.047   6.028  1.00 20.00     0.130 C 
HETATM    7  O10 UNL     1     -34.854   5.280   6.876  1.00 20.00    -0.298 OA
BRANCH   6   8
HETATM    8  C9  UNL     1     -34.553   5.779   4.533  1.00 20.00     0.047 C 
HETATM    9  C4  UNL     1     -36.012   5.924   4.105  1.00 20.00     0.017 C 
HETATM   10  C5  UNL     1     -34.022   4.391   4.200  1.00 20.00     0.017 C 
ENDBRANCH   6   8
ENDBRANCH   5   6
ENDBRANCH   4   5
ENDBRANCH   3   4
TORSDOF 4
ENDMDL
MODEL 4
REMARK VINA RESULT:      -4.7      1.016      1.511
REMARK  4 active torsions:
REMARK  status: ('A' for Active; 'I' for Inactive)
REMARK    1  A    between atoms: C3_3  and  C7_7 
REMARK    2  A    between atoms: C3_3  and  C9_9 
REMARK    3  A    between atoms: C6_6  and  C8_8 
REMARK    4  A    between atoms: C7_7  and  C8_8 
ROOT
HETATM    1  C1  UNL     1     -32.253   8.543   0.748  1.00 20.00     0.012 C 
HETATM    2  C2  UNL     1     -32.230   7.981   1.809  1.00 20.00    -0.117 C 
HETATM    3  C6  UNL     1     -32.202   7.288   3.104  1.00 20.00     0.093 C 
ENDROOT
BRANCH   3   4
HETATM    4  C8  UNL     1     -32.496   8.253   4.252  1.00 20.00     0.019 C 
BRANCH   4   5
HETATM    5  C7  UNL     1     -33.891   8.023   4.829  1.00 20.00     0.079 C 
BRANCH   5   6
HETATM    6  C3  UNL     1     -33.956   6.794   5.726  1.00 20.00     0.130 C 
HETATM    7  O10 UNL     1     -33.284   6.699   6.753  1.00 20.00    -0.298 OA
BRANCH   6   8
HETATM    8  C9  UNL     1     -34.880   5.670   5.262  1.00 20.00     0.047 C 
HETATM    9  C4  UNL     1     -34.074   4.471   4.766  1.00 20.00     0.017 C 
HETATM   10  C5  UNL     1     -35.815   6.186   4.176  1.00 20.00     0.017 C 
ENDBRANCH   6   8
ENDBRANCH   5   6
ENDBRANCH   4   5
ENDBRANCH   3   4
TORSDOF 4
ENDMDL
MODEL 5
REMARK VINA RESULT:      -4.5      1.862      4.323
REMARK  4 active torsions:
REMARK  status: ('A' for Active; 'I' for Inactive)
REMARK    1  A    between atoms: C3_3  and  C7_7 
REMARK    2  A    between atoms: C3_3  and  C9_9 
REMARK    3  A    between atoms: C6_6  and  C8_8 
REMARK    4  A    between atoms: C7_7  and  C8_8 
ROOT
HETATM    1  C1  UNL     1     -34.007   7.585   6.771  1.00 20.00     0.012 C 
HETATM    2  C2  UNL     1     -34.338   6.471   6.469  1.00 20.00    -0.117 C 
HETATM    3  C6  UNL     1     -34.744   5.107   6.104  1.00 20.00     0.093 C 
ENDROOT
BRANCH   3   4
HETATM    4  C8  UNL     1     -34.400   4.802   4.646  1.00 20.00     0.019 C 
BRANCH   4   5
HETATM    5  C7  UNL     1     -34.165   6.084   3.849  1.00 20.00     0.079 C 
BRANCH   5   6
HETATM    6  C3  UNL     1     -32.934   5.999   2.957  1.00 20.00     0.130 C 
HETATM    7  O10 UNL     1     -32.628   4.965   2.363  1.00 20.00    -0.298 OA
BRANCH   6   8
HETATM    8  C9  UNL     1     -32.081   7.262   2.864  1.00 20.00     0.047 C 
HETATM    9  C4  UNL     1     -32.484   8.273   3.935  1.00 20.00     0.017 C 
HETATM   10  C5  UNL     1     -32.205   7.865   1.471  1.00 20.00     0.017 C 
ENDBRANCH   6   8
ENDBRANCH   5   6
ENDBRANCH   4   5
ENDBRANCH   3   4
TORSDOF 4
ENDMDL
MODEL 6
REMARK VINA RESULT:      -4.3      1.651      2.794
REMARK  4 active torsions:
REMARK  status: ('A' for Active; 'I' for Inactive)
REMARK    1  A    between atoms: C3_3  and  C7_7 
REMARK    2  A    between atoms: C3_3  and  C9_9 
REMARK    3  A    between atoms: C6_6  and  C8_8 
REMARK    4  A    between atoms: C7_7  and  C8_8 
ROOT
HETATM    1  C1  UNL     1     -32.516   9.038   5.156  1.00 20.00     0.012 C 
HETATM    2  C2  UNL     1     -32.183   8.333   4.244  1.00 20.00    -0.117 C 
HETATM    3  C6  UNL     1     -31.770   7.472   3.127  1.00 20.00     0.093 C 
ENDROOT
BRANCH   3   4
HETATM    4  C8  UNL     1     -32.963   6.713   2.546  1.00 20.00     0.019 C 
BRANCH   4   5
HETATM    5  C7  UNL     1     -32.906   5.229   2.900  1.00 20.00     0.079 C 
BRANCH   5   6
HETATM    6  C3  UNL     1     -33.822   4.870   4.062  1.00 20.00     0.130 C 
HETATM    7  O10 UNL     1     -33.973   3.709   4.441  1.00 20.00    -0.298 OA
BRANCH   6   8
HETATM    8  C9  UNL     1     -34.570   6.032   4.713  1.00 20.00     0.047 C 
HETATM    9  C4  UNL     1     -34.518   5.929   6.236  1.00 20.00     0.017 C 
HETATM   10  C5  UNL     1     -36.010   6.059   4.218  1.00 20.00     0.017 C 
ENDBRANCH   6   8
ENDBRANCH   5   6
ENDBRANCH   4   5
ENDBRANCH   3   4
TORSDOF 4
ENDMDL
MODEL 7
REMARK VINA RESULT:      -4.3      1.782      4.222
REMARK  4 active torsions:
REMARK  status: ('A' for Active; 'I' for Inactive)
REMARK    1  A    between atoms: C3_3  and  C7_7 
REMARK    2  A    between atoms: C3_3  and  C9_9 
REMARK    3  A    between atoms: C6_6  and  C8_8 
REMARK    4  A    between atoms: C7_7  and  C8_8 
ROOT
HETATM    1  C1  UNL     1     -34.918   5.012   5.286  1.00 20.00     0.012 C 
HETATM    2  C2  UNL     1     -34.367   5.999   5.689  1.00 20.00    -0.117 C 
HETATM    3  C6  UNL     1     -33.692   7.204   6.189  1.00 20.00     0.093 C 
ENDROOT
BRANCH   3   4
HETATM    4  C8  UNL     1     -33.648   8.294   5.118  1.00 20.00     0.019 C 
BRANCH   4   5
HETATM    5  C7  UNL     1     -32.288   8.340   4.424  1.00 20.00     0.079 C 
BRANCH   5   6
HETATM    6  C3  UNL     1     -32.321   7.719   3.034  1.00 20.00     0.130 C 
HETATM    7  O10 UNL     1     -32.532   6.519   2.859  1.00 20.00    -0.298 OA
BRANCH   6   8
HETATM    8  C9  UNL     1     -32.046   8.666   1.867  1.00 20.00     0.047 C 
HETATM    9  C4  UNL     1     -33.081   9.786   1.818  1.00 20.00     0.017 C 
HETATM   10  C5  UNL     1     -32.028   7.881   0.562  1.00 20.00     0.017 C 
ENDBRANCH   6   8
ENDBRANCH   5   6
ENDBRANCH   4   5
ENDBRANCH   3   4
TORSDOF 4
ENDMDL
MODEL 8
REMARK VINA RESULT:      -4.3      1.684      2.242
REMARK  4 active torsions:
REMARK  status: ('A' for Active; 'I' for Inactive)
REMARK    1  A    between atoms: C3_3  and  C7_7 
REMARK    2  A    between atoms: C3_3  and  C9_9 
REMARK    3  A    between atoms: C6_6  and  C8_8 
REMARK    4  A    between atoms: C7_7  and  C8_8 
ROOT
HETATM    1  C1  UNL     1     -32.552   9.012  -0.020  1.00 20.00     0.012 C 
HETATM    2  C2  UNL     1     -32.664   9.154   1.167  1.00 20.00    -0.117 C 
HETATM    3  C6  UNL     1     -32.804   9.334   2.618  1.00 20.00     0.093 C 
ENDROOT
BRANCH   3   4
HETATM    4  C8  UNL     1     -32.042   8.252   3.383  1.00 20.00     0.019 C 
BRANCH   4   5
HETATM    5  C7  UNL     1     -32.885   6.988   3.546  1.00 20.00     0.079 C 
BRANCH   5   6
HETATM    6  C3  UNL     1     -33.765   7.031   4.787  1.00 20.00     0.130 C 
HETATM    7  O10 UNL     1     -33.751   7.984   5.566  1.00 20.00    -0.298 OA
BRANCH   6   8
HETATM    8  C9  UNL     1     -34.648   5.808   5.030  1.00 20.00     0.047 C 
HETATM    9  C4  UNL     1     -34.716   5.471   6.518  1.00 20.00     0.017 C 
HETATM   10  C5  UNL     1     -34.121   4.625   4.227  1.00 20.00     0.017 C 
ENDBRANCH   6   8
ENDBRANCH   5   6
ENDBRANCH   4   5
ENDBRANCH   3   4
TORSDOF 4
ENDMDL
MODEL 9
REMARK VINA RESULT:      -4.2     12.493     13.076
REMARK  4 active torsions:
REMARK  status: ('A' for Active; 'I' for Inactive)
REMARK    1  A    between atoms: C3_3  and  C7_7 
REMARK    2  A    between atoms: C3_3  and  C9_9 
REMARK    3  A    between atoms: C6_6  and  C8_8 
REMARK    4  A    between atoms: C7_7  and  C8_8 
ROOT
HETATM    1  C1  UNL     1     -27.457  18.580   4.162  1.00 20.00     0.012 C 
HETATM    2  C2  UNL     1     -28.603  18.720   3.834  1.00 20.00    -0.117 C 
HETATM    3  C6  UNL     1     -30.007  18.894   3.438  1.00 20.00     0.093 C 
ENDROOT
BRANCH   3   4
HETATM    4  C8  UNL     1     -30.267  18.299   2.054  1.00 20.00     0.019 C 
BRANCH   4   5
HETATM    5  C7  UNL     1     -31.624  18.736   1.506  1.00 20.00     0.079 C 
BRANCH   5   6
HETATM    6  C3  UNL     1     -31.704  18.626  -0.010  1.00 20.00     0.130 C 
HETATM    7  O10 UNL     1     -30.700  18.671  -0.722  1.00 20.00    -0.298 OA
BRANCH   6   8
HETATM    8  C9  UNL     1     -33.104  18.487  -0.604  1.00 20.00     0.047 C 
HETATM    9  C4  UNL     1     -34.131  18.186   0.486  1.00 20.00     0.017 C 
HETATM   10  C5  UNL     1     -33.106  17.400  -1.670  1.00 20.00     0.017 C 
ENDBRANCH   6   8
ENDBRANCH   5   6
ENDBRANCH   4   5
ENDBRANCH   3   4
TORSDOF 4
ENDMDL
