MODEL 1
REMARK VINA RESULT:      -5.0      0.000      0.000
REMARK  4 active torsions:
REMARK  status: ('A' for Active; 'I' for Inactive)
REMARK    1  A    between atoms: C3_3  and  C6_6 
REMARK    2  A    between atoms: C3_3  and  C7_7 
REMARK    3  A    between atoms: C5_5  and  C8_8 
REMARK    4  A    between atoms: C7_7  and  C8_8 
ROOT
HETATM    1  C1  UNL     1     -32.173   8.417   3.526  1.00 20.00     0.012 C 
HETATM    2  C2  UNL     1     -32.900   8.316   4.476  1.00 20.00    -0.117 C 
HETATM    3  C5  UNL     1     -33.792   8.195   5.637  1.00 20.00     0.093 C 
ENDROOT
BRANCH   3   4
HETATM    4  C8  UNL     1     -33.530   6.893   6.399  1.00 20.00     0.019 C 
BRANCH   4   5
HETATM    5  C7  UNL     1     -34.677   5.893   6.257  1.00 20.00     0.079 C 
BRANCH   5   6
HETATM    6  C3  UNL     1     -34.955   5.475   4.820  1.00 20.00     0.126 C 
HETATM    7  O9  UNL     1     -35.938   5.875   4.198  1.00 20.00    -0.298 OA
BRANCH   6   8
HETATM    8  C6  UNL     1     -33.954   4.503   4.216  1.00 20.00     0.074 C 
HETATM    9  C4  UNL     1     -33.319   5.031   2.943  1.00 20.00     0.013 C 
ENDBRANCH   6   8
ENDBRANCH   5   6
ENDBRANCH   4   5
ENDBRANCH   3   4
TORSDOF 4
ENDMDL
MODEL 2
REMARK VINA RESULT:      -4.9      1.333      2.713
REMARK  4 active torsions:
REMARK  status: ('A' for Active; 'I' for Inactive)
REMARK    1  A    between atoms: C3_3  and  C6_6 
REMARK    2  A    between atoms: C3_3  and  C7_7 
REMARK    3  A    between atoms: C5_5  and  C8_8 
REMARK    4  A    between atoms: C7_7  and  C8_8 
ROOT
HETATM    1  C1  UNL     1     -32.261   8.849   4.778  1.00 20.00     0.012 C 
HETATM    2  C2  UNL     1     -32.244   8.144   3.806  1.00 20.00    -0.117 C 
HETATM    3  C5  UNL     1     -32.221   7.284   2.615  1.00 20.00     0.093 C 
ENDROOT
BRANCH   3   4
HETATM    4  C8  UNL     1     -32.857   5.922   2.908  1.00 20.00     0.019 C 
BRANCH   4   5
HETATM    5  C7  UNL     1     -34.115   6.038   3.768  1.00 20.00     0.079 C 
BRANCH   5   6
HETATM    6  C3  UNL     1     -34.267   4.921   4.790  1.00 20.00     0.126 C 
HETATM    7  O9  UNL     1     -34.035   3.744   4.518  1.00 20.00    -0.298 OA
BRANCH   6   8
HETATM    8  C6  UNL     1     -34.758   5.353   6.162  1.00 20.00     0.074 C 
HETATM    9  C4  UNL     1     -34.297   6.750   6.536  1.00 20.00     0.013 C 
ENDBRANCH   6   8
ENDBRANCH   5   6
ENDBRANCH   4   5
ENDBRANCH   3   4
TORSDOF 4
ENDMDL
MODEL 3
REMARK VINA RESULT:      -4.9      1.901      3.527
REMARK  4 active torsions:
REMARK  status: ('A' for Active; 'I' for Inactive)
REMARK    1  A    between atoms: C3_3  and  C6_6 
REMARK    2  A    between atoms: C3_3  and  C7_7 
REMARK    3  A    between atoms: C5_5  and  C8_8 
REMARK    4  A    between atoms: C7_7  and  C8_8 
ROOT
HETATM    1  C1  UNL     1     -34.059   4.294   4.272  1.00 20.00     0.012 C 
HETATM    2  C2  UNL     1     -34.356   4.982   5.210  1.00 20.00    -0.117 C 
HETATM    3  C5  UNL     1     -34.721   5.821   6.360  1.00 20.00     0.093 C 
ENDROOT
BRANCH   3   4
HETATM    4  C8  UNL     1     -33.919   7.125   6.367  1.00 20.00     0.019 C 
BRANCH   4   5
HETATM    5  C7  UNL     1     -34.023   7.881   5.043  1.00 20.00     0.079 C 
BRANCH   5   6
HETATM    6  C3  UNL     1     -32.678   8.275   4.449  1.00 20.00     0.126 C 
HETATM    7  O9  UNL     1     -32.044   9.251   4.847  1.00 20.00    -0.298 OA
BRANCH   6   8
HETATM    8  C6  UNL     1     -32.185   7.399   3.309  1.00 20.00     0.074 C 
HETATM    9  C4  UNL     1     -32.248   8.098   1.964  1.00 20.00     0.013 C 
ENDBRANCH   6   8
ENDBRANCH   5   6
ENDBRANCH   4   5
ENDBRANCH   3   4
TORSDOF 4
ENDMDL
MODEL 4
REMARK VINA RESULT:      -4.8      1.282      1.805
REMARK  4 active torsions:
REMARK  status: ('A' for Active; 'I' for Inactive)
REMARK    1  A    between atoms: C3_3  and  C6_6 
REMARK    2  A    between atoms: C3_3  and  C7_7 
REMARK    3  A    between atoms: C5_5  and  C8_8 
REMARK    4  A    between atoms: C7_7  and  C8_8 
ROOT
HETATM    1  C1  UNL     1     -32.146   7.597   2.170  1.00 20.00     0.012 C 
HETATM    2  C2  UNL     1     -32.259   7.927   3.319  1.00 20.00    -0.117 C 
HETATM    3  C5  UNL     1     -32.394   8.334   4.725  1.00 20.00     0.093 C 
ENDROOT
BRANCH   3   4
HETATM    4  C8  UNL     1     -33.850   8.237   5.189  1.00 20.00     0.019 C 
BRANCH   4   5
HETATM    5  C7  UNL     1     -34.017   7.312   6.394  1.00 20.00     0.079 C 
BRANCH   5   6
HETATM    6  C3  UNL     1     -34.384   5.882   6.028  1.00 20.00     0.126 C 
HETATM    7  O9  UNL     1     -34.246   4.946   6.814  1.00 20.00    -0.298 OA
BRANCH   6   8
HETATM    8  C6  UNL     1     -34.903   5.681   4.614  1.00 20.00     0.074 C 
HETATM    9  C4  UNL     1     -34.023   4.757   3.792  1.00 20.00     0.013 C 
ENDBRANCH   6   8
ENDBRANCH   5   6
ENDBRANCH   4   5
ENDBRANCH   3   4
TORSDOF 4
ENDMDL
MODEL 5
REMARK VINA RESULT:      -4.6      1.758      3.717
REMARK  4 active torsions:
REMARK  status: ('A' for Active; 'I' for Inactive)
REMARK    1  A    between atoms: C3_3  and  C6_6 
REMARK    2  A    between atoms: C3_3  and  C7_7 
REMARK    3  A    between atoms: C5_5  and  C8_8 
REMARK    4  A    between atoms: C7_7  and  C8_8 
ROOT
HETATM    1  C1  UNL     1     -34.820   4.970   4.999  1.00 20.00     0.012 C 
HETATM    2  C2  UNL     1     -34.439   5.949   5.580  1.00 20.00    -0.117 C 
HETATM    3  C5  UNL     1     -33.971   7.144   6.296  1.00 20.00     0.093 C 
ENDROOT
BRANCH   3   4
HETATM    4  C8  UNL     1     -33.718   8.302   5.326  1.00 20.00     0.019 C 
BRANCH   4   5
HETATM    5  C7  UNL     1     -32.359   8.198   4.635  1.00 20.00     0.079 C 
BRANCH   5   6
HETATM    6  C3  UNL     1     -32.445   7.865   3.153  1.00 20.00     0.126 C 
HETATM    7  O9  UNL     1     -32.353   6.713   2.731  1.00 20.00    -0.298 OA
BRANCH   6   8
HETATM    8  C6  UNL     1     -32.619   9.056   2.224  1.00 20.00     0.074 C 
HETATM    9  C4  UNL     1     -32.400   8.698   0.765  1.00 20.00     0.013 C 
ENDBRANCH   6   8
ENDBRANCH   5   6
ENDBRANCH   4   5
ENDBRANCH   3   4
TORSDOF 4
ENDMDL
MODEL 6
REMARK VINA RESULT:      -4.6      1.793      3.403
REMARK  4 active torsions:
REMARK  status: ('A' for Active; 'I' for Inactive)
REMARK    1  A    between atoms: C3_3  and  C6_6 
REMARK    2  A    between atoms: C3_3  and  C7_7 
REMARK    3  A    between atoms: C5_5  and  C8_8 
REMARK    4  A    between atoms: C7_7  and  C8_8 
ROOT
HETATM    1  C1  UNL     1     -34.844   4.974   5.537  1.00 20.00     0.012 C 
HETATM    2  C2  UNL     1     -34.436   6.019   5.965  1.00 20.00    -0.117 C 
HETATM    3  C5  UNL     1     -33.935   7.296   6.492  1.00 20.00     0.093 C 
ENDROOT
BRANCH   3   4
HETATM    4  C8  UNL     1     -33.807   8.338   5.378  1.00 20.00     0.019 C 
BRANCH   4   5
HETATM    5  C7  UNL     1     -32.412   8.357   4.753  1.00 20.00     0.079 C 
BRANCH   5   6
HETATM    6  C3  UNL     1     -32.415   8.241   3.236  1.00 20.00     0.126 C 
HETATM    7  O9  UNL     1     -32.827   9.143   2.508  1.00 20.00    -0.298 OA
BRANCH   6   8
HETATM    8  C6  UNL     1     -31.903   6.922   2.679  1.00 20.00     0.074 C 
HETATM    9  C4  UNL     1     -32.965   5.838   2.670  1.00 20.00     0.013 C 
ENDBRANCH   6   8
ENDBRANCH   5   6
ENDBRANCH   4   5
ENDBRANCH   3   4
TORSDOF 4
ENDMDL
MODEL 7
REMARK VINA RESULT:      -4.6      1.796      2.753
REMARK  4 active torsions:
REMARK  status: ('A' for Active; 'I' for Inactive)
REMARK    1  A    between atoms: C3_3  and  C6_6 
REMARK    2  A    between atoms: C3_3  and  C7_7 
REMARK    3  A    between atoms: C5_5  and  C8_8 
REMARK    4  A    between atoms: C7_7  and  C8_8 
ROOT
HETATM    1  C1  UNL     1     -32.318   8.771   0.656  1.00 20.00     0.012 C 
HETATM    2  C2  UNL     1     -32.251   8.107   1.654  1.00 20.00    -0.117 C 
HETATM    3  C5  UNL     1     -32.166   7.291   2.873  1.00 20.00     0.093 C 
ENDROOT
BRANCH   3   4
HETATM    4  C8  UNL     1     -32.286   8.161   4.127  1.00 20.00     0.019 C 
BRANCH   4   5
HETATM    5  C7  UNL     1     -33.700   8.159   4.706  1.00 20.00     0.079 C 
BRANCH   5   6
HETATM    6  C3  UNL     1     -34.014   6.942   5.563  1.00 20.00     0.126 C 
HETATM    7  O9  UNL     1     -33.514   6.774   6.675  1.00 20.00    -0.298 OA
BRANCH   6   8
HETATM    8  C6  UNL     1     -34.962   5.930   4.940  1.00 20.00     0.074 C 
HETATM    9  C4  UNL     1     -34.261   4.650   4.522  1.00 20.00     0.013 C 
ENDBRANCH   6   8
ENDBRANCH   5   6
ENDBRANCH   4   5
ENDBRANCH   3   4
TORSDOF 4
ENDMDL
MODEL 8
REMARK VINA RESULT:      -4.6      1.623      3.118
REMARK  4 active torsions:
REMARK  status: ('A' for Active; 'I' for Inactive)
REMARK    1  A    between atoms: C3_3  and  C6_6 
REMARK    2  A    between atoms: C3_3  and  C7_7 
REMARK    3  A    between atoms: C5_5  and  C8_8 
REMARK    4  A    between atoms: C7_7  and  C8_8 
ROOT
HETATM    1  C1  UNL     1     -32.845   5.039   2.580  1.00 20.00     0.012 C 
HETATM    2  C2  UNL     1     -32.572   6.208   2.610  1.00 20.00    -0.117 C 
HETATM    3  C5  UNL     1     -32.239   7.639   2.642  1.00 20.00     0.093 C 
ENDROOT
BRANCH   3   4
HETATM    4  C8  UNL     1     -32.138   8.148   4.082  1.00 20.00     0.019 C 
BRANCH   4   5
HETATM    5  C7  UNL     1     -33.505   8.290   4.749  1.00 20.00     0.079 C 
BRANCH   5   6
HETATM    6  C3  UNL     1     -33.808   7.206   5.773  1.00 20.00     0.126 C 
HETATM    7  O9  UNL     1     -33.188   7.110   6.831  1.00 20.00    -0.298 OA
BRANCH   6   8
HETATM    8  C6  UNL     1     -34.906   6.229   5.386  1.00 20.00     0.074 C 
HETATM    9  C4  UNL     1     -34.627   4.815   5.862  1.00 20.00     0.013 C 
ENDBRANCH   6   8
ENDBRANCH   5   6
ENDBRANCH   4   5
ENDBRANCH   3   4
TORSDOF 4
ENDMDL
MODEL 9
REMARK VINA RESULT:      -4.5      1.473      3.332
REMARK  4 active torsions:
REMARK  status: ('A' for Active; 'I' for Inactive)
REMARK    1  A    between atoms: C3_3  and  C6_6 
REMARK    2  A    between atoms: C3_3  and  C7_7 
REMARK    3  A    between atoms: C5_5  and  C8_8 
REMARK    4  A    between atoms: C7_7  and  C8_8 
ROOT
HETATM    1  C1  UNL     1     -32.981   5.165   2.611  1.00 20.00     0.012 C 
HETATM    2  C2  UNL     1     -33.640   4.963   3.594  1.00 20.00    -0.117 C 
HETATM    3  C5  UNL     1     -34.446   4.712   4.797  1.00 20.00     0.093 C 
ENDROOT
BRANCH   3   4
HETATM    4  C8  UNL     1     -34.880   6.026   5.452  1.00 20.00     0.019 C 
BRANCH   4   5
HETATM    5  C7  UNL     1     -33.713   6.764   6.109  1.00 20.00     0.079 C 
BRANCH   5   6
HETATM    6  C3  UNL     1     -33.432   8.133   5.508  1.00 20.00     0.126 C 
HETATM    7  O9  UNL     1     -34.137   9.112   5.744  1.00 20.00    -0.298 OA
BRANCH   6   8
HETATM    8  C6  UNL     1     -32.238   8.202   4.569  1.00 20.00     0.074 C 
HETATM    9  C4  UNL     1     -32.607   8.716   3.189  1.00 20.00     0.013 C 
ENDBRANCH   6   8
ENDBRANCH   5   6
ENDBRANCH   4   5
ENDBRANCH   3   4
TORSDOF 4
ENDMDL
