MODEL 1
REMARK VINA RESULT:      -3.9      0.000      0.000
REMARK  2 active torsions:
REMARK  status: ('A' for Active; 'I' for Inactive)
REMARK    1  A    between atoms: C5_5  and  N8_8 
REMARK    2  A    between atoms: C6_6  and  N8_8 
ROOT
HETATM    1  N8  UNL     1     -33.728   7.610   4.944  1.00 20.00     0.097 N 
HETATM    2  H22 UNL     1     -34.407   8.309   4.653  1.00 20.00     0.317 HD
ENDROOT
BRANCH   1   3
HETATM    3  C5  UNL     1     -34.104   6.318   4.363  1.00 20.00     0.225 A 
HETATM    4  C1  UNL     1     -35.545   5.878   4.376  1.00 20.00     0.042 A 
HETATM    5  C4  UNL     1     -34.535   5.159   5.228  1.00 20.00     0.016 A 
HETATM    6  C7  UNL     1     -34.603   5.260   6.714  1.00 20.00     0.012 C 
ENDBRANCH   1   3
BRANCH   1   7
HETATM    7  C6  UNL     1     -32.401   8.004   4.500  1.00 20.00     0.268 C 
HETATM    8  C2  UNL     1     -32.507   9.338   3.762  1.00 20.00     0.205 C 
HETATM    9  O9  UNL     1     -32.494   8.671   2.475  1.00 20.00    -0.387 OA
HETATM   10  C3  UNL     1     -32.154   7.413   3.113  1.00 20.00     0.205 C 
ENDBRANCH   1   7
TORSDOF 2
ENDMDL
MODEL 2
REMARK VINA RESULT:      -3.9     15.205     16.296
REMARK  2 active torsions:
REMARK  status: ('A' for Active; 'I' for Inactive)
REMARK    1  A    between atoms: C5_5  and  N8_8 
REMARK    2  A    between atoms: C6_6  and  N8_8 
ROOT
HETATM    1  N8  UNL     1     -22.340  17.307  10.103  1.00 20.00     0.097 N 
HETATM    2  H22 UNL     1     -21.754  16.818  10.774  1.00 20.00     0.317 HD
ENDROOT
BRANCH   1   3
HETATM    3  C5  UNL     1     -23.304  18.135  10.834  1.00 20.00     0.225 A 
HETATM    4  C1  UNL     1     -23.192  18.274  12.331  1.00 20.00     0.042 A 
HETATM    5  C4  UNL     1     -24.350  17.522  11.733  1.00 20.00     0.016 A 
HETATM    6  C7  UNL     1     -24.464  16.048  11.926  1.00 20.00     0.012 C 
ENDBRANCH   1   3
BRANCH   1   7
HETATM    7  C6  UNL     1     -21.511  18.131   9.238  1.00 20.00     0.268 C 
HETATM    8  C2  UNL     1     -22.368  19.259   8.667  1.00 20.00     0.205 C 
HETATM    9  O9  UNL     1     -22.557  18.539   7.423  1.00 20.00    -0.387 OA
HETATM   10  C3  UNL     1     -21.563  17.560   7.821  1.00 20.00     0.205 C 
ENDBRANCH   1   7
TORSDOF 2
ENDMDL
MODEL 3
REMARK VINA RESULT:      -3.9      1.971      4.032
REMARK  2 active torsions:
REMARK  status: ('A' for Active; 'I' for Inactive)
REMARK    1  A    between atoms: C5_5  and  N8_8 
REMARK    2  A    between atoms: C6_6  and  N8_8 
ROOT
HETATM    1  N8  UNL     1     -33.520   7.050   5.698  1.00 20.00     0.097 N 
HETATM    2  H22 UNL     1     -32.705   6.458   5.835  1.00 20.00     0.317 HD
ENDROOT
BRANCH   1   3
HETATM    3  C5  UNL     1     -33.503   7.565   4.327  1.00 20.00     0.225 A 
HETATM    4  C1  UNL     1     -32.263   7.418   3.483  1.00 20.00     0.042 A 
HETATM    5  C4  UNL     1     -32.694   8.781   3.950  1.00 20.00     0.016 A 
HETATM    6  C7  UNL     1     -31.870   9.526   4.944  1.00 20.00     0.012 C 
ENDBRANCH   1   3
BRANCH   1   7
HETATM    7  C6  UNL     1     -34.729   6.279   5.941  1.00 20.00     0.268 C 
HETATM    8  C2  UNL     1     -34.340   4.824   6.195  1.00 20.00     0.205 C 
HETATM    9  O9  UNL     1     -34.651   4.461   4.826  1.00 20.00    -0.387 OA
HETATM   10  C3  UNL     1     -35.255   5.760   4.603  1.00 20.00     0.205 C 
ENDBRANCH   1   7
TORSDOF 2
ENDMDL
MODEL 4
REMARK VINA RESULT:      -3.8      1.086      1.815
REMARK  2 active torsions:
REMARK  status: ('A' for Active; 'I' for Inactive)
REMARK    1  A    between atoms: C5_5  and  N8_8 
REMARK    2  A    between atoms: C6_6  and  N8_8 
ROOT
HETATM    1  N8  UNL     1     -33.312   7.097   5.687  1.00 20.00     0.097 N 
HETATM    2  H22 UNL     1     -33.072   7.570   6.555  1.00 20.00     0.317 HD
ENDROOT
BRANCH   1   3
HETATM    3  C5  UNL     1     -34.618   6.453   5.846  1.00 20.00     0.225 A 
HETATM    4  C1  UNL     1     -34.738   5.184   6.650  1.00 20.00     0.042 A 
HETATM    5  C4  UNL     1     -34.945   5.149   5.161  1.00 20.00     0.016 A 
HETATM    6  C7  UNL     1     -33.964   4.445   4.286  1.00 20.00     0.012 C 
ENDBRANCH   1   3
BRANCH   1   7
HETATM    7  C6  UNL     1     -33.346   8.062   4.599  1.00 20.00     0.268 C 
HETATM    8  C2  UNL     1     -32.559   7.497   3.418  1.00 20.00     0.205 C 
HETATM    9  O9  UNL     1     -31.390   8.278   3.774  1.00 20.00    -0.387 OA
HETATM   10  C3  UNL     1     -32.163   9.016   4.754  1.00 20.00     0.205 C 
ENDBRANCH   1   7
TORSDOF 2
ENDMDL
MODEL 5
REMARK VINA RESULT:      -3.5     12.134     13.444
REMARK  2 active torsions:
REMARK  status: ('A' for Active; 'I' for Inactive)
REMARK    1  A    between atoms: C5_5  and  N8_8 
REMARK    2  A    between atoms: C6_6  and  N8_8 
ROOT
HETATM    1  N8  UNL     1     -35.523  16.724  -4.464  1.00 20.00     0.097 N 
HETATM    2  H22 UNL     1     -36.131  16.024  -4.047  1.00 20.00     0.317 HD
ENDROOT
BRANCH   1   3
HETATM    3  C5  UNL     1     -34.188  16.145  -4.641  1.00 20.00     0.225 A 
HETATM    4  C1  UNL     1     -33.827  14.861  -3.940  1.00 20.00     0.042 A 
HETATM    5  C4  UNL     1     -33.172  16.150  -3.525  1.00 20.00     0.016 A 
HETATM    6  C7  UNL     1     -33.464  16.741  -2.188  1.00 20.00     0.012 C 
ENDBRANCH   1   3
BRANCH   1   7
HETATM    7  C6  UNL     1     -36.071  17.147  -5.743  1.00 20.00     0.268 C 
HETATM    8  C2  UNL     1     -37.487  16.590  -5.878  1.00 20.00     0.205 C 
HETATM    9  O9  UNL     1     -37.018  15.489  -6.696  1.00 20.00    -0.387 OA
HETATM   10  C3  UNL     1     -35.708  16.103  -6.799  1.00 20.00     0.205 C 
ENDBRANCH   1   7
TORSDOF 2
ENDMDL
MODEL 6
REMARK VINA RESULT:      -3.4     12.235     13.104
REMARK  2 active torsions:
REMARK  status: ('A' for Active; 'I' for Inactive)
REMARK    1  A    between atoms: C5_5  and  N8_8 
REMARK    2  A    between atoms: C6_6  and  N8_8 
ROOT
HETATM    1  N8  UNL     1     -34.869  16.293  -4.385  1.00 20.00     0.097 N 
HETATM    2  H22 UNL     1     -35.612  16.239  -3.693  1.00 20.00     0.317 HD
ENDROOT
BRANCH   1   3
HETATM    3  C5  UNL     1     -33.689  16.899  -3.762  1.00 20.00     0.225 A 
HETATM    4  C1  UNL     1     -33.416  16.680  -2.296  1.00 20.00     0.042 A 
HETATM    5  C4  UNL     1     -33.811  18.045  -2.788  1.00 20.00     0.016 A 
HETATM    6  C7  UNL     1     -35.130  18.625  -2.405  1.00 20.00     0.012 C 
ENDBRANCH   1   3
BRANCH   1   7
HETATM    7  C6  UNL     1     -34.560  14.959  -4.875  1.00 20.00     0.268 C 
HETATM    8  C2  UNL     1     -34.074  15.068  -6.319  1.00 20.00     0.205 C 
HETATM    9  O9  UNL     1     -35.383  14.708  -6.827  1.00 20.00    -0.387 OA
HETATM   10  C3  UNL     1     -35.824  14.360  -5.490  1.00 20.00     0.205 C 
ENDBRANCH   1   7
TORSDOF 2
ENDMDL
MODEL 7
REMARK VINA RESULT:      -3.4      9.287     10.038
REMARK  2 active torsions:
REMARK  status: ('A' for Active; 'I' for Inactive)
REMARK    1  A    between atoms: C5_5  and  N8_8 
REMARK    2  A    between atoms: C6_6  and  N8_8 
ROOT
HETATM    1  N8  UNL     1     -41.041  13.387   5.393  1.00 20.00     0.097 N 
HETATM    2  H22 UNL     1     -40.372  14.130   5.577  1.00 20.00     0.317 HD
ENDROOT
BRANCH   1   3
HETATM    3  C5  UNL     1     -40.470  12.116   5.848  1.00 20.00     0.225 A 
HETATM    4  C1  UNL     1     -39.021  12.046   6.257  1.00 20.00     0.042 A 
HETATM    5  C4  UNL     1     -39.481  11.348   5.006  1.00 20.00     0.016 A 
HETATM    6  C7  UNL     1     -39.030  11.833   3.671  1.00 20.00     0.012 C 
ENDBRANCH   1   3
BRANCH   1   7
HETATM    7  C6  UNL     1     -42.287  13.666   6.088  1.00 20.00     0.268 C 
HETATM    8  C2  UNL     1     -41.966  14.379   7.400  1.00 20.00     0.205 C 
HETATM    9  O9  UNL     1     -42.089  13.142   8.147  1.00 20.00    -0.387 OA
HETATM   10  C3  UNL     1     -42.628  12.473   6.979  1.00 20.00     0.205 C 
ENDBRANCH   1   7
TORSDOF 2
ENDMDL
MODEL 8
REMARK VINA RESULT:      -3.4     11.457     12.332
REMARK  2 active torsions:
REMARK  status: ('A' for Active; 'I' for Inactive)
REMARK    1  A    between atoms: C5_5  and  N8_8 
REMARK    2  A    between atoms: C6_6  and  N8_8 
ROOT
HETATM    1  N8  UNL     1     -33.718  16.528  -2.077  1.00 20.00     0.097 N 
HETATM    2  H22 UNL     1     -34.595  16.015  -2.054  1.00 20.00     0.317 HD
ENDROOT
BRANCH   1   3
HETATM    3  C5  UNL     1     -33.236  16.576  -3.460  1.00 20.00     0.225 A 
HETATM    4  C1  UNL     1     -34.208  16.807  -4.588  1.00 20.00     0.042 A 
HETATM    5  C4  UNL     1     -33.536  15.469  -4.440  1.00 20.00     0.016 A 
HETATM    6  C7  UNL     1     -34.335  14.269  -4.061  1.00 20.00     0.012 C 
ENDBRANCH   1   3
BRANCH   1   7
HETATM    7  C6  UNL     1     -33.924  17.871  -1.560  1.00 20.00     0.268 C 
HETATM    8  C2  UNL     1     -32.590  18.615  -1.581  1.00 20.00     0.205 C 
HETATM    9  O9  UNL     1     -32.375  18.348  -0.172  1.00 20.00    -0.387 OA
HETATM   10  C3  UNL     1     -33.730  17.848  -0.044  1.00 20.00     0.205 C 
ENDBRANCH   1   7
TORSDOF 2
ENDMDL
MODEL 9
REMARK VINA RESULT:      -3.3     10.025     10.534
REMARK  2 active torsions:
REMARK  status: ('A' for Active; 'I' for Inactive)
REMARK    1  A    between atoms: C5_5  and  N8_8 
REMARK    2  A    between atoms: C6_6  and  N8_8 
ROOT
HETATM    1  N8  UNL     1     -40.079  14.380   7.048  1.00 20.00     0.097 N 
HETATM    2  H22 UNL     1     -39.381  13.765   7.459  1.00 20.00     0.317 HD
ENDROOT
BRANCH   1   3
HETATM    3  C5  UNL     1     -40.788  13.649   5.995  1.00 20.00     0.225 A 
HETATM    4  C1  UNL     1     -41.238  12.230   6.235  1.00 20.00     0.042 A 
HETATM    5  C4  UNL     1     -40.138  12.510   5.248  1.00 20.00     0.016 A 
HETATM    6  C7  UNL     1     -38.745  12.066   5.535  1.00 20.00     0.012 C 
ENDBRANCH   1   3
BRANCH   1   7
HETATM    7  C6  UNL     1     -41.006  14.824   8.076  1.00 20.00     0.268 C 
HETATM    8  C2  UNL     1     -40.531  16.172   8.614  1.00 20.00     0.205 C 
HETATM    9  O9  UNL     1     -39.911  15.540   9.762  1.00 20.00    -0.387 OA
HETATM   10  C3  UNL     1     -40.539  14.277   9.425  1.00 20.00     0.205 C 
ENDBRANCH   1   7
TORSDOF 2
ENDMDL
