MODEL 1
REMARK VINA RESULT:      -5.3      0.000      0.000
REMARK  2 active torsions:
REMARK  status: ('A' for Active; 'I' for Inactive)
REMARK    1  A    between atoms: C7_7  and  C9_9 
REMARK    2  A    between atoms: C8_8  and  C9_9 
ROOT
HETATM    1  C1  UNL     1     -32.178   8.494   0.700  1.00 20.00     0.012 C 
HETATM    2  C2  UNL     1     -32.173   8.160   1.853  1.00 20.00    -0.117 C 
HETATM    3  C8  UNL     1     -32.164   7.756   3.265  1.00 20.00     0.093 C 
ENDROOT
BRANCH   3   4
HETATM    4  C9  UNL     1     -32.751   6.362   3.427  1.00 20.00     0.024 C 
BRANCH   4   5
HETATM    5  C7  UNL     1     -34.136   6.417   4.051  1.00 20.00     0.056 C 
HETATM    6  C3  UNL     1     -34.354   5.229   4.963  1.00 20.00     0.131 C 
HETATM    7  C4  UNL     1     -34.417   5.623   6.416  1.00 20.00     0.079 C 
HETATM    8  O10 UNL     1     -34.475   4.075   4.569  1.00 20.00    -0.298 OA
HETATM    9  C5  UNL     1     -33.873   7.045   6.380  1.00 20.00     0.008 C 
HETATM   10  C6  UNL     1     -34.310   7.587   5.025  1.00 20.00     0.013 C 
ENDBRANCH   4   5
ENDBRANCH   3   4
TORSDOF 2
ENDMDL
MODEL 2
REMARK VINA RESULT:      -4.5      1.292      4.268
REMARK  2 active torsions:
REMARK  status: ('A' for Active; 'I' for Inactive)
REMARK    1  A    between atoms: C7_7  and  C9_9 
REMARK    2  A    between atoms: C8_8  and  C9_9 
ROOT
HETATM    1  C1  UNL     1     -34.575   4.744   6.133  1.00 20.00     0.012 C 
HETATM    2  C2  UNL     1     -34.353   5.921   6.201  1.00 20.00    -0.117 C 
HETATM    3  C8  UNL     1     -34.081   7.362   6.288  1.00 20.00     0.093 C 
ENDROOT
BRANCH   3   4
HETATM    4  C9  UNL     1     -34.023   7.982   4.900  1.00 20.00     0.024 C 
BRANCH   4   5
HETATM    5  C7  UNL     1     -32.618   7.905   4.322  1.00 20.00     0.056 C 
HETATM    6  C3  UNL     1     -32.599   7.022   3.092  1.00 20.00     0.131 C 
HETATM    7  C4  UNL     1     -32.353   7.804   1.828  1.00 20.00     0.079 C 
HETATM    8  O10 UNL     1     -32.757   5.808   3.118  1.00 20.00    -0.298 OA
HETATM    9  C5  UNL     1     -32.579   9.236   2.294  1.00 20.00     0.008 C 
HETATM   10  C6  UNL     1     -32.130   9.239   3.750  1.00 20.00     0.013 C 
ENDBRANCH   4   5
ENDBRANCH   3   4
TORSDOF 2
ENDMDL
MODEL 3
REMARK VINA RESULT:      -4.5     11.768     12.438
REMARK  2 active torsions:
REMARK  status: ('A' for Active; 'I' for Inactive)
REMARK    1  A    between atoms: C7_7  and  C9_9 
REMARK    2  A    between atoms: C8_8  and  C9_9 
ROOT
HETATM    1  C1  UNL     1     -33.926  14.599  -4.188  1.00 20.00     0.012 C 
HETATM    2  C2  UNL     1     -33.555  15.620  -3.677  1.00 20.00    -0.117 C 
HETATM    3  C8  UNL     1     -33.099  16.871  -3.056  1.00 20.00     0.093 C 
ENDROOT
BRANCH   3   4
HETATM    4  C9  UNL     1     -33.604  16.973  -1.624  1.00 20.00     0.024 C 
BRANCH   4   5
HETATM    5  C7  UNL     1     -33.431  18.382  -1.080  1.00 20.00     0.056 C 
HETATM    6  C3  UNL     1     -33.559  18.386   0.429  1.00 20.00     0.131 C 
HETATM    7  C4  UNL     1     -32.251  18.682   1.115  1.00 20.00     0.079 C 
HETATM    8  O10 UNL     1     -34.608  18.181   1.028  1.00 20.00    -0.298 OA
HETATM    9  C5  UNL     1     -31.252  18.504  -0.021  1.00 20.00     0.008 C 
HETATM   10  C6  UNL     1     -32.014  18.930  -1.270  1.00 20.00     0.013 C 
ENDBRANCH   4   5
ENDBRANCH   3   4
TORSDOF 2
ENDMDL
MODEL 4
REMARK VINA RESULT:      -4.2     11.442     12.537
REMARK  2 active torsions:
REMARK  status: ('A' for Active; 'I' for Inactive)
REMARK    1  A    between atoms: C7_7  and  C9_9 
REMARK    2  A    between atoms: C8_8  and  C9_9 
ROOT
HETATM    1  C1  UNL     1     -33.693  17.458  -1.177  1.00 20.00     0.012 C 
HETATM    2  C2  UNL     1     -33.426  16.954  -2.233  1.00 20.00    -0.117 C 
HETATM    3  C8  UNL     1     -33.097  16.341  -3.527  1.00 20.00     0.093 C 
ENDROOT
BRANCH   3   4
HETATM    4  C9  UNL     1     -33.682  14.939  -3.620  1.00 20.00     0.024 C 
BRANCH   4   5
HETATM    5  C7  UNL     1     -34.243  14.670  -5.007  1.00 20.00     0.056 C 
HETATM    6  C3  UNL     1     -35.646  14.106  -4.910  1.00 20.00     0.131 C 
HETATM    7  C4  UNL     1     -36.689  15.073  -5.408  1.00 20.00     0.079 C 
HETATM    8  O10 UNL     1     -35.907  12.988  -4.483  1.00 20.00    -0.298 OA
HETATM    9  C5  UNL     1     -35.903  16.375  -5.477  1.00 20.00     0.008 C 
HETATM   10  C6  UNL     1     -34.481  15.947  -5.818  1.00 20.00     0.013 C 
ENDBRANCH   4   5
ENDBRANCH   3   4
TORSDOF 2
ENDMDL
MODEL 5
REMARK VINA RESULT:      -4.2     11.793     12.850
REMARK  2 active torsions:
REMARK  status: ('A' for Active; 'I' for Inactive)
REMARK    1  A    between atoms: C7_7  and  C9_9 
REMARK    2  A    between atoms: C8_8  and  C9_9 
ROOT
HETATM    1  C1  UNL     1     -31.426  18.512  -0.429  1.00 20.00     0.012 C 
HETATM    2  C2  UNL     1     -32.419  18.228  -1.041  1.00 20.00    -0.117 C 
HETATM    3  C8  UNL     1     -33.635  17.884  -1.790  1.00 20.00     0.093 C 
ENDROOT
BRANCH   3   4
HETATM    4  C9  UNL     1     -33.568  16.448  -2.291  1.00 20.00     0.024 C 
BRANCH   4   5
HETATM    5  C7  UNL     1     -33.292  16.400  -3.785  1.00 20.00     0.056 C 
HETATM    6  C3  UNL     1     -33.866  15.135  -4.389  1.00 20.00     0.131 C 
HETATM    7  C4  UNL     1     -35.039  15.411  -5.293  1.00 20.00     0.079 C 
HETATM    8  O10 UNL     1     -33.424  14.013  -4.175  1.00 20.00    -0.298 OA
HETATM    9  C5  UNL     1     -35.379  16.851  -4.937  1.00 20.00     0.008 C 
HETATM   10  C6  UNL     1     -34.041  17.482  -4.570  1.00 20.00     0.013 C 
ENDBRANCH   4   5
ENDBRANCH   3   4
TORSDOF 2
ENDMDL
MODEL 6
REMARK VINA RESULT:      -4.1      9.469     10.569
REMARK  2 active torsions:
REMARK  status: ('A' for Active; 'I' for Inactive)
REMARK    1  A    between atoms: C7_7  and  C9_9 
REMARK    2  A    between atoms: C8_8  and  C9_9 
ROOT
HETATM    1  C1  UNL     1     -38.969  11.678   3.598  1.00 20.00     0.012 C 
HETATM    2  C2  UNL     1     -39.135  11.791   4.782  1.00 20.00    -0.117 C 
HETATM    3  C8  UNL     1     -39.335  11.925   6.231  1.00 20.00     0.093 C 
ENDROOT
BRANCH   3   4
HETATM    4  C9  UNL     1     -40.141  13.176   6.547  1.00 20.00     0.024 C 
BRANCH   4   5
HETATM    5  C7  UNL     1     -41.583  13.032   6.087  1.00 20.00     0.056 C 
HETATM    6  C3  UNL     1     -42.532  13.231   7.250  1.00 20.00     0.131 C 
HETATM    7  C4  UNL     1     -43.326  14.506   7.131  1.00 20.00     0.079 C 
HETATM    8  O10 UNL     1     -42.650  12.443   8.180  1.00 20.00    -0.298 OA
HETATM    9  C5  UNL     1     -42.569  15.248   6.039  1.00 20.00     0.008 C 
HETATM   10  C6  UNL     1     -42.025  14.148   5.135  1.00 20.00     0.013 C 
ENDBRANCH   4   5
ENDBRANCH   3   4
TORSDOF 2
ENDMDL
MODEL 7
REMARK VINA RESULT:      -4.0      1.591      2.043
REMARK  2 active torsions:
REMARK  status: ('A' for Active; 'I' for Inactive)
REMARK    1  A    between atoms: C7_7  and  C9_9 
REMARK    2  A    between atoms: C8_8  and  C9_9 
ROOT
HETATM    1  C1  UNL     1     -32.597   8.930   0.770  1.00 20.00     0.012 C 
HETATM    2  C2  UNL     1     -32.568   8.938   1.969  1.00 20.00    -0.117 C 
HETATM    3  C8  UNL     1     -32.530   8.952   3.438  1.00 20.00     0.093 C 
ENDROOT
BRANCH   3   4
HETATM    4  C9  UNL     1     -33.707   8.178   4.012  1.00 20.00     0.024 C 
BRANCH   4   5
HETATM    5  C7  UNL     1     -33.272   6.810   4.515  1.00 20.00     0.056 C 
HETATM    6  C3  UNL     1     -33.697   6.616   5.955  1.00 20.00     0.131 C 
HETATM    7  C4  UNL     1     -34.783   5.582   6.099  1.00 20.00     0.079 C 
HETATM    8  O10 UNL     1     -33.210   7.224   6.901  1.00 20.00    -0.298 OA
HETATM    9  C5  UNL     1     -35.250   5.413   4.660  1.00 20.00     0.008 C 
HETATM   10  C6  UNL     1     -34.001   5.655   3.822  1.00 20.00     0.013 C 
ENDBRANCH   4   5
ENDBRANCH   3   4
TORSDOF 2
ENDMDL
MODEL 8
REMARK VINA RESULT:      -4.0     15.734     16.501
REMARK  2 active torsions:
REMARK  status: ('A' for Active; 'I' for Inactive)
REMARK    1  A    between atoms: C7_7  and  C9_9 
REMARK    2  A    between atoms: C8_8  and  C9_9 
ROOT
HETATM    1  C1  UNL     1     -21.322  17.748   7.369  1.00 20.00     0.012 C 
HETATM    2  C2  UNL     1     -21.730  18.390   8.297  1.00 20.00    -0.117 C 
HETATM    3  C8  UNL     1     -22.226  19.179   9.433  1.00 20.00     0.093 C 
ENDROOT
BRANCH   3   4
HETATM    4  C9  UNL     1     -23.647  18.770   9.790  1.00 20.00     0.024 C 
BRANCH   4   5
HETATM    5  C7  UNL     1     -23.822  18.645  11.295  1.00 20.00     0.056 C 
HETATM    6  C3  UNL     1     -25.278  18.417  11.642  1.00 20.00     0.131 C 
HETATM    7  C4  UNL     1     -25.530  17.029  12.173  1.00 20.00     0.079 C 
HETATM    8  O10 UNL     1     -26.154  19.263  11.515  1.00 20.00    -0.298 OA
HETATM    9  C5  UNL     1     -24.241  16.310  11.801  1.00 20.00     0.008 C 
HETATM   10  C6  UNL     1     -23.166  17.388  11.875  1.00 20.00     0.013 C 
ENDBRANCH   4   5
ENDBRANCH   3   4
TORSDOF 2
ENDMDL
MODEL 9
REMARK VINA RESULT:      -4.0     12.181     13.455
REMARK  2 active torsions:
REMARK  status: ('A' for Active; 'I' for Inactive)
REMARK    1  A    between atoms: C7_7  and  C9_9 
REMARK    2  A    between atoms: C8_8  and  C9_9 
ROOT
HETATM    1  C1  UNL     1     -33.668  17.334  -1.480  1.00 20.00     0.012 C 
HETATM    2  C2  UNL     1     -33.348  16.699  -2.447  1.00 20.00    -0.117 C 
HETATM    3  C8  UNL     1     -32.951  15.922  -3.628  1.00 20.00     0.093 C 
ENDROOT
BRANCH   3   4
HETATM    4  C9  UNL     1     -34.162  15.251  -4.260  1.00 20.00     0.024 C 
BRANCH   4   5
HETATM    5  C7  UNL     1     -34.465  15.840  -5.628  1.00 20.00     0.056 C 
HETATM    6  C3  UNL     1     -35.787  15.317  -6.149  1.00 20.00     0.131 C 
HETATM    7  C4  UNL     1     -36.848  16.386  -6.196  1.00 20.00     0.079 C 
HETATM    8  O10 UNL     1     -35.976  14.159  -6.500  1.00 20.00    -0.298 OA
HETATM    9  C5  UNL     1     -36.223  17.488  -5.352  1.00 20.00     0.008 C 
HETATM   10  C6  UNL     1     -34.724  17.349  -5.590  1.00 20.00     0.013 C 
ENDBRANCH   4   5
ENDBRANCH   3   4
TORSDOF 2
ENDMDL
