MODEL 1
REMARK VINA RESULT:      -4.3      0.000      0.000
REMARK  2 active torsions:
REMARK  status: ('A' for Active; 'I' for Inactive)
REMARK    1  A    between atoms: C1_1  and  C6_6 
REMARK    2  A    between atoms: C1_1  and  C8_8 
ROOT
HETATM    1  C2  UNL     1     -33.548   6.627   6.472  1.00 20.00     0.027 C 
HETATM    2  C3  UNL     1     -34.029   7.548   5.352  1.00 20.00     0.016 C 
HETATM    3  C4  UNL     1     -34.490   5.446   6.645  1.00 20.00     0.167 C 
HETATM    4  C5  UNL     1     -35.227   5.531   4.393  1.00 20.00     0.179 C 
HETATM    5  C6  UNL     1     -34.402   6.778   4.086  1.00 20.00     0.079 C 
HETATM    6  O10 UNL     1     -34.626   4.735   5.416  1.00 20.00    -0.390 OA
ENDROOT
BRANCH   5   7
HETATM    7  C1  UNL     1     -33.169   6.390   3.324  1.00 20.00     0.132 C 
HETATM    8  O9  UNL     1     -33.036   5.254   2.868  1.00 20.00    -0.298 OA
BRANCH   7   9
HETATM    9  C8  UNL     1     -32.117   7.471   3.156  1.00 20.00     0.074 C 
HETATM   10  C7  UNL     1     -32.089   8.046   1.752  1.00 20.00     0.013 C 
ENDBRANCH   7   9
ENDBRANCH   5   7
TORSDOF 2
ENDMDL
MODEL 2
REMARK VINA RESULT:      -4.1      1.462      1.538
REMARK  2 active torsions:
REMARK  status: ('A' for Active; 'I' for Inactive)
REMARK    1  A    between atoms: C1_1  and  C6_6 
REMARK    2  A    between atoms: C1_1  and  C8_8 
ROOT
HETATM    1  C2  UNL     1     -33.707   5.837   6.686  1.00 20.00     0.027 C 
HETATM    2  C3  UNL     1     -34.141   7.255   6.322  1.00 20.00     0.016 C 
HETATM    3  C4  UNL     1     -34.482   4.808   5.879  1.00 20.00     0.167 C 
HETATM    4  C5  UNL     1     -34.875   6.311   4.088  1.00 20.00     0.179 C 
HETATM    5  C6  UNL     1     -34.202   7.475   4.811  1.00 20.00     0.079 C 
HETATM    6  O10 UNL     1     -34.327   5.052   4.483  1.00 20.00    -0.390 OA
ENDROOT
BRANCH   5   7
HETATM    7  C1  UNL     1     -32.825   7.685   4.254  1.00 20.00     0.132 C 
HETATM    8  O9  UNL     1     -32.014   8.413   4.826  1.00 20.00    -0.298 OA
BRANCH   7   9
HETATM    9  C8  UNL     1     -32.506   6.954   2.962  1.00 20.00     0.074 C 
HETATM   10  C7  UNL     1     -32.134   7.898   1.834  1.00 20.00     0.013 C 
ENDBRANCH   7   9
ENDBRANCH   5   7
TORSDOF 2
ENDMDL
MODEL 3
REMARK VINA RESULT:      -4.0     12.066     13.433
REMARK  2 active torsions:
REMARK  status: ('A' for Active; 'I' for Inactive)
REMARK    1  A    between atoms: C1_1  and  C6_6 
REMARK    2  A    between atoms: C1_1  and  C8_8 
ROOT
HETATM    1  C2  UNL     1     -36.025  17.223  -5.273  1.00 20.00     0.027 C 
HETATM    2  C3  UNL     1     -34.720  16.786  -5.934  1.00 20.00     0.016 C 
HETATM    3  C4  UNL     1     -37.180  16.338  -5.712  1.00 20.00     0.167 C 
HETATM    4  C5  UNL     1     -35.767  14.489  -6.166  1.00 20.00     0.179 C 
HETATM    5  C6  UNL     1     -34.499  15.276  -5.843  1.00 20.00     0.079 C 
HETATM    6  O10 UNL     1     -36.893  14.970  -5.430  1.00 20.00    -0.390 OA
ENDROOT
BRANCH   5   7
HETATM    7  C1  UNL     1     -34.007  14.898  -4.477  1.00 20.00     0.132 C 
HETATM    8  O9  UNL     1     -34.390  13.865  -3.928  1.00 20.00    -0.298 OA
BRANCH   7   9
HETATM    9  C8  UNL     1     -33.025  15.857  -3.830  1.00 20.00     0.074 C 
HETATM   10  C7  UNL     1     -33.526  16.401  -2.504  1.00 20.00     0.013 C 
ENDBRANCH   7   9
ENDBRANCH   5   7
TORSDOF 2
ENDMDL
MODEL 4
REMARK VINA RESULT:      -3.7      9.194     10.017
REMARK  2 active torsions:
REMARK  status: ('A' for Active; 'I' for Inactive)
REMARK    1  A    between atoms: C1_1  and  C6_6 
REMARK    2  A    between atoms: C1_1  and  C8_8 
ROOT
HETATM    1  C2  UNL     1     -40.857  14.239   8.631  1.00 20.00     0.027 C 
HETATM    2  C3  UNL     1     -40.437  14.557   7.198  1.00 20.00     0.016 C 
HETATM    3  C4  UNL     1     -42.286  13.722   8.675  1.00 20.00     0.167 C 
HETATM    4  C5  UNL     1     -42.197  12.891   6.457  1.00 20.00     0.179 C 
HETATM    5  C6  UNL     1     -40.789  13.431   6.226  1.00 20.00     0.079 C 
HETATM    6  O10 UNL     1     -42.428  12.580   7.832  1.00 20.00    -0.390 OA
ENDROOT
BRANCH   5   7
HETATM    7  C1  UNL     1     -39.796  12.311   6.336  1.00 20.00     0.132 C 
HETATM    8  O9  UNL     1     -39.039  12.228   7.303  1.00 20.00    -0.298 OA
BRANCH   7   9
HETATM    9  C8  UNL     1     -39.787  11.308   5.197  1.00 20.00     0.074 C 
HETATM   10  C7  UNL     1     -38.901  11.742   4.044  1.00 20.00     0.013 C 
ENDBRANCH   7   9
ENDBRANCH   5   7
TORSDOF 2
ENDMDL
MODEL 5
REMARK VINA RESULT:      -3.6     16.164     16.822
REMARK  2 active torsions:
REMARK  status: ('A' for Active; 'I' for Inactive)
REMARK    1  A    between atoms: C1_1  and  C6_6 
REMARK    2  A    between atoms: C1_1  and  C8_8 
ROOT
HETATM    1  C2  UNL     1     -25.505  18.891  11.890  1.00 20.00     0.027 C 
HETATM    2  C3  UNL     1     -24.868  18.893  10.502  1.00 20.00     0.016 C 
HETATM    3  C4  UNL     1     -25.838  17.476  12.332  1.00 20.00     0.167 C 
HETATM    4  C5  UNL     1     -24.148  16.510  10.978  1.00 20.00     0.179 C 
HETATM    5  C6  UNL     1     -23.754  17.854  10.371  1.00 20.00     0.079 C 
HETATM    6  O10 UNL     1     -24.671  16.657  12.300  1.00 20.00    -0.390 OA
ENDROOT
BRANCH   5   7
HETATM    7  C1  UNL     1     -22.495  18.350  11.019  1.00 20.00     0.132 C 
HETATM    8  O9  UNL     1     -22.416  18.470  12.242  1.00 20.00    -0.298 OA
BRANCH   7   9
HETATM    9  C8  UNL     1     -21.348  18.686  10.084  1.00 20.00     0.074 C 
HETATM   10  C7  UNL     1     -21.653  18.341   8.638  1.00 20.00     0.013 C 
ENDBRANCH   7   9
ENDBRANCH   5   7
TORSDOF 2
ENDMDL
MODEL 6
REMARK VINA RESULT:      -3.6     12.077     13.185
REMARK  2 active torsions:
REMARK  status: ('A' for Active; 'I' for Inactive)
REMARK    1  A    between atoms: C1_1  and  C6_6 
REMARK    2  A    between atoms: C1_1  and  C8_8 
ROOT
HETATM    1  C2  UNL     1     -36.472  15.216  -5.355  1.00 20.00     0.027 C 
HETATM    2  C3  UNL     1     -35.384  16.103  -5.955  1.00 20.00     0.016 C 
HETATM    3  C4  UNL     1     -35.927  13.835  -5.029  1.00 20.00     0.167 C 
HETATM    4  C5  UNL     1     -33.709  14.625  -4.757  1.00 20.00     0.179 C 
HETATM    5  C6  UNL     1     -34.083  16.051  -5.153  1.00 20.00     0.079 C 
HETATM    6  O10 UNL     1     -34.806  13.936  -4.154  1.00 20.00    -0.390 OA
ENDROOT
BRANCH   5   7
HETATM    7  C1  UNL     1     -34.190  16.904  -3.923  1.00 20.00     0.132 C 
HETATM    8  O9  UNL     1     -34.977  17.848  -3.872  1.00 20.00    -0.298 OA
BRANCH   7   9
HETATM    9  C8  UNL     1     -33.278  16.530  -2.768  1.00 20.00     0.074 C 
HETATM   10  C7  UNL     1     -33.638  17.254  -1.483  1.00 20.00     0.013 C 
ENDBRANCH   7   9
ENDBRANCH   5   7
TORSDOF 2
ENDMDL
MODEL 7
REMARK VINA RESULT:      -3.5     10.233     11.182
REMARK  2 active torsions:
REMARK  status: ('A' for Active; 'I' for Inactive)
REMARK    1  A    between atoms: C1_1  and  C6_6 
REMARK    2  A    between atoms: C1_1  and  C8_8 
ROOT
HETATM    1  C2  UNL     1     -40.178  14.519   8.839  1.00 20.00     0.027 C 
HETATM    2  C3  UNL     1     -40.900  15.001   7.583  1.00 20.00     0.016 C 
HETATM    3  C4  UNL     1     -41.155  14.332   9.988  1.00 20.00     0.167 C 
HETATM    4  C5  UNL     1     -42.992  13.938   8.541  1.00 20.00     0.179 C 
HETATM    5  C6  UNL     1     -42.159  14.186   7.286  1.00 20.00     0.079 C 
HETATM    6  O10 UNL     1     -42.196  13.431   9.615  1.00 20.00    -0.390 OA
ENDROOT
BRANCH   5   7
HETATM    7  C1  UNL     1     -41.799  12.874   6.653  1.00 20.00     0.132 C 
HETATM    8  O9  UNL     1     -42.398  11.841   6.952  1.00 20.00    -0.298 OA
BRANCH   7   9
HETATM    9  C8  UNL     1     -40.669  12.906   5.640  1.00 20.00     0.074 C 
HETATM   10  C7  UNL     1     -39.708  11.743   5.801  1.00 20.00     0.013 C 
ENDBRANCH   7   9
ENDBRANCH   5   7
TORSDOF 2
ENDMDL
MODEL 8
REMARK VINA RESULT:      -3.5     10.097     10.980
REMARK  2 active torsions:
REMARK  status: ('A' for Active; 'I' for Inactive)
REMARK    1  A    between atoms: C1_1  and  C6_6 
REMARK    2  A    between atoms: C1_1  and  C8_8 
ROOT
HETATM    1  C2  UNL     1     -42.235  15.856   6.097  1.00 20.00     0.027 C 
HETATM    2  C3  UNL     1     -42.728  14.419   6.252  1.00 20.00     0.016 C 
HETATM    3  C4  UNL     1     -41.316  16.241   7.246  1.00 20.00     0.167 C 
HETATM    4  C5  UNL     1     -40.652  14.000   7.643  1.00 20.00     0.179 C 
HETATM    5  C6  UNL     1     -41.595  13.447   6.578  1.00 20.00     0.079 C 
HETATM    6  O10 UNL     1     -40.224  15.329   7.336  1.00 20.00    -0.390 OA
ENDROOT
BRANCH   5   7
HETATM    7  C1  UNL     1     -40.816  13.114   5.340  1.00 20.00     0.132 C 
HETATM    8  O9  UNL     1     -41.182  13.511   4.234  1.00 20.00    -0.298 OA
BRANCH   7   9
HETATM    9  C8  UNL     1     -39.570  12.270   5.539  1.00 20.00     0.074 C 
HETATM   10  C7  UNL     1     -39.036  11.700   4.237  1.00 20.00     0.013 C 
ENDBRANCH   7   9
ENDBRANCH   5   7
TORSDOF 2
ENDMDL
MODEL 9
REMARK VINA RESULT:      -3.5     12.468     13.487
REMARK  2 active torsions:
REMARK  status: ('A' for Active; 'I' for Inactive)
REMARK    1  A    between atoms: C1_1  and  C6_6 
REMARK    2  A    between atoms: C1_1  and  C8_8 
ROOT
HETATM    1  C2  UNL     1     -33.750  17.636  -0.827  1.00 20.00     0.027 C 
HETATM    2  C3  UNL     1     -32.684  17.709  -1.918  1.00 20.00     0.016 C 
HETATM    3  C4  UNL     1     -34.638  18.869  -0.853  1.00 20.00     0.167 C 
HETATM    4  C5  UNL     1     -34.255  19.262  -3.159  1.00 20.00     0.179 C 
HETATM    5  C6  UNL     1     -33.266  18.106  -3.274  1.00 20.00     0.079 C 
HETATM    6  O10 UNL     1     -35.230  19.029  -2.141  1.00 20.00    -0.390 OA
ENDROOT
BRANCH   5   7
HETATM    7  C1  UNL     1     -33.939  16.930  -3.922  1.00 20.00     0.132 C 
HETATM    8  O9  UNL     1     -35.002  17.063  -4.528  1.00 20.00    -0.298 OA
BRANCH   7   9
HETATM    9  C8  UNL     1     -33.234  15.594  -3.781  1.00 20.00     0.074 C 
HETATM   10  C7  UNL     1     -34.096  14.429  -4.230  1.00 20.00     0.013 C 
ENDBRANCH   7   9
ENDBRANCH   5   7
TORSDOF 2
ENDMDL
