MODEL 1
REMARK VINA RESULT:      -4.3      0.000      0.000
REMARK  3 active torsions:
REMARK  status: ('A' for Active; 'I' for Inactive)
REMARK    1  A    between atoms: C1_1  and  C5_5 
REMARK    2  A    between atoms: C1_1  and  C8_8 
REMARK    3  A    between atoms: C8_8  and  C9_9 
ROOT
HETATM    1  C1  UNL     1     -34.009  14.847  -4.306  1.00 20.00     0.133 C 
HETATM    2  O10 UNL     1     -34.117  13.682  -3.926  1.00 20.00    -0.297 OA
ENDROOT
BRANCH   1   3
HETATM    3  C5  UNL     1     -34.786  15.346  -5.474  1.00 20.00     0.081 C 
HETATM    4  C2  UNL     1     -33.985  15.405  -6.760  1.00 20.00     0.040 C 
HETATM    5  C3  UNL     1     -35.079  15.424  -7.806  1.00 20.00     0.168 C 
HETATM    6  O11 UNL     1     -36.150  14.625  -7.287  1.00 20.00    -0.390 OA
HETATM    7  C4  UNL     1     -35.943  14.442  -5.878  1.00 20.00     0.179 C 
ENDBRANCH   1   3
BRANCH   1   8
HETATM    8  C8  UNL     1     -33.062  15.844  -3.657  1.00 20.00     0.082 C 
BRANCH   8   9
HETATM    9  C9  UNL     1     -33.759  17.103  -3.121  1.00 20.00    -0.016 C 
HETATM   10  C6  UNL     1     -33.215  18.370  -3.785  1.00 20.00     0.010 C 
HETATM   11  C7  UNL     1     -33.578  17.196  -1.604  1.00 20.00     0.010 C 
ENDBRANCH   8   9
ENDBRANCH   1   8
TORSDOF 3
ENDMDL
MODEL 2
REMARK VINA RESULT:      -4.3     11.121     12.645
REMARK  3 active torsions:
REMARK  status: ('A' for Active; 'I' for Inactive)
REMARK    1  A    between atoms: C1_1  and  C5_5 
REMARK    2  A    between atoms: C1_1  and  C8_8 
REMARK    3  A    between atoms: C8_8  and  C9_9 
ROOT
HETATM    1  C1  UNL     1     -32.722   8.146   4.379  1.00 20.00     0.133 C 
HETATM    2  O10 UNL     1     -32.321   9.053   5.107  1.00 20.00    -0.297 OA
ENDROOT
BRANCH   1   3
HETATM    3  C5  UNL     1     -33.897   7.317   4.765  1.00 20.00     0.081 C 
HETATM    4  C2  UNL     1     -33.897   5.933   4.148  1.00 20.00     0.040 C 
HETATM    5  C3  UNL     1     -34.837   5.184   5.067  1.00 20.00     0.168 C 
HETATM    6  O11 UNL     1     -34.649   5.735   6.376  1.00 20.00    -0.390 OA
HETATM    7  C4  UNL     1     -33.959   6.988   6.250  1.00 20.00     0.179 C 
ENDBRANCH   1   3
BRANCH   1   8
HETATM    8  C8  UNL     1     -32.040   7.773   3.071  1.00 20.00     0.082 C 
BRANCH   8   9
HETATM    9  C9  UNL     1     -32.724   8.357   1.827  1.00 20.00    -0.016 C 
HETATM   10  C6  UNL     1     -31.893   8.113   0.565  1.00 20.00     0.010 C 
HETATM   11  C7  UNL     1     -32.952   9.859   2.011  1.00 20.00     0.010 C 
ENDBRANCH   8   9
ENDBRANCH   1   8
TORSDOF 3
ENDMDL
MODEL 3
REMARK VINA RESULT:      -3.9     11.208     12.759
REMARK  3 active torsions:
REMARK  status: ('A' for Active; 'I' for Inactive)
REMARK    1  A    between atoms: C1_1  and  C5_5 
REMARK    2  A    between atoms: C1_1  and  C8_8 
REMARK    3  A    between atoms: C8_8  and  C9_9 
ROOT
HETATM    1  C1  UNL     1     -32.935   6.396   3.198  1.00 20.00     0.133 C 
HETATM    2  O10 UNL     1     -32.773   5.314   2.636  1.00 20.00    -0.297 OA
ENDROOT
BRANCH   1   3
HETATM    3  C5  UNL     1     -33.940   6.550   4.287  1.00 20.00     0.081 C 
HETATM    4  C2  UNL     1     -34.289   5.251   4.984  1.00 20.00     0.040 C 
HETATM    5  C3  UNL     1     -34.868   5.746   6.291  1.00 20.00     0.168 C 
HETATM    6  O11 UNL     1     -34.151   6.942   6.625  1.00 20.00    -0.390 OA
HETATM    7  C4  UNL     1     -33.459   7.401   5.454  1.00 20.00     0.179 C 
ENDBRANCH   1   3
BRANCH   1   8
HETATM    8  C8  UNL     1     -32.171   7.653   2.809  1.00 20.00     0.082 C 
BRANCH   8   9
HETATM    9  C9  UNL     1     -32.712   8.342   1.548  1.00 20.00    -0.016 C 
HETATM   10  C6  UNL     1     -31.763   8.160   0.361  1.00 20.00     0.010 C 
HETATM   11  C7  UNL     1     -32.923   9.833   1.816  1.00 20.00     0.010 C 
ENDBRANCH   8   9
ENDBRANCH   1   8
TORSDOF 3
ENDMDL
MODEL 4
REMARK VINA RESULT:      -3.9     11.972     14.001
REMARK  3 active torsions:
REMARK  status: ('A' for Active; 'I' for Inactive)
REMARK    1  A    between atoms: C1_1  and  C5_5 
REMARK    2  A    between atoms: C1_1  and  C8_8 
REMARK    3  A    between atoms: C8_8  and  C9_9 
ROOT
HETATM    1  C1  UNL     1     -41.654  12.987   6.712  1.00 20.00     0.133 C 
HETATM    2  O10 UNL     1     -42.342  12.021   7.037  1.00 20.00    -0.297 OA
ENDROOT
BRANCH   1   3
HETATM    3  C5  UNL     1     -41.659  14.237   7.522  1.00 20.00     0.081 C 
HETATM    4  C2  UNL     1     -40.458  14.378   8.436  1.00 20.00     0.040 C 
HETATM    5  C3  UNL     1     -40.449  15.866   8.709  1.00 20.00     0.168 C 
HETATM    6  O11 UNL     1     -40.922  16.500   7.514  1.00 20.00    -0.390 OA
HETATM    7  C4  UNL     1     -41.561  15.510   6.693  1.00 20.00     0.179 C 
ENDBRANCH   1   3
BRANCH   1   8
HETATM    8  C8  UNL     1     -40.792  13.005   5.460  1.00 20.00     0.082 C 
BRANCH   8   9
HETATM    9  C9  UNL     1     -39.782  11.850   5.386  1.00 20.00    -0.016 C 
HETATM   10  C6  UNL     1     -38.664  12.018   6.419  1.00 20.00     0.010 C 
HETATM   11  C7  UNL     1     -39.179  11.771   3.981  1.00 20.00     0.010 C 
ENDBRANCH   8   9
ENDBRANCH   1   8
TORSDOF 3
ENDMDL
MODEL 5
REMARK VINA RESULT:      -3.9     10.897     12.237
REMARK  3 active torsions:
REMARK  status: ('A' for Active; 'I' for Inactive)
REMARK    1  A    between atoms: C1_1  and  C5_5 
REMARK    2  A    between atoms: C1_1  and  C8_8 
REMARK    3  A    between atoms: C8_8  and  C9_9 
ROOT
HETATM    1  C1  UNL     1     -32.873   8.290   4.648  1.00 20.00     0.133 C 
HETATM    2  O10 UNL     1     -31.880   8.834   5.128  1.00 20.00    -0.297 OA
ENDROOT
BRANCH   1   3
HETATM    3  C5  UNL     1     -33.087   8.249   3.174  1.00 20.00     0.081 C 
HETATM    4  C2  UNL     1     -32.885   9.587   2.491  1.00 20.00     0.040 C 
HETATM    5  C3  UNL     1     -32.650   9.169   1.056  1.00 20.00     0.168 C 
HETATM    6  O11 UNL     1     -31.956   7.916   1.107  1.00 20.00    -0.390 OA
HETATM    7  C4  UNL     1     -32.088   7.374   2.430  1.00 20.00     0.179 C 
ENDBRANCH   1   3
BRANCH   1   8
HETATM    8  C8  UNL     1     -33.966   7.663   5.500  1.00 20.00     0.082 C 
BRANCH   8   9
HETATM    9  C9  UNL     1     -34.200   6.173   5.211  1.00 20.00    -0.016 C 
HETATM   10  C6  UNL     1     -35.483   5.954   4.405  1.00 20.00     0.010 C 
HETATM   11  C7  UNL     1     -34.275   5.390   6.524  1.00 20.00     0.010 C 
ENDBRANCH   8   9
ENDBRANCH   1   8
TORSDOF 3
ENDMDL
MODEL 6
REMARK VINA RESULT:      -3.8      2.195      3.128
REMARK  3 active torsions:
REMARK  status: ('A' for Active; 'I' for Inactive)
REMARK    1  A    between atoms: C1_1  and  C5_5 
REMARK    2  A    between atoms: C1_1  and  C8_8 
REMARK    3  A    between atoms: C8_8  and  C9_9 
ROOT
HETATM    1  C1  UNL     1     -34.122  17.761  -2.900  1.00 20.00     0.133 C 
HETATM    2  O10 UNL     1     -34.843  18.757  -2.953  1.00 20.00    -0.297 OA
ENDROOT
BRANCH   1   3
HETATM    3  C5  UNL     1     -33.884  16.925  -4.110  1.00 20.00     0.081 C 
HETATM    4  C2  UNL     1     -33.462  15.503  -3.795  1.00 20.00     0.040 C 
HETATM    5  C3  UNL     1     -33.792  14.789  -5.087  1.00 20.00     0.168 C 
HETATM    6  O11 UNL     1     -34.959  15.431  -5.619  1.00 20.00    -0.390 OA
HETATM    7  C4  UNL     1     -35.128  16.692  -4.955  1.00 20.00     0.179 C 
ENDBRANCH   1   3
BRANCH   1   8
HETATM    8  C8  UNL     1     -33.462  17.284  -1.616  1.00 20.00     0.082 C 
BRANCH   8   9
HETATM    9  C9  UNL     1     -33.022  18.423  -0.685  1.00 20.00    -0.016 C 
HETATM   10  C6  UNL     1     -31.503  18.434  -0.493  1.00 20.00     0.010 C 
HETATM   11  C7  UNL     1     -33.713  18.285   0.674  1.00 20.00     0.010 C 
ENDBRANCH   8   9
ENDBRANCH   1   8
TORSDOF 3
ENDMDL
MODEL 7
REMARK VINA RESULT:      -3.7     11.800     13.492
REMARK  3 active torsions:
REMARK  status: ('A' for Active; 'I' for Inactive)
REMARK    1  A    between atoms: C1_1  and  C5_5 
REMARK    2  A    between atoms: C1_1  and  C8_8 
REMARK    3  A    between atoms: C8_8  and  C9_9 
ROOT
HETATM    1  C1  UNL     1     -41.630  13.209   7.146  1.00 20.00     0.133 C 
HETATM    2  O10 UNL     1     -42.340  12.224   7.345  1.00 20.00    -0.297 OA
ENDROOT
BRANCH   1   3
HETATM    3  C5  UNL     1     -40.523  13.165   6.150  1.00 20.00     0.081 C 
HETATM    4  C2  UNL     1     -39.812  11.827   6.085  1.00 20.00     0.040 C 
HETATM    5  C3  UNL     1     -39.153  11.893   4.724  1.00 20.00     0.168 C 
HETATM    6  O11 UNL     1     -40.039  12.639   3.880  1.00 20.00    -0.390 OA
HETATM    7  C4  UNL     1     -40.982  13.336   4.709  1.00 20.00     0.179 C 
ENDBRANCH   1   3
BRANCH   1   8
HETATM    8  C8  UNL     1     -41.789  14.512   7.913  1.00 20.00     0.082 C 
BRANCH   8   9
HETATM    9  C9  UNL     1     -40.464  15.245   8.171  1.00 20.00    -0.016 C 
HETATM   10  C6  UNL     1     -40.101  15.239   9.658  1.00 20.00     0.010 C 
HETATM   11  C7  UNL     1     -40.557  16.688   7.668  1.00 20.00     0.010 C 
ENDBRANCH   8   9
ENDBRANCH   1   8
TORSDOF 3
ENDMDL
MODEL 8
REMARK VINA RESULT:      -3.7     10.633     11.956
REMARK  3 active torsions:
REMARK  status: ('A' for Active; 'I' for Inactive)
REMARK    1  A    between atoms: C1_1  and  C5_5 
REMARK    2  A    between atoms: C1_1  and  C8_8 
REMARK    3  A    between atoms: C8_8  and  C9_9 
ROOT
HETATM    1  C1  UNL     1     -32.777   8.487   4.340  1.00 20.00     0.133 C 
HETATM    2  O10 UNL     1     -32.275   8.982   5.347  1.00 20.00    -0.297 OA
ENDROOT
BRANCH   1   3
HETATM    3  C5  UNL     1     -32.195   8.739   2.992  1.00 20.00     0.081 C 
HETATM    4  C2  UNL     1     -32.207   7.524   2.084  1.00 20.00     0.040 C 
HETATM    5  C3  UNL     1     -32.072   8.158   0.717  1.00 20.00     0.168 C 
HETATM    6  O11 UNL     1     -32.763   9.412   0.781  1.00 20.00    -0.390 OA
HETATM    7  C4  UNL     1     -32.975   9.747   2.161  1.00 20.00     0.179 C 
ENDBRANCH   1   3
BRANCH   1   8
HETATM    8  C8  UNL     1     -34.032   7.630   4.377  1.00 20.00     0.082 C 
BRANCH   8   9
HETATM    9  C9  UNL     1     -33.886   6.351   5.215  1.00 20.00    -0.016 C 
HETATM   10  C6  UNL     1     -34.638   5.178   4.582  1.00 20.00     0.010 C 
HETATM   11  C7  UNL     1     -34.407   6.593   6.633  1.00 20.00     0.010 C 
ENDBRANCH   8   9
ENDBRANCH   1   8
TORSDOF 3
ENDMDL
MODEL 9
REMARK VINA RESULT:      -3.6     11.454     12.841
REMARK  3 active torsions:
REMARK  status: ('A' for Active; 'I' for Inactive)
REMARK    1  A    between atoms: C1_1  and  C5_5 
REMARK    2  A    between atoms: C1_1  and  C8_8 
REMARK    3  A    between atoms: C8_8  and  C9_9 
ROOT
HETATM    1  C1  UNL     1     -33.317   7.411   4.897  1.00 20.00     0.133 C 
HETATM    2  O10 UNL     1     -32.950   7.524   6.066  1.00 20.00    -0.297 OA
ENDROOT
BRANCH   1   3
HETATM    3  C5  UNL     1     -32.476   7.922   3.778  1.00 20.00     0.081 C 
HETATM    4  C2  UNL     1     -32.486   7.032   2.552  1.00 20.00     0.040 C 
HETATM    5  C3  UNL     1     -32.028   7.988   1.472  1.00 20.00     0.168 C 
HETATM    6  O11 UNL     1     -32.550   9.276   1.822  1.00 20.00    -0.390 OA
HETATM    7  C4  UNL     1     -32.958   9.244   3.198  1.00 20.00     0.179 C 
ENDBRANCH   1   3
BRANCH   1   8
HETATM    8  C8  UNL     1     -34.650   6.794   4.505  1.00 20.00     0.082 C 
BRANCH   8   9
HETATM    9  C9  UNL     1     -34.864   5.377   5.057  1.00 20.00    -0.016 C 
HETATM   10  C6  UNL     1     -34.625   5.324   6.568  1.00 20.00     0.010 C 
HETATM   11  C7  UNL     1     -33.928   4.393   4.351  1.00 20.00     0.010 C 
ENDBRANCH   8   9
ENDBRANCH   1   8
TORSDOF 3
ENDMDL
