MODEL 1
REMARK VINA RESULT:      -4.9      0.000      0.000
REMARK  6 active torsions:
REMARK  status: ('A' for Active; 'I' for Inactive)
REMARK    1  A    between atoms: C4_4  and  C6_6 
REMARK    2  A    between atoms: C5_5  and  C7_7 
REMARK    3  A    between atoms: C6_6  and  C8_8 
REMARK    4  A    between atoms: C7_7  and  C9_9 
REMARK    5  A    between atoms: C8_8  and  C9_9 
REMARK    6  A    between atoms: C9_9  and  O10_10 
ROOT
HETATM    1  C1  UNL     1     -34.092   4.353   4.174  1.00 20.00     0.012 C 
HETATM    2  C2  UNL     1     -34.281   5.038   5.142  1.00 20.00    -0.117 C 
HETATM    3  C4  UNL     1     -34.516   5.873   6.328  1.00 20.00     0.093 C 
ENDROOT
BRANCH   3   4
HETATM    4  C6  UNL     1     -33.869   7.255   6.202  1.00 20.00     0.014 C 
BRANCH   4   5
HETATM    5  C8  UNL     1     -34.102   7.898   4.826  1.00 20.00     0.032 C 
BRANCH   5   6
HETATM    6  C9  UNL     1     -32.792   8.380   4.186  1.00 20.00     0.118 C 
BRANCH   6   7
HETATM    7  C7  UNL     1     -32.222   7.402   3.150  1.00 20.00     0.031 C 
BRANCH   7   8
HETATM    8  C5  UNL     1     -32.180   7.966   1.731  1.00 20.00    -0.002 C 
HETATM    9  C3  UNL     1     -32.808   9.351   1.666  1.00 20.00     0.005 C 
ENDBRANCH   7   8
ENDBRANCH   6   7
BRANCH   6  10
HETATM   10  O10 UNL     1     -31.808   8.561   5.206  1.00 20.00    -0.396 OA
HETATM   11  H26 UNL     1     -31.091   9.073   4.803  1.00 20.00     0.210 HD
ENDBRANCH   6  10
ENDBRANCH   5   6
ENDBRANCH   4   5
ENDBRANCH   3   4
TORSDOF 6
ENDMDL
MODEL 2
REMARK VINA RESULT:      -4.7      1.281      2.540
REMARK  6 active torsions:
REMARK  status: ('A' for Active; 'I' for Inactive)
REMARK    1  A    between atoms: C4_4  and  C6_6 
REMARK    2  A    between atoms: C5_5  and  C7_7 
REMARK    3  A    between atoms: C6_6  and  C8_8 
REMARK    4  A    between atoms: C7_7  and  C9_9 
REMARK    5  A    between atoms: C8_8  and  C9_9 
REMARK    6  A    between atoms: C9_9  and  O10_10 
ROOT
HETATM    1  C1  UNL     1     -32.755   5.392   2.244  1.00 20.00     0.012 C 
HETATM    2  C2  UNL     1     -33.380   4.980   3.183  1.00 20.00    -0.117 C 
HETATM    3  C4  UNL     1     -34.144   4.472   4.330  1.00 20.00     0.093 C 
ENDROOT
BRANCH   3   4
HETATM    4  C6  UNL     1     -35.147   5.500   4.862  1.00 20.00     0.014 C 
BRANCH   4   5
HETATM    5  C8  UNL     1     -34.874   5.897   6.321  1.00 20.00     0.032 C 
BRANCH   5   6
HETATM    6  C9  UNL     1     -34.093   7.215   6.423  1.00 20.00     0.118 C 
BRANCH   6   7
HETATM    7  C7  UNL     1     -34.010   7.980   5.095  1.00 20.00     0.031 C 
BRANCH   7   8
HETATM    8  C5  UNL     1     -32.593   8.408   4.721  1.00 20.00    -0.002 C 
HETATM    9  C3  UNL     1     -32.517   8.871   3.273  1.00 20.00     0.005 C 
ENDBRANCH   7   8
ENDBRANCH   6   7
BRANCH   6  10
HETATM   10  O10 UNL     1     -32.759   6.940   6.854  1.00 20.00    -0.396 OA
HETATM   11  H26 UNL     1     -32.198   7.023   6.069  1.00 20.00     0.210 HD
ENDBRANCH   6  10
ENDBRANCH   5   6
ENDBRANCH   4   5
ENDBRANCH   3   4
TORSDOF 6
ENDMDL
MODEL 3
REMARK VINA RESULT:      -4.6      1.842      3.899
REMARK  6 active torsions:
REMARK  status: ('A' for Active; 'I' for Inactive)
REMARK    1  A    between atoms: C4_4  and  C6_6 
REMARK    2  A    between atoms: C5_5  and  C7_7 
REMARK    3  A    between atoms: C6_6  and  C8_8 
REMARK    4  A    between atoms: C7_7  and  C9_9 
REMARK    5  A    between atoms: C8_8  and  C9_9 
REMARK    6  A    between atoms: C9_9  and  O10_10 
ROOT
HETATM    1  C1  UNL     1     -32.554   8.901   2.107  1.00 20.00     0.012 C 
HETATM    2  C2  UNL     1     -32.518   8.725   3.295  1.00 20.00    -0.117 C 
HETATM    3  C4  UNL     1     -32.469   8.512   4.747  1.00 20.00     0.093 C 
ENDROOT
BRANCH   3   4
HETATM    4  C6  UNL     1     -33.807   8.020   5.308  1.00 20.00     0.014 C 
BRANCH   4   5
HETATM    5  C8  UNL     1     -33.638   6.955   6.402  1.00 20.00     0.032 C 
BRANCH   5   6
HETATM    6  C9  UNL     1     -34.239   5.604   5.989  1.00 20.00     0.118 C 
BRANCH   6   7
HETATM    7  C7  UNL     1     -34.639   5.540   4.509  1.00 20.00     0.031 C 
BRANCH   7   8
HETATM    8  C5  UNL     1     -33.817   4.545   3.692  1.00 20.00    -0.002 C 
HETATM    9  C3  UNL     1     -32.941   5.255   2.671  1.00 20.00     0.005 C 
ENDBRANCH   7   8
ENDBRANCH   6   7
BRANCH   6  10
HETATM   10  O10 UNL     1     -35.407   5.349   6.771  1.00 20.00    -0.396 OA
HETATM   11  H26 UNL     1     -35.374   4.411   7.011  1.00 20.00     0.210 HD
ENDBRANCH   6  10
ENDBRANCH   5   6
ENDBRANCH   4   5
ENDBRANCH   3   4
TORSDOF 6
ENDMDL
MODEL 4
REMARK VINA RESULT:      -4.5      1.885      4.393
REMARK  6 active torsions:
REMARK  status: ('A' for Active; 'I' for Inactive)
REMARK    1  A    between atoms: C4_4  and  C6_6 
REMARK    2  A    between atoms: C5_5  and  C7_7 
REMARK    3  A    between atoms: C6_6  and  C8_8 
REMARK    4  A    between atoms: C7_7  and  C9_9 
REMARK    5  A    between atoms: C8_8  and  C9_9 
REMARK    6  A    between atoms: C9_9  and  O10_10 
ROOT
HETATM    1  C1  UNL     1     -32.213   8.442   0.968  1.00 20.00     0.012 C 
HETATM    2  C2  UNL     1     -32.265   7.677   1.892  1.00 20.00    -0.117 C 
HETATM    3  C4  UNL     1     -32.325   6.743   3.024  1.00 20.00     0.093 C 
ENDROOT
BRANCH   3   4
HETATM    4  C6  UNL     1     -32.987   5.415   2.648  1.00 20.00     0.014 C 
BRANCH   4   5
HETATM    5  C8  UNL     1     -33.819   4.820   3.794  1.00 20.00     0.032 C 
BRANCH   5   6
HETATM    6  C9  UNL     1     -34.610   5.896   4.552  1.00 20.00     0.118 C 
BRANCH   6   7
HETATM    7  C7  UNL     1     -34.357   5.887   6.066  1.00 20.00     0.031 C 
BRANCH   7   8
HETATM    8  C5  UNL     1     -34.075   7.270   6.649  1.00 20.00    -0.002 C 
HETATM    9  C3  UNL     1     -33.671   8.258   5.565  1.00 20.00     0.005 C 
ENDBRANCH   7   8
ENDBRANCH   6   7
BRANCH   6  10
HETATM   10  O10 UNL     1     -36.008   5.691   4.340  1.00 20.00    -0.396 OA
HETATM   11  H26 UNL     1     -36.401   6.572   4.249  1.00 20.00     0.210 HD
ENDBRANCH   6  10
ENDBRANCH   5   6
ENDBRANCH   4   5
ENDBRANCH   3   4
TORSDOF 6
ENDMDL
MODEL 5
REMARK VINA RESULT:      -4.4      2.086      4.600
REMARK  6 active torsions:
REMARK  status: ('A' for Active; 'I' for Inactive)
REMARK    1  A    between atoms: C4_4  and  C6_6 
REMARK    2  A    between atoms: C5_5  and  C7_7 
REMARK    3  A    between atoms: C6_6  and  C8_8 
REMARK    4  A    between atoms: C7_7  and  C9_9 
REMARK    5  A    between atoms: C8_8  and  C9_9 
REMARK    6  A    between atoms: C9_9  and  O10_10 
ROOT
HETATM    1  C1  UNL     1     -32.463   9.073   4.955  1.00 20.00     0.012 C 
HETATM    2  C2  UNL     1     -32.199   8.323   4.054  1.00 20.00    -0.117 C 
HETATM    3  C4  UNL     1     -31.871   7.409   2.952  1.00 20.00     0.093 C 
ENDROOT
BRANCH   3   4
HETATM    4  C6  UNL     1     -33.063   6.535   2.548  1.00 20.00     0.014 C 
BRANCH   4   5
HETATM    5  C8  UNL     1     -32.909   5.075   3.001  1.00 20.00     0.032 C 
BRANCH   5   6
HETATM    6  C9  UNL     1     -34.139   4.578   3.775  1.00 20.00     0.118 C 
BRANCH   6   7
HETATM    7  C7  UNL     1     -34.883   5.694   4.521  1.00 20.00     0.031 C 
BRANCH   7   8
HETATM    8  C5  UNL     1     -34.823   5.562   6.041  1.00 20.00    -0.002 C 
HETATM    9  C3  UNL     1     -34.224   6.804   6.683  1.00 20.00     0.005 C 
ENDBRANCH   7   8
ENDBRANCH   6   7
BRANCH   6  10
HETATM   10  O10 UNL     1     -33.728   3.606   4.738  1.00 20.00    -0.396 OA
HETATM   11  H26 UNL     1     -33.201   2.952   4.255  1.00 20.00     0.210 HD
ENDBRANCH   6  10
ENDBRANCH   5   6
ENDBRANCH   4   5
ENDBRANCH   3   4
TORSDOF 6
ENDMDL
MODEL 6
REMARK VINA RESULT:      -4.4      1.287      4.158
REMARK  6 active torsions:
REMARK  status: ('A' for Active; 'I' for Inactive)
REMARK    1  A    between atoms: C4_4  and  C6_6 
REMARK    2  A    between atoms: C5_5  and  C7_7 
REMARK    3  A    between atoms: C6_6  and  C8_8 
REMARK    4  A    between atoms: C7_7  and  C9_9 
REMARK    5  A    between atoms: C8_8  and  C9_9 
REMARK    6  A    between atoms: C9_9  and  O10_10 
ROOT
HETATM    1  C1  UNL     1     -32.566   8.992   0.712  1.00 20.00     0.012 C 
HETATM    2  C2  UNL     1     -32.369   8.347   1.705  1.00 20.00    -0.117 C 
HETATM    3  C4  UNL     1     -32.128   7.554   2.918  1.00 20.00     0.093 C 
ENDROOT
BRANCH   3   4
HETATM    4  C6  UNL     1     -32.204   8.401   4.191  1.00 20.00     0.014 C 
BRANCH   4   5
HETATM    5  C8  UNL     1     -33.592   8.365   4.848  1.00 20.00     0.032 C 
BRANCH   5   6
HETATM    6  C9  UNL     1     -33.858   7.031   5.561  1.00 20.00     0.118 C 
BRANCH   6   7
HETATM    7  C7  UNL     1     -34.922   6.169   4.867  1.00 20.00     0.031 C 
BRANCH   7   8
HETATM    8  C5  UNL     1     -34.555   4.689   4.784  1.00 20.00    -0.002 C 
HETATM    9  C3  UNL     1     -33.665   4.405   3.583  1.00 20.00     0.005 C 
ENDBRANCH   7   8
ENDBRANCH   6   7
BRANCH   6  10
HETATM   10  O10 UNL     1     -34.305   7.289   6.893  1.00 20.00    -0.396 OA
HETATM   11  H26 UNL     1     -33.766   6.731   7.473  1.00 20.00     0.210 HD
ENDBRANCH   6  10
ENDBRANCH   5   6
ENDBRANCH   4   5
ENDBRANCH   3   4
TORSDOF 6
ENDMDL
MODEL 7
REMARK VINA RESULT:      -4.4      1.245      1.357
REMARK  6 active torsions:
REMARK  status: ('A' for Active; 'I' for Inactive)
REMARK    1  A    between atoms: C4_4  and  C6_6 
REMARK    2  A    between atoms: C5_5  and  C7_7 
REMARK    3  A    between atoms: C6_6  and  C8_8 
REMARK    4  A    between atoms: C7_7  and  C9_9 
REMARK    5  A    between atoms: C8_8  and  C9_9 
REMARK    6  A    between atoms: C9_9  and  O10_10 
ROOT
HETATM    1  C1  UNL     1     -34.714   4.706   4.788  1.00 20.00     0.012 C 
HETATM    2  C2  UNL     1     -34.511   5.581   5.586  1.00 20.00    -0.117 C 
HETATM    3  C4  UNL     1     -34.267   6.649   6.564  1.00 20.00     0.093 C 
ENDROOT
BRANCH   3   4
HETATM    4  C6  UNL     1     -33.358   7.749   6.008  1.00 20.00     0.014 C 
BRANCH   4   5
HETATM    5  C8  UNL     1     -33.697   8.124   4.557  1.00 20.00     0.032 C 
BRANCH   5   6
HETATM    6  C9  UNL     1     -32.469   8.039   3.638  1.00 20.00     0.118 C 
BRANCH   6   7
HETATM    7  C7  UNL     1     -32.504   9.043   2.478  1.00 20.00     0.031 C 
BRANCH   7   8
HETATM    8  C5  UNL     1     -32.143   8.431   1.126  1.00 20.00    -0.002 C 
HETATM    9  C3  UNL     1     -32.887   9.118  -0.010  1.00 20.00     0.005 C 
ENDBRANCH   7   8
ENDBRANCH   6   7
BRANCH   6  10
HETATM   10  O10 UNL     1     -32.388   6.726   3.080  1.00 20.00    -0.396 OA
HETATM   11  H26 UNL     1     -32.704   6.120   3.766  1.00 20.00     0.210 HD
ENDBRANCH   6  10
ENDBRANCH   5   6
ENDBRANCH   4   5
ENDBRANCH   3   4
TORSDOF 6
ENDMDL
MODEL 8
REMARK VINA RESULT:      -4.3      1.353      3.914
REMARK  6 active torsions:
REMARK  status: ('A' for Active; 'I' for Inactive)
REMARK    1  A    between atoms: C4_4  and  C6_6 
REMARK    2  A    between atoms: C5_5  and  C7_7 
REMARK    3  A    between atoms: C6_6  and  C8_8 
REMARK    4  A    between atoms: C7_7  and  C9_9 
REMARK    5  A    between atoms: C8_8  and  C9_9 
REMARK    6  A    between atoms: C9_9  and  O10_10 
ROOT
HETATM    1  C1  UNL     1     -32.936   5.177   2.754  1.00 20.00     0.012 C 
HETATM    2  C2  UNL     1     -32.535   6.274   2.478  1.00 20.00    -0.117 C 
HETATM    3  C4  UNL     1     -32.040   7.615   2.137  1.00 20.00     0.093 C 
ENDROOT
BRANCH   3   4
HETATM    4  C6  UNL     1     -32.589   8.693   3.075  1.00 20.00     0.014 C 
BRANCH   4   5
HETATM    5  C8  UNL     1     -32.233   8.436   4.548  1.00 20.00     0.032 C 
BRANCH   5   6
HETATM    6  C9  UNL     1     -33.483   8.231   5.416  1.00 20.00     0.118 C 
BRANCH   6   7
HETATM    7  C7  UNL     1     -33.393   7.008   6.338  1.00 20.00     0.031 C 
BRANCH   7   8
HETATM    8  C5  UNL     1     -34.692   6.211   6.429  1.00 20.00    -0.002 C 
HETATM    9  C3  UNL     1     -34.572   4.869   5.721  1.00 20.00     0.005 C 
ENDBRANCH   7   8
ENDBRANCH   6   7
BRANCH   6  10
HETATM   10  O10 UNL     1     -34.621   8.059   4.570  1.00 20.00    -0.396 OA
HETATM   11  H26 UNL     1     -34.777   8.917   4.146  1.00 20.00     0.210 HD
ENDBRANCH   6  10
ENDBRANCH   5   6
ENDBRANCH   4   5
ENDBRANCH   3   4
TORSDOF 6
ENDMDL
MODEL 9
REMARK VINA RESULT:      -4.1      1.896      2.834
REMARK  6 active torsions:
REMARK  status: ('A' for Active; 'I' for Inactive)
REMARK    1  A    between atoms: C4_4  and  C6_6 
REMARK    2  A    between atoms: C5_5  and  C7_7 
REMARK    3  A    between atoms: C6_6  and  C8_8 
REMARK    4  A    between atoms: C7_7  and  C9_9 
REMARK    5  A    between atoms: C8_8  and  C9_9 
REMARK    6  A    between atoms: C9_9  and  O10_10 
ROOT
HETATM    1  C1  UNL     1     -34.068   7.543   6.752  1.00 20.00     0.012 C 
HETATM    2  C2  UNL     1     -34.383   6.417   6.476  1.00 20.00    -0.117 C 
HETATM    3  C4  UNL     1     -34.769   5.040   6.143  1.00 20.00     0.093 C 
ENDROOT
BRANCH   3   4
HETATM    4  C6  UNL     1     -34.405   4.666   4.704  1.00 20.00     0.014 C 
BRANCH   4   5
HETATM    5  C8  UNL     1     -34.113   5.893   3.826  1.00 20.00     0.032 C 
BRANCH   5   6
HETATM    6  C9  UNL     1     -32.733   5.808   3.158  1.00 20.00     0.118 C 
BRANCH   6   7
HETATM    7  C7  UNL     1     -32.173   7.174   2.737  1.00 20.00     0.031 C 
BRANCH   7   8
HETATM    8  C5  UNL     1     -32.865   8.356   3.413  1.00 20.00    -0.002 C 
HETATM    9  C3  UNL     1     -32.038   8.892   4.573  1.00 20.00     0.005 C 
ENDBRANCH   7   8
ENDBRANCH   6   7
BRANCH   6  10
HETATM   10  O10 UNL     1     -32.826   4.993   1.988  1.00 20.00    -0.396 OA
HETATM   11  H26 UNL     1     -33.744   4.685   1.943  1.00 20.00     0.210 HD
ENDBRANCH   6  10
ENDBRANCH   5   6
ENDBRANCH   4   5
ENDBRANCH   3   4
TORSDOF 6
ENDMDL
