MODEL 1
REMARK VINA RESULT:      -3.9      0.000      0.000
REMARK  2 active torsions:
REMARK  status: ('A' for Active; 'I' for Inactive)
REMARK    1  A    between atoms: C8_8  and  C9_9 
REMARK    2  A    between atoms: C8_8  and  N10_10 
ROOT
HETATM    1  C1  UNL     1     -31.609  18.500  -0.127  1.00 20.00     0.032 C 
HETATM    2  C2  UNL     1     -32.606  18.955   0.935  1.00 20.00     0.024 C 
HETATM    3  C3  UNL     1     -32.103  18.847  -1.535  1.00 20.00     0.272 C 
HETATM    4  C4  UNL     1     -34.419  18.786  -0.814  1.00 20.00     0.292 C 
HETATM    5  C5  UNL     1     -34.002  18.425   0.618  1.00 20.00     0.110 C 
HETATM    6  N10 UNL     1     -33.454  18.359  -1.837  1.00 20.00     0.090 N 
HETATM    7 CL11 UNL     1     -35.182  19.093   1.781  1.00 20.00    -0.123 Cl
ENDROOT
BRANCH   6   8
HETATM    8  C8  UNL     1     -33.483  16.915  -2.059  1.00 20.00     0.276 C 
BRANCH   8   9
HETATM    9  C9  UNL     1     -33.328  16.564  -3.543  1.00 20.00     0.006 C 
HETATM   10  C6  UNL     1     -33.643  15.094  -3.829  1.00 20.00     0.011 C 
HETATM   11  C7  UNL     1     -34.165  17.477  -4.441  1.00 20.00     0.011 C 
ENDBRANCH   8   9
ENDBRANCH   6   8
TORSDOF 2
ENDMDL
MODEL 2
REMARK VINA RESULT:      -3.5     10.482     11.804
REMARK  2 active torsions:
REMARK  status: ('A' for Active; 'I' for Inactive)
REMARK    1  A    between atoms: C8_8  and  C9_9 
REMARK    2  A    between atoms: C8_8  and  N10_10 
ROOT
HETATM    1  C1  UNL     1     -43.322  13.590   6.396  1.00 20.00     0.032 C 
HETATM    2  C2  UNL     1     -43.020  14.961   6.996  1.00 20.00     0.024 C 
HETATM    3  C3  UNL     1     -42.299  12.547   6.855  1.00 20.00     0.272 C 
HETATM    4  C4  UNL     1     -40.604  14.252   7.185  1.00 20.00     0.292 C 
HETATM    5  C5  UNL     1     -41.569  15.353   6.726  1.00 20.00     0.110 C 
HETATM    6  N10 UNL     1     -40.901  12.929   6.617  1.00 20.00     0.090 N 
HETATM    7 CL11 UNL     1     -41.189  16.884   7.565  1.00 20.00    -0.123 Cl
ENDROOT
BRANCH   6   8
HETATM    8  C8  UNL     1     -40.534  12.836   5.206  1.00 20.00     0.276 C 
BRANCH   8   9
HETATM    9  C9  UNL     1     -39.408  11.821   4.977  1.00 20.00     0.006 C 
HETATM   10  C6  UNL     1     -39.009  11.719   3.504  1.00 20.00     0.011 C 
HETATM   11  C7  UNL     1     -38.184  12.114   5.847  1.00 20.00     0.011 C 
ENDBRANCH   8   9
ENDBRANCH   6   8
TORSDOF 2
ENDMDL
MODEL 3
REMARK VINA RESULT:      -3.5      2.832      4.953
REMARK  2 active torsions:
REMARK  status: ('A' for Active; 'I' for Inactive)
REMARK    1  A    between atoms: C8_8  and  C9_9 
REMARK    2  A    between atoms: C8_8  and  N10_10 
ROOT
HETATM    1  C1  UNL     1     -34.675  18.570  -4.383  1.00 20.00     0.032 C 
HETATM    2  C2  UNL     1     -34.961  17.371  -5.282  1.00 20.00     0.024 C 
HETATM    3  C3  UNL     1     -33.258  18.505  -3.806  1.00 20.00     0.272 C 
HETATM    4  C4  UNL     1     -33.225  16.084  -3.976  1.00 20.00     0.292 C 
HETATM    5  C5  UNL     1     -34.648  16.069  -4.548  1.00 20.00     0.110 C 
HETATM    6  N10 UNL     1     -32.945  17.246  -3.119  1.00 20.00     0.090 N 
HETATM    7 CL11 UNL     1     -34.839  14.685  -5.663  1.00 20.00    -0.123 Cl
ENDROOT
BRANCH   6   8
HETATM    8  C8  UNL     1     -33.603  17.147  -1.818  1.00 20.00     0.276 C 
BRANCH   8   9
HETATM    9  C9  UNL     1     -33.184  18.286  -0.880  1.00 20.00     0.006 C 
HETATM   10  C6  UNL     1     -33.885  18.209   0.477  1.00 20.00     0.011 C 
HETATM   11  C7  UNL     1     -31.666  18.352  -0.699  1.00 20.00     0.011 C 
ENDBRANCH   8   9
ENDBRANCH   6   8
TORSDOF 2
ENDMDL
MODEL 4
REMARK VINA RESULT:      -3.5      2.309      4.571
REMARK  2 active torsions:
REMARK  status: ('A' for Active; 'I' for Inactive)
REMARK    1  A    between atoms: C8_8  and  C9_9 
REMARK    2  A    between atoms: C8_8  and  N10_10 
ROOT
HETATM    1  C1  UNL     1     -33.189  16.309  -3.517  1.00 20.00     0.032 C 
HETATM    2  C2  UNL     1     -34.297  16.757  -4.466  1.00 20.00     0.024 C 
HETATM    3  C3  UNL     1     -33.543  16.628  -2.062  1.00 20.00     0.272 C 
HETATM    4  C4  UNL     1     -34.967  18.473  -2.739  1.00 20.00     0.292 C 
HETATM    5  C5  UNL     1     -34.650  18.222  -4.219  1.00 20.00     0.110 C 
HETATM    6  N10 UNL     1     -33.905  18.031  -1.824  1.00 20.00     0.090 N 
HETATM    7 CL11 UNL     1     -36.051  18.686  -5.227  1.00 20.00    -0.123 Cl
ENDROOT
BRANCH   6   8
HETATM    8  C8  UNL     1     -32.742  18.914  -1.854  1.00 20.00     0.276 C 
BRANCH   8   9
HETATM    9  C9  UNL     1     -32.254  19.262  -0.443  1.00 20.00     0.006 C 
HETATM   10  C6  UNL     1     -33.348  19.085   0.611  1.00 20.00     0.011 C 
HETATM   11  C7  UNL     1     -31.002  18.471  -0.057  1.00 20.00     0.011 C 
ENDBRANCH   8   9
ENDBRANCH   6   8
TORSDOF 2
ENDMDL
MODEL 5
REMARK VINA RESULT:      -3.2      3.662      5.093
REMARK  2 active torsions:
REMARK  status: ('A' for Active; 'I' for Inactive)
REMARK    1  A    between atoms: C8_8  and  C9_9 
REMARK    2  A    between atoms: C8_8  and  N10_10 
ROOT
HETATM    1  C1  UNL     1     -33.808  14.753  -4.163  1.00 20.00     0.032 C 
HETATM    2  C2  UNL     1     -33.243  16.010  -3.507  1.00 20.00     0.024 C 
HETATM    3  C3  UNL     1     -34.099  14.986  -5.648  1.00 20.00     0.272 C 
HETATM    4  C4  UNL     1     -34.419  17.364  -5.283  1.00 20.00     0.292 C 
HETATM    5  C5  UNL     1     -34.149  17.208  -3.782  1.00 20.00     0.110 C 
HETATM    6  N10 UNL     1     -34.952  16.150  -5.919  1.00 20.00     0.090 N 
HETATM    7 CL11 UNL     1     -33.396  18.696  -3.141  1.00 20.00    -0.123 Cl
ENDROOT
BRANCH   6   8
HETATM    8  C8  UNL     1     -36.349  15.907  -5.566  1.00 20.00     0.276 C 
BRANCH   8   9
HETATM    9  C9  UNL     1     -37.220  17.146  -5.800  1.00 20.00     0.006 C 
HETATM   10  C6  UNL     1     -38.080  17.022  -7.059  1.00 20.00     0.011 C 
HETATM   11  C7  UNL     1     -38.089  17.476  -4.585  1.00 20.00     0.011 C 
ENDBRANCH   8   9
ENDBRANCH   6   8
TORSDOF 2
ENDMDL
MODEL 6
REMARK VINA RESULT:      -3.2      3.526      5.855
REMARK  2 active torsions:
REMARK  status: ('A' for Active; 'I' for Inactive)
REMARK    1  A    between atoms: C8_8  and  C9_9 
REMARK    2  A    between atoms: C8_8  and  N10_10 
ROOT
HETATM    1  C1  UNL     1     -33.893  15.219  -6.749  1.00 20.00     0.032 C 
HETATM    2  C2  UNL     1     -34.513  16.378  -7.524  1.00 20.00     0.024 C 
HETATM    3  C3  UNL     1     -34.656  14.949  -5.449  1.00 20.00     0.272 C 
HETATM    4  C4  UNL     1     -35.410  17.253  -5.331  1.00 20.00     0.292 C 
HETATM    5  C5  UNL     1     -34.660  17.603  -6.623  1.00 20.00     0.110 C 
HETATM    6  N10 UNL     1     -34.819  16.129  -4.590  1.00 20.00     0.090 N 
HETATM    7 CL11 UNL     1     -35.529  18.896  -7.498  1.00 20.00    -0.123 Cl
ENDROOT
BRANCH   6   8
HETATM    8  C8  UNL     1     -33.577  16.499  -3.917  1.00 20.00     0.276 C 
BRANCH   8   9
HETATM    9  C9  UNL     1     -33.786  17.654  -2.931  1.00 20.00     0.006 C 
HETATM   10  C6  UNL     1     -33.610  17.215  -1.476  1.00 20.00     0.011 C 
HETATM   11  C7  UNL     1     -32.883  18.849  -3.245  1.00 20.00     0.011 C 
ENDBRANCH   8   9
ENDBRANCH   6   8
TORSDOF 2
ENDMDL
MODEL 7
REMARK VINA RESULT:      -3.1     11.114     12.416
REMARK  2 active torsions:
REMARK  status: ('A' for Active; 'I' for Inactive)
REMARK    1  A    between atoms: C8_8  and  C9_9 
REMARK    2  A    between atoms: C8_8  and  N10_10 
ROOT
HETATM    1  C1  UNL     1     -42.711  15.639   6.321  1.00 20.00     0.032 C 
HETATM    2  C2  UNL     1     -43.036  15.220   7.752  1.00 20.00     0.024 C 
HETATM    3  C3  UNL     1     -42.876  14.467   5.350  1.00 20.00     0.272 C 
HETATM    4  C4  UNL     1     -42.429  12.855   7.108  1.00 20.00     0.292 C 
HETATM    5  C5  UNL     1     -42.237  13.976   8.137  1.00 20.00     0.110 C 
HETATM    6  N10 UNL     1     -42.128  13.261   5.728  1.00 20.00     0.090 N 
HETATM    7 CL11 UNL     1     -42.744  13.409   9.755  1.00 20.00    -0.123 Cl
ENDROOT
BRANCH   6   8
HETATM    8  C8  UNL     1     -40.693  13.403   5.492  1.00 20.00     0.276 C 
BRANCH   8   9
HETATM    9  C9  UNL     1     -39.972  12.051   5.538  1.00 20.00     0.006 C 
HETATM   10  C6  UNL     1     -39.323  11.692   4.200  1.00 20.00     0.011 C 
HETATM   11  C7  UNL     1     -38.943  11.988   6.669  1.00 20.00     0.011 C 
ENDBRANCH   8   9
ENDBRANCH   6   8
TORSDOF 2
ENDMDL
MODEL 8
REMARK VINA RESULT:      -3.1      3.995      6.379
REMARK  2 active torsions:
REMARK  status: ('A' for Active; 'I' for Inactive)
REMARK    1  A    between atoms: C8_8  and  C9_9 
REMARK    2  A    between atoms: C8_8  and  N10_10 
ROOT
HETATM    1  C1  UNL     1     -34.950  17.167  -7.886  1.00 20.00     0.032 C 
HETATM    2  C2  UNL     1     -36.469  17.314  -7.918  1.00 20.00     0.024 C 
HETATM    3  C3  UNL     1     -34.530  15.907  -7.123  1.00 20.00     0.272 C 
HETATM    4  C4  UNL     1     -36.560  15.952  -5.794  1.00 20.00     0.292 C 
HETATM    5  C5  UNL     1     -37.042  17.222  -6.505  1.00 20.00     0.110 C 
HETATM    6  N10 UNL     1     -35.097  15.804  -5.773  1.00 20.00     0.090 N 
HETATM    7 CL11 UNL     1     -38.828  17.238  -6.575  1.00 20.00    -0.123 Cl
ENDROOT
BRANCH   6   8
HETATM    8  C8  UNL     1     -34.460  16.724  -4.834  1.00 20.00     0.276 C 
BRANCH   8   9
HETATM    9  C9  UNL     1     -33.456  16.004  -3.924  1.00 20.00     0.006 C 
HETATM   10  C6  UNL     1     -33.419  16.599  -2.515  1.00 20.00     0.011 C 
HETATM   11  C7  UNL     1     -33.713  14.497  -3.866  1.00 20.00     0.011 C 
ENDBRANCH   8   9
ENDBRANCH   6   8
TORSDOF 2
ENDMDL
MODEL 9
REMARK VINA RESULT:      -3.1     24.666     25.417
REMARK  2 active torsions:
REMARK  status: ('A' for Active; 'I' for Inactive)
REMARK    1  A    between atoms: C8_8  and  C9_9 
REMARK    2  A    between atoms: C8_8  and  N10_10 
ROOT
HETATM    1  C1  UNL     1     -28.018  -4.249  10.837  1.00 20.00     0.032 C 
HETATM    2  C2  UNL     1     -28.447  -2.803  10.600  1.00 20.00     0.024 C 
HETATM    3  C3  UNL     1     -26.834  -4.324  11.806  1.00 20.00     0.272 C 
HETATM    4  C4  UNL     1     -26.093  -2.098  11.183  1.00 20.00     0.292 C 
HETATM    5  C5  UNL     1     -27.248  -1.954  10.183  1.00 20.00     0.110 C 
HETATM    6  N10 UNL     1     -25.688  -3.491  11.421  1.00 20.00     0.090 N 
HETATM    7 CL11 UNL     1     -27.735  -0.239  10.061  1.00 20.00    -0.123 Cl
ENDROOT
BRANCH   6   8
HETATM    8  C8  UNL     1     -24.949  -4.055  10.294  1.00 20.00     0.276 C 
BRANCH   8   9
HETATM    9  C9  UNL     1     -23.751  -3.181   9.904  1.00 20.00     0.006 C 
HETATM   10  C6  UNL     1     -22.476  -3.572  10.655  1.00 20.00     0.011 C 
HETATM   11  C7  UNL     1     -23.507  -3.181   8.394  1.00 20.00     0.011 C 
ENDBRANCH   8   9
ENDBRANCH   6   8
TORSDOF 2
ENDMDL
