MODEL 1
REMARK VINA RESULT:      -4.3      0.000      0.000
REMARK  4 active torsions:
REMARK  status: ('A' for Active; 'I' for Inactive)
REMARK    1  A    between atoms: C3_3  and  C9_9 
REMARK    2  A    between atoms: C6_6  and  C8_8 
REMARK    3  A    between atoms: C7_7  and  C9_9 
REMARK    4  A    between atoms: C8_8  and  C9_9 
ROOT
HETATM    1  C1  UNL     1     -34.336   5.966   6.354  1.00 20.00     0.012 C 
HETATM    2  C2  UNL     1     -33.968   7.046   5.982  1.00 20.00    -0.117 C 
HETATM    3  C6  UNL     1     -33.521   8.371   5.527  1.00 20.00     0.093 C 
ENDROOT
BRANCH   3   4
HETATM    4  C8  UNL     1     -32.378   8.246   4.512  1.00 20.00     0.024 C 
BRANCH   4   5
HETATM    5  C9  UNL     1     -32.869   7.764   3.135  1.00 20.00     0.055 C 
BRANCH   5   6
HETATM    6  C3  UNL     1     -32.650   8.817   2.046  1.00 20.00     0.127 C 
HETATM    7  C4  UNL     1     -32.060   8.337   0.744  1.00 20.00     0.091 C 
HETATM    8  O10 UNL     1     -32.960   9.998   2.198  1.00 20.00    -0.298 OA
ENDBRANCH   5   6
BRANCH   5   9
HETATM    9  C7  UNL     1     -32.223   6.430   2.722  1.00 20.00     0.007 C 
HETATM   10  C5  UNL     1     -33.139   5.216   2.819  1.00 20.00     0.006 C 
ENDBRANCH   5   9
ENDBRANCH   4   5
ENDBRANCH   3   4
TORSDOF 4
ENDMDL
MODEL 2
REMARK VINA RESULT:      -4.3      2.266      4.784
REMARK  4 active torsions:
REMARK  status: ('A' for Active; 'I' for Inactive)
REMARK    1  A    between atoms: C3_3  and  C9_9 
REMARK    2  A    between atoms: C6_6  and  C8_8 
REMARK    3  A    between atoms: C7_7  and  C9_9 
REMARK    4  A    between atoms: C8_8  and  C9_9 
ROOT
HETATM    1  C1  UNL     1     -32.580   8.847   0.719  1.00 20.00     0.012 C 
HETATM    2  C2  UNL     1     -32.272   8.125   1.627  1.00 20.00    -0.117 C 
HETATM    3  C6  UNL     1     -31.889   7.242   2.738  1.00 20.00     0.093 C 
ENDROOT
BRANCH   3   4
HETATM    4  C8  UNL     1     -32.972   6.188   2.999  1.00 20.00     0.024 C 
BRANCH   4   5
HETATM    5  C9  UNL     1     -33.827   6.522   4.235  1.00 20.00     0.055 C 
BRANCH   5   6
HETATM    6  C3  UNL     1     -34.277   5.262   4.979  1.00 20.00     0.127 C 
HETATM    7  C4  UNL     1     -34.723   5.439   6.409  1.00 20.00     0.091 C 
HETATM    8  O10 UNL     1     -34.307   4.155   4.444  1.00 20.00    -0.298 OA
ENDBRANCH   5   6
BRANCH   5   9
HETATM    9  C7  UNL     1     -33.107   7.480   5.199  1.00 20.00     0.007 C 
HETATM   10  C5  UNL     1     -33.762   8.847   5.356  1.00 20.00     0.006 C 
ENDBRANCH   5   9
ENDBRANCH   4   5
ENDBRANCH   3   4
TORSDOF 4
ENDMDL
MODEL 3
REMARK VINA RESULT:      -4.2      2.007      4.253
REMARK  4 active torsions:
REMARK  status: ('A' for Active; 'I' for Inactive)
REMARK    1  A    between atoms: C3_3  and  C9_9 
REMARK    2  A    between atoms: C6_6  and  C8_8 
REMARK    3  A    between atoms: C7_7  and  C9_9 
REMARK    4  A    between atoms: C8_8  and  C9_9 
ROOT
HETATM    1  C1  UNL     1     -32.866   9.405   1.128  1.00 20.00     0.012 C 
HETATM    2  C2  UNL     1     -32.619   9.094   2.261  1.00 20.00    -0.117 C 
HETATM    3  C6  UNL     1     -32.311   8.713   3.647  1.00 20.00     0.093 C 
ENDROOT
BRANCH   3   4
HETATM    4  C8  UNL     1     -33.566   8.211   4.370  1.00 20.00     0.024 C 
BRANCH   4   5
HETATM    5  C9  UNL     1     -33.461   6.727   4.763  1.00 20.00     0.055 C 
BRANCH   5   6
HETATM    6  C3  UNL     1     -34.180   6.429   6.081  1.00 20.00     0.127 C 
HETATM    7  C4  UNL     1     -34.551   4.991   6.344  1.00 20.00     0.091 C 
HETATM    8  O10 UNL     1     -34.426   7.303   6.910  1.00 20.00    -0.298 OA
ENDBRANCH   5   6
BRANCH   5   9
HETATM    9  C7  UNL     1     -33.976   5.794   3.653  1.00 20.00     0.007 C 
HETATM   10  C5  UNL     1     -32.903   5.259   2.713  1.00 20.00     0.006 C 
ENDBRANCH   5   9
ENDBRANCH   4   5
ENDBRANCH   3   4
TORSDOF 4
ENDMDL
MODEL 4
REMARK VINA RESULT:      -4.1      2.228      4.115
REMARK  4 active torsions:
REMARK  status: ('A' for Active; 'I' for Inactive)
REMARK    1  A    between atoms: C3_3  and  C9_9 
REMARK    2  A    between atoms: C6_6  and  C8_8 
REMARK    3  A    between atoms: C7_7  and  C9_9 
REMARK    4  A    between atoms: C8_8  and  C9_9 
ROOT
HETATM    1  C1  UNL     1     -32.509   8.729   1.072  1.00 20.00     0.012 C 
HETATM    2  C2  UNL     1     -32.629   8.764   2.266  1.00 20.00    -0.117 C 
HETATM    3  C6  UNL     1     -32.773   8.810   3.728  1.00 20.00     0.093 C 
ENDROOT
BRANCH   3   4
HETATM    4  C8  UNL     1     -32.683   7.404   4.334  1.00 20.00     0.024 C 
BRANCH   4   5
HETATM    5  C9  UNL     1     -33.976   6.594   4.128  1.00 20.00     0.055 C 
BRANCH   5   6
HETATM    6  C3  UNL     1     -33.690   5.169   3.649  1.00 20.00     0.127 C 
HETATM    7  C4  UNL     1     -32.877   5.026   2.387  1.00 20.00     0.091 C 
HETATM    8  O10 UNL     1     -34.073   4.176   4.266  1.00 20.00    -0.298 OA
ENDBRANCH   5   6
BRANCH   5   9
HETATM    9  C7  UNL     1     -34.852   6.565   5.392  1.00 20.00     0.007 C 
HETATM   10  C5  UNL     1     -34.120   6.888   6.689  1.00 20.00     0.006 C 
ENDBRANCH   5   9
ENDBRANCH   4   5
ENDBRANCH   3   4
TORSDOF 4
ENDMDL
MODEL 5
REMARK VINA RESULT:      -3.9      1.287      3.214
REMARK  4 active torsions:
REMARK  status: ('A' for Active; 'I' for Inactive)
REMARK    1  A    between atoms: C3_3  and  C9_9 
REMARK    2  A    between atoms: C6_6  and  C8_8 
REMARK    3  A    between atoms: C7_7  and  C9_9 
REMARK    4  A    between atoms: C8_8  and  C9_9 
ROOT
HETATM    1  C1  UNL     1     -34.452   4.809   4.676  1.00 20.00     0.012 C 
HETATM    2  C2  UNL     1     -33.791   5.168   3.741  1.00 20.00    -0.117 C 
HETATM    3  C6  UNL     1     -32.981   5.603   2.594  1.00 20.00     0.093 C 
ENDROOT
BRANCH   3   4
HETATM    4  C8  UNL     1     -32.140   6.835   2.950  1.00 20.00     0.024 C 
BRANCH   4   5
HETATM    5  C9  UNL     1     -33.010   8.071   3.242  1.00 20.00     0.055 C 
BRANCH   5   6
HETATM    6  C3  UNL     1     -32.813   8.587   4.669  1.00 20.00     0.127 C 
HETATM    7  C4  UNL     1     -33.836   8.164   5.693  1.00 20.00     0.091 C 
HETATM    8  O10 UNL     1     -31.857   9.292   4.991  1.00 20.00    -0.298 OA
ENDBRANCH   5   6
BRANCH   5   9
HETATM    9  C7  UNL     1     -32.769   9.204   2.229  1.00 20.00     0.007 C 
HETATM   10  C5  UNL     1     -32.371   8.742   0.832  1.00 20.00     0.006 C 
ENDBRANCH   5   9
ENDBRANCH   4   5
ENDBRANCH   3   4
TORSDOF 4
ENDMDL
MODEL 6
REMARK VINA RESULT:      -3.8     11.038     12.006
REMARK  4 active torsions:
REMARK  status: ('A' for Active; 'I' for Inactive)
REMARK    1  A    between atoms: C3_3  and  C9_9 
REMARK    2  A    between atoms: C6_6  and  C8_8 
REMARK    3  A    between atoms: C7_7  and  C9_9 
REMARK    4  A    between atoms: C8_8  and  C9_9 
ROOT
HETATM    1  C1  UNL     1     -33.735  17.433  -1.188  1.00 20.00     0.012 C 
HETATM    2  C2  UNL     1     -33.382  16.891  -2.199  1.00 20.00    -0.117 C 
HETATM    3  C6  UNL     1     -32.946  16.232  -3.439  1.00 20.00     0.093 C 
ENDROOT
BRANCH   3   4
HETATM    4  C8  UNL     1     -33.979  15.198  -3.903  1.00 20.00     0.024 C 
BRANCH   4   5
HETATM    5  C9  UNL     1     -34.396  15.406  -5.370  1.00 20.00     0.055 C 
BRANCH   5   6
HETATM    6  C3  UNL     1     -35.544  14.479  -5.777  1.00 20.00     0.127 C 
HETATM    7  C4  UNL     1     -36.198  13.683  -4.676  1.00 20.00     0.091 C 
HETATM    8  O10 UNL     1     -35.945  14.395  -6.937  1.00 20.00    -0.298 OA
ENDBRANCH   5   6
BRANCH   5   9
HETATM    9  C7  UNL     1     -34.763  16.870  -5.668  1.00 20.00     0.007 C 
HETATM   10  C5  UNL     1     -36.031  17.367  -4.983  1.00 20.00     0.006 C 
ENDBRANCH   5   9
ENDBRANCH   4   5
ENDBRANCH   3   4
TORSDOF 4
ENDMDL
MODEL 7
REMARK VINA RESULT:      -3.7     10.858     11.967
REMARK  4 active torsions:
REMARK  status: ('A' for Active; 'I' for Inactive)
REMARK    1  A    between atoms: C3_3  and  C9_9 
REMARK    2  A    between atoms: C6_6  and  C8_8 
REMARK    3  A    between atoms: C7_7  and  C9_9 
REMARK    4  A    between atoms: C8_8  and  C9_9 
ROOT
HETATM    1  C1  UNL     1     -31.545  18.525  -0.542  1.00 20.00     0.012 C 
HETATM    2  C2  UNL     1     -32.523  18.097  -1.089  1.00 20.00    -0.117 C 
HETATM    3  C6  UNL     1     -33.724  17.574  -1.755  1.00 20.00     0.093 C 
ENDROOT
BRANCH   3   4
HETATM    4  C8  UNL     1     -33.409  16.286  -2.525  1.00 20.00     0.024 C 
BRANCH   4   5
HETATM    5  C9  UNL     1     -33.667  16.429  -4.036  1.00 20.00     0.055 C 
BRANCH   5   6
HETATM    6  C3  UNL     1     -33.996  15.086  -4.692  1.00 20.00     0.127 C 
HETATM    7  C4  UNL     1     -34.073  15.065  -6.198  1.00 20.00     0.091 C 
HETATM    8  O10 UNL     1     -34.164  14.056  -4.039  1.00 20.00    -0.298 OA
ENDBRANCH   5   6
BRANCH   5   9
HETATM    9  C7  UNL     1     -34.772  17.455  -4.343  1.00 20.00     0.007 C 
HETATM   10  C5  UNL     1     -34.336  18.628  -5.213  1.00 20.00     0.006 C 
ENDBRANCH   5   9
ENDBRANCH   4   5
ENDBRANCH   3   4
TORSDOF 4
ENDMDL
MODEL 8
REMARK VINA RESULT:      -3.7      9.389     10.881
REMARK  4 active torsions:
REMARK  status: ('A' for Active; 'I' for Inactive)
REMARK    1  A    between atoms: C3_3  and  C9_9 
REMARK    2  A    between atoms: C6_6  and  C8_8 
REMARK    3  A    between atoms: C7_7  and  C9_9 
REMARK    4  A    between atoms: C8_8  and  C9_9 
ROOT
HETATM    1  C1  UNL     1     -38.953  11.662   3.870  1.00 20.00     0.012 C 
HETATM    2  C2  UNL     1     -39.342  11.976   4.961  1.00 20.00    -0.117 C 
HETATM    3  C6  UNL     1     -39.815  12.359   6.299  1.00 20.00     0.093 C 
ENDROOT
BRANCH   3   4
HETATM    4  C8  UNL     1     -41.347  12.386   6.354  1.00 20.00     0.024 C 
BRANCH   4   5
HETATM    5  C9  UNL     1     -41.890  13.730   6.873  1.00 20.00     0.055 C 
BRANCH   5   6
HETATM    6  C3  UNL     1     -41.138  14.211   8.116  1.00 20.00     0.127 C 
HETATM    7  C4  UNL     1     -40.381  15.510   7.993  1.00 20.00     0.091 C 
HETATM    8  O10 UNL     1     -41.161  13.596   9.181  1.00 20.00    -0.298 OA
ENDBRANCH   5   6
BRANCH   5   9
HETATM    9  C7  UNL     1     -41.877  14.821   5.788  1.00 20.00     0.007 C 
HETATM   10  C5  UNL     1     -42.245  14.340   4.390  1.00 20.00     0.006 C 
ENDBRANCH   5   9
ENDBRANCH   4   5
ENDBRANCH   3   4
TORSDOF 4
ENDMDL
MODEL 9
REMARK VINA RESULT:      -3.7      9.325     10.761
REMARK  4 active torsions:
REMARK  status: ('A' for Active; 'I' for Inactive)
REMARK    1  A    between atoms: C3_3  and  C9_9 
REMARK    2  A    between atoms: C6_6  and  C8_8 
REMARK    3  A    between atoms: C7_7  and  C9_9 
REMARK    4  A    between atoms: C8_8  and  C9_9 
ROOT
HETATM    1  C1  UNL     1     -38.920  11.726   3.641  1.00 20.00     0.012 C 
HETATM    2  C2  UNL     1     -39.305  11.785   4.777  1.00 20.00    -0.117 C 
HETATM    3  C6  UNL     1     -39.774  11.853   6.168  1.00 20.00     0.093 C 
ENDROOT
BRANCH   3   4
HETATM    4  C8  UNL     1     -41.180  12.459   6.245  1.00 20.00     0.024 C 
BRANCH   4   5
HETATM    5  C9  UNL     1     -41.183  13.969   5.946  1.00 20.00     0.055 C 
BRANCH   5   6
HETATM    6  C3  UNL     1     -42.078  14.316   4.754  1.00 20.00     0.127 C 
HETATM    7  C4  UNL     1     -43.413  14.944   5.066  1.00 20.00     0.091 C 
HETATM    8  O10 UNL     1     -41.730  14.125   3.590  1.00 20.00    -0.298 OA
ENDBRANCH   5   6
BRANCH   5   9
HETATM    9  C7  UNL     1     -41.584  14.805   7.174  1.00 20.00     0.007 C 
HETATM   10  C5  UNL     1     -40.473  15.673   7.751  1.00 20.00     0.006 C 
ENDBRANCH   5   9
ENDBRANCH   4   5
ENDBRANCH   3   4
TORSDOF 4
ENDMDL
