MODEL 1
REMARK VINA RESULT:      -5.2      0.000      0.000
REMARK  3 active torsions:
REMARK  status: ('A' for Active; 'I' for Inactive)
REMARK    1  A    between atoms: C6_6  and  C9_9 
REMARK    2  A    between atoms: C7_7  and  O10_10 
REMARK    3  A    between atoms: C8_8  and  C9_9 
ROOT
HETATM    1  C1  UNL     1     -32.576   9.128   0.678  1.00 20.00     0.012 C 
HETATM    2  C2  UNL     1     -32.385   8.363   1.583  1.00 20.00    -0.117 C 
HETATM    3  C8  UNL     1     -32.146   7.423   2.687  1.00 20.00     0.093 C 
ENDROOT
BRANCH   3   4
HETATM    4  C9  UNL     1     -32.726   7.968   3.981  1.00 20.00     0.019 C 
BRANCH   4   5
HETATM    5  C6  UNL     1     -33.841   7.075   4.498  1.00 20.00     0.015 C 
HETATM    6  C4  UNL     1     -33.824   5.676   3.888  1.00 20.00     0.007 C 
HETATM    7  C3  UNL     1     -34.610   4.809   4.872  1.00 20.00     0.003 C 
HETATM    8  C5  UNL     1     -34.682   5.599   6.179  1.00 20.00     0.032 C 
HETATM    9  C7  UNL     1     -33.736   6.779   5.993  1.00 20.00     0.122 C 
BRANCH   9  10
HETATM   10  O10 UNL     1     -34.137   7.895   6.765  1.00 20.00    -0.395 OA
HETATM   11  H24 UNL     1     -34.908   8.287   6.320  1.00 20.00     0.210 HD
ENDBRANCH   9  10
ENDBRANCH   4   5
ENDBRANCH   3   4
TORSDOF 3
ENDMDL
MODEL 2
REMARK VINA RESULT:      -5.2      1.583      2.028
REMARK  3 active torsions:
REMARK  status: ('A' for Active; 'I' for Inactive)
REMARK    1  A    between atoms: C6_6  and  C9_9 
REMARK    2  A    between atoms: C7_7  and  O10_10 
REMARK    3  A    between atoms: C8_8  and  C9_9 
ROOT
HETATM    1  C1  UNL     1     -32.923   9.484   1.210  1.00 20.00     0.012 C 
HETATM    2  C2  UNL     1     -32.598   9.046   2.280  1.00 20.00    -0.117 C 
HETATM    3  C8  UNL     1     -32.194   8.510   3.587  1.00 20.00     0.093 C 
ENDROOT
BRANCH   3   4
HETATM    4  C9  UNL     1     -33.403   8.367   4.496  1.00 20.00     0.019 C 
BRANCH   4   5
HETATM    5  C6  UNL     1     -33.473   6.972   5.095  1.00 20.00     0.015 C 
HETATM    6  C4  UNL     1     -34.270   6.915   6.396  1.00 20.00     0.007 C 
HETATM    7  C3  UNL     1     -34.679   5.448   6.540  1.00 20.00     0.003 C 
HETATM    8  C5  UNL     1     -34.491   4.811   5.163  1.00 20.00     0.032 C 
HETATM    9  C7  UNL     1     -34.216   5.971   4.213  1.00 20.00     0.122 C 
BRANCH   9  10
HETATM   10  O10 UNL     1     -33.420   5.567   3.116  1.00 20.00    -0.395 OA
HETATM   11  H24 UNL     1     -34.013   5.136   2.476  1.00 20.00     0.210 HD
ENDBRANCH   9  10
ENDBRANCH   4   5
ENDBRANCH   3   4
TORSDOF 3
ENDMDL
MODEL 3
REMARK VINA RESULT:      -5.2      1.600      2.053
REMARK  3 active torsions:
REMARK  status: ('A' for Active; 'I' for Inactive)
REMARK    1  A    between atoms: C6_6  and  C9_9 
REMARK    2  A    between atoms: C7_7  and  O10_10 
REMARK    3  A    between atoms: C8_8  and  C9_9 
ROOT
HETATM    1  C1  UNL     1     -32.552   8.890   0.334  1.00 20.00     0.012 C 
HETATM    2  C2  UNL     1     -32.354   8.424   1.423  1.00 20.00    -0.117 C 
HETATM    3  C8  UNL     1     -32.110   7.859   2.757  1.00 20.00     0.093 C 
ENDROOT
BRANCH   3   4
HETATM    4  C9  UNL     1     -32.887   6.565   2.933  1.00 20.00     0.019 C 
BRANCH   4   5
HETATM    5  C6  UNL     1     -33.173   6.296   4.402  1.00 20.00     0.015 C 
HETATM    6  C4  UNL     1     -33.487   7.561   5.195  1.00 20.00     0.007 C 
HETATM    7  C3  UNL     1     -34.246   7.071   6.429  1.00 20.00     0.003 C 
HETATM    8  C5  UNL     1     -34.711   5.650   6.113  1.00 20.00     0.032 C 
HETATM    9  C7  UNL     1     -34.424   5.450   4.629  1.00 20.00     0.122 C 
BRANCH   9  10
HETATM   10  O10 UNL     1     -34.183   4.089   4.325  1.00 20.00    -0.395 OA
HETATM   11  H24 UNL     1     -33.946   4.045   3.382  1.00 20.00     0.210 HD
ENDBRANCH   9  10
ENDBRANCH   4   5
ENDBRANCH   3   4
TORSDOF 3
ENDMDL
MODEL 4
REMARK VINA RESULT:      -4.4     11.919     12.755
REMARK  3 active torsions:
REMARK  status: ('A' for Active; 'I' for Inactive)
REMARK    1  A    between atoms: C6_6  and  C9_9 
REMARK    2  A    between atoms: C7_7  and  O10_10 
REMARK    3  A    between atoms: C8_8  and  C9_9 
ROOT
HETATM    1  C1  UNL     1     -31.679  18.581  -0.653  1.00 20.00     0.012 C 
HETATM    2  C2  UNL     1     -32.520  17.910  -1.187  1.00 20.00    -0.117 C 
HETATM    3  C8  UNL     1     -33.552  17.092  -1.837  1.00 20.00     0.093 C 
ENDROOT
BRANCH   3   4
HETATM    4  C9  UNL     1     -33.010  16.471  -3.112  1.00 20.00     0.019 C 
BRANCH   4   5
HETATM    5  C6  UNL     1     -34.136  15.941  -3.984  1.00 20.00     0.015 C 
HETATM    6  C4  UNL     1     -34.870  17.038  -4.751  1.00 20.00     0.007 C 
HETATM    7  C3  UNL     1     -35.546  16.315  -5.917  1.00 20.00     0.003 C 
HETATM    8  C5  UNL     1     -34.859  14.955  -6.037  1.00 20.00     0.032 C 
HETATM    9  C7  UNL     1     -33.654  15.026  -5.106  1.00 20.00     0.122 C 
BRANCH   9  10
HETATM   10  O10 UNL     1     -33.305  13.748  -4.610  1.00 20.00    -0.395 OA
HETATM   11  H24 UNL     1     -34.130  13.313  -4.334  1.00 20.00     0.210 HD
ENDBRANCH   9  10
ENDBRANCH   4   5
ENDBRANCH   3   4
TORSDOF 3
ENDMDL
MODEL 5
REMARK VINA RESULT:      -4.4      1.796      4.586
REMARK  3 active torsions:
REMARK  status: ('A' for Active; 'I' for Inactive)
REMARK    1  A    between atoms: C6_6  and  C9_9 
REMARK    2  A    between atoms: C7_7  and  O10_10 
REMARK    3  A    between atoms: C8_8  and  C9_9 
ROOT
HETATM    1  C1  UNL     1     -34.707   5.170   5.890  1.00 20.00     0.012 C 
HETATM    2  C2  UNL     1     -34.375   6.322   5.951  1.00 20.00    -0.117 C 
HETATM    3  C8  UNL     1     -33.974   7.734   6.029  1.00 20.00     0.093 C 
ENDROOT
BRANCH   3   4
HETATM    4  C9  UNL     1     -32.715   7.971   5.212  1.00 20.00     0.019 C 
BRANCH   4   5
HETATM    5  C6  UNL     1     -33.043   8.120   3.736  1.00 20.00     0.015 C 
HETATM    6  C4  UNL     1     -32.744   9.513   3.190  1.00 20.00     0.007 C 
HETATM    7  C3  UNL     1     -32.613   9.323   1.678  1.00 20.00     0.003 C 
HETATM    8  C5  UNL     1     -32.415   7.824   1.449  1.00 20.00     0.032 C 
HETATM    9  C7  UNL     1     -32.193   7.228   2.834  1.00 20.00     0.122 C 
BRANCH   9  10
HETATM   10  O10 UNL     1     -32.623   5.881   2.895  1.00 20.00    -0.395 OA
HETATM   11  H24 UNL     1     -31.830   5.334   3.033  1.00 20.00     0.210 HD
ENDBRANCH   9  10
ENDBRANCH   4   5
ENDBRANCH   3   4
TORSDOF 3
ENDMDL
MODEL 6
REMARK VINA RESULT:      -4.4     11.794     13.314
REMARK  3 active torsions:
REMARK  status: ('A' for Active; 'I' for Inactive)
REMARK    1  A    between atoms: C6_6  and  C9_9 
REMARK    2  A    between atoms: C7_7  and  O10_10 
REMARK    3  A    between atoms: C8_8  and  C9_9 
ROOT
HETATM    1  C1  UNL     1     -33.580  17.012  -1.992  1.00 20.00     0.012 C 
HETATM    2  C2  UNL     1     -33.356  16.288  -2.923  1.00 20.00    -0.117 C 
HETATM    3  C8  UNL     1     -33.075  15.404  -4.062  1.00 20.00     0.093 C 
ENDROOT
BRANCH   3   4
HETATM    4  C9  UNL     1     -34.226  14.436  -4.276  1.00 20.00     0.019 C 
BRANCH   4   5
HETATM    5  C6  UNL     1     -34.965  14.743  -5.568  1.00 20.00     0.015 C 
HETATM    6  C4  UNL     1     -36.217  15.589  -5.359  1.00 20.00     0.007 C 
HETATM    7  C3  UNL     1     -36.493  16.224  -6.723  1.00 20.00     0.003 C 
HETATM    8  C5  UNL     1     -35.204  16.082  -7.532  1.00 20.00     0.032 C 
HETATM    9  C7  UNL     1     -34.153  15.595  -6.541  1.00 20.00     0.122 C 
BRANCH   9  10
HETATM   10  O10 UNL     1     -33.151  14.829  -7.180  1.00 20.00    -0.395 OA
HETATM   11  H24 UNL     1     -32.833  15.349  -7.938  1.00 20.00     0.210 HD
ENDBRANCH   9  10
ENDBRANCH   4   5
ENDBRANCH   3   4
TORSDOF 3
ENDMDL
MODEL 7
REMARK VINA RESULT:      -4.2     11.811     12.488
REMARK  3 active torsions:
REMARK  status: ('A' for Active; 'I' for Inactive)
REMARK    1  A    between atoms: C6_6  and  C9_9 
REMARK    2  A    between atoms: C7_7  and  O10_10 
REMARK    3  A    between atoms: C8_8  and  C9_9 
ROOT
HETATM    1  C1  UNL     1     -28.608  18.968   3.690  1.00 20.00     0.012 C 
HETATM    2  C2  UNL     1     -29.466  18.605   2.932  1.00 20.00    -0.117 C 
HETATM    3  C8  UNL     1     -30.513  18.155   2.005  1.00 20.00     0.093 C 
ENDROOT
BRANCH   3   4
HETATM    4  C9  UNL     1     -31.635  19.176   1.939  1.00 20.00     0.019 C 
BRANCH   4   5
HETATM    5  C6  UNL     1     -32.384  19.081   0.619  1.00 20.00     0.015 C 
HETATM    6  C4  UNL     1     -31.532  18.520  -0.516  1.00 20.00     0.007 C 
HETATM    7  C3  UNL     1     -32.540  18.006  -1.545  1.00 20.00     0.003 C 
HETATM    8  C5  UNL     1     -33.879  17.891  -0.816  1.00 20.00     0.032 C 
HETATM    9  C7  UNL     1     -33.558  18.105   0.659  1.00 20.00     0.122 C 
BRANCH   9  10
HETATM   10  O10 UNL     1     -34.658  18.657   1.356  1.00 20.00    -0.395 OA
HETATM   11  H24 UNL     1     -35.444  18.529   0.797  1.00 20.00     0.210 HD
ENDBRANCH   9  10
ENDBRANCH   4   5
ENDBRANCH   3   4
TORSDOF 3
ENDMDL
MODEL 8
REMARK VINA RESULT:      -4.0      9.773     10.393
REMARK  3 active torsions:
REMARK  status: ('A' for Active; 'I' for Inactive)
REMARK    1  A    between atoms: C6_6  and  C9_9 
REMARK    2  A    between atoms: C7_7  and  O10_10 
REMARK    3  A    between atoms: C8_8  and  C9_9 
ROOT
HETATM    1  C1  UNL     1     -38.931  11.682   3.390  1.00 20.00     0.012 C 
HETATM    2  C2  UNL     1     -39.177  11.761   4.563  1.00 20.00    -0.117 C 
HETATM    3  C8  UNL     1     -39.471  11.857   5.999  1.00 20.00     0.093 C 
ENDROOT
BRANCH   3   4
HETATM    4  C9  UNL     1     -40.905  12.311   6.216  1.00 20.00     0.019 C 
BRANCH   4   5
HETATM    5  C6  UNL     1     -41.049  13.802   5.964  1.00 20.00     0.015 C 
HETATM    6  C4  UNL     1     -42.319  14.164   5.198  1.00 20.00     0.007 C 
HETATM    7  C3  UNL     1     -42.558  15.642   5.510  1.00 20.00     0.003 C 
HETATM    8  C5  UNL     1     -41.708  15.965   6.739  1.00 20.00     0.032 C 
HETATM    9  C7  UNL     1     -41.198  14.621   7.245  1.00 20.00     0.122 C 
BRANCH   9  10
HETATM   10  O10 UNL     1     -39.958  14.753   7.914  1.00 20.00    -0.395 OA
HETATM   11  H24 UNL     1     -39.663  13.856   8.147  1.00 20.00     0.210 HD
ENDBRANCH   9  10
ENDBRANCH   4   5
ENDBRANCH   3   4
TORSDOF 3
ENDMDL
MODEL 9
REMARK VINA RESULT:      -3.9     11.841     12.816
REMARK  3 active torsions:
REMARK  status: ('A' for Active; 'I' for Inactive)
REMARK    1  A    between atoms: C6_6  and  C9_9 
REMARK    2  A    between atoms: C7_7  and  O10_10 
REMARK    3  A    between atoms: C8_8  and  C9_9 
ROOT
HETATM    1  C1  UNL     1     -32.411  18.468  -1.496  1.00 20.00     0.012 C 
HETATM    2  C2  UNL     1     -32.962  17.507  -1.960  1.00 20.00    -0.117 C 
HETATM    3  C8  UNL     1     -33.641  16.333  -2.525  1.00 20.00     0.093 C 
ENDROOT
BRANCH   3   4
HETATM    4  C9  UNL     1     -32.878  15.810  -3.730  1.00 20.00     0.019 C 
BRANCH   4   5
HETATM    5  C6  UNL     1     -33.831  15.347  -4.820  1.00 20.00     0.015 C 
HETATM    6  C4  UNL     1     -34.788  14.253  -4.358  1.00 20.00     0.007 C 
HETATM    7  C3  UNL     1     -35.955  14.310  -5.345  1.00 20.00     0.003 C 
HETATM    8  C5  UNL     1     -35.853  15.660  -6.054  1.00 20.00     0.032 C 
HETATM    9  C7  UNL     1     -34.788  16.440  -5.292  1.00 20.00     0.122 C 
BRANCH   9  10
HETATM   10  O10 UNL     1     -34.129  17.372  -6.126  1.00 20.00    -0.395 OA
HETATM   11  H24 UNL     1     -33.367  16.914  -6.521  1.00 20.00     0.210 HD
ENDBRANCH   9  10
ENDBRANCH   4   5
ENDBRANCH   3   4
TORSDOF 3
ENDMDL
