MODEL 1
REMARK VINA RESULT:      -3.7      0.000      0.000
REMARK  0 active torsions:
REMARK  status: ('A' for Active; 'I' for Inactive)
ROOT
HETATM    1  C1  UNL     1     -36.703  15.992  -5.593  1.00 20.00     0.101 C 
HETATM    2  C2  UNL     1     -33.239  15.151  -4.193  1.00 20.00     0.005 C 
HETATM    3  C3  UNL     1     -33.305  16.171  -3.062  1.00 20.00     0.030 C 
HETATM    4  C4  UNL     1     -34.619  14.949  -4.814  1.00 20.00     0.057 C 
HETATM    5  C5  UNL     1     -33.976  17.463  -3.519  1.00 20.00     0.272 C 
HETATM    6  C6  UNL     1     -35.296  16.277  -5.222  1.00 20.00     0.240 C 
HETATM    7  C7  UNL     1     -34.613  16.902  -6.453  1.00 20.00     0.066 C 
HETATM    8  N8  UNL     1     -37.804  15.770  -5.884  1.00 20.00    -0.195 NA
HETATM    9  N9  UNL     1     -35.305  17.224  -4.089  1.00 20.00     0.106 N 
HETATM   10  H21 UNL     1     -35.942  16.899  -3.362  1.00 20.00     0.318 HD
ENDROOT
TORSDOF 0
ENDMDL
MODEL 2
REMARK VINA RESULT:      -3.5      1.612      2.135
REMARK  0 active torsions:
REMARK  status: ('A' for Active; 'I' for Inactive)
ROOT
HETATM    1  C1  UNL     1     -35.350  14.021  -4.580  1.00 20.00     0.101 C 
HETATM    2  C2  UNL     1     -33.167  17.014  -3.610  1.00 20.00     0.005 C 
HETATM    3  C3  UNL     1     -34.305  18.026  -3.664  1.00 20.00     0.030 C 
HETATM    4  C4  UNL     1     -33.717  15.589  -3.628  1.00 20.00     0.057 C 
HETATM    5  C5  UNL     1     -35.249  17.739  -4.828  1.00 20.00     0.272 C 
HETATM    6  C6  UNL     1     -34.708  15.340  -4.787  1.00 20.00     0.240 C 
HETATM    7  C7  UNL     1     -33.984  15.291  -6.146  1.00 20.00     0.066 C 
HETATM    8  N8  UNL     1     -35.854  12.988  -4.419  1.00 20.00    -0.195 NA
HETATM    9  N9  UNL     1     -35.767  16.369  -4.793  1.00 20.00     0.106 N 
HETATM   10  H21 UNL     1     -36.380  16.249  -3.987  1.00 20.00     0.318 HD
ENDROOT
TORSDOF 0
ENDMDL
MODEL 3
REMARK VINA RESULT:      -3.5     12.918     13.806
REMARK  0 active torsions:
REMARK  status: ('A' for Active; 'I' for Inactive)
ROOT
HETATM    1  C1  UNL     1     -43.087   4.442   0.930  1.00 20.00     0.101 C 
HETATM    2  C2  UNL     1     -42.440   7.909  -0.563  1.00 20.00     0.005 C 
HETATM    3  C3  UNL     1     -40.943   7.895  -0.278  1.00 20.00     0.030 C 
HETATM    4  C4  UNL     1     -43.031   6.511  -0.394  1.00 20.00     0.057 C 
HETATM    5  C5  UNL     1     -40.641   7.253   1.072  1.00 20.00     0.272 C 
HETATM    6  C6  UNL     1     -42.668   5.864   0.962  1.00 20.00     0.240 C 
HETATM    7  C7  UNL     1     -43.417   6.539   2.126  1.00 20.00     0.066 C 
HETATM    8  N8  UNL     1     -43.415   3.330   0.906  1.00 20.00    -0.195 NA
HETATM    9  N9  UNL     1     -41.209   5.906   1.182  1.00 20.00     0.106 N 
HETATM   10  H21 UNL     1     -40.736   5.275   0.535  1.00 20.00     0.318 HD
ENDROOT
TORSDOF 0
ENDMDL
MODEL 4
REMARK VINA RESULT:      -3.5      1.669      2.459
REMARK  0 active torsions:
REMARK  status: ('A' for Active; 'I' for Inactive)
ROOT
HETATM    1  C1  UNL     1     -35.018  16.718  -4.924  1.00 20.00     0.101 C 
HETATM    2  C2  UNL     1     -32.853  17.352  -1.829  1.00 20.00     0.005 C 
HETATM    3  C3  UNL     1     -33.997  17.894  -0.980  1.00 20.00     0.030 C 
HETATM    4  C4  UNL     1     -33.394  16.665  -3.081  1.00 20.00     0.057 C 
HETATM    5  C5  UNL     1     -34.939  18.763  -1.807  1.00 20.00     0.272 C 
HETATM    6  C6  UNL     1     -34.384  17.550  -3.873  1.00 20.00     0.240 C 
HETATM    7  C7  UNL     1     -33.660  18.711  -4.580  1.00 20.00     0.066 C 
HETATM    8  N8  UNL     1     -35.514  16.069  -5.747  1.00 20.00    -0.195 NA
HETATM    9  N9  UNL     1     -35.449  18.057  -2.986  1.00 20.00     0.106 N 
HETATM   10  H21 UNL     1     -36.061  17.294  -2.697  1.00 20.00     0.318 HD
ENDROOT
TORSDOF 0
ENDMDL
MODEL 5
REMARK VINA RESULT:      -3.5      2.051      2.729
REMARK  0 active torsions:
REMARK  status: ('A' for Active; 'I' for Inactive)
ROOT
HETATM    1  C1  UNL     1     -33.966  15.401  -6.823  1.00 20.00     0.101 C 
HETATM    2  C2  UNL     1     -34.973  17.733  -3.957  1.00 20.00     0.005 C 
HETATM    3  C3  UNL     1     -33.716  17.476  -3.134  1.00 20.00     0.030 C 
HETATM    4  C4  UNL     1     -34.798  17.207  -5.380  1.00 20.00     0.057 C 
HETATM    5  C5  UNL     1     -33.295  16.012  -3.207  1.00 20.00     0.272 C 
HETATM    6  C6  UNL     1     -34.323  15.736  -5.424  1.00 20.00     0.240 C 
HETATM    7  C7  UNL     1     -35.441  14.770  -4.990  1.00 20.00     0.066 C 
HETATM    8  N8  UNL     1     -33.687  15.137  -7.918  1.00 20.00    -0.195 NA
HETATM    9  N9  UNL     1     -33.119  15.556  -4.589  1.00 20.00     0.106 N 
HETATM   10  H21 UNL     1     -32.321  16.029  -5.013  1.00 20.00     0.318 HD
ENDROOT
TORSDOF 0
ENDMDL
MODEL 6
REMARK VINA RESULT:      -3.4     12.759     13.898
REMARK  0 active torsions:
REMARK  status: ('A' for Active; 'I' for Inactive)
ROOT
HETATM    1  C1  UNL     1     -32.610   8.510   4.910  1.00 20.00     0.101 C 
HETATM    2  C2  UNL     1     -34.699   5.604   6.274  1.00 20.00     0.005 C 
HETATM    3  C3  UNL     1     -34.209   4.597   5.240  1.00 20.00     0.030 C 
HETATM    4  C4  UNL     1     -33.821   6.854   6.261  1.00 20.00     0.057 C 
HETATM    5  C5  UNL     1     -34.063   5.240   3.864  1.00 20.00     0.272 C 
HETATM    6  C6  UNL     1     -33.650   7.456   4.848  1.00 20.00     0.240 C 
HETATM    7  C7  UNL     1     -34.950   8.120   4.358  1.00 20.00     0.066 C 
HETATM    8  N8  UNL     1     -31.796   9.336   4.958  1.00 20.00    -0.195 NA
HETATM    9  N9  UNL     1     -33.197   6.422   3.897  1.00 20.00     0.106 N 
HETATM   10  H21 UNL     1     -32.239   6.145   4.105  1.00 20.00     0.318 HD
ENDROOT
TORSDOF 0
ENDMDL
MODEL 7
REMARK VINA RESULT:      -3.4      3.043      5.001
REMARK  0 active torsions:
REMARK  status: ('A' for Active; 'I' for Inactive)
ROOT
HETATM    1  C1  UNL     1     -31.778  18.499  -1.055  1.00 20.00     0.101 C 
HETATM    2  C2  UNL     1     -34.031  16.564  -3.474  1.00 20.00     0.005 C 
HETATM    3  C3  UNL     1     -34.028  17.646  -4.547  1.00 20.00     0.030 C 
HETATM    4  C4  UNL     1     -32.942  16.834  -2.438  1.00 20.00     0.057 C 
HETATM    5  C5  UNL     1     -34.091  19.040  -3.929  1.00 20.00     0.272 C 
HETATM    6  C6  UNL     1     -32.998  18.269  -1.865  1.00 20.00     0.240 C 
HETATM    7  C7  UNL     1     -34.210  18.456  -0.934  1.00 20.00     0.066 C 
HETATM    8  N8  UNL     1     -30.823  18.679  -0.421  1.00 20.00    -0.195 NA
HETATM    9  N9  UNL     1     -33.016  19.262  -2.957  1.00 20.00     0.106 N 
HETATM   10  H21 UNL     1     -32.115  19.280  -3.433  1.00 20.00     0.318 HD
ENDROOT
TORSDOF 0
ENDMDL
MODEL 8
REMARK VINA RESULT:      -3.4      1.920      3.576
REMARK  0 active torsions:
REMARK  status: ('A' for Active; 'I' for Inactive)
ROOT
HETATM    1  C1  UNL     1     -33.031  18.431  -3.441  1.00 20.00     0.101 C 
HETATM    2  C2  UNL     1     -34.089  14.821  -4.162  1.00 20.00     0.005 C 
HETATM    3  C3  UNL     1     -33.958  14.948  -5.675  1.00 20.00     0.030 C 
HETATM    4  C4  UNL     1     -33.422  16.006  -3.465  1.00 20.00     0.057 C 
HETATM    5  C5  UNL     1     -34.444  16.310  -6.162  1.00 20.00     0.272 C 
HETATM    6  C6  UNL     1     -33.896  17.371  -4.012  1.00 20.00     0.240 C 
HETATM    7  C7  UNL     1     -35.343  17.678  -3.584  1.00 20.00     0.066 C 
HETATM    8  N8  UNL     1     -32.355  19.261  -2.994  1.00 20.00    -0.195 NA
HETATM    9  N9  UNL     1     -33.762  17.415  -5.482  1.00 20.00     0.106 N 
HETATM   10  H21 UNL     1     -32.778  17.432  -5.747  1.00 20.00     0.318 HD
ENDROOT
TORSDOF 0
ENDMDL
MODEL 9
REMARK VINA RESULT:      -3.4     24.649     25.895
REMARK  0 active torsions:
REMARK  status: ('A' for Active; 'I' for Inactive)
ROOT
HETATM    1  C1  UNL     1     -27.645  -1.245  10.796  1.00 20.00     0.101 C 
HETATM    2  C2  UNL     1     -24.115  -1.961  12.097  1.00 20.00     0.005 C 
HETATM    3  C3  UNL     1     -23.586  -2.469  10.761  1.00 20.00     0.030 C 
HETATM    4  C4  UNL     1     -25.454  -1.252  11.908  1.00 20.00     0.057 C 
HETATM    5  C5  UNL     1     -24.632  -3.304  10.030  1.00 20.00     0.272 C 
HETATM    6  C6  UNL     1     -26.479  -2.101  11.121  1.00 20.00     0.240 C 
HETATM    7  C7  UNL     1     -26.996  -3.282  11.964  1.00 20.00     0.066 C 
HETATM    8  N8  UNL     1     -28.558  -0.576  10.541  1.00 20.00    -0.195 NA
HETATM    9  N9  UNL     1     -25.893  -2.577   9.853  1.00 20.00     0.106 N 
HETATM   10  H21 UNL     1     -25.757  -1.796   9.212  1.00 20.00     0.318 HD
ENDROOT
TORSDOF 0
ENDMDL
