MODEL 1
REMARK VINA RESULT:      -3.7      0.000      0.000
REMARK  2 active torsions:
REMARK  status: ('A' for Active; 'I' for Inactive)
REMARK    1  A    between atoms: C4_4  and  C5_5 
REMARK    2  A    between atoms: C5_5  and  C6_6 
ROOT
HETATM    1  C1  UNL     1     -30.969  18.505   0.335  1.00 20.00     0.034 A 
HETATM    2  C2  UNL     1     -32.319  19.261   2.071  1.00 20.00     0.069 A 
HETATM    3  C3  UNL     1     -31.037  18.923   1.696  1.00 20.00     0.018 A 
HETATM    4  C4  UNL     1     -32.202  18.538  -0.278  1.00 20.00    -0.015 A 
HETATM    5  S7  UNL     1     -33.434  19.072   0.785  1.00 20.00    -0.105 SA
HETATM    6 BR9  UNL     1     -29.523  18.991   2.812  1.00 20.00    -0.051 Br
ENDROOT
BRANCH   4   7
HETATM    7  C5  UNL     1     -32.547  18.182  -1.670  1.00 20.00     0.061 C 
BRANCH   7   8
HETATM    8  C6  UNL     1     -33.543  17.020  -1.807  1.00 20.00     0.119 C 
HETATM    9 CL8  UNL     1     -33.241  16.067  -3.281  1.00 20.00    -0.130 Cl
ENDBRANCH   7   8
ENDBRANCH   4   7
TORSDOF 2
ENDMDL
MODEL 2
REMARK VINA RESULT:      -3.6      4.083      5.296
REMARK  2 active torsions:
REMARK  status: ('A' for Active; 'I' for Inactive)
REMARK    1  A    between atoms: C4_4  and  C5_5 
REMARK    2  A    between atoms: C5_5  and  C6_6 
ROOT
HETATM    1  C1  UNL     1     -33.299  16.630  -2.215  1.00 20.00     0.034 A 
HETATM    2  C2  UNL     1     -33.693  17.764  -4.207  1.00 20.00     0.069 A 
HETATM    3  C3  UNL     1     -33.639  16.531  -3.596  1.00 20.00     0.018 A 
HETATM    4  C4  UNL     1     -33.105  17.936  -1.824  1.00 20.00    -0.015 A 
HETATM    5  S7  UNL     1     -33.334  19.036  -3.118  1.00 20.00    -0.105 SA
HETATM    6 BR9  UNL     1     -33.968  14.881  -4.441  1.00 20.00    -0.051 Br
ENDROOT
BRANCH   4   7
HETATM    7  C5  UNL     1     -32.744  18.453  -0.487  1.00 20.00     0.061 C 
BRANCH   7   8
HETATM    8  C6  UNL     1     -31.233  18.553  -0.226  1.00 20.00     0.119 C 
HETATM    9 CL8  UNL     1     -30.841  18.238   1.483  1.00 20.00    -0.130 Cl
ENDBRANCH   7   8
ENDBRANCH   4   7
TORSDOF 2
ENDMDL
MODEL 3
REMARK VINA RESULT:      -3.5      3.743      4.606
REMARK  2 active torsions:
REMARK  status: ('A' for Active; 'I' for Inactive)
REMARK    1  A    between atoms: C4_4  and  C5_5 
REMARK    2  A    between atoms: C5_5  and  C6_6 
ROOT
HETATM    1  C1  UNL     1     -31.742  18.100  -0.786  1.00 20.00     0.034 A 
HETATM    2  C2  UNL     1     -34.027  18.219  -0.372  1.00 20.00     0.069 A 
HETATM    3  C3  UNL     1     -33.054  17.783  -1.244  1.00 20.00     0.018 A 
HETATM    4  C4  UNL     1     -31.762  18.766   0.419  1.00 20.00    -0.015 A 
HETATM    5  S7  UNL     1     -33.358  19.007   0.994  1.00 20.00    -0.105 SA
HETATM    6 BR9  UNL     1     -33.370  16.873  -2.861  1.00 20.00    -0.051 Br
ENDROOT
BRANCH   4   7
HETATM    7  C5  UNL     1     -30.620  19.262   1.216  1.00 20.00     0.061 C 
BRANCH   7   8
HETATM    8  C6  UNL     1     -30.642  18.847   2.695  1.00 20.00     0.119 C 
HETATM    9 CL8  UNL     1     -29.001  18.528   3.310  1.00 20.00    -0.130 Cl
ENDBRANCH   7   8
ENDBRANCH   4   7
TORSDOF 2
ENDMDL
MODEL 4
REMARK VINA RESULT:      -3.5      3.884      4.677
REMARK  2 active torsions:
REMARK  status: ('A' for Active; 'I' for Inactive)
REMARK    1  A    between atoms: C4_4  and  C5_5 
REMARK    2  A    between atoms: C5_5  and  C6_6 
ROOT
HETATM    1  C1  UNL     1     -33.445  16.474  -2.304  1.00 20.00     0.034 A 
HETATM    2  C2  UNL     1     -34.496  18.473  -2.859  1.00 20.00     0.069 A 
HETATM    3  C3  UNL     1     -33.908  17.743  -1.850  1.00 20.00     0.018 A 
HETATM    4  C4  UNL     1     -33.698  16.282  -3.644  1.00 20.00    -0.015 A 
HETATM    5  S7  UNL     1     -34.490  17.628  -4.349  1.00 20.00    -0.105 SA
HETATM    6 BR9  UNL     1     -33.714  18.313  -0.066  1.00 20.00    -0.051 Br
ENDROOT
BRANCH   4   7
HETATM    7  C5  UNL     1     -33.376  15.108  -4.482  1.00 20.00     0.061 C 
BRANCH   7   8
HETATM    8  C6  UNL     1     -34.094  15.074  -5.841  1.00 20.00     0.119 C 
HETATM    9 CL8  UNL     1     -35.738  14.404  -5.697  1.00 20.00    -0.130 Cl
ENDBRANCH   7   8
ENDBRANCH   4   7
TORSDOF 2
ENDMDL
MODEL 5
REMARK VINA RESULT:      -3.4     11.216     11.581
REMARK  2 active torsions:
REMARK  status: ('A' for Active; 'I' for Inactive)
REMARK    1  A    between atoms: C4_4  and  C5_5 
REMARK    2  A    between atoms: C5_5  and  C6_6 
ROOT
HETATM    1  C1  UNL     1     -33.376   6.545   3.730  1.00 20.00     0.034 A 
HETATM    2  C2  UNL     1     -33.286   7.763   5.709  1.00 20.00     0.069 A 
HETATM    3  C3  UNL     1     -33.748   6.616   5.104  1.00 20.00     0.018 A 
HETATM    4  C4  UNL     1     -32.644   7.643   3.337  1.00 20.00    -0.015 A 
HETATM    5  S7  UNL     1     -32.406   8.752   4.621  1.00 20.00    -0.105 SA
HETATM    6 BR9  UNL     1     -34.755   5.269   5.951  1.00 20.00    -0.051 Br
ENDROOT
BRANCH   4   7
HETATM    7  C5  UNL     1     -32.078   7.943   2.004  1.00 20.00     0.061 C 
BRANCH   7   8
HETATM    8  C6  UNL     1     -32.641   9.208   1.338  1.00 20.00     0.119 C 
HETATM    9 CL8  UNL     1     -33.088   8.910  -0.360  1.00 20.00    -0.130 Cl
ENDBRANCH   7   8
ENDBRANCH   4   7
TORSDOF 2
ENDMDL
MODEL 6
REMARK VINA RESULT:      -3.4      1.204      1.414
REMARK  2 active torsions:
REMARK  status: ('A' for Active; 'I' for Inactive)
REMARK    1  A    between atoms: C4_4  and  C5_5 
REMARK    2  A    between atoms: C5_5  and  C6_6 
ROOT
HETATM    1  C1  UNL     1     -30.322  18.707   1.547  1.00 20.00     0.034 A 
HETATM    2  C2  UNL     1     -31.791  19.263   3.262  1.00 20.00     0.069 A 
HETATM    3  C3  UNL     1     -30.480  18.999   2.933  1.00 20.00     0.018 A 
HETATM    4  C4  UNL     1     -31.520  18.758   0.869  1.00 20.00    -0.015 A 
HETATM    5  S7  UNL     1     -32.827  19.157   1.902  1.00 20.00    -0.105 SA
HETATM    6 BR9  UNL     1     -29.032  19.011   4.136  1.00 20.00    -0.051 Br
ENDROOT
BRANCH   4   7
HETATM    7  C5  UNL     1     -31.776  18.519  -0.567  1.00 20.00     0.061 C 
BRANCH   7   8
HETATM    8  C6  UNL     1     -33.255  18.315  -0.929  1.00 20.00     0.119 C 
HETATM    9 CL8  UNL     1     -33.501  16.822  -1.869  1.00 20.00    -0.130 Cl
ENDBRANCH   7   8
ENDBRANCH   4   7
TORSDOF 2
ENDMDL
MODEL 7
REMARK VINA RESULT:      -3.3      5.329      6.874
REMARK  2 active torsions:
REMARK  status: ('A' for Active; 'I' for Inactive)
REMARK    1  A    between atoms: C4_4  and  C5_5 
REMARK    2  A    between atoms: C5_5  and  C6_6 
ROOT
HETATM    1  C1  UNL     1     -34.343  17.165  -4.729  1.00 20.00     0.034 A 
HETATM    2  C2  UNL     1     -34.185  15.162  -5.898  1.00 20.00     0.069 A 
HETATM    3  C3  UNL     1     -34.591  16.476  -5.952  1.00 20.00     0.018 A 
HETATM    4  C4  UNL     1     -33.757  16.350  -3.787  1.00 20.00    -0.015 A 
HETATM    5  S7  UNL     1     -33.507  14.761  -4.377  1.00 20.00    -0.105 SA
HETATM    6 BR9  UNL     1     -35.384  17.311  -7.442  1.00 20.00    -0.051 Br
ENDROOT
BRANCH   4   7
HETATM    7  C5  UNL     1     -33.348  16.684  -2.406  1.00 20.00     0.061 C 
BRANCH   7   8
HETATM    8  C6  UNL     1     -32.907  18.142  -2.204  1.00 20.00     0.119 C 
HETATM    9 CL8  UNL     1     -31.798  18.306  -0.820  1.00 20.00    -0.130 Cl
ENDBRANCH   7   8
ENDBRANCH   4   7
TORSDOF 2
ENDMDL
MODEL 8
REMARK VINA RESULT:      -3.2     11.143     11.658
REMARK  2 active torsions:
REMARK  status: ('A' for Active; 'I' for Inactive)
REMARK    1  A    between atoms: C4_4  and  C5_5 
REMARK    2  A    between atoms: C5_5  and  C6_6 
ROOT
HETATM    1  C1  UNL     1     -40.562  14.490   7.178  1.00 20.00     0.034 A 
HETATM    2  C2  UNL     1     -42.214  15.715   6.094  1.00 20.00     0.069 A 
HETATM    3  C3  UNL     1     -41.269  15.725   7.095  1.00 20.00     0.018 A 
HETATM    4  C4  UNL     1     -40.995  13.583   6.237  1.00 20.00    -0.015 A 
HETATM    5  S7  UNL     1     -42.248  14.220   5.258  1.00 20.00    -0.105 SA
HETATM    6 BR9  UNL     1     -40.915  17.174   8.243  1.00 20.00    -0.051 Br
ENDROOT
BRANCH   4   7
HETATM    7  C5  UNL     1     -40.518  12.204   6.001  1.00 20.00     0.061 C 
BRANCH   7   8
HETATM    8  C6  UNL     1     -39.046  12.098   5.572  1.00 20.00     0.119 C 
HETATM    9 CL8  UNL     1     -38.894  11.657   3.853  1.00 20.00    -0.130 Cl
ENDBRANCH   7   8
ENDBRANCH   4   7
TORSDOF 2
ENDMDL
MODEL 9
REMARK VINA RESULT:      -3.2     11.958     12.467
REMARK  2 active torsions:
REMARK  status: ('A' for Active; 'I' for Inactive)
REMARK    1  A    between atoms: C4_4  and  C5_5 
REMARK    2  A    between atoms: C5_5  and  C6_6 
ROOT
HETATM    1  C1  UNL     1     -40.403  14.063   7.756  1.00 20.00     0.034 A 
HETATM    2  C2  UNL     1     -42.440  13.874   8.862  1.00 20.00     0.069 A 
HETATM    3  C3  UNL     1     -41.152  14.356   8.933  1.00 20.00     0.018 A 
HETATM    4  C4  UNL     1     -41.148  13.368   6.830  1.00 20.00    -0.015 A 
HETATM    5  S7  UNL     1     -42.743  13.071   7.380  1.00 20.00    -0.105 SA
HETATM    6 BR9  UNL     1     -40.421  15.297  10.391  1.00 20.00    -0.051 Br
ENDROOT
BRANCH   4   7
HETATM    7  C5  UNL     1     -40.737  12.883   5.496  1.00 20.00     0.061 C 
BRANCH   7   8
HETATM    8  C6  UNL     1     -39.668  11.780   5.516  1.00 20.00     0.119 C 
HETATM    9 CL8  UNL     1     -38.860  11.621   3.936  1.00 20.00    -0.130 Cl
ENDBRANCH   7   8
ENDBRANCH   4   7
TORSDOF 2
ENDMDL
