MODEL 1
REMARK VINA RESULT:      -4.9      0.000      0.000
REMARK  2 active torsions:
REMARK  status: ('A' for Active; 'I' for Inactive)
REMARK    1  A    between atoms: C4_4  and  C5_5 
REMARK    2  A    between atoms: C5_5  and  C7_7 
ROOT
HETATM    1  C1  UNL     1     -33.768   6.328   6.421  1.00 20.00     0.033 A 
HETATM    2  C2  UNL     1     -34.725   5.338   6.458  1.00 20.00     0.088 A 
HETATM    3  C3  UNL     1     -34.782   6.246   4.412  1.00 20.00     0.102 A 
HETATM    4  C4  UNL     1     -33.804   6.903   5.127  1.00 20.00     0.027 A 
HETATM    5  N10 UNL     1     -35.334   5.297   5.232  1.00 20.00    -0.374 N 
HETATM    6  H22 UNL     1     -36.078   4.664   4.971  1.00 20.00     0.164 HD
ENDROOT
BRANCH   4   7
HETATM    7  C5  UNL     1     -32.977   7.992   4.599  1.00 20.00     0.165 C 
HETATM    8  O11 UNL     1     -32.958   9.132   5.051  1.00 20.00    -0.292 OA
BRANCH   7   9
HETATM    9  C7  UNL     1     -32.115   7.682   3.454  1.00 20.00     0.065 A 
HETATM   10  C6  UNL     1     -32.386   6.442   2.640  1.00 20.00     0.018 A 
HETATM   11  C8  UNL     1     -32.677   7.797   2.058  1.00 20.00    -0.006 A 
HETATM   12  C9  UNL     1     -31.834   8.334   0.954  1.00 20.00     0.011 C 
ENDBRANCH   7   9
ENDBRANCH   4   7
TORSDOF 2
ENDMDL
MODEL 2
REMARK VINA RESULT:      -4.9     11.871     12.476
REMARK  2 active torsions:
REMARK  status: ('A' for Active; 'I' for Inactive)
REMARK    1  A    between atoms: C4_4  and  C5_5 
REMARK    2  A    between atoms: C5_5  and  C7_7 
ROOT
HETATM    1  C1  UNL     1     -30.959  18.466   0.365  1.00 20.00     0.033 A 
HETATM    2  C2  UNL     1     -31.141  18.459   1.731  1.00 20.00     0.088 A 
HETATM    3  C3  UNL     1     -33.172  18.455   0.787  1.00 20.00     0.102 A 
HETATM    4  C4  UNL     1     -32.244  18.464  -0.232  1.00 20.00     0.027 A 
HETATM    5  N10 UNL     1     -32.489  18.452   1.975  1.00 20.00    -0.374 N 
HETATM    6  H22 UNL     1     -32.915  18.447   2.891  1.00 20.00     0.164 HD
ENDROOT
BRANCH   4   7
HETATM    7  C5  UNL     1     -32.576  18.469  -1.660  1.00 20.00     0.165 C 
HETATM    8  O11 UNL     1     -32.119  19.262  -2.477  1.00 20.00    -0.292 OA
BRANCH   7   9
HETATM    9  C7  UNL     1     -33.518  17.448  -2.131  1.00 20.00     0.065 A 
HETATM   10  C6  UNL     1     -34.440  17.770  -3.281  1.00 20.00     0.018 A 
HETATM   11  C8  UNL     1     -33.298  16.813  -3.482  1.00 20.00    -0.006 A 
HETATM   12  C9  UNL     1     -33.564  15.361  -3.679  1.00 20.00     0.011 C 
ENDBRANCH   7   9
ENDBRANCH   4   7
TORSDOF 2
ENDMDL
MODEL 3
REMARK VINA RESULT:      -4.8     11.785     12.722
REMARK  2 active torsions:
REMARK  status: ('A' for Active; 'I' for Inactive)
REMARK    1  A    between atoms: C4_4  and  C5_5 
REMARK    2  A    between atoms: C5_5  and  C7_7 
ROOT
HETATM    1  C1  UNL     1     -34.824  16.038  -4.919  1.00 20.00     0.033 A 
HETATM    2  C2  UNL     1     -34.802  14.742  -5.385  1.00 20.00     0.088 A 
HETATM    3  C3  UNL     1     -32.974  15.030  -4.123  1.00 20.00     0.102 A 
HETATM    4  C4  UNL     1     -33.668  16.220  -4.121  1.00 20.00     0.027 A 
HETATM    5  N10 UNL     1     -33.673  14.139  -4.894  1.00 20.00    -0.374 N 
HETATM    6  H22 UNL     1     -33.397  13.184  -5.075  1.00 20.00     0.164 HD
ENDROOT
BRANCH   4   7
HETATM    7  C5  UNL     1     -33.246  17.428  -3.406  1.00 20.00     0.165 C 
HETATM    8  O11 UNL     1     -33.100  18.529  -3.927  1.00 20.00    -0.292 OA
BRANCH   7   9
HETATM    9  C7  UNL     1     -32.987  17.299  -1.968  1.00 20.00     0.065 A 
HETATM   10  C6  UNL     1     -32.099  18.308  -1.284  1.00 20.00     0.018 A 
HETATM   11  C8  UNL     1     -33.578  18.313  -1.020  1.00 20.00    -0.006 A 
HETATM   12  C9  UNL     1     -34.104  17.882   0.306  1.00 20.00     0.011 C 
ENDBRANCH   7   9
ENDBRANCH   4   7
TORSDOF 2
ENDMDL
MODEL 4
REMARK VINA RESULT:      -4.8      1.998      4.276
REMARK  2 active torsions:
REMARK  status: ('A' for Active; 'I' for Inactive)
REMARK    1  A    between atoms: C4_4  and  C5_5 
REMARK    2  A    between atoms: C5_5  and  C7_7 
ROOT
HETATM    1  C1  UNL     1     -32.885   9.543   2.303  1.00 20.00     0.033 A 
HETATM    2  C2  UNL     1     -32.604   9.165   1.008  1.00 20.00     0.088 A 
HETATM    3  C3  UNL     1     -32.089   7.437   2.336  1.00 20.00     0.102 A 
HETATM    4  C4  UNL     1     -32.559   8.450   3.142  1.00 20.00     0.027 A 
HETATM    5  N10 UNL     1     -32.121   7.883   1.041  1.00 20.00    -0.374 N 
HETATM    6  H22 UNL     1     -31.832   7.349   0.233  1.00 20.00     0.164 HD
ENDROOT
BRANCH   4   7
HETATM    7  C5  UNL     1     -32.683   8.363   4.600  1.00 20.00     0.165 C 
HETATM    8  O11 UNL     1     -32.453   9.288   5.373  1.00 20.00    -0.292 OA
BRANCH   7   9
HETATM    9  C7  UNL     1     -33.115   7.078   5.160  1.00 20.00     0.065 A 
HETATM   10  C6  UNL     1     -34.028   7.067   6.361  1.00 20.00     0.018 A 
HETATM   11  C8  UNL     1     -34.557   6.661   5.014  1.00 20.00    -0.006 A 
HETATM   12  C9  UNL     1     -34.901   5.237   4.742  1.00 20.00     0.011 C 
ENDBRANCH   7   9
ENDBRANCH   4   7
TORSDOF 2
ENDMDL
MODEL 5
REMARK VINA RESULT:      -4.7      0.630      1.144
REMARK  2 active torsions:
REMARK  status: ('A' for Active; 'I' for Inactive)
REMARK    1  A    between atoms: C4_4  and  C5_5 
REMARK    2  A    between atoms: C5_5  and  C7_7 
ROOT
HETATM    1  C1  UNL     1     -34.579   6.257   4.420  1.00 20.00     0.033 A 
HETATM    2  C2  UNL     1     -35.182   5.425   5.338  1.00 20.00     0.088 A 
HETATM    3  C3  UNL     1     -33.687   6.671   6.446  1.00 20.00     0.102 A 
HETATM    4  C4  UNL     1     -33.633   7.044   5.121  1.00 20.00     0.027 A 
HETATM    5  N10 UNL     1     -34.632   5.687   6.566  1.00 20.00    -0.374 N 
HETATM    6  H22 UNL     1     -34.884   5.223   7.428  1.00 20.00     0.164 HD
ENDROOT
BRANCH   4   7
HETATM    7  C5  UNL     1     -32.742   8.077   4.583  1.00 20.00     0.165 C 
HETATM    8  O11 UNL     1     -32.598   9.193   5.070  1.00 20.00    -0.292 OA
BRANCH   7   9
HETATM    9  C7  UNL     1     -31.974   7.737   3.380  1.00 20.00     0.065 A 
HETATM   10  C6  UNL     1     -32.346   6.508   2.590  1.00 20.00     0.018 A 
HETATM   11  C8  UNL     1     -32.628   7.873   2.028  1.00 20.00    -0.006 A 
HETATM   12  C9  UNL     1     -31.846   8.379   0.865  1.00 20.00     0.011 C 
ENDBRANCH   7   9
ENDBRANCH   4   7
TORSDOF 2
ENDMDL
MODEL 6
REMARK VINA RESULT:      -4.5     10.240     10.883
REMARK  2 active torsions:
REMARK  status: ('A' for Active; 'I' for Inactive)
REMARK    1  A    between atoms: C4_4  and  C5_5 
REMARK    2  A    between atoms: C5_5  and  C7_7 
ROOT
HETATM    1  C1  UNL     1     -42.325  14.468   4.263  1.00 20.00     0.033 A 
HETATM    2  C2  UNL     1     -43.068  15.613   4.073  1.00 20.00     0.088 A 
HETATM    3  C3  UNL     1     -42.603  15.473   6.259  1.00 20.00     0.102 A 
HETATM    4  C4  UNL     1     -42.032  14.379   5.646  1.00 20.00     0.027 A 
HETATM    5  N10 UNL     1     -43.230  16.215   5.293  1.00 20.00    -0.374 N 
HETATM    6  H22 UNL     1     -43.735  17.075   5.456  1.00 20.00     0.164 HD
ENDROOT
BRANCH   4   7
HETATM    7  C5  UNL     1     -41.267  13.340   6.341  1.00 20.00     0.165 C 
HETATM    8  O11 UNL     1     -41.659  12.735   7.334  1.00 20.00    -0.292 OA
BRANCH   7   9
HETATM    9  C7  UNL     1     -39.945  13.008   5.801  1.00 20.00     0.065 A 
HETATM   10  C6  UNL     1     -39.163  11.871   6.410  1.00 20.00     0.018 A 
HETATM   11  C8  UNL     1     -39.764  11.716   5.042  1.00 20.00    -0.006 A 
HETATM   12  C9  UNL     1     -38.887  11.671   3.839  1.00 20.00     0.011 C 
ENDBRANCH   7   9
ENDBRANCH   4   7
TORSDOF 2
ENDMDL
MODEL 7
REMARK VINA RESULT:      -4.5     12.112     13.287
REMARK  2 active torsions:
REMARK  status: ('A' for Active; 'I' for Inactive)
REMARK    1  A    between atoms: C4_4  and  C5_5 
REMARK    2  A    between atoms: C5_5  and  C7_7 
ROOT
HETATM    1  C1  UNL     1     -34.055  15.422  -6.994  1.00 20.00     0.033 A 
HETATM    2  C2  UNL     1     -35.054  15.666  -7.912  1.00 20.00     0.088 A 
HETATM    3  C3  UNL     1     -36.035  15.362  -5.922  1.00 20.00     0.102 A 
HETATM    4  C4  UNL     1     -34.677  15.229  -5.736  1.00 20.00     0.027 A 
HETATM    5  N10 UNL     1     -36.252  15.627  -7.248  1.00 20.00    -0.374 N 
HETATM    6  H22 UNL     1     -37.158  15.771  -7.673  1.00 20.00     0.164 HD
ENDROOT
BRANCH   4   7
HETATM    7  C5  UNL     1     -34.037  14.942  -4.448  1.00 20.00     0.165 C 
HETATM    8  O11 UNL     1     -34.102  13.865  -3.865  1.00 20.00    -0.292 OA
BRANCH   7   9
HETATM    9  C7  UNL     1     -33.267  16.025  -3.828  1.00 20.00     0.065 A 
HETATM   10  C6  UNL     1     -33.639  17.457  -4.121  1.00 20.00     0.018 A 
HETATM   11  C8  UNL     1     -33.918  16.874  -2.764  1.00 20.00    -0.006 A 
HETATM   12  C9  UNL     1     -33.133  17.324  -1.580  1.00 20.00     0.011 C 
ENDBRANCH   7   9
ENDBRANCH   4   7
TORSDOF 2
ENDMDL
MODEL 8
REMARK VINA RESULT:      -4.4     12.338     12.678
REMARK  2 active torsions:
REMARK  status: ('A' for Active; 'I' for Inactive)
REMARK    1  A    between atoms: C4_4  and  C5_5 
REMARK    2  A    between atoms: C5_5  and  C7_7 
ROOT
HETATM    1  C1  UNL     1     -31.745  19.263   3.041  1.00 20.00     0.033 A 
HETATM    2  C2  UNL     1     -30.943  19.256   4.162  1.00 20.00     0.088 A 
HETATM    3  C3  UNL     1     -29.654  18.706   2.415  1.00 20.00     0.102 A 
HETATM    4  C4  UNL     1     -30.929  18.914   1.936  1.00 20.00     0.027 A 
HETATM    5  N10 UNL     1     -29.675  18.917   3.768  1.00 20.00    -0.374 N 
HETATM    6  H22 UNL     1     -28.877  18.834   4.383  1.00 20.00     0.164 HD
ENDROOT
BRANCH   4   7
HETATM    7  C5  UNL     1     -31.321  18.788   0.530  1.00 20.00     0.165 C 
HETATM    8  O11 UNL     1     -30.610  18.312  -0.350  1.00 20.00    -0.292 OA
BRANCH   7   9
HETATM    9  C7  UNL     1     -32.659  19.263   0.162  1.00 20.00     0.065 A 
HETATM   10  C6  UNL     1     -33.461  18.494  -0.858  1.00 20.00     0.018 A 
HETATM   11  C8  UNL     1     -33.866  18.464   0.589  1.00 20.00    -0.006 A 
HETATM   12  C9  UNL     1     -35.105  19.160   1.034  1.00 20.00     0.011 C 
ENDBRANCH   7   9
ENDBRANCH   4   7
TORSDOF 2
ENDMDL
MODEL 9
REMARK VINA RESULT:      -4.4     11.858     12.564
REMARK  2 active torsions:
REMARK  status: ('A' for Active; 'I' for Inactive)
REMARK    1  A    between atoms: C4_4  and  C5_5 
REMARK    2  A    between atoms: C5_5  and  C7_7 
ROOT
HETATM    1  C1  UNL     1     -33.141  18.527   0.725  1.00 20.00     0.033 A 
HETATM    2  C2  UNL     1     -32.360  18.559   1.859  1.00 20.00     0.088 A 
HETATM    3  C3  UNL     1     -30.979  18.521   0.097  1.00 20.00     0.102 A 
HETATM    4  C4  UNL     1     -32.267  18.503  -0.390  1.00 20.00     0.027 A 
HETATM    5  N10 UNL     1     -31.048  18.555   1.465  1.00 20.00    -0.374 N 
HETATM    6  H22 UNL     1     -30.252  18.573   2.088  1.00 20.00     0.164 HD
ENDROOT
BRANCH   4   7
HETATM    7  C5  UNL     1     -32.619  18.467  -1.812  1.00 20.00     0.165 C 
HETATM    8  O11 UNL     1     -32.171  19.234  -2.659  1.00 20.00    -0.292 OA
BRANCH   7   9
HETATM    9  C7  UNL     1     -33.571  17.437  -2.240  1.00 20.00     0.065 A 
HETATM   10  C6  UNL     1     -34.451  17.697  -3.437  1.00 20.00     0.018 A 
HETATM   11  C8  UNL     1     -33.328  16.704  -3.536  1.00 20.00    -0.006 A 
HETATM   12  C9  UNL     1     -33.623  15.247  -3.640  1.00 20.00     0.011 C 
ENDBRANCH   7   9
ENDBRANCH   4   7
TORSDOF 2
ENDMDL
