MODEL 1
REMARK VINA RESULT:      -3.1      0.000      0.000
REMARK  2 active torsions:
REMARK  status: ('A' for Active; 'I' for Inactive)
REMARK    1  A    between atoms: C1_1  and  C7_7 
REMARK    2  A    between atoms: C7_7  and  S10_10 
ROOT
HETATM    1  C1  UNL     1     -33.673  17.869  -2.008  1.00 20.00     0.061 A 
HETATM    2  C2  UNL     1     -34.727  18.177  -2.842  1.00 20.00     0.006 A 
HETATM    3  C3  UNL     1     -33.410  16.263  -3.479  1.00 20.00     0.072 A 
HETATM    4  C4  UNL     1     -35.724  19.263  -2.753  1.00 20.00     0.058 C 
HETATM    5  C5  UNL     1     -32.864  15.075  -4.171  1.00 20.00     0.078 C 
HETATM    6  N8  UNL     1     -32.917  16.771  -2.371  1.00 20.00    -0.249 NA
HETATM    7  S9  UNL     1     -34.784  17.055  -4.137  1.00 20.00    -0.078 SA
ENDROOT
BRANCH   1   8
HETATM    8  C7  UNL     1     -33.284  18.617  -0.748  1.00 20.00     0.093 C 
HETATM    9  C6  UNL     1     -34.047  18.134   0.484  1.00 20.00     0.028 C 
BRANCH   8  10
HETATM   10  S10 UNL     1     -31.481  18.514  -0.456  1.00 20.00    -0.172 SA
HETATM   11  H21 UNL     1     -31.365  17.230  -0.815  1.00 20.00     0.102 HD
ENDBRANCH   8  10
ENDBRANCH   1   8
TORSDOF 2
ENDMDL
MODEL 2
REMARK VINA RESULT:      -3.1      1.627      4.022
REMARK  2 active torsions:
REMARK  status: ('A' for Active; 'I' for Inactive)
REMARK    1  A    between atoms: C1_1  and  C7_7 
REMARK    2  A    between atoms: C7_7  and  S10_10 
ROOT
HETATM    1  C1  UNL     1     -33.665  17.129  -3.620  1.00 20.00     0.061 A 
HETATM    2  C2  UNL     1     -33.368  18.454  -3.862  1.00 20.00     0.006 A 
HETATM    3  C3  UNL     1     -33.391  17.790  -1.547  1.00 20.00     0.072 A 
HETATM    4  C4  UNL     1     -33.267  19.188  -5.140  1.00 20.00     0.058 C 
HETATM    5  C5  UNL     1     -33.308  17.766  -0.070  1.00 20.00     0.078 C 
HETATM    6  N8  UNL     1     -33.677  16.746  -2.292  1.00 20.00    -0.249 NA
HETATM    7  S9  UNL     1     -33.093  19.263  -2.376  1.00 20.00    -0.078 SA
ENDROOT
BRANCH   1   8
HETATM    8  C7  UNL     1     -33.969  16.076  -4.668  1.00 20.00     0.093 C 
HETATM    9  C6  UNL     1     -33.745  14.654  -4.157  1.00 20.00     0.028 C 
BRANCH   8  10
HETATM   10  S10 UNL     1     -35.673  16.260  -5.305  1.00 20.00    -0.172 SA
HETATM   11  H21 UNL     1     -35.436  15.662  -6.479  1.00 20.00     0.102 HD
ENDBRANCH   8  10
ENDBRANCH   1   8
TORSDOF 2
ENDMDL
MODEL 3
REMARK VINA RESULT:      -3.0      2.627      3.854
REMARK  2 active torsions:
REMARK  status: ('A' for Active; 'I' for Inactive)
REMARK    1  A    between atoms: C1_1  and  C7_7 
REMARK    2  A    between atoms: C7_7  and  S10_10 
ROOT
HETATM    1  C1  UNL     1     -34.370  16.854  -4.379  1.00 20.00     0.061 A 
HETATM    2  C2  UNL     1     -34.344  15.518  -4.721  1.00 20.00     0.006 A 
HETATM    3  C3  UNL     1     -36.264  16.757  -5.480  1.00 20.00     0.072 A 
HETATM    4  C4  UNL     1     -33.334  14.481  -4.427  1.00 20.00     0.058 C 
HETATM    5  C5  UNL     1     -37.544  17.164  -6.101  1.00 20.00     0.078 C 
HETATM    6  N8  UNL     1     -35.470  17.567  -4.815  1.00 20.00    -0.249 NA
HETATM    7  S9  UNL     1     -35.749  15.127  -5.622  1.00 20.00    -0.078 SA
ENDROOT
BRANCH   1   8
HETATM    8  C7  UNL     1     -33.311  17.593  -3.586  1.00 20.00     0.093 C 
HETATM    9  C6  UNL     1     -33.301  19.094  -3.870  1.00 20.00     0.028 C 
BRANCH   8  10
HETATM   10  S10 UNL     1     -33.505  17.290  -1.793  1.00 20.00    -0.172 SA
HETATM   11  H21 UNL     1     -32.795  18.356  -1.404  1.00 20.00     0.102 HD
ENDBRANCH   8  10
ENDBRANCH   1   8
TORSDOF 2
ENDMDL
MODEL 4
REMARK VINA RESULT:      -3.0      2.676      4.787
REMARK  2 active torsions:
REMARK  status: ('A' for Active; 'I' for Inactive)
REMARK    1  A    between atoms: C1_1  and  C7_7 
REMARK    2  A    between atoms: C7_7  and  S10_10 
ROOT
HETATM    1  C1  UNL     1     -34.485  16.939  -5.347  1.00 20.00     0.061 A 
HETATM    2  C2  UNL     1     -34.267  18.295  -5.476  1.00 20.00     0.006 A 
HETATM    3  C3  UNL     1     -33.666  17.335  -3.351  1.00 20.00     0.072 A 
HETATM    4  C4  UNL     1     -34.515  19.193  -6.623  1.00 20.00     0.058 C 
HETATM    5  C5  UNL     1     -33.191  17.122  -1.966  1.00 20.00     0.078 C 
HETATM    6  N8  UNL     1     -34.140  16.387  -4.129  1.00 20.00    -0.249 NA
HETATM    7  S9  UNL     1     -33.606  18.914  -4.021  1.00 20.00    -0.078 SA
ENDROOT
BRANCH   1   8
HETATM    8  C7  UNL     1     -35.056  16.022  -6.410  1.00 20.00     0.093 C 
HETATM    9  C6  UNL     1     -34.001  15.549  -7.409  1.00 20.00     0.028 C 
BRANCH   8  10
HETATM   10  S10 UNL     1     -35.898  14.586  -5.652  1.00 20.00    -0.172 SA
HETATM   11  H21 UNL     1     -35.157  13.660  -6.272  1.00 20.00     0.102 HD
ENDBRANCH   8  10
ENDBRANCH   1   8
TORSDOF 2
ENDMDL
MODEL 5
REMARK VINA RESULT:      -3.0      2.247      4.787
REMARK  2 active torsions:
REMARK  status: ('A' for Active; 'I' for Inactive)
REMARK    1  A    between atoms: C1_1  and  C7_7 
REMARK    2  A    between atoms: C7_7  and  S10_10 
ROOT
HETATM    1  C1  UNL     1     -34.587  16.952  -4.462  1.00 20.00     0.061 A 
HETATM    2  C2  UNL     1     -33.626  16.226  -3.789  1.00 20.00     0.006 A 
HETATM    3  C3  UNL     1     -34.450  18.183  -2.651  1.00 20.00     0.072 A 
HETATM    4  C4  UNL     1     -32.916  14.993  -4.185  1.00 20.00     0.058 C 
HETATM    5  C5  UNL     1     -34.699  19.263  -1.671  1.00 20.00     0.078 C 
HETATM    6  N8  UNL     1     -35.061  18.074  -3.810  1.00 20.00    -0.249 NA
HETATM    7  S9  UNL     1     -33.294  16.969  -2.281  1.00 20.00    -0.078 SA
ENDROOT
BRANCH   1   8
HETATM    8  C7  UNL     1     -35.158  16.627  -5.827  1.00 20.00     0.093 C 
HETATM    9  C6  UNL     1     -36.282  15.594  -5.766  1.00 20.00     0.028 C 
BRANCH   8  10
HETATM   10  S10 UNL     1     -35.736  18.141  -6.674  1.00 20.00    -0.172 SA
HETATM   11  H21 UNL     1     -34.514  18.641  -6.893  1.00 20.00     0.102 HD
ENDBRANCH   8  10
ENDBRANCH   1   8
TORSDOF 2
ENDMDL
MODEL 6
REMARK VINA RESULT:      -2.9     11.768     12.838
REMARK  2 active torsions:
REMARK  status: ('A' for Active; 'I' for Inactive)
REMARK    1  A    between atoms: C1_1  and  C7_7 
REMARK    2  A    between atoms: C7_7  and  S10_10 
ROOT
HETATM    1  C1  UNL     1     -41.415  14.126   7.666  1.00 20.00     0.061 A 
HETATM    2  C2  UNL     1     -42.066  14.383   6.477  1.00 20.00     0.006 A 
HETATM    3  C3  UNL     1     -40.176  12.897   6.337  1.00 20.00     0.072 A 
HETATM    4  C4  UNL     1     -43.243  15.232   6.203  1.00 20.00     0.058 C 
HETATM    5  C5  UNL     1     -39.117  11.979   5.865  1.00 20.00     0.078 C 
HETATM    6  N8  UNL     1     -40.331  13.273   7.587  1.00 20.00    -0.249 NA
HETATM    7  S9  UNL     1     -41.299  13.530   5.204  1.00 20.00    -0.078 SA
ENDROOT
BRANCH   1   8
HETATM    8  C7  UNL     1     -41.784  14.686   9.025  1.00 20.00     0.093 C 
HETATM    9  C6  UNL     1     -42.624  13.717   9.855  1.00 20.00     0.028 C 
BRANCH   8  10
HETATM   10  S10 UNL     1     -40.290  15.185   9.956  1.00 20.00    -0.172 SA
HETATM   11  H21 UNL     1     -40.447  14.291  10.940  1.00 20.00     0.102 HD
ENDBRANCH   8  10
ENDBRANCH   1   8
TORSDOF 2
ENDMDL
MODEL 7
REMARK VINA RESULT:      -2.9      2.476      4.546
REMARK  2 active torsions:
REMARK  status: ('A' for Active; 'I' for Inactive)
REMARK    1  A    between atoms: C1_1  and  C7_7 
REMARK    2  A    between atoms: C7_7  and  S10_10 
ROOT
HETATM    1  C1  UNL     1     -34.569  16.857  -4.284  1.00 20.00     0.061 A 
HETATM    2  C2  UNL     1     -34.201  17.485  -3.112  1.00 20.00     0.006 A 
HETATM    3  C3  UNL     1     -36.097  18.430  -4.257  1.00 20.00     0.072 A 
HETATM    4  C4  UNL     1     -33.105  17.174  -2.171  1.00 20.00     0.058 C 
HETATM    5  C5  UNL     1     -37.255  19.263  -4.650  1.00 20.00     0.078 C 
HETATM    6  N8  UNL     1     -35.657  17.398  -4.941  1.00 20.00    -0.249 NA
HETATM    7  S9  UNL     1     -35.251  18.806  -2.812  1.00 20.00    -0.078 SA
ENDROOT
BRANCH   1   8
HETATM    8  C7  UNL     1     -33.896  15.645  -4.897  1.00 20.00     0.093 C 
HETATM    9  C6  UNL     1     -34.209  14.353  -4.144  1.00 20.00     0.028 C 
BRANCH   8  10
HETATM   10  S10 UNL     1     -34.339  15.473  -6.663  1.00 20.00    -0.172 SA
HETATM   11  H21 UNL     1     -35.663  15.470  -6.464  1.00 20.00     0.102 HD
ENDBRANCH   8  10
ENDBRANCH   1   8
TORSDOF 2
ENDMDL
MODEL 8
REMARK VINA RESULT:      -2.8      2.450      4.533
REMARK  2 active torsions:
REMARK  status: ('A' for Active; 'I' for Inactive)
REMARK    1  A    between atoms: C1_1  and  C7_7 
REMARK    2  A    between atoms: C7_7  and  S10_10 
ROOT
HETATM    1  C1  UNL     1     -34.968  17.186  -4.977  1.00 20.00     0.061 A 
HETATM    2  C2  UNL     1     -34.346  15.985  -5.247  1.00 20.00     0.006 A 
HETATM    3  C3  UNL     1     -33.836  16.972  -3.110  1.00 20.00     0.072 A 
HETATM    4  C4  UNL     1     -34.431  15.117  -6.440  1.00 20.00     0.058 C 
HETATM    5  C5  UNL     1     -33.297  17.251  -1.761  1.00 20.00     0.078 C 
HETATM    6  N8  UNL     1     -34.677  17.753  -3.751  1.00 20.00    -0.249 NA
HETATM    7  S9  UNL     1     -33.354  15.539  -3.922  1.00 20.00    -0.078 SA
ENDROOT
BRANCH   1   8
HETATM    8  C7  UNL     1     -35.929  17.919  -5.891  1.00 20.00     0.093 C 
HETATM    9  C6  UNL     1     -37.107  18.535  -5.138  1.00 20.00     0.028 C 
BRANCH   8  10
HETATM   10  S10 UNL     1     -35.059  19.201  -6.863  1.00 20.00    -0.172 SA
HETATM   11  H21 UNL     1     -35.915  20.187  -6.572  1.00 20.00     0.102 HD
ENDBRANCH   8  10
ENDBRANCH   1   8
TORSDOF 2
ENDMDL
MODEL 9
REMARK VINA RESULT:      -2.8     10.707     11.836
REMARK  2 active torsions:
REMARK  status: ('A' for Active; 'I' for Inactive)
REMARK    1  A    between atoms: C1_1  and  C7_7 
REMARK    2  A    between atoms: C7_7  and  S10_10 
ROOT
HETATM    1  C1  UNL     1     -41.556  13.898   5.539  1.00 20.00     0.061 A 
HETATM    2  C2  UNL     1     -41.002  13.570   6.759  1.00 20.00     0.006 A 
HETATM    3  C3  UNL     1     -39.999  12.521   4.836  1.00 20.00     0.072 A 
HETATM    4  C4  UNL     1     -41.362  14.022   8.119  1.00 20.00     0.058 C 
HETATM    5  C5  UNL     1     -39.148  11.715   3.934  1.00 20.00     0.078 C 
HETATM    6  N8  UNL     1     -40.981  13.298   4.435  1.00 20.00    -0.249 NA
HETATM    7  S9  UNL     1     -39.712  12.466   6.527  1.00 20.00    -0.078 SA
ENDROOT
BRANCH   1   8
HETATM    8  C7  UNL     1     -42.716  14.846   5.312  1.00 20.00     0.093 C 
HETATM    9  C6  UNL     1     -42.371  16.294   5.656  1.00 20.00     0.028 C 
BRANCH   8  10
HETATM   10  S10 UNL     1     -43.327  14.734   3.591  1.00 20.00    -0.172 SA
HETATM   11  H21 UNL     1     -43.891  15.947   3.575  1.00 20.00     0.102 HD
ENDBRANCH   8  10
ENDBRANCH   1   8
TORSDOF 2
ENDMDL
