MODEL 1
REMARK VINA RESULT:      -3.2      0.000      0.000
REMARK  2 active torsions:
REMARK  status: ('A' for Active; 'I' for Inactive)
REMARK    1  A    between atoms: C1_1  and  C7_7 
REMARK    2  A    between atoms: C7_7  and  S10_10 
ROOT
HETATM    1  C1  UNL     1     -34.284  16.890  -4.239  1.00 20.00     0.061 A 
HETATM    2  C2  UNL     1     -34.332  15.602  -4.731  1.00 20.00     0.006 A 
HETATM    3  C3  UNL     1     -36.091  17.074  -5.468  1.00 20.00     0.072 A 
HETATM    4  C4  UNL     1     -33.428  14.459  -4.493  1.00 20.00     0.058 C 
HETATM    5  C5  UNL     1     -37.286  17.652  -6.121  1.00 20.00     0.078 C 
HETATM    6  N8  UNL     1     -35.291  17.735  -4.660  1.00 20.00    -0.249 NA
HETATM    7  S9  UNL     1     -35.690  15.431  -5.763  1.00 20.00    -0.078 SA
ENDROOT
BRANCH   1   8
HETATM    8  C7  UNL     1     -33.235  17.446  -3.295  1.00 20.00     0.093 C 
HETATM    9  C6  UNL     1     -33.521  17.115  -1.831  1.00 20.00     0.028 C 
BRANCH   8  10
HETATM   10  S10 UNL     1     -33.057  19.254  -3.500  1.00 20.00    -0.172 SA
HETATM   11  H21 UNL     1     -32.601  19.479  -2.261  1.00 20.00     0.102 HD
ENDBRANCH   8  10
ENDBRANCH   1   8
TORSDOF 2
ENDMDL
MODEL 2
REMARK VINA RESULT:      -3.1     13.157     14.163
REMARK  2 active torsions:
REMARK  status: ('A' for Active; 'I' for Inactive)
REMARK    1  A    between atoms: C1_1  and  C7_7 
REMARK    2  A    between atoms: C7_7  and  S10_10 
ROOT
HETATM    1  C1  UNL     1     -41.253  14.287   7.666  1.00 20.00     0.061 A 
HETATM    2  C2  UNL     1     -41.923  14.640   6.513  1.00 20.00     0.006 A 
HETATM    3  C3  UNL     1     -40.326  12.850   6.293  1.00 20.00     0.072 A 
HETATM    4  C4  UNL     1     -42.953  15.674   6.290  1.00 20.00     0.058 C 
HETATM    5  C5  UNL     1     -39.469  11.759   5.779  1.00 20.00     0.078 C 
HETATM    6  N8  UNL     1     -40.337  13.261   7.542  1.00 20.00    -0.249 NA
HETATM    7  S9  UNL     1     -41.392  13.654   5.215  1.00 20.00    -0.078 SA
ENDROOT
BRANCH   1   8
HETATM    8  C7  UNL     1     -41.437  14.917   9.033  1.00 20.00     0.093 C 
HETATM    9  C6  UNL     1     -40.112  15.198   9.738  1.00 20.00     0.028 C 
BRANCH   8  10
HETATM   10  S10 UNL     1     -42.500  13.879  10.098  1.00 20.00    -0.172 SA
HETATM   11  H21 UNL     1     -43.272  13.423   9.103  1.00 20.00     0.102 HD
ENDBRANCH   8  10
ENDBRANCH   1   8
TORSDOF 2
ENDMDL
MODEL 3
REMARK VINA RESULT:      -3.0      1.436      4.229
REMARK  2 active torsions:
REMARK  status: ('A' for Active; 'I' for Inactive)
REMARK    1  A    between atoms: C1_1  and  C7_7 
REMARK    2  A    between atoms: C7_7  and  S10_10 
ROOT
HETATM    1  C1  UNL     1     -34.235  16.233  -4.405  1.00 20.00     0.061 A 
HETATM    2  C2  UNL     1     -34.931  17.405  -4.619  1.00 20.00     0.006 A 
HETATM    3  C3  UNL     1     -33.492  17.377  -2.687  1.00 20.00     0.072 A 
HETATM    4  C4  UNL     1     -35.883  17.763  -5.688  1.00 20.00     0.058 C 
HETATM    5  C5  UNL     1     -32.746  17.733  -1.460  1.00 20.00     0.078 C 
HETATM    6  N8  UNL     1     -33.409  16.216  -3.298  1.00 20.00    -0.249 NA
HETATM    7  S9  UNL     1     -34.545  18.536  -3.389  1.00 20.00    -0.078 SA
ENDROOT
BRANCH   1   8
HETATM    8  C7  UNL     1     -34.296  14.989  -5.269  1.00 20.00     0.093 C 
HETATM    9  C6  UNL     1     -33.902  15.257  -6.721  1.00 20.00     0.028 C 
BRANCH   8  10
HETATM   10  S10 UNL     1     -35.955  14.225  -5.206  1.00 20.00    -0.172 SA
HETATM   11  H21 UNL     1     -36.627  15.382  -5.159  1.00 20.00     0.102 HD
ENDBRANCH   8  10
ENDBRANCH   1   8
TORSDOF 2
ENDMDL
MODEL 4
REMARK VINA RESULT:      -3.0      2.078      3.268
REMARK  2 active torsions:
REMARK  status: ('A' for Active; 'I' for Inactive)
REMARK    1  A    between atoms: C1_1  and  C7_7 
REMARK    2  A    between atoms: C7_7  and  S10_10 
ROOT
HETATM    1  C1  UNL     1     -33.761  17.753  -2.882  1.00 20.00     0.061 A 
HETATM    2  C2  UNL     1     -34.626  18.025  -3.922  1.00 20.00     0.006 A 
HETATM    3  C3  UNL     1     -33.701  15.801  -3.882  1.00 20.00     0.072 A 
HETATM    4  C4  UNL     1     -35.363  19.263  -4.246  1.00 20.00     0.058 C 
HETATM    5  C5  UNL     1     -33.358  14.395  -4.184  1.00 20.00     0.078 C 
HETATM    6  N8  UNL     1     -33.230  16.478  -2.857  1.00 20.00    -0.249 NA
HETATM    7  S9  UNL     1     -34.787  16.637  -4.915  1.00 20.00    -0.078 SA
ENDROOT
BRANCH   1   8
HETATM    8  C7  UNL     1     -33.356  18.716  -1.783  1.00 20.00     0.093 C 
HETATM    9  C6  UNL     1     -32.152  18.225  -0.981  1.00 20.00     0.028 C 
BRANCH   8  10
HETATM   10  S10 UNL     1     -34.755  19.057  -0.658  1.00 20.00    -0.172 SA
HETATM   11  H21 UNL     1     -34.062  19.846   0.173  1.00 20.00     0.102 HD
ENDBRANCH   8  10
ENDBRANCH   1   8
TORSDOF 2
ENDMDL
MODEL 5
REMARK VINA RESULT:      -3.0      1.615      3.623
REMARK  2 active torsions:
REMARK  status: ('A' for Active; 'I' for Inactive)
REMARK    1  A    between atoms: C1_1  and  C7_7 
REMARK    2  A    between atoms: C7_7  and  S10_10 
ROOT
HETATM    1  C1  UNL     1     -34.601  16.991  -4.445  1.00 20.00     0.061 A 
HETATM    2  C2  UNL     1     -33.667  16.239  -3.763  1.00 20.00     0.006 A 
HETATM    3  C3  UNL     1     -34.521  18.163  -2.592  1.00 20.00     0.072 A 
HETATM    4  C4  UNL     1     -32.950  15.015  -4.172  1.00 20.00     0.058 C 
HETATM    5  C5  UNL     1     -34.800  19.214  -1.589  1.00 20.00     0.078 C 
HETATM    6  N8  UNL     1     -35.092  18.094  -3.775  1.00 20.00    -0.249 NA
HETATM    7  S9  UNL     1     -33.385  16.933  -2.221  1.00 20.00    -0.078 SA
ENDROOT
BRANCH   1   8
HETATM    8  C7  UNL     1     -35.127  16.711  -5.839  1.00 20.00     0.093 C 
HETATM    9  C6  UNL     1     -34.863  17.859  -6.812  1.00 20.00     0.028 C 
BRANCH   8  10
HETATM   10  S10 UNL     1     -36.913  16.324  -5.804  1.00 20.00    -0.172 SA
HETATM   11  H21 UNL     1     -37.023  16.108  -7.121  1.00 20.00     0.102 HD
ENDBRANCH   8  10
ENDBRANCH   1   8
TORSDOF 2
ENDMDL
MODEL 6
REMARK VINA RESULT:      -2.9      1.838      4.243
REMARK  2 active torsions:
REMARK  status: ('A' for Active; 'I' for Inactive)
REMARK    1  A    between atoms: C1_1  and  C7_7 
REMARK    2  A    between atoms: C7_7  and  S10_10 
ROOT
HETATM    1  C1  UNL     1     -34.616  16.909  -5.507  1.00 20.00     0.061 A 
HETATM    2  C2  UNL     1     -34.386  18.267  -5.580  1.00 20.00     0.006 A 
HETATM    3  C3  UNL     1     -33.766  17.208  -3.507  1.00 20.00     0.072 A 
HETATM    4  C4  UNL     1     -34.639  19.217  -6.682  1.00 20.00     0.058 C 
HETATM    5  C5  UNL     1     -33.274  16.929  -2.140  1.00 20.00     0.078 C 
HETATM    6  N8  UNL     1     -34.261  16.300  -4.320  1.00 20.00    -0.249 NA
HETATM    7  S9  UNL     1     -33.698  18.814  -4.108  1.00 20.00    -0.078 SA
ENDROOT
BRANCH   1   8
HETATM    8  C7  UNL     1     -35.211  16.045  -6.602  1.00 20.00     0.093 C 
HETATM    9  C6  UNL     1     -35.775  14.727  -6.074  1.00 20.00     0.028 C 
BRANCH   8  10
HETATM   10  S10 UNL     1     -33.986  15.714  -7.918  1.00 20.00    -0.172 SA
HETATM   11  H21 UNL     1     -33.231  16.791  -7.663  1.00 20.00     0.102 HD
ENDBRANCH   8  10
ENDBRANCH   1   8
TORSDOF 2
ENDMDL
MODEL 7
REMARK VINA RESULT:      -2.9      1.709      3.661
REMARK  2 active torsions:
REMARK  status: ('A' for Active; 'I' for Inactive)
REMARK    1  A    between atoms: C1_1  and  C7_7 
REMARK    2  A    between atoms: C7_7  and  S10_10 
ROOT
HETATM    1  C1  UNL     1     -34.993  17.098  -4.863  1.00 20.00     0.061 A 
HETATM    2  C2  UNL     1     -34.311  15.940  -5.174  1.00 20.00     0.006 A 
HETATM    3  C3  UNL     1     -33.733  16.967  -3.073  1.00 20.00     0.072 A 
HETATM    4  C4  UNL     1     -34.413  15.065  -6.359  1.00 20.00     0.058 C 
HETATM    5  C5  UNL     1     -33.130  17.285  -1.760  1.00 20.00     0.078 C 
HETATM    6  N8  UNL     1     -34.663  17.688  -3.659  1.00 20.00    -0.249 NA
HETATM    7  S9  UNL     1     -33.208  15.567  -3.915  1.00 20.00    -0.078 SA
ENDROOT
BRANCH   1   8
HETATM    8  C7  UNL     1     -36.057  17.763  -5.715  1.00 20.00     0.093 C 
HETATM    9  C6  UNL     1     -36.174  19.263  -5.451  1.00 20.00     0.028 C 
BRANCH   8  10
HETATM   10  S10 UNL     1     -37.683  16.961  -5.481  1.00 20.00    -0.172 SA
HETATM   11  H21 UNL     1     -37.308  15.769  -5.961  1.00 20.00     0.102 HD
ENDBRANCH   8  10
ENDBRANCH   1   8
TORSDOF 2
ENDMDL
MODEL 8
REMARK VINA RESULT:      -2.8     11.855     12.796
REMARK  2 active torsions:
REMARK  status: ('A' for Active; 'I' for Inactive)
REMARK    1  A    between atoms: C1_1  and  C7_7 
REMARK    2  A    between atoms: C7_7  and  S10_10 
ROOT
HETATM    1  C1  UNL     1     -41.598  13.811   5.475  1.00 20.00     0.061 A 
HETATM    2  C2  UNL     1     -41.073  13.531   6.719  1.00 20.00     0.006 A 
HETATM    3  C3  UNL     1     -39.959  12.492   4.852  1.00 20.00     0.072 A 
HETATM    4  C4  UNL     1     -41.497  13.991   8.056  1.00 20.00     0.058 C 
HETATM    5  C5  UNL     1     -39.044  11.709   3.995  1.00 20.00     0.078 C 
HETATM    6  N8  UNL     1     -40.961  13.217   4.403  1.00 20.00    -0.249 NA
HETATM    7  S9  UNL     1     -39.728  12.481   6.552  1.00 20.00    -0.078 SA
ENDROOT
BRANCH   1   8
HETATM    8  C7  UNL     1     -42.790  14.703   5.190  1.00 20.00     0.093 C 
HETATM    9  C6  UNL     1     -43.264  14.613   3.740  1.00 20.00     0.028 C 
BRANCH   8  10
HETATM   10  S10 UNL     1     -42.428  16.443   5.618  1.00 20.00    -0.172 SA
HETATM   11  H21 UNL     1     -42.271  16.856   4.353  1.00 20.00     0.102 HD
ENDBRANCH   8  10
ENDBRANCH   1   8
TORSDOF 2
ENDMDL
MODEL 9
REMARK VINA RESULT:      -2.8     13.315     14.638
REMARK  2 active torsions:
REMARK  status: ('A' for Active; 'I' for Inactive)
REMARK    1  A    between atoms: C1_1  and  C7_7 
REMARK    2  A    between atoms: C7_7  and  S10_10 
ROOT
HETATM    1  C1  UNL     1     -41.428  14.280   7.420  1.00 20.00     0.061 A 
HETATM    2  C2  UNL     1     -41.625  15.630   7.212  1.00 20.00     0.006 A 
HETATM    3  C3  UNL     1     -40.597  15.030   9.306  1.00 20.00     0.072 A 
HETATM    4  C4  UNL     1     -42.216  16.338   6.059  1.00 20.00     0.058 C 
HETATM    5  C5  UNL     1     -39.967  15.057  10.645  1.00 20.00     0.078 C 
HETATM    6  N8  UNL     1     -40.839  13.934   8.620  1.00 20.00    -0.249 NA
HETATM    7  S9  UNL     1     -41.053  16.510   8.568  1.00 20.00    -0.078 SA
ENDROOT
BRANCH   1   8
HETATM    8  C7  UNL     1     -41.794  13.167   6.458  1.00 20.00     0.093 C 
HETATM    9  C6  UNL     1     -42.820  12.196   7.039  1.00 20.00     0.028 C 
BRANCH   8  10
HETATM   10  S10 UNL     1     -40.308  12.250   5.917  1.00 20.00    -0.172 SA
HETATM   11  H21 UNL     1     -40.867  11.739   4.813  1.00 20.00     0.102 HD
ENDBRANCH   8  10
ENDBRANCH   1   8
TORSDOF 2
ENDMDL
