MODEL 1
REMARK VINA RESULT:      -4.5      0.000      0.000
REMARK  2 active torsions:
REMARK  status: ('A' for Active; 'I' for Inactive)
REMARK    1  A    between atoms: C6_6  and  C7_7 
REMARK    2  A    between atoms: C7_7  and  N9_9 
ROOT
HETATM    1  C1  UNL     1     -32.544   9.012   0.819  1.00 20.00     0.012 C 
HETATM    2  C2  UNL     1     -32.382   8.304   1.775  1.00 20.00    -0.116 C 
HETATM    3  C6  UNL     1     -32.180   7.433   2.942  1.00 20.00     0.113 C 
ENDROOT
BRANCH   3   4
HETATM    4  C7  UNL     1     -33.024   7.866   4.142  1.00 20.00     0.141 C 
BRANCH   4   5
HETATM    5  N9  UNL     1     -33.740   6.764   4.779  1.00 20.00    -0.349 N 
HETATM    6  C4  UNL     1     -34.106   6.690   6.093  1.00 20.00     0.111 A 
HETATM    7  C3  UNL     1     -34.747   5.479   6.212  1.00 20.00     0.135 A 
HETATM    8  N8  UNL     1     -34.781   4.816   5.010  1.00 20.00    -0.255 NA
HETATM    9  C5  UNL     1     -34.167   5.617   4.169  1.00 20.00     0.209 A 
ENDBRANCH   4   5
ENDBRANCH   3   4
TORSDOF 2
ENDMDL
MODEL 2
REMARK VINA RESULT:      -4.3      0.719      1.262
REMARK  2 active torsions:
REMARK  status: ('A' for Active; 'I' for Inactive)
REMARK    1  A    between atoms: C6_6  and  C7_7 
REMARK    2  A    between atoms: C7_7  and  N9_9 
ROOT
HETATM    1  C1  UNL     1     -32.581   9.124   0.751  1.00 20.00     0.012 C 
HETATM    2  C2  UNL     1     -32.399   8.399   1.691  1.00 20.00    -0.116 C 
HETATM    3  C6  UNL     1     -32.174   7.509   2.840  1.00 20.00     0.113 C 
ENDROOT
BRANCH   3   4
HETATM    4  C7  UNL     1     -32.854   8.019   4.111  1.00 20.00     0.141 C 
BRANCH   4   5
HETATM    5  N9  UNL     1     -33.618   6.992   4.815  1.00 20.00    -0.349 N 
HETATM    6  C4  UNL     1     -34.158   5.865   4.262  1.00 20.00     0.111 A 
HETATM    7  C3  UNL     1     -34.775   5.221   5.309  1.00 20.00     0.135 A 
HETATM    8  N8  UNL     1     -34.624   5.922   6.479  1.00 20.00    -0.255 NA
HETATM    9  C5  UNL     1     -33.923   6.982   6.147  1.00 20.00     0.209 A 
ENDBRANCH   4   5
ENDBRANCH   3   4
TORSDOF 2
ENDMDL
MODEL 3
REMARK VINA RESULT:      -4.0     11.793     13.008
REMARK  2 active torsions:
REMARK  status: ('A' for Active; 'I' for Inactive)
REMARK    1  A    between atoms: C6_6  and  C7_7 
REMARK    2  A    between atoms: C7_7  and  N9_9 
ROOT
HETATM    1  C1  UNL     1     -33.623  17.188  -1.846  1.00 20.00     0.012 C 
HETATM    2  C2  UNL     1     -33.324  16.449  -2.744  1.00 20.00    -0.116 C 
HETATM    3  C6  UNL     1     -32.954  15.547  -3.844  1.00 20.00     0.113 C 
ENDROOT
BRANCH   3   4
HETATM    4  C7  UNL     1     -34.082  14.579  -4.206  1.00 20.00     0.141 C 
BRANCH   4   5
HETATM    5  N9  UNL     1     -34.630  14.798  -5.542  1.00 20.00    -0.349 N 
HETATM    6  C4  UNL     1     -34.002  15.428  -6.580  1.00 20.00     0.111 A 
HETATM    7  C3  UNL     1     -34.908  15.387  -7.615  1.00 20.00     0.135 A 
HETATM    8  N8  UNL     1     -36.064  14.751  -7.236  1.00 20.00    -0.255 NA
HETATM    9  C5  UNL     1     -35.863  14.408  -5.984  1.00 20.00     0.209 A 
ENDBRANCH   4   5
ENDBRANCH   3   4
TORSDOF 2
ENDMDL
MODEL 4
REMARK VINA RESULT:      -3.9     11.790     12.981
REMARK  2 active torsions:
REMARK  status: ('A' for Active; 'I' for Inactive)
REMARK    1  A    between atoms: C6_6  and  C7_7 
REMARK    2  A    between atoms: C7_7  and  N9_9 
ROOT
HETATM    1  C1  UNL     1     -33.680  17.191  -1.569  1.00 20.00     0.012 C 
HETATM    2  C2  UNL     1     -33.376  16.557  -2.542  1.00 20.00    -0.116 C 
HETATM    3  C6  UNL     1     -33.001  15.784  -3.735  1.00 20.00     0.113 C 
ENDROOT
BRANCH   3   4
HETATM    4  C7  UNL     1     -34.041  14.720  -4.088  1.00 20.00     0.141 C 
BRANCH   4   5
HETATM    5  N9  UNL     1     -34.601  14.876  -5.428  1.00 20.00    -0.349 N 
HETATM    6  C4  UNL     1     -35.922  14.783  -5.767  1.00 20.00     0.111 A 
HETATM    7  C3  UNL     1     -35.952  15.002  -7.125  1.00 20.00     0.135 A 
HETATM    8  N8  UNL     1     -34.690  15.225  -7.618  1.00 20.00    -0.255 NA
HETATM    9  C5  UNL     1     -33.901  15.143  -6.571  1.00 20.00     0.209 A 
ENDBRANCH   4   5
ENDBRANCH   3   4
TORSDOF 2
ENDMDL
MODEL 5
REMARK VINA RESULT:      -3.8     15.985     17.118
REMARK  2 active torsions:
REMARK  status: ('A' for Active; 'I' for Inactive)
REMARK    1  A    between atoms: C6_6  and  C7_7 
REMARK    2  A    between atoms: C7_7  and  N9_9 
ROOT
HETATM    1  C1  UNL     1     -24.423  16.120  11.740  1.00 20.00     0.012 C 
HETATM    2  C2  UNL     1     -23.756  17.084  11.999  1.00 20.00    -0.116 C 
HETATM    3  C6  UNL     1     -22.942  18.266  12.318  1.00 20.00     0.113 C 
ENDROOT
BRANCH   3   4
HETATM    4  C7  UNL     1     -21.748  18.421  11.375  1.00 20.00     0.141 C 
BRANCH   4   5
HETATM    5  N9  UNL     1     -22.115  18.391   9.962  1.00 20.00    -0.349 N 
HETATM    6  C4  UNL     1     -22.958  19.260   9.327  1.00 20.00     0.111 A 
HETATM    7  C3  UNL     1     -22.986  18.830   8.021  1.00 20.00     0.135 A 
HETATM    8  N8  UNL     1     -22.186  17.728   7.844  1.00 20.00    -0.255 NA
HETATM    9  C5  UNL     1     -21.676  17.491   9.031  1.00 20.00     0.209 A 
ENDBRANCH   4   5
ENDBRANCH   3   4
TORSDOF 2
ENDMDL
MODEL 6
REMARK VINA RESULT:      -3.7     11.758     12.435
REMARK  2 active torsions:
REMARK  status: ('A' for Active; 'I' for Inactive)
REMARK    1  A    between atoms: C6_6  and  C7_7 
REMARK    2  A    between atoms: C7_7  and  N9_9 
ROOT
HETATM    1  C1  UNL     1     -33.567  15.055  -3.815  1.00 20.00     0.012 C 
HETATM    2  C2  UNL     1     -33.418  16.150  -3.346  1.00 20.00    -0.116 C 
HETATM    3  C6  UNL     1     -33.232  17.492  -2.776  1.00 20.00     0.113 C 
ENDROOT
BRANCH   3   4
HETATM    4  C7  UNL     1     -33.638  17.558  -1.302  1.00 20.00     0.141 C 
BRANCH   4   5
HETATM    5  N9  UNL     1     -32.619  18.157  -0.444  1.00 20.00    -0.349 N 
HETATM    6  C4  UNL     1     -32.768  18.496   0.871  1.00 20.00     0.111 A 
HETATM    7  C3  UNL     1     -31.549  19.018   1.239  1.00 20.00     0.135 A 
HETATM    8  N8  UNL     1     -30.667  19.005   0.187  1.00 20.00    -0.255 NA
HETATM    9  C5  UNL     1     -31.342  18.480  -0.810  1.00 20.00     0.209 A 
ENDBRANCH   4   5
ENDBRANCH   3   4
TORSDOF 2
ENDMDL
MODEL 7
REMARK VINA RESULT:      -3.7     12.214     12.923
REMARK  2 active torsions:
REMARK  status: ('A' for Active; 'I' for Inactive)
REMARK    1  A    between atoms: C6_6  and  C7_7 
REMARK    2  A    between atoms: C7_7  and  N9_9 
ROOT
HETATM    1  C1  UNL     1     -33.700  17.707  -0.720  1.00 20.00     0.012 C 
HETATM    2  C2  UNL     1     -33.532  17.118  -1.753  1.00 20.00    -0.116 C 
HETATM    3  C6  UNL     1     -33.323  16.396  -3.016  1.00 20.00     0.113 C 
ENDROOT
BRANCH   3   4
HETATM    4  C7  UNL     1     -34.032  17.067  -4.193  1.00 20.00     0.141 C 
BRANCH   4   5
HETATM    5  N9  UNL     1     -34.939  16.175  -4.912  1.00 20.00    -0.349 N 
HETATM    6  C4  UNL     1     -34.763  14.836  -5.115  1.00 20.00     0.111 A 
HETATM    7  C3  UNL     1     -35.868  14.441  -5.833  1.00 20.00     0.135 A 
HETATM    8  N8  UNL     1     -36.708  15.500  -6.071  1.00 20.00    -0.255 NA
HETATM    9  C5  UNL     1     -36.120  16.529  -5.502  1.00 20.00     0.209 A 
ENDBRANCH   4   5
ENDBRANCH   3   4
TORSDOF 2
ENDMDL
MODEL 8
REMARK VINA RESULT:      -3.6     11.894     12.774
REMARK  2 active torsions:
REMARK  status: ('A' for Active; 'I' for Inactive)
REMARK    1  A    between atoms: C6_6  and  C7_7 
REMARK    2  A    between atoms: C7_7  and  N9_9 
ROOT
HETATM    1  C1  UNL     1     -31.396  18.716  -0.343  1.00 20.00     0.012 C 
HETATM    2  C2  UNL     1     -32.243  18.108  -0.938  1.00 20.00    -0.116 C 
HETATM    3  C6  UNL     1     -33.281  17.360  -1.663  1.00 20.00     0.113 C 
ENDROOT
BRANCH   3   4
HETATM    4  C7  UNL     1     -33.362  17.760  -3.137  1.00 20.00     0.141 C 
BRANCH   4   5
HETATM    5  N9  UNL     1     -33.725  16.656  -4.021  1.00 20.00    -0.349 N 
HETATM    6  C4  UNL     1     -34.613  16.709  -5.058  1.00 20.00     0.111 A 
HETATM    7  C3  UNL     1     -34.617  15.438  -5.583  1.00 20.00     0.135 A 
HETATM    8  N8  UNL     1     -33.759  14.616  -4.896  1.00 20.00    -0.255 NA
HETATM    9  C5  UNL     1     -33.237  15.380  -3.963  1.00 20.00     0.209 A 
ENDBRANCH   4   5
ENDBRANCH   3   4
TORSDOF 2
ENDMDL
MODEL 9
REMARK VINA RESULT:      -3.5     12.066     12.987
REMARK  2 active torsions:
REMARK  status: ('A' for Active; 'I' for Inactive)
REMARK    1  A    between atoms: C6_6  and  C7_7 
REMARK    2  A    between atoms: C7_7  and  N9_9 
ROOT
HETATM    1  C1  UNL     1     -30.595  18.477   2.193  1.00 20.00     0.012 C 
HETATM    2  C2  UNL     1     -30.893  18.489   1.030  1.00 20.00    -0.116 C 
HETATM    3  C6  UNL     1     -31.254  18.506  -0.395  1.00 20.00     0.113 C 
ENDROOT
BRANCH   3   4
HETATM    4  C7  UNL     1     -32.745  18.249  -0.620  1.00 20.00     0.141 C 
BRANCH   4   5
HETATM    5  N9  UNL     1     -33.067  17.849  -1.987  1.00 20.00    -0.349 N 
HETATM    6  C4  UNL     1     -33.420  16.595  -2.401  1.00 20.00     0.111 A 
HETATM    7  C3  UNL     1     -33.623  16.716  -3.756  1.00 20.00     0.135 A 
HETATM    8  N8  UNL     1     -33.404  18.005  -4.176  1.00 20.00    -0.255 NA
HETATM    9  C5  UNL     1     -33.072  18.661  -3.087  1.00 20.00     0.209 A 
ENDBRANCH   4   5
ENDBRANCH   3   4
TORSDOF 2
ENDMDL
