MODEL 1
REMARK VINA RESULT:      -3.9      0.000      0.000
REMARK  3 active torsions:
REMARK  status: ('A' for Active; 'I' for Inactive)
REMARK    1  A    between atoms: C4_4  and  C8_8 
REMARK    2  A    between atoms: C7_7  and  N10_10 
REMARK    3  A    between atoms: C8_8  and  N10_10 
ROOT
HETATM    1  C1  UNL     1     -31.928  18.534  -0.643  1.00 20.00     0.089 C 
HETATM    2  C7  UNL     1     -33.378  18.525  -0.830  1.00 20.00     0.394 C 
HETATM    3  N9  UNL     1     -30.778  18.542  -0.492  1.00 20.00    -0.195 NA
ENDROOT
BRANCH   2   4
HETATM    4  N10 UNL     1     -33.732  18.009  -2.162  1.00 20.00     0.097 N 
HETATM    5  C6  UNL     1     -33.056  18.810  -3.194  1.00 20.00     0.311 C 
BRANCH   4   6
HETATM    6  C8  UNL     1     -33.409  16.614  -2.286  1.00 20.00     0.278 C 
BRANCH   6   7
HETATM    7  C4  UNL     1     -33.535  16.155  -3.698  1.00 20.00     0.018 A 
HETATM    8  C2  UNL     1     -32.682  15.023  -4.205  1.00 20.00     0.011 A 
HETATM    9  C3  UNL     1     -34.162  14.821  -4.006  1.00 20.00    -0.012 A 
HETATM   10  C5  UNL     1     -35.062  14.672  -5.183  1.00 20.00     0.010 C 
ENDBRANCH   6   7
ENDBRANCH   4   6
ENDBRANCH   2   4
TORSDOF 3
ENDMDL
MODEL 2
REMARK VINA RESULT:      -3.8     12.466     13.288
REMARK  3 active torsions:
REMARK  status: ('A' for Active; 'I' for Inactive)
REMARK    1  A    between atoms: C4_4  and  C8_8 
REMARK    2  A    between atoms: C7_7  and  N10_10 
REMARK    3  A    between atoms: C8_8  and  N10_10 
ROOT
HETATM    1  C1  UNL     1     -34.356   4.856   4.186  1.00 20.00     0.089 C 
HETATM    2  C7  UNL     1     -35.044   6.095   4.546  1.00 20.00     0.394 C 
HETATM    3  N9  UNL     1     -33.811   3.873   3.897  1.00 20.00    -0.195 NA
ENDROOT
BRANCH   2   4
HETATM    4  N10 UNL     1     -34.748   6.475   5.937  1.00 20.00     0.097 N 
HETATM    5  C6  UNL     1     -34.644   5.263   6.764  1.00 20.00     0.311 C 
BRANCH   4   6
HETATM    6  C8  UNL     1     -33.553   7.269   6.019  1.00 20.00     0.278 C 
BRANCH   6   7
HETATM    7  C4  UNL     1     -33.361   8.084   4.787  1.00 20.00     0.018 A 
HETATM    8  C2  UNL     1     -32.271   9.121   4.727  1.00 20.00     0.011 A 
HETATM    9  C3  UNL     1     -32.156   7.859   3.912  1.00 20.00    -0.012 A 
HETATM   10  C5  UNL     1     -32.287   7.911   2.430  1.00 20.00     0.010 C 
ENDBRANCH   6   7
ENDBRANCH   4   6
ENDBRANCH   2   4
TORSDOF 3
ENDMDL
MODEL 3
REMARK VINA RESULT:      -3.8      1.164      1.545
REMARK  3 active torsions:
REMARK  status: ('A' for Active; 'I' for Inactive)
REMARK    1  A    between atoms: C4_4  and  C8_8 
REMARK    2  A    between atoms: C7_7  and  N10_10 
REMARK    3  A    between atoms: C8_8  and  N10_10 
ROOT
HETATM    1  C1  UNL     1     -31.696  18.592   0.090  1.00 20.00     0.089 C 
HETATM    2  C7  UNL     1     -33.092  18.397   0.480  1.00 20.00     0.394 C 
HETATM    3  N9  UNL     1     -30.588  18.748  -0.216  1.00 20.00    -0.195 NA
ENDROOT
BRANCH   2   4
HETATM    4  N10 UNL     1     -33.891  17.911  -0.656  1.00 20.00     0.097 N 
HETATM    5  C6  UNL     1     -34.721  19.008  -1.176  1.00 20.00     0.311 C 
BRANCH   4   6
HETATM    6  C8  UNL     1     -33.056  17.354  -1.684  1.00 20.00     0.278 C 
BRANCH   6   7
HETATM    7  C4  UNL     1     -33.870  16.686  -2.738  1.00 20.00     0.018 A 
HETATM    8  C2  UNL     1     -33.738  17.107  -4.177  1.00 20.00     0.011 A 
HETATM    9  C3  UNL     1     -33.212  15.767  -3.733  1.00 20.00    -0.012 A 
HETATM   10  C5  UNL     1     -33.896  14.516  -4.161  1.00 20.00     0.010 C 
ENDBRANCH   6   7
ENDBRANCH   4   6
ENDBRANCH   2   4
TORSDOF 3
ENDMDL
MODEL 4
REMARK VINA RESULT:      -3.7     11.938     12.585
REMARK  3 active torsions:
REMARK  status: ('A' for Active; 'I' for Inactive)
REMARK    1  A    between atoms: C4_4  and  C8_8 
REMARK    2  A    between atoms: C7_7  and  N10_10 
REMARK    3  A    between atoms: C8_8  and  N10_10 
ROOT
HETATM    1  C1  UNL     1     -40.731  14.339   8.999  1.00 20.00     0.089 C 
HETATM    2  C7  UNL     1     -40.792  14.827   7.622  1.00 20.00     0.394 C 
HETATM    3  N9  UNL     1     -40.680  13.954  10.092  1.00 20.00    -0.195 NA
ENDROOT
BRANCH   2   4
HETATM    4  N10 UNL     1     -41.829  14.115   6.858  1.00 20.00     0.097 N 
HETATM    5  C6  UNL     1     -42.171  14.891   5.657  1.00 20.00     0.311 C 
BRANCH   4   6
HETATM    6  C8  UNL     1     -41.409  12.783   6.520  1.00 20.00     0.278 C 
BRANCH   6   7
HETATM    7  C4  UNL     1     -40.114  12.797   5.785  1.00 20.00     0.018 A 
HETATM    8  C2  UNL     1     -38.940  12.009   6.305  1.00 20.00     0.011 A 
HETATM    9  C3  UNL     1     -39.648  11.567   5.051  1.00 20.00    -0.012 A 
HETATM   10  C5  UNL     1     -38.977  11.694   3.728  1.00 20.00     0.010 C 
ENDBRANCH   6   7
ENDBRANCH   4   6
ENDBRANCH   2   4
TORSDOF 3
ENDMDL
MODEL 5
REMARK VINA RESULT:      -3.7      2.195      5.051
REMARK  3 active torsions:
REMARK  status: ('A' for Active; 'I' for Inactive)
REMARK    1  A    between atoms: C4_4  and  C8_8 
REMARK    2  A    between atoms: C7_7  and  N10_10 
REMARK    3  A    between atoms: C8_8  and  N10_10 
ROOT
HETATM    1  C1  UNL     1     -34.040  15.055  -5.968  1.00 20.00     0.089 C 
HETATM    2  C7  UNL     1     -33.968  15.064  -4.508  1.00 20.00     0.394 C 
HETATM    3  N9  UNL     1     -34.098  15.045  -7.127  1.00 20.00    -0.195 NA
ENDROOT
BRANCH   2   4
HETATM    4  N10 UNL     1     -33.532  16.379  -4.012  1.00 20.00     0.097 N 
HETATM    5  C6  UNL     1     -34.465  17.414  -4.482  1.00 20.00     0.311 C 
BRANCH   4   6
HETATM    6  C8  UNL     1     -33.419  16.388  -2.579  1.00 20.00     0.278 C 
BRANCH   6   7
HETATM    7  C4  UNL     1     -33.253  17.774  -2.060  1.00 20.00     0.018 A 
HETATM    8  C2  UNL     1     -34.061  18.241  -0.879  1.00 20.00     0.011 A 
HETATM    9  C3  UNL     1     -32.580  18.009  -0.734  1.00 20.00    -0.012 A 
HETATM   10  C5  UNL     1     -31.655  19.163  -0.558  1.00 20.00     0.010 C 
ENDBRANCH   6   7
ENDBRANCH   4   6
ENDBRANCH   2   4
TORSDOF 3
ENDMDL
MODEL 6
REMARK VINA RESULT:      -3.7     11.117     11.838
REMARK  3 active torsions:
REMARK  status: ('A' for Active; 'I' for Inactive)
REMARK    1  A    between atoms: C4_4  and  C8_8 
REMARK    2  A    between atoms: C7_7  and  N10_10 
REMARK    3  A    between atoms: C8_8  and  N10_10 
ROOT
HETATM    1  C1  UNL     1     -32.787   9.427   1.329  1.00 20.00     0.089 C 
HETATM    2  C7  UNL     1     -32.647   9.529   2.780  1.00 20.00     0.394 C 
HETATM    3  N9  UNL     1     -32.898   9.348   0.177  1.00 20.00    -0.195 NA
ENDROOT
BRANCH   2   4
HETATM    4  N10 UNL     1     -32.993   8.256   3.432  1.00 20.00     0.097 N 
HETATM    5  C6  UNL     1     -32.075   7.204   2.970  1.00 20.00     0.311 C 
BRANCH   4   6
HETATM    6  C8  UNL     1     -32.972   8.377   4.864  1.00 20.00     0.278 C 
BRANCH   6   7
HETATM    7  C4  UNL     1     -33.271   7.074   5.520  1.00 20.00     0.018 A 
HETATM    8  C2  UNL     1     -34.322   6.991   6.594  1.00 20.00     0.011 A 
HETATM    9  C3  UNL     1     -34.574   6.371   5.245  1.00 20.00    -0.012 A 
HETATM   10  C5  UNL     1     -34.608   4.890   5.096  1.00 20.00     0.010 C 
ENDBRANCH   6   7
ENDBRANCH   4   6
ENDBRANCH   2   4
TORSDOF 3
ENDMDL
MODEL 7
REMARK VINA RESULT:      -3.7      2.791      5.576
REMARK  3 active torsions:
REMARK  status: ('A' for Active; 'I' for Inactive)
REMARK    1  A    between atoms: C4_4  and  C8_8 
REMARK    2  A    between atoms: C7_7  and  N10_10 
REMARK    3  A    between atoms: C8_8  and  N10_10 
ROOT
HETATM    1  C1  UNL     1     -35.573  15.186  -7.194  1.00 20.00     0.089 C 
HETATM    2  C7  UNL     1     -34.410  15.112  -6.312  1.00 20.00     0.394 C 
HETATM    3  N9  UNL     1     -36.495  15.246  -7.896  1.00 20.00    -0.195 NA
ENDROOT
BRANCH   2   4
HETATM    4  N10 UNL     1     -34.823  15.027  -4.902  1.00 20.00     0.097 N 
HETATM    5  C6  UNL     1     -35.696  13.857  -4.718  1.00 20.00     0.311 C 
BRANCH   4   6
HETATM    6  C8  UNL     1     -33.687  14.976  -4.025  1.00 20.00     0.278 C 
BRANCH   6   7
HETATM    7  C4  UNL     1     -33.248  16.344  -3.632  1.00 20.00     0.018 A 
HETATM    8  C2  UNL     1     -34.252  17.461  -3.528  1.00 20.00     0.011 A 
HETATM    9  C3  UNL     1     -33.619  16.899  -2.282  1.00 20.00    -0.012 A 
HETATM   10  C5  UNL     1     -32.637  17.709  -1.510  1.00 20.00     0.010 C 
ENDBRANCH   6   7
ENDBRANCH   4   6
ENDBRANCH   2   4
TORSDOF 3
ENDMDL
MODEL 8
REMARK VINA RESULT:      -3.5     11.462     12.343
REMARK  3 active torsions:
REMARK  status: ('A' for Active; 'I' for Inactive)
REMARK    1  A    between atoms: C4_4  and  C8_8 
REMARK    2  A    between atoms: C7_7  and  N10_10 
REMARK    3  A    between atoms: C8_8  and  N10_10 
ROOT
HETATM    1  C1  UNL     1     -42.676  14.599   4.037  1.00 20.00     0.089 C 
HETATM    2  C7  UNL     1     -43.108  14.326   5.406  1.00 20.00     0.394 C 
HETATM    3  N9  UNL     1     -42.337  14.815   2.949  1.00 20.00    -0.195 NA
ENDROOT
BRANCH   2   4
HETATM    4  N10 UNL     1     -41.955  14.273   6.319  1.00 20.00     0.097 N 
HETATM    5  C6  UNL     1     -42.349  14.796   7.636  1.00 20.00     0.311 C 
BRANCH   4   6
HETATM    6  C8  UNL     1     -41.428  12.940   6.421  1.00 20.00     0.278 C 
BRANCH   6   7
HETATM    7  C4  UNL     1     -40.082  12.843   5.790  1.00 20.00     0.018 A 
HETATM    8  C2  UNL     1     -39.032  11.940   6.381  1.00 20.00     0.011 A 
HETATM    9  C3  UNL     1     -39.675  11.588   5.065  1.00 20.00    -0.012 A 
HETATM   10  C5  UNL     1     -38.891  11.674   3.802  1.00 20.00     0.010 C 
ENDBRANCH   6   7
ENDBRANCH   4   6
ENDBRANCH   2   4
TORSDOF 3
ENDMDL
MODEL 9
REMARK VINA RESULT:      -3.5      3.073      5.315
REMARK  3 active torsions:
REMARK  status: ('A' for Active; 'I' for Inactive)
REMARK    1  A    between atoms: C4_4  and  C8_8 
REMARK    2  A    between atoms: C7_7  and  N10_10 
REMARK    3  A    between atoms: C8_8  and  N10_10 
ROOT
HETATM    1  C1  UNL     1     -35.957  15.545  -7.151  1.00 20.00     0.089 C 
HETATM    2  C7  UNL     1     -35.950  17.001  -7.285  1.00 20.00     0.394 C 
HETATM    3  N9  UNL     1     -35.964  14.390  -7.047  1.00 20.00    -0.195 NA
ENDROOT
BRANCH   2   4
HETATM    4  N10 UNL     1     -35.664  17.646  -5.994  1.00 20.00     0.097 N 
HETATM    5  C6  UNL     1     -36.708  17.283  -5.023  1.00 20.00     0.311 C 
BRANCH   4   6
HETATM    6  C8  UNL     1     -34.356  17.297  -5.512  1.00 20.00     0.278 C 
BRANCH   6   7
HETATM    7  C4  UNL     1     -34.426  16.696  -4.151  1.00 20.00     0.018 A 
HETATM    8  C2  UNL     1     -33.586  15.494  -3.810  1.00 20.00     0.011 A 
HETATM    9  C3  UNL     1     -33.264  16.834  -3.203  1.00 20.00    -0.012 A 
HETATM   10  C5  UNL     1     -33.505  17.077  -1.754  1.00 20.00     0.010 C 
ENDBRANCH   6   7
ENDBRANCH   4   6
ENDBRANCH   2   4
TORSDOF 3
ENDMDL
