MODEL 1
REMARK VINA RESULT:      -3.8      0.000      0.000
REMARK  4 active torsions:
REMARK  status: ('A' for Active; 'I' for Inactive)
REMARK    1  A    between atoms: C4_4  and  C8_8 
REMARK    2  A    between atoms: C5_5  and  C9_9 
REMARK    3  A    between atoms: C8_8  and  N10_10 
REMARK    4  A    between atoms: C9_9  and  N10_10 
ROOT
HETATM    1  C7  UNL     1     -35.035  18.873  -2.082  1.00 20.00     0.310 C 
HETATM    2  N10 UNL     1     -33.943  17.893  -2.197  1.00 20.00     0.087 N 
ENDROOT
BRANCH   2   3
HETATM    3  C8  UNL     1     -34.003  17.185  -3.445  1.00 20.00     0.277 C 
BRANCH   3   4
HETATM    4  C4  UNL     1     -33.589  15.763  -3.278  1.00 20.00     0.018 A 
HETATM    5  C1  UNL     1     -32.699  15.105  -4.302  1.00 20.00     0.011 A 
HETATM    6  C3  UNL     1     -34.128  14.652  -4.148  1.00 20.00    -0.012 A 
HETATM    7  C6  UNL     1     -35.115  14.898  -5.238  1.00 20.00     0.010 C 
ENDBRANCH   3   4
ENDBRANCH   2   3
BRANCH   2   8
HETATM    8  C9  UNL     1     -32.651  18.578  -2.031  1.00 20.00     0.305 C 
BRANCH   8   9
HETATM    9  C5  UNL     1     -32.012  18.214  -0.734  1.00 20.00     0.173 A 
HETATM   10  C2  UNL     1     -31.683  19.261   0.292  1.00 20.00     0.201 A 
HETATM   11  O11 UNL     1     -30.678  18.707  -0.570  1.00 20.00    -0.379 OA
ENDBRANCH   8   9
ENDBRANCH   2   8
TORSDOF 4
ENDMDL
MODEL 2
REMARK VINA RESULT:      -3.8     11.985     12.407
REMARK  4 active torsions:
REMARK  status: ('A' for Active; 'I' for Inactive)
REMARK    1  A    between atoms: C4_4  and  C8_8 
REMARK    2  A    between atoms: C5_5  and  C9_9 
REMARK    3  A    between atoms: C8_8  and  N10_10 
REMARK    4  A    between atoms: C9_9  and  N10_10 
ROOT
HETATM    1  C7  UNL     1     -43.090  14.616   5.620  1.00 20.00     0.310 C 
HETATM    2  N10 UNL     1     -41.915  14.008   6.266  1.00 20.00     0.087 N 
ENDROOT
BRANCH   2   3
HETATM    3  C8  UNL     1     -41.036  13.410   5.301  1.00 20.00     0.277 C 
BRANCH   3   4
HETATM    4  C4  UNL     1     -40.459  12.135   5.814  1.00 20.00     0.018 A 
HETATM    5  C1  UNL     1     -39.017  12.073   6.247  1.00 20.00     0.011 A 
HETATM    6  C3  UNL     1     -39.466  11.317   5.023  1.00 20.00    -0.012 A 
HETATM    7  C6  UNL     1     -38.990  11.727   3.671  1.00 20.00     0.010 C 
ENDBRANCH   3   4
ENDBRANCH   2   3
BRANCH   2   8
HETATM    8  C9  UNL     1     -41.218  15.025   7.071  1.00 20.00     0.305 C 
BRANCH   8   9
HETATM    9  C5  UNL     1     -41.238  14.672   8.519  1.00 20.00     0.173 A 
HETATM   10  C2  UNL     1     -40.198  15.204   9.464  1.00 20.00     0.201 A 
HETATM   11  O11 UNL     1     -40.137  13.865   8.949  1.00 20.00    -0.379 OA
ENDBRANCH   8   9
ENDBRANCH   2   8
TORSDOF 4
ENDMDL
MODEL 3
REMARK VINA RESULT:      -3.7      2.702      5.304
REMARK  4 active torsions:
REMARK  status: ('A' for Active; 'I' for Inactive)
REMARK    1  A    between atoms: C4_4  and  C8_8 
REMARK    2  A    between atoms: C5_5  and  C9_9 
REMARK    3  A    between atoms: C8_8  and  N10_10 
REMARK    4  A    between atoms: C9_9  and  N10_10 
ROOT
HETATM    1  C7  UNL     1     -34.089  17.879  -4.293  1.00 20.00     0.310 C 
HETATM    2  N10 UNL     1     -33.265  16.815  -3.697  1.00 20.00     0.087 N 
ENDROOT
BRANCH   2   3
HETATM    3  C8  UNL     1     -33.241  16.911  -2.264  1.00 20.00     0.277 C 
BRANCH   3   4
HETATM    4  C4  UNL     1     -32.728  18.239  -1.821  1.00 20.00     0.018 A 
HETATM    5  C1  UNL     1     -31.674  18.327  -0.748  1.00 20.00     0.011 A 
HETATM    6  C3  UNL     1     -33.067  18.831  -0.474  1.00 20.00    -0.012 A 
HETATM    7  C6  UNL     1     -33.939  18.130   0.511  1.00 20.00     0.010 C 
ENDBRANCH   3   4
ENDBRANCH   2   3
BRANCH   2   8
HETATM    8  C9  UNL     1     -33.763  15.503  -4.140  1.00 20.00     0.305 C 
BRANCH   8   9
HETATM    9  C5  UNL     1     -34.697  15.644  -5.294  1.00 20.00     0.173 A 
HETATM   10  C2  UNL     1     -35.661  14.548  -5.652  1.00 20.00     0.201 A 
HETATM   11  O11 UNL     1     -34.440  14.746  -6.379  1.00 20.00    -0.379 OA
ENDBRANCH   8   9
ENDBRANCH   2   8
TORSDOF 4
ENDMDL
MODEL 4
REMARK VINA RESULT:      -3.7      3.071      5.631
REMARK  4 active torsions:
REMARK  status: ('A' for Active; 'I' for Inactive)
REMARK    1  A    between atoms: C4_4  and  C8_8 
REMARK    2  A    between atoms: C5_5  and  C9_9 
REMARK    3  A    between atoms: C8_8  and  N10_10 
REMARK    4  A    between atoms: C9_9  and  N10_10 
ROOT
HETATM    1  C7  UNL     1     -32.788  14.757  -4.190  1.00 20.00     0.310 C 
HETATM    2  N10 UNL     1     -33.798  15.793  -3.918  1.00 20.00     0.087 N 
ENDROOT
BRANCH   2   3
HETATM    3  C8  UNL     1     -33.219  16.927  -3.252  1.00 20.00     0.277 C 
BRANCH   3   4
HETATM    4  C4  UNL     1     -33.727  17.048  -1.855  1.00 20.00     0.018 A 
HETATM    5  C1  UNL     1     -34.392  18.320  -1.397  1.00 20.00     0.011 A 
HETATM    6  C3  UNL     1     -33.057  17.922  -0.822  1.00 20.00    -0.012 A 
HETATM    7  C6  UNL     1     -31.839  18.728  -1.123  1.00 20.00     0.010 C 
ENDBRANCH   3   4
ENDBRANCH   2   3
BRANCH   2   8
HETATM    8  C9  UNL     1     -34.450  16.185  -5.178  1.00 20.00     0.305 C 
BRANCH   8   9
HETATM    9  C5  UNL     1     -34.081  15.259  -6.286  1.00 20.00     0.173 A 
HETATM   10  C2  UNL     1     -34.150  15.696  -7.722  1.00 20.00     0.201 A 
HETATM   11  O11 UNL     1     -35.172  14.879  -7.131  1.00 20.00    -0.379 OA
ENDBRANCH   8   9
ENDBRANCH   2   8
TORSDOF 4
ENDMDL
MODEL 5
REMARK VINA RESULT:      -3.6      3.390      5.320
REMARK  4 active torsions:
REMARK  status: ('A' for Active; 'I' for Inactive)
REMARK    1  A    between atoms: C4_4  and  C8_8 
REMARK    2  A    between atoms: C5_5  and  C9_9 
REMARK    3  A    between atoms: C8_8  and  N10_10 
REMARK    4  A    between atoms: C9_9  and  N10_10 
ROOT
HETATM    1  C7  UNL     1     -36.622  18.295  -5.791  1.00 20.00     0.310 C 
HETATM    2  N10 UNL     1     -35.245  17.849  -5.521  1.00 20.00     0.087 N 
ENDROOT
BRANCH   2   3
HETATM    3  C8  UNL     1     -35.008  17.702  -4.112  1.00 20.00     0.277 C 
BRANCH   3   4
HETATM    4  C4  UNL     1     -33.612  17.254  -3.844  1.00 20.00     0.018 A 
HETATM    5  C1  UNL     1     -33.353  15.916  -3.202  1.00 20.00     0.011 A 
HETATM    6  C3  UNL     1     -33.036  17.182  -2.450  1.00 20.00    -0.012 A 
HETATM    7  C6  UNL     1     -33.822  17.555  -1.240  1.00 20.00     0.010 C 
ENDBRANCH   3   4
ENDBRANCH   2   3
BRANCH   2   8
HETATM    8  C9  UNL     1     -34.988  16.592  -6.243  1.00 20.00     0.305 C 
BRANCH   8   9
HETATM    9  C5  UNL     1     -36.132  15.647  -6.104  1.00 20.00     0.173 A 
HETATM   10  C2  UNL     1     -35.973  14.334  -5.392  1.00 20.00     0.201 A 
HETATM   11  O11 UNL     1     -35.980  14.420  -6.825  1.00 20.00    -0.379 OA
ENDBRANCH   8   9
ENDBRANCH   2   8
TORSDOF 4
ENDMDL
MODEL 6
REMARK VINA RESULT:      -3.5     11.539     12.304
REMARK  4 active torsions:
REMARK  status: ('A' for Active; 'I' for Inactive)
REMARK    1  A    between atoms: C4_4  and  C8_8 
REMARK    2  A    between atoms: C5_5  and  C9_9 
REMARK    3  A    between atoms: C8_8  and  N10_10 
REMARK    4  A    between atoms: C9_9  and  N10_10 
ROOT
HETATM    1  C7  UNL     1     -43.009  13.038   6.607  1.00 20.00     0.310 C 
HETATM    2  N10 UNL     1     -42.204  14.088   5.962  1.00 20.00     0.087 N 
ENDROOT
BRANCH   2   3
HETATM    3  C8  UNL     1     -41.103  13.528   5.229  1.00 20.00     0.277 C 
BRANCH   3   4
HETATM    4  C4  UNL     1     -40.592  12.291   5.885  1.00 20.00     0.018 A 
HETATM    5  C1  UNL     1     -39.184  12.240   6.421  1.00 20.00     0.011 A 
HETATM    6  C3  UNL     1     -39.567  11.392   5.236  1.00 20.00    -0.012 A 
HETATM    7  C6  UNL     1     -38.991  11.676   3.891  1.00 20.00     0.010 C 
ENDBRANCH   3   4
ENDBRANCH   2   3
BRANCH   2   8
HETATM    8  C9  UNL     1     -43.068  14.904   5.094  1.00 20.00     0.305 C 
BRANCH   8   9
HETATM    9  C5  UNL     1     -42.545  14.943   3.698  1.00 20.00     0.173 A 
HETATM   10  C2  UNL     1     -43.208  15.782   2.643  1.00 20.00     0.201 A 
HETATM   11  O11 UNL     1     -43.417  14.364   2.721  1.00 20.00    -0.379 OA
ENDBRANCH   8   9
ENDBRANCH   2   8
TORSDOF 4
ENDMDL
MODEL 7
REMARK VINA RESULT:      -3.5     11.438     12.287
REMARK  4 active torsions:
REMARK  status: ('A' for Active; 'I' for Inactive)
REMARK    1  A    between atoms: C4_4  and  C8_8 
REMARK    2  A    between atoms: C5_5  and  C9_9 
REMARK    3  A    between atoms: C8_8  and  N10_10 
REMARK    4  A    between atoms: C9_9  and  N10_10 
ROOT
HETATM    1  C7  UNL     1     -32.113   9.311   5.074  1.00 20.00     0.310 C 
HETATM    2  N10 UNL     1     -32.434   7.960   4.586  1.00 20.00     0.087 N 
ENDROOT
BRANCH   2   3
HETATM    3  C8  UNL     1     -33.853   7.755   4.506  1.00 20.00     0.277 C 
BRANCH   3   4
HETATM    4  C4  UNL     1     -34.386   7.175   5.772  1.00 20.00     0.018 A 
HETATM    5  C1  UNL     1     -33.520   6.280   6.621  1.00 20.00     0.011 A 
HETATM    6  C3  UNL     1     -34.722   5.709   5.915  1.00 20.00    -0.012 A 
HETATM    7  C6  UNL     1     -34.547   4.736   4.799  1.00 20.00     0.010 C 
ENDBRANCH   3   4
ENDBRANCH   2   3
BRANCH   2   8
HETATM    8  C9  UNL     1     -31.785   7.743   3.282  1.00 20.00     0.305 C 
BRANCH   8   9
HETATM    9  C5  UNL     1     -32.714   8.060   2.160  1.00 20.00     0.173 A 
HETATM   10  C2  UNL     1     -32.194   8.493   0.819  1.00 20.00     0.201 A 
HETATM   11  O11 UNL     1     -32.721   9.435   1.765  1.00 20.00    -0.379 OA
ENDBRANCH   8   9
ENDBRANCH   2   8
TORSDOF 4
ENDMDL
MODEL 8
REMARK VINA RESULT:      -3.4     11.961     12.424
REMARK  4 active torsions:
REMARK  status: ('A' for Active; 'I' for Inactive)
REMARK    1  A    between atoms: C4_4  and  C8_8 
REMARK    2  A    between atoms: C5_5  and  C9_9 
REMARK    3  A    between atoms: C8_8  and  N10_10 
REMARK    4  A    between atoms: C9_9  and  N10_10 
ROOT
HETATM    1  C7  UNL     1     -42.999  14.848   5.464  1.00 20.00     0.310 C 
HETATM    2  N10 UNL     1     -42.268  13.743   6.104  1.00 20.00     0.087 N 
ENDROOT
BRANCH   2   3
HETATM    3  C8  UNL     1     -41.082  13.402   5.368  1.00 20.00     0.277 C 
BRANCH   3   4
HETATM    4  C4  UNL     1     -40.491  12.125   5.859  1.00 20.00     0.018 A 
HETATM    5  C1  UNL     1     -39.050  12.075   6.301  1.00 20.00     0.011 A 
HETATM    6  C3  UNL     1     -39.480  11.338   5.059  1.00 20.00    -0.012 A 
HETATM    7  C6  UNL     1     -39.002  11.780   3.719  1.00 20.00     0.010 C 
ENDBRANCH   3   4
ENDBRANCH   2   3
BRANCH   2   8
HETATM    8  C9  UNL     1     -41.951  14.105   7.495  1.00 20.00     0.305 C 
BRANCH   8   9
HETATM    9  C5  UNL     1     -41.167  15.372   7.556  1.00 20.00     0.173 A 
HETATM   10  C2  UNL     1     -40.479  15.802   8.821  1.00 20.00     0.201 A 
HETATM   11  O11 UNL     1     -41.727  16.378   8.406  1.00 20.00    -0.379 OA
ENDBRANCH   8   9
ENDBRANCH   2   8
TORSDOF 4
ENDMDL
MODEL 9
REMARK VINA RESULT:      -3.4      3.375      5.087
REMARK  4 active torsions:
REMARK  status: ('A' for Active; 'I' for Inactive)
REMARK    1  A    between atoms: C4_4  and  C8_8 
REMARK    2  A    between atoms: C5_5  and  C9_9 
REMARK    3  A    between atoms: C8_8  and  N10_10 
REMARK    4  A    between atoms: C9_9  and  N10_10 
ROOT
HETATM    1  C7  UNL     1     -36.322  18.201  -4.419  1.00 20.00     0.310 C 
HETATM    2  N10 UNL     1     -35.116  18.265  -5.261  1.00 20.00     0.087 N 
ENDROOT
BRANCH   2   3
HETATM    3  C8  UNL     1     -33.920  18.210  -4.468  1.00 20.00     0.277 C 
BRANCH   3   4
HETATM    4  C4  UNL     1     -34.153  17.479  -3.190  1.00 20.00     0.018 A 
HETATM    5  C1  UNL     1     -33.016  17.248  -2.228  1.00 20.00     0.011 A 
HETATM    6  C3  UNL     1     -33.637  16.080  -2.949  1.00 20.00    -0.012 A 
HETATM    7  C6  UNL     1     -32.857  15.328  -3.973  1.00 20.00     0.010 C 
ENDBRANCH   3   4
ENDBRANCH   2   3
BRANCH   2   8
HETATM    8  C9  UNL     1     -35.154  17.178  -6.253  1.00 20.00     0.305 C 
BRANCH   8   9
HETATM    9  C5  UNL     1     -36.104  16.106  -5.841  1.00 20.00     0.173 A 
HETATM   10  C2  UNL     1     -35.830  14.662  -6.153  1.00 20.00     0.201 A 
HETATM   11  O11 UNL     1     -36.755  15.440  -6.928  1.00 20.00    -0.379 OA
ENDBRANCH   8   9
ENDBRANCH   2   8
TORSDOF 4
ENDMDL
