MODEL 1
REMARK VINA RESULT:      -4.1      0.000      0.000
REMARK  3 active torsions:
REMARK  status: ('A' for Active; 'I' for Inactive)
REMARK    1  A    between atoms: C4_4  and  C8_8 
REMARK    2  A    between atoms: C8_8  and  N11_11 
REMARK    3  A    between atoms: C9_9  and  N11_11 
ROOT
HETATM    1  C1  UNL     1     -36.112  15.919  -5.596  1.00 20.00     0.095 C 
HETATM    2  C6  UNL     1     -33.940  15.265  -6.565  1.00 20.00     0.059 C 
HETATM    3  C9  UNL     1     -34.667  16.185  -5.595  1.00 20.00     0.324 C 
HETATM    4  N10 UNL     1     -37.252  15.710  -5.599  1.00 20.00    -0.195 NA
ENDROOT
BRANCH   3   5
HETATM    5  N11 UNL     1     -34.131  16.034  -4.233  1.00 20.00     0.102 N 
HETATM    6  C7  UNL     1     -33.147  14.941  -4.212  1.00 20.00     0.311 C 
BRANCH   5   7
HETATM    7  C8  UNL     1     -33.559  17.263  -3.754  1.00 20.00     0.278 C 
BRANCH   7   8
HETATM    8  C4  UNL     1     -32.982  17.094  -2.392  1.00 20.00     0.018 A 
HETATM    9  C2  UNL     1     -33.822  17.376  -1.174  1.00 20.00     0.011 A 
HETATM   10  C3  UNL     1     -32.691  18.301  -1.539  1.00 20.00    -0.012 A 
HETATM   11  C5  UNL     1     -31.460  18.346  -0.702  1.00 20.00     0.010 C 
ENDBRANCH   7   8
ENDBRANCH   5   7
ENDBRANCH   3   5
TORSDOF 3
ENDMDL
MODEL 2
REMARK VINA RESULT:      -4.0      1.546      2.163
REMARK  3 active torsions:
REMARK  status: ('A' for Active; 'I' for Inactive)
REMARK    1  A    between atoms: C4_4  and  C8_8 
REMARK    2  A    between atoms: C8_8  and  N11_11 
REMARK    3  A    between atoms: C9_9  and  N11_11 
ROOT
HETATM    1  C1  UNL     1     -34.006  15.131  -6.385  1.00 20.00     0.095 C 
HETATM    2  C6  UNL     1     -34.743  14.158  -4.242  1.00 20.00     0.059 C 
HETATM    3  C9  UNL     1     -33.712  15.026  -4.949  1.00 20.00     0.324 C 
HETATM    4  N10 UNL     1     -34.237  15.212  -7.518  1.00 20.00    -0.195 NA
ENDROOT
BRANCH   3   5
HETATM    5  N11 UNL     1     -33.660  16.367  -4.349  1.00 20.00     0.102 N 
HETATM    6  C7  UNL     1     -34.937  17.060  -4.586  1.00 20.00     0.311 C 
BRANCH   5   7
HETATM    7  C8  UNL     1     -33.352  16.304  -2.946  1.00 20.00     0.278 C 
BRANCH   7   8
HETATM    8  C4  UNL     1     -33.682  17.585  -2.263  1.00 20.00     0.018 A 
HETATM    9  C2  UNL     1     -32.604  18.603  -2.001  1.00 20.00     0.011 A 
HETATM   10  C3  UNL     1     -33.207  17.836  -0.855  1.00 20.00    -0.012 A 
HETATM   11  C5  UNL     1     -34.096  18.524   0.122  1.00 20.00     0.010 C 
ENDBRANCH   7   8
ENDBRANCH   5   7
ENDBRANCH   3   5
TORSDOF 3
ENDMDL
MODEL 3
REMARK VINA RESULT:      -4.0      2.469      5.482
REMARK  3 active torsions:
REMARK  status: ('A' for Active; 'I' for Inactive)
REMARK    1  A    between atoms: C4_4  and  C8_8 
REMARK    2  A    between atoms: C8_8  and  N11_11 
REMARK    3  A    between atoms: C9_9  and  N11_11 
ROOT
HETATM    1  C1  UNL     1     -31.684  18.859  -0.376  1.00 20.00     0.095 C 
HETATM    2  C6  UNL     1     -33.921  18.557   0.616  1.00 20.00     0.059 C 
HETATM    3  C9  UNL     1     -33.114  19.161  -0.524  1.00 20.00     0.324 C 
HETATM    4  N10 UNL     1     -30.554  18.624  -0.257  1.00 20.00    -0.195 NA
ENDROOT
BRANCH   3   5
HETATM    5  N11 UNL     1     -33.598  18.667  -1.823  1.00 20.00     0.102 N 
HETATM    6  C7  UNL     1     -32.779  19.243  -2.902  1.00 20.00     0.311 C 
BRANCH   5   7
HETATM    7  C8  UNL     1     -33.596  17.231  -1.873  1.00 20.00     0.278 C 
BRANCH   7   8
HETATM    8  C4  UNL     1     -33.292  16.740  -3.245  1.00 20.00     0.018 A 
HETATM    9  C2  UNL     1     -34.395  16.594  -4.259  1.00 20.00     0.011 A 
HETATM   10  C3  UNL     1     -33.743  15.369  -3.676  1.00 20.00    -0.012 A 
HETATM   11  C5  UNL     1     -32.856  14.519  -4.518  1.00 20.00     0.010 C 
ENDBRANCH   7   8
ENDBRANCH   5   7
ENDBRANCH   3   5
TORSDOF 3
ENDMDL
MODEL 4
REMARK VINA RESULT:      -3.9      1.563      2.291
REMARK  3 active torsions:
REMARK  status: ('A' for Active; 'I' for Inactive)
REMARK    1  A    between atoms: C4_4  and  C8_8 
REMARK    2  A    between atoms: C8_8  and  N11_11 
REMARK    3  A    between atoms: C9_9  and  N11_11 
ROOT
HETATM    1  C1  UNL     1     -35.987  14.317  -5.269  1.00 20.00     0.095 C 
HETATM    2  C6  UNL     1     -36.051  15.088  -7.610  1.00 20.00     0.059 C 
HETATM    3  C9  UNL     1     -36.006  15.497  -6.145  1.00 20.00     0.324 C 
HETATM    4  N10 UNL     1     -35.975  13.386  -4.578  1.00 20.00    -0.195 NA
ENDROOT
BRANCH   3   5
HETATM    5  N11 UNL     1     -34.832  16.340  -5.875  1.00 20.00     0.102 N 
HETATM    6  C7  UNL     1     -34.586  17.221  -7.027  1.00 20.00     0.311 C 
BRANCH   5   7
HETATM    7  C8  UNL     1     -34.994  17.095  -4.663  1.00 20.00     0.278 C 
BRANCH   7   8
HETATM    8  C4  UNL     1     -33.717  17.177  -3.902  1.00 20.00     0.018 A 
HETATM    9  C2  UNL     1     -33.047  15.921  -3.412  1.00 20.00     0.011 A 
HETATM   10  C3  UNL     1     -33.692  16.862  -2.429  1.00 20.00    -0.012 A 
HETATM   11  C5  UNL     1     -32.851  17.673  -1.506  1.00 20.00     0.010 C 
ENDBRANCH   7   8
ENDBRANCH   5   7
ENDBRANCH   3   5
TORSDOF 3
ENDMDL
MODEL 5
REMARK VINA RESULT:      -3.8      1.783      2.241
REMARK  3 active torsions:
REMARK  status: ('A' for Active; 'I' for Inactive)
REMARK    1  A    between atoms: C4_4  and  C8_8 
REMARK    2  A    between atoms: C8_8  and  N11_11 
REMARK    3  A    between atoms: C9_9  and  N11_11 
ROOT
HETATM    1  C1  UNL     1     -33.931  15.304  -4.406  1.00 20.00     0.095 C 
HETATM    2  C6  UNL     1     -34.706  17.035  -5.981  1.00 20.00     0.059 C 
HETATM    3  C9  UNL     1     -34.538  16.636  -4.522  1.00 20.00     0.324 C 
HETATM    4  N10 UNL     1     -33.454  14.251  -4.314  1.00 20.00    -0.195 NA
ENDROOT
BRANCH   3   5
HETATM    5  N11 UNL     1     -33.719  17.625  -3.804  1.00 20.00     0.102 N 
HETATM    6  C7  UNL     1     -33.565  18.829  -4.634  1.00 20.00     0.311 C 
BRANCH   5   7
HETATM    7  C8  UNL     1     -34.284  17.942  -2.521  1.00 20.00     0.278 C 
BRANCH   7   8
HETATM    8  C4  UNL     1     -33.348  17.591  -1.418  1.00 20.00     0.018 A 
HETATM    9  C2  UNL     1     -33.720  17.881   0.012  1.00 20.00     0.011 A 
HETATM   10  C3  UNL     1     -32.632  18.677  -0.658  1.00 20.00    -0.012 A 
HETATM   11  C5  UNL     1     -31.210  18.493  -0.252  1.00 20.00     0.010 C 
ENDBRANCH   7   8
ENDBRANCH   5   7
ENDBRANCH   3   5
TORSDOF 3
ENDMDL
MODEL 6
REMARK VINA RESULT:      -3.8     12.134     13.947
REMARK  3 active torsions:
REMARK  status: ('A' for Active; 'I' for Inactive)
REMARK    1  A    between atoms: C4_4  and  C8_8 
REMARK    2  A    between atoms: C8_8  and  N11_11 
REMARK    3  A    between atoms: C9_9  and  N11_11 
ROOT
HETATM    1  C1  UNL     1     -40.493  14.451   9.808  1.00 20.00     0.095 C 
HETATM    2  C6  UNL     1     -40.613  16.098   7.976  1.00 20.00     0.059 C 
HETATM    3  C9  UNL     1     -40.346  14.649   8.359  1.00 20.00     0.324 C 
HETATM    4  N10 UNL     1     -40.607  14.294  10.951  1.00 20.00    -0.195 NA
ENDROOT
BRANCH   3   5
HETATM    5  N11 UNL     1     -41.251  13.744   7.635  1.00 20.00     0.102 N 
HETATM    6  C7  UNL     1     -42.646  14.088   7.954  1.00 20.00     0.311 C 
BRANCH   5   7
HETATM    7  C8  UNL     1     -41.013  13.785   6.218  1.00 20.00     0.278 C 
BRANCH   7   8
HETATM    8  C4  UNL     1     -40.493  12.482   5.721  1.00 20.00     0.018 A 
HETATM    9  C2  UNL     1     -39.314  11.831   6.395  1.00 20.00     0.011 A 
HETATM   10  C3  UNL     1     -39.162  12.417   5.017  1.00 20.00    -0.012 A 
HETATM   11  C5  UNL     1     -38.983  11.525   3.838  1.00 20.00     0.010 C 
ENDBRANCH   7   8
ENDBRANCH   5   7
ENDBRANCH   3   5
TORSDOF 3
ENDMDL
MODEL 7
REMARK VINA RESULT:      -3.7     11.183     12.750
REMARK  3 active torsions:
REMARK  status: ('A' for Active; 'I' for Inactive)
REMARK    1  A    between atoms: C4_4  and  C8_8 
REMARK    2  A    between atoms: C8_8  and  N11_11 
REMARK    3  A    between atoms: C9_9  and  N11_11 
ROOT
HETATM    1  C1  UNL     1     -42.308  14.568   4.711  1.00 20.00     0.095 C 
HETATM    2  C6  UNL     1     -42.094  16.286   6.467  1.00 20.00     0.059 C 
HETATM    3  C9  UNL     1     -42.598  14.894   6.114  1.00 20.00     0.324 C 
HETATM    4  N10 UNL     1     -42.081  14.312   3.602  1.00 20.00    -0.195 NA
ENDROOT
BRANCH   3   5
HETATM    5  N11 UNL     1     -41.997  13.883   6.997  1.00 20.00     0.102 N 
HETATM    6  C7  UNL     1     -42.625  12.577   6.746  1.00 20.00     0.311 C 
BRANCH   5   7
HETATM    7  C8  UNL     1     -40.571  13.819   6.829  1.00 20.00     0.278 C 
BRANCH   7   8
HETATM    8  C4  UNL     1     -40.153  12.510   6.256  1.00 20.00     0.018 A 
HETATM    9  C2  UNL     1     -38.801  11.936   6.586  1.00 20.00     0.011 A 
HETATM   10  C3  UNL     1     -39.080  12.453   5.200  1.00 20.00    -0.012 A 
HETATM   11  C5  UNL     1     -39.205  11.506   4.057  1.00 20.00     0.010 C 
ENDBRANCH   7   8
ENDBRANCH   5   7
ENDBRANCH   3   5
TORSDOF 3
ENDMDL
MODEL 8
REMARK VINA RESULT:      -3.6     11.773     13.513
REMARK  3 active torsions:
REMARK  status: ('A' for Active; 'I' for Inactive)
REMARK    1  A    between atoms: C4_4  and  C8_8 
REMARK    2  A    between atoms: C8_8  and  N11_11 
REMARK    3  A    between atoms: C9_9  and  N11_11 
ROOT
HETATM    1  C1  UNL     1     -41.835  15.994   7.548  1.00 20.00     0.095 C 
HETATM    2  C6  UNL     1     -40.215  14.681   8.864  1.00 20.00     0.059 C 
HETATM    3  C9  UNL     1     -41.610  14.727   8.257  1.00 20.00     0.324 C 
HETATM    4  N10 UNL     1     -42.014  16.995   6.992  1.00 20.00    -0.195 NA
ENDROOT
BRANCH   3   5
HETATM    5  N11 UNL     1     -41.815  13.596   7.339  1.00 20.00     0.102 N 
HETATM    6  C7  UNL     1     -43.248  13.471   7.029  1.00 20.00     0.311 C 
BRANCH   5   7
HETATM    7  C8  UNL     1     -41.032  13.741   6.143  1.00 20.00     0.278 C 
BRANCH   7   8
HETATM    8  C4  UNL     1     -40.472  12.434   5.703  1.00 20.00     0.018 A 
HETATM    9  C2  UNL     1     -39.262  11.859   6.390  1.00 20.00     0.011 A 
HETATM   10  C3  UNL     1     -39.150  12.381   4.982  1.00 20.00    -0.012 A 
HETATM   11  C5  UNL     1     -38.955  11.437   3.847  1.00 20.00     0.010 C 
ENDBRANCH   7   8
ENDBRANCH   5   7
ENDBRANCH   3   5
TORSDOF 3
ENDMDL
MODEL 9
REMARK VINA RESULT:      -3.5     12.661     14.396
REMARK  3 active torsions:
REMARK  status: ('A' for Active; 'I' for Inactive)
REMARK    1  A    between atoms: C4_4  and  C8_8 
REMARK    2  A    between atoms: C8_8  and  N11_11 
REMARK    3  A    between atoms: C9_9  and  N11_11 
ROOT
HETATM    1  C1  UNL     1     -41.906  13.975  10.008  1.00 20.00     0.095 C 
HETATM    2  C6  UNL     1     -43.386  13.538   8.084  1.00 20.00     0.059 C 
HETATM    3  C9  UNL     1     -42.415  14.511   8.738  1.00 20.00     0.324 C 
HETATM    4  N10 UNL     1     -41.507  13.553  11.011  1.00 20.00    -0.195 NA
ENDROOT
BRANCH   3   5
HETATM    5  N11 UNL     1     -41.293  14.812   7.836  1.00 20.00     0.102 N 
HETATM    6  C7  UNL     1     -40.523  15.945   8.373  1.00 20.00     0.311 C 
BRANCH   5   7
HETATM    7  C8  UNL     1     -40.457  13.660   7.634  1.00 20.00     0.278 C 
BRANCH   7   8
HETATM    8  C4  UNL     1     -40.078  13.514   6.201  1.00 20.00     0.018 A 
HETATM    9  C2  UNL     1     -41.143  13.345   5.150  1.00 20.00     0.011 A 
HETATM   10  C3  UNL     1     -40.247  12.188   5.505  1.00 20.00    -0.012 A 
HETATM   11  C5  UNL     1     -39.217  11.714   4.540  1.00 20.00     0.010 C 
ENDBRANCH   7   8
ENDBRANCH   5   7
ENDBRANCH   3   5
TORSDOF 3
ENDMDL
