MODEL 1
REMARK VINA RESULT:      -4.0      0.000      0.000
REMARK  3 active torsions:
REMARK  status: ('A' for Active; 'I' for Inactive)
REMARK    1  A    between atoms: C5_5  and  C9_9 
REMARK    2  A    between atoms: C8_8  and  N10_10 
REMARK    3  A    between atoms: C9_9  and  N10_10 
ROOT
HETATM    1  C1  UNL     1     -32.527   9.114   0.042  1.00 20.00     0.013 C 
HETATM    2  C2  UNL     1     -32.717   9.115   1.227  1.00 20.00    -0.087 C 
HETATM    3  C8  UNL     1     -32.951   9.120   2.674  1.00 20.00     0.364 C 
ENDROOT
BRANCH   3   4
HETATM    4  N10 UNL     1     -32.151   8.075   3.332  1.00 20.00     0.095 N 
HETATM    5  C7  UNL     1     -32.504   6.761   2.771  1.00 20.00     0.310 C 
BRANCH   4   6
HETATM    6  C9  UNL     1     -32.327   8.101   4.758  1.00 20.00     0.278 C 
BRANCH   6   7
HETATM    7  C5  UNL     1     -33.645   7.526   5.149  1.00 20.00     0.018 A 
HETATM    8  C3  UNL     1     -34.184   7.744   6.538  1.00 20.00     0.011 A 
HETATM    9  C4  UNL     1     -33.711   6.377   6.121  1.00 20.00    -0.012 A 
HETATM   10  C6  UNL     1     -34.692   5.276   5.911  1.00 20.00     0.010 C 
ENDBRANCH   6   7
ENDBRANCH   4   6
ENDBRANCH   3   4
TORSDOF 3
ENDMDL
MODEL 2
REMARK VINA RESULT:      -4.0      1.119      2.257
REMARK  3 active torsions:
REMARK  status: ('A' for Active; 'I' for Inactive)
REMARK    1  A    between atoms: C5_5  and  C9_9 
REMARK    2  A    between atoms: C8_8  and  N10_10 
REMARK    3  A    between atoms: C9_9  and  N10_10 
ROOT
HETATM    1  C1  UNL     1     -33.121   4.858   2.593  1.00 20.00     0.013 C 
HETATM    2  C2  UNL     1     -32.610   5.940   2.689  1.00 20.00    -0.087 C 
HETATM    3  C8  UNL     1     -31.982   7.259   2.803  1.00 20.00     0.364 C 
ENDROOT
BRANCH   3   4
HETATM    4  N10 UNL     1     -32.929   8.238   3.360  1.00 20.00     0.095 N 
HETATM    5  C7  UNL     1     -32.664   9.562   2.775  1.00 20.00     0.310 C 
BRANCH   4   6
HETATM    6  C9  UNL     1     -32.861   8.276   4.795  1.00 20.00     0.278 C 
BRANCH   6   7
HETATM    7  C5  UNL     1     -34.025   7.578   5.409  1.00 20.00     0.018 A 
HETATM    8  C3  UNL     1     -34.149   7.488   6.907  1.00 20.00     0.011 A 
HETATM    9  C4  UNL     1     -33.833   6.255   6.102  1.00 20.00    -0.012 A 
HETATM   10  C6  UNL     1     -34.851   5.178   5.952  1.00 20.00     0.010 C 
ENDBRANCH   6   7
ENDBRANCH   4   6
ENDBRANCH   3   4
TORSDOF 3
ENDMDL
MODEL 3
REMARK VINA RESULT:      -4.0     11.015     11.783
REMARK  3 active torsions:
REMARK  status: ('A' for Active; 'I' for Inactive)
REMARK    1  A    between atoms: C5_5  and  C9_9 
REMARK    2  A    between atoms: C8_8  and  N10_10 
REMARK    3  A    between atoms: C9_9  and  N10_10 
ROOT
HETATM    1  C1  UNL     1     -33.896  14.481  -4.429  1.00 20.00     0.013 C 
HETATM    2  C2  UNL     1     -33.616  15.423  -3.742  1.00 20.00    -0.087 C 
HETATM    3  C8  UNL     1     -33.271  16.572  -2.901  1.00 20.00     0.364 C 
ENDROOT
BRANCH   3   4
HETATM    4  N10 UNL     1     -34.273  17.640  -3.044  1.00 20.00     0.095 N 
HETATM    5  C7  UNL     1     -33.877  18.539  -4.140  1.00 20.00     0.310 C 
BRANCH   4   6
HETATM    6  C9  UNL     1     -34.450  18.361  -1.813  1.00 20.00     0.278 C 
BRANCH   6   7
HETATM    7  C5  UNL     1     -33.479  17.908  -0.779  1.00 20.00     0.018 A 
HETATM    8  C3  UNL     1     -33.662  18.312   0.661  1.00 20.00     0.011 A 
HETATM    9  C4  UNL     1     -32.532  18.894  -0.147  1.00 20.00    -0.012 A 
HETATM   10  C6  UNL     1     -31.125  18.500   0.142  1.00 20.00     0.010 C 
ENDBRANCH   6   7
ENDBRANCH   4   6
ENDBRANCH   3   4
TORSDOF 3
ENDMDL
MODEL 4
REMARK VINA RESULT:      -3.9      1.215      1.815
REMARK  3 active torsions:
REMARK  status: ('A' for Active; 'I' for Inactive)
REMARK    1  A    between atoms: C5_5  and  C9_9 
REMARK    2  A    between atoms: C8_8  and  N10_10 
REMARK    3  A    between atoms: C9_9  and  N10_10 
ROOT
HETATM    1  C1  UNL     1     -32.165   8.385   0.527  1.00 20.00     0.013 C 
HETATM    2  C2  UNL     1     -32.183   8.039   1.676  1.00 20.00    -0.087 C 
HETATM    3  C8  UNL     1     -32.204   7.613   3.077  1.00 20.00     0.364 C 
ENDROOT
BRANCH   3   4
HETATM    4  N10 UNL     1     -32.862   8.626   3.919  1.00 20.00     0.095 N 
HETATM    5  C7  UNL     1     -31.935   9.061   4.976  1.00 20.00     0.310 C 
BRANCH   4   6
HETATM    6  C9  UNL     1     -34.091   8.128   4.472  1.00 20.00     0.278 C 
BRANCH   6   7
HETATM    7  C5  UNL     1     -34.014   6.663   4.728  1.00 20.00     0.018 A 
HETATM    8  C3  UNL     1     -35.204   5.782   4.453  1.00 20.00     0.011 A 
HETATM    9  C4  UNL     1     -34.780   6.053   5.872  1.00 20.00    -0.012 A 
HETATM   10  C6  UNL     1     -34.166   4.970   6.690  1.00 20.00     0.010 C 
ENDBRANCH   6   7
ENDBRANCH   4   6
ENDBRANCH   3   4
TORSDOF 3
ENDMDL
MODEL 5
REMARK VINA RESULT:      -3.9     11.059     12.070
REMARK  3 active torsions:
REMARK  status: ('A' for Active; 'I' for Inactive)
REMARK    1  A    between atoms: C5_5  and  C9_9 
REMARK    2  A    between atoms: C8_8  and  N10_10 
REMARK    3  A    between atoms: C9_9  and  N10_10 
ROOT
HETATM    1  C1  UNL     1     -30.975  18.524   0.694  1.00 20.00     0.013 C 
HETATM    2  C2  UNL     1     -31.577  18.833  -0.297  1.00 20.00    -0.087 C 
HETATM    3  C8  UNL     1     -32.309  19.212  -1.508  1.00 20.00     0.364 C 
ENDROOT
BRANCH   3   4
HETATM    4  N10 UNL     1     -33.655  18.618  -1.510  1.00 20.00     0.095 N 
HETATM    5  C7  UNL     1     -34.400  19.090  -0.332  1.00 20.00     0.310 C 
BRANCH   4   6
HETATM    6  C9  UNL     1     -33.593  17.182  -1.550  1.00 20.00     0.278 C 
BRANCH   6   7
HETATM    7  C5  UNL     1     -33.135  16.699  -2.882  1.00 20.00     0.018 A 
HETATM    8  C3  UNL     1     -33.932  17.019  -4.119  1.00 20.00     0.011 A 
HETATM    9  C4  UNL     1     -33.894  15.609  -3.593  1.00 20.00    -0.012 A 
HETATM   10  C6  UNL     1     -33.159  14.551  -4.340  1.00 20.00     0.010 C 
ENDBRANCH   6   7
ENDBRANCH   4   6
ENDBRANCH   3   4
TORSDOF 3
ENDMDL
MODEL 6
REMARK VINA RESULT:      -3.9      1.700      3.947
REMARK  3 active torsions:
REMARK  status: ('A' for Active; 'I' for Inactive)
REMARK    1  A    between atoms: C5_5  and  C9_9 
REMARK    2  A    between atoms: C8_8  and  N10_10 
REMARK    3  A    between atoms: C9_9  and  N10_10 
ROOT
HETATM    1  C1  UNL     1     -32.886   4.808   2.499  1.00 20.00     0.013 C 
HETATM    2  C2  UNL     1     -33.693   5.131   3.326  1.00 20.00    -0.087 C 
HETATM    3  C8  UNL     1     -34.682   5.525   4.333  1.00 20.00     0.364 C 
ENDROOT
BRANCH   3   4
HETATM    4  N10 UNL     1     -34.017   5.941   5.579  1.00 20.00     0.095 N 
HETATM    5  C7  UNL     1     -34.796   5.463   6.732  1.00 20.00     0.310 C 
BRANCH   4   6
HETATM    6  C9  UNL     1     -33.835   7.366   5.624  1.00 20.00     0.278 C 
BRANCH   6   7
HETATM    7  C5  UNL     1     -32.674   7.787   4.791  1.00 20.00     0.018 A 
HETATM    8  C3  UNL     1     -32.206   9.218   4.813  1.00 20.00     0.011 A 
HETATM    9  C4  UNL     1     -32.886   8.667   3.588  1.00 20.00    -0.012 A 
HETATM   10  C6  UNL     1     -32.105   8.431   2.341  1.00 20.00     0.010 C 
ENDBRANCH   6   7
ENDBRANCH   4   6
ENDBRANCH   3   4
TORSDOF 3
ENDMDL
MODEL 7
REMARK VINA RESULT:      -3.7     11.215     12.597
REMARK  3 active torsions:
REMARK  status: ('A' for Active; 'I' for Inactive)
REMARK    1  A    between atoms: C5_5  and  C9_9 
REMARK    2  A    between atoms: C8_8  and  N10_10 
REMARK    3  A    between atoms: C9_9  and  N10_10 
ROOT
HETATM    1  C1  UNL     1     -31.770  18.667  -0.663  1.00 20.00     0.013 C 
HETATM    2  C2  UNL     1     -32.539  17.928  -1.213  1.00 20.00    -0.087 C 
HETATM    3  C8  UNL     1     -33.479  17.025  -1.882  1.00 20.00     0.364 C 
ENDROOT
BRANCH   3   4
HETATM    4  N10 UNL     1     -33.142  16.886  -3.307  1.00 20.00     0.095 N 
HETATM    5  C7  UNL     1     -33.686  18.032  -4.053  1.00 20.00     0.310 C 
BRANCH   4   6
HETATM    6  C9  UNL     1     -33.620  15.640  -3.839  1.00 20.00     0.278 C 
BRANCH   6   7
HETATM    7  C5  UNL     1     -34.398  15.851  -5.092  1.00 20.00     0.018 A 
HETATM    8  C3  UNL     1     -35.338  14.785  -5.588  1.00 20.00     0.011 A 
HETATM    9  C4  UNL     1     -34.061  15.066  -6.333  1.00 20.00    -0.012 A 
HETATM   10  C6  UNL     1     -34.102  15.725  -7.668  1.00 20.00     0.010 C 
ENDBRANCH   6   7
ENDBRANCH   4   6
ENDBRANCH   3   4
TORSDOF 3
ENDMDL
MODEL 8
REMARK VINA RESULT:      -3.7     11.281     12.126
REMARK  3 active torsions:
REMARK  status: ('A' for Active; 'I' for Inactive)
REMARK    1  A    between atoms: C5_5  and  C9_9 
REMARK    2  A    between atoms: C8_8  and  N10_10 
REMARK    3  A    between atoms: C9_9  and  N10_10 
ROOT
HETATM    1  C1  UNL     1     -31.308  18.574  -0.306  1.00 20.00     0.013 C 
HETATM    2  C2  UNL     1     -32.340  18.173  -0.767  1.00 20.00    -0.087 C 
HETATM    3  C8  UNL     1     -33.602  17.681  -1.327  1.00 20.00     0.364 C 
ENDROOT
BRANCH   3   4
HETATM    4  N10 UNL     1     -33.889  18.334  -2.614  1.00 20.00     0.095 N 
HETATM    5  C7  UNL     1     -35.341  18.528  -2.752  1.00 20.00     0.310 C 
BRANCH   4   6
HETATM    6  C9  UNL     1     -33.354  17.581  -3.715  1.00 20.00     0.278 C 
BRANCH   6   7
HETATM    7  C5  UNL     1     -33.725  16.142  -3.614  1.00 20.00     0.018 A 
HETATM    8  C3  UNL     1     -32.789  15.081  -4.131  1.00 20.00     0.011 A 
HETATM    9  C4  UNL     1     -34.079  15.364  -4.854  1.00 20.00    -0.012 A 
HETATM   10  C6  UNL     1     -35.189  14.371  -4.821  1.00 20.00     0.010 C 
ENDBRANCH   6   7
ENDBRANCH   4   6
ENDBRANCH   3   4
TORSDOF 3
ENDMDL
MODEL 9
REMARK VINA RESULT:      -3.6      9.464     10.460
REMARK  3 active torsions:
REMARK  status: ('A' for Active; 'I' for Inactive)
REMARK    1  A    between atoms: C5_5  and  C9_9 
REMARK    2  A    between atoms: C8_8  and  N10_10 
REMARK    3  A    between atoms: C9_9  and  N10_10 
ROOT
HETATM    1  C1  UNL     1     -42.390  14.876   3.533  1.00 20.00     0.013 C 
HETATM    2  C2  UNL     1     -42.817  14.531   4.600  1.00 20.00    -0.087 C 
HETATM    3  C8  UNL     1     -43.340  14.112   5.903  1.00 20.00     0.364 C 
ENDROOT
BRANCH   3   4
HETATM    4  N10 UNL     1     -42.675  12.881   6.359  1.00 20.00     0.095 N 
HETATM    5  C7  UNL     1     -43.383  12.349   7.534  1.00 20.00     0.310 C 
BRANCH   4   6
HETATM    6  C9  UNL     1     -41.286  13.111   6.643  1.00 20.00     0.278 C 
BRANCH   6   7
HETATM    7  C5  UNL     1     -40.428  12.062   6.025  1.00 20.00     0.018 A 
HETATM    8  C3  UNL     1     -38.982  11.933   6.426  1.00 20.00     0.011 A 
HETATM    9  C4  UNL     1     -39.340  12.447   5.057  1.00 20.00    -0.012 A 
HETATM   10  C6  UNL     1     -39.082  11.611   3.852  1.00 20.00     0.010 C 
ENDBRANCH   6   7
ENDBRANCH   4   6
ENDBRANCH   3   4
TORSDOF 3
ENDMDL
