MODEL 1
REMARK VINA RESULT:      -4.0      0.000      0.000
REMARK  3 active torsions:
REMARK  status: ('A' for Active; 'I' for Inactive)
REMARK    1  A    between atoms: C1_1  and  C6_6 
REMARK    2  A    between atoms: C6_6  and  C7_7 
REMARK    3  A    between atoms: C7_7  and  C8_8 
ROOT
HETATM    1  C2  UNL     1     -33.675   7.607   6.367  1.00 20.00     0.011 C 
HETATM    2  C7  UNL     1     -33.839   7.249   4.877  1.00 20.00    -0.003 C 
ENDROOT
BRANCH   2   3
HETATM    3  C6  UNL     1     -32.469   7.399   4.174  1.00 20.00     0.101 C 
BRANCH   3   4
HETATM    4  C1  UNL     1     -32.422   8.551   3.178  1.00 20.00     0.219 C 
HETATM    5  O9  UNL     1     -32.514   9.727   3.514  1.00 20.00    -0.280 OA
HETATM    6 CL10 UNL     1     -32.167   7.987   1.549  1.00 20.00    -0.044 Cl
ENDBRANCH   3   4
ENDBRANCH   2   3
BRANCH   2   7
HETATM    7  C8  UNL     1     -34.499   5.837   4.643  1.00 20.00    -0.048 C 
HETATM    8  C3  UNL     1     -35.958   5.990   4.160  1.00 20.00     0.015 C 
HETATM    9  C4  UNL     1     -34.546   5.045   5.970  1.00 20.00     0.015 C 
HETATM   10  C5  UNL     1     -33.733   4.996   3.605  1.00 20.00     0.015 C 
ENDBRANCH   2   7
TORSDOF 3
ENDMDL
MODEL 2
REMARK VINA RESULT:      -4.0      0.032      1.368
REMARK  3 active torsions:
REMARK  status: ('A' for Active; 'I' for Inactive)
REMARK    1  A    between atoms: C1_1  and  C6_6 
REMARK    2  A    between atoms: C6_6  and  C7_7 
REMARK    3  A    between atoms: C7_7  and  C8_8 
ROOT
HETATM    1  C2  UNL     1     -33.676   7.668   6.358  1.00 20.00     0.011 C 
HETATM    2  C7  UNL     1     -33.847   7.269   4.880  1.00 20.00    -0.003 C 
ENDROOT
BRANCH   2   3
HETATM    3  C6  UNL     1     -32.481   7.402   4.166  1.00 20.00     0.101 C 
BRANCH   3   4
HETATM    4  C1  UNL     1     -32.429   8.553   3.168  1.00 20.00     0.219 C 
HETATM    5  O9  UNL     1     -32.524   9.730   3.501  1.00 20.00    -0.280 OA
HETATM    6 CL10 UNL     1     -32.163   7.986   1.541  1.00 20.00    -0.044 Cl
ENDBRANCH   3   4
ENDBRANCH   2   3
BRANCH   2   7
HETATM    7  C8  UNL     1     -34.505   5.850   4.688  1.00 20.00    -0.048 C 
HETATM    8  C3  UNL     1     -33.729   5.028   3.635  1.00 20.00     0.015 C 
HETATM    9  C4  UNL     1     -35.951   6.000   4.164  1.00 20.00     0.015 C 
HETATM   10  C5  UNL     1     -34.546   5.040   5.997  1.00 20.00     0.015 C 
ENDBRANCH   2   7
TORSDOF 3
ENDMDL
MODEL 3
REMARK VINA RESULT:      -4.0      0.039      1.360
REMARK  3 active torsions:
REMARK  status: ('A' for Active; 'I' for Inactive)
REMARK    1  A    between atoms: C1_1  and  C6_6 
REMARK    2  A    between atoms: C6_6  and  C7_7 
REMARK    3  A    between atoms: C7_7  and  C8_8 
ROOT
HETATM    1  C2  UNL     1     -33.692   7.646   6.371  1.00 20.00     0.011 C 
HETATM    2  C7  UNL     1     -33.864   7.270   4.887  1.00 20.00    -0.003 C 
ENDROOT
BRANCH   2   3
HETATM    3  C6  UNL     1     -32.493   7.392   4.180  1.00 20.00     0.101 C 
BRANCH   3   4
HETATM    4  C1  UNL     1     -32.424   8.547   3.189  1.00 20.00     0.219 C 
HETATM    5  O9  UNL     1     -32.497   9.724   3.529  1.00 20.00    -0.280 OA
HETATM    6 CL10 UNL     1     -32.175   7.986   1.558  1.00 20.00    -0.044 Cl
ENDBRANCH   3   4
ENDBRANCH   2   3
BRANCH   2   7
HETATM    7  C8  UNL     1     -34.542   5.863   4.673  1.00 20.00    -0.048 C 
HETATM    8  C3  UNL     1     -34.573   5.066   5.996  1.00 20.00     0.015 C 
HETATM    9  C4  UNL     1     -33.724   5.026   3.664  1.00 20.00     0.015 C 
HETATM   10  C5  UNL     1     -35.985   5.981   4.148  1.00 20.00     0.015 C 
ENDBRANCH   2   7
TORSDOF 3
ENDMDL
MODEL 4
REMARK VINA RESULT:      -4.0     15.365     16.277
REMARK  3 active torsions:
REMARK  status: ('A' for Active; 'I' for Inactive)
REMARK    1  A    between atoms: C1_1  and  C6_6 
REMARK    2  A    between atoms: C6_6  and  C7_7 
REMARK    3  A    between atoms: C7_7  and  C8_8 
ROOT
HETATM    1  C2  UNL     1     -25.043  19.263   9.469  1.00 20.00     0.011 C 
HETATM    2  C7  UNL     1     -24.035  18.203   9.954  1.00 20.00    -0.003 C 
ENDROOT
BRANCH   2   3
HETATM    3  C6  UNL     1     -22.608  18.658   9.566  1.00 20.00     0.101 C 
BRANCH   3   4
HETATM    4  C1  UNL     1     -21.934  17.740   8.553  1.00 20.00     0.219 C 
HETATM    5  O9  UNL     1     -21.692  16.559   8.781  1.00 20.00    -0.280 OA
HETATM    6 CL10 UNL     1     -21.619  18.560   7.048  1.00 20.00    -0.044 Cl
ENDBRANCH   3   4
ENDBRANCH   2   3
BRANCH   2   7
HETATM    7  C8  UNL     1     -24.177  17.862  11.486  1.00 20.00    -0.048 C 
HETATM    8  C3  UNL     1     -25.343  18.654  12.115  1.00 20.00     0.015 C 
HETATM    9  C4  UNL     1     -22.894  18.273  12.244  1.00 20.00     0.015 C 
HETATM   10  C5  UNL     1     -24.424  16.361  11.733  1.00 20.00     0.015 C 
ENDBRANCH   2   7
TORSDOF 3
ENDMDL
MODEL 5
REMARK VINA RESULT:      -3.8      1.260      2.141
REMARK  3 active torsions:
REMARK  status: ('A' for Active; 'I' for Inactive)
REMARK    1  A    between atoms: C1_1  and  C6_6 
REMARK    2  A    between atoms: C6_6  and  C7_7 
REMARK    3  A    between atoms: C7_7  and  C8_8 
ROOT
HETATM    1  C2  UNL     1     -32.783   6.230   2.984  1.00 20.00     0.011 C 
HETATM    2  C7  UNL     1     -33.297   6.578   4.394  1.00 20.00    -0.003 C 
ENDROOT
BRANCH   2   3
HETATM    3  C6  UNL     1     -33.784   8.046   4.399  1.00 20.00     0.101 C 
BRANCH   3   4
HETATM    4  C1  UNL     1     -32.684   9.051   4.079  1.00 20.00     0.219 C 
HETATM    5  O9  UNL     1     -31.853   9.415   4.905  1.00 20.00    -0.280 OA
HETATM    6 CL10 UNL     1     -32.730   9.550   2.410  1.00 20.00    -0.044 Cl
ENDBRANCH   3   4
ENDBRANCH   2   3
BRANCH   2   7
HETATM    7  C8  UNL     1     -34.383   5.568   4.929  1.00 20.00    -0.048 C 
HETATM    8  C3  UNL     1     -34.048   4.125   4.491  1.00 20.00     0.015 C 
HETATM    9  C4  UNL     1     -35.767   5.909   4.332  1.00 20.00     0.015 C 
HETATM   10  C5  UNL     1     -34.499   5.591   6.465  1.00 20.00     0.015 C 
ENDBRANCH   2   7
TORSDOF 3
ENDMDL
MODEL 6
REMARK VINA RESULT:      -3.7      9.694     10.611
REMARK  3 active torsions:
REMARK  status: ('A' for Active; 'I' for Inactive)
REMARK    1  A    between atoms: C1_1  and  C6_6 
REMARK    2  A    between atoms: C6_6  and  C7_7 
REMARK    3  A    between atoms: C7_7  and  C8_8 
ROOT
HETATM    1  C2  UNL     1     -42.794  12.420   6.987  1.00 20.00     0.011 C 
HETATM    2  C7  UNL     1     -41.502  13.257   6.905  1.00 20.00    -0.003 C 
ENDROOT
BRANCH   2   3
HETATM    3  C6  UNL     1     -40.813  12.979   5.548  1.00 20.00     0.101 C 
BRANCH   3   4
HETATM    4  C1  UNL     1     -39.548  12.139   5.672  1.00 20.00     0.219 C 
HETATM    5  O9  UNL     1     -39.062  11.821   6.753  1.00 20.00    -0.280 OA
HETATM    6 CL10 UNL     1     -38.936  11.656   4.114  1.00 20.00    -0.044 Cl
ENDBRANCH   3   4
ENDBRANCH   2   3
BRANCH   2   7
HETATM    7  C8  UNL     1     -41.735  14.792   7.173  1.00 20.00    -0.048 C 
HETATM    8  C3  UNL     1     -42.797  14.999   8.275  1.00 20.00     0.015 C 
HETATM    9  C4  UNL     1     -42.272  15.480   5.897  1.00 20.00     0.015 C 
HETATM   10  C5  UNL     1     -40.445  15.515   7.606  1.00 20.00     0.015 C 
ENDBRANCH   2   7
TORSDOF 3
ENDMDL
MODEL 7
REMARK VINA RESULT:      -3.5      9.237     10.037
REMARK  3 active torsions:
REMARK  status: ('A' for Active; 'I' for Inactive)
REMARK    1  A    between atoms: C1_1  and  C6_6 
REMARK    2  A    between atoms: C6_6  and  C7_7 
REMARK    3  A    between atoms: C7_7  and  C8_8 
ROOT
HETATM    1  C2  UNL     1     -40.353  13.957   7.857  1.00 20.00     0.011 C 
HETATM    2  C7  UNL     1     -40.602  13.754   6.351  1.00 20.00    -0.003 C 
ENDROOT
BRANCH   2   3
HETATM    3  C6  UNL     1     -40.317  12.276   5.993  1.00 20.00     0.101 C 
BRANCH   3   4
HETATM    4  C1  UNL     1     -38.960  12.064   5.334  1.00 20.00     0.219 C 
HETATM    5  O9  UNL     1     -37.906  12.063   5.962  1.00 20.00    -0.280 OA
HETATM    6 CL10 UNL     1     -39.111  11.771   3.622  1.00 20.00    -0.044 Cl
ENDBRANCH   3   4
ENDBRANCH   2   3
BRANCH   2   7
HETATM    7  C8  UNL     1     -42.028  14.236   5.883  1.00 20.00    -0.048 C 
HETATM    8  C3  UNL     1     -42.105  14.292   4.341  1.00 20.00     0.015 C 
HETATM    9  C4  UNL     1     -42.302  15.667   6.398  1.00 20.00     0.015 C 
HETATM   10  C5  UNL     1     -43.154  13.315   6.389  1.00 20.00     0.015 C 
ENDBRANCH   2   7
TORSDOF 3
ENDMDL
MODEL 8
REMARK VINA RESULT:      -3.5     12.049     13.424
REMARK  3 active torsions:
REMARK  status: ('A' for Active; 'I' for Inactive)
REMARK    1  A    between atoms: C1_1  and  C6_6 
REMARK    2  A    between atoms: C6_6  and  C7_7 
REMARK    3  A    between atoms: C7_7  and  C8_8 
ROOT
HETATM    1  C2  UNL     1     -33.678  14.932  -3.927  1.00 20.00     0.011 C 
HETATM    2  C7  UNL     1     -33.961  16.307  -4.560  1.00 20.00    -0.003 C 
ENDROOT
BRANCH   2   3
HETATM    3  C6  UNL     1     -35.252  16.210  -5.407  1.00 20.00     0.101 C 
BRANCH   3   4
HETATM    4  C1  UNL     1     -35.160  15.191  -6.536  1.00 20.00     0.219 C 
HETATM    5  O9  UNL     1     -35.976  14.287  -6.687  1.00 20.00    -0.280 OA
HETATM    6 CL10 UNL     1     -33.809  15.512  -7.588  1.00 20.00    -0.044 Cl
ENDBRANCH   3   4
ENDBRANCH   2   3
BRANCH   2   7
HETATM    7  C8  UNL     1     -34.003  17.482  -3.510  1.00 20.00    -0.048 C 
HETATM    8  C3  UNL     1     -35.426  18.075  -3.412  1.00 20.00     0.015 C 
HETATM    9  C4  UNL     1     -33.068  18.629  -3.956  1.00 20.00     0.015 C 
HETATM   10  C5  UNL     1     -33.573  17.027  -2.102  1.00 20.00     0.015 C 
ENDBRANCH   2   7
TORSDOF 3
ENDMDL
MODEL 9
REMARK VINA RESULT:      -3.4      2.473      3.732
REMARK  3 active torsions:
REMARK  status: ('A' for Active; 'I' for Inactive)
REMARK    1  A    between atoms: C1_1  and  C6_6 
REMARK    2  A    between atoms: C6_6  and  C7_7 
REMARK    3  A    between atoms: C7_7  and  C8_8 
ROOT
HETATM    1  C2  UNL     1     -34.085   7.328   6.593  1.00 20.00     0.011 C 
HETATM    2  C7  UNL     1     -33.440   6.942   5.249  1.00 20.00    -0.003 C 
ENDROOT
BRANCH   2   3
HETATM    3  C6  UNL     1     -34.454   6.107   4.430  1.00 20.00     0.101 C 
BRANCH   3   4
HETATM    4  C1  UNL     1     -33.893   4.775   3.949  1.00 20.00     0.219 C 
HETATM    5  O9  UNL     1     -34.066   3.721   4.553  1.00 20.00    -0.280 OA
HETATM    6 CL10 UNL     1     -33.047   4.938   2.435  1.00 20.00    -0.044 Cl
ENDBRANCH   3   4
ENDBRANCH   2   3
BRANCH   2   7
HETATM    7  C8  UNL     1     -32.874   8.176   4.449  1.00 20.00    -0.048 C 
HETATM    8  C3  UNL     1     -32.299   9.235   5.416  1.00 20.00     0.015 C 
HETATM    9  C4  UNL     1     -34.009   8.863   3.656  1.00 20.00     0.015 C 
HETATM   10  C5  UNL     1     -31.765   7.776   3.458  1.00 20.00     0.015 C 
ENDBRANCH   2   7
TORSDOF 3
ENDMDL
