MODEL 1
REMARK VINA RESULT:      -4.0      0.000      0.000
REMARK  2 active torsions:
REMARK  status: ('A' for Active; 'I' for Inactive)
REMARK    1  A    between atoms: C6_6  and  C8_8 
REMARK    2  A    between atoms: C8_8  and  N9_9 
ROOT
HETATM    1  C1  UNL     1     -32.337   8.046   1.865  1.00 20.00     0.157 C 
HETATM    2  N9  UNL     1     -32.152   7.290   2.750  1.00 20.00    -0.275 NA
HETATM    3  S10 UNL     1     -32.583   9.054   0.656  1.00 20.00    -0.055 SA
ENDROOT
BRANCH   2   4
HETATM    4  C8  UNL     1     -32.311   7.846   4.084  1.00 20.00     0.159 C 
BRANCH   4   5
HETATM    5  C6  UNL     1     -33.588   7.266   4.696  1.00 20.00    -0.026 C 
HETATM    6  C4  UNL     1     -33.388   6.893   6.171  1.00 20.00     0.011 C 
HETATM    7  C2  UNL     1     -34.461   5.847   6.465  1.00 20.00     0.001 C 
HETATM    8  C3  UNL     1     -34.816   5.212   5.121  1.00 20.00     0.001 C 
HETATM    9  C5  UNL     1     -33.943   5.907   4.078  1.00 20.00     0.011 C 
HETATM   10  C7  UNL     1     -34.735   8.274   4.525  1.00 20.00     0.017 C 
ENDBRANCH   4   5
ENDBRANCH   2   4
TORSDOF 2
ENDMDL
MODEL 2
REMARK VINA RESULT:      -3.9     15.389     16.337
REMARK  2 active torsions:
REMARK  status: ('A' for Active; 'I' for Inactive)
REMARK    1  A    between atoms: C6_6  and  C8_8 
REMARK    2  A    between atoms: C8_8  and  N9_9 
ROOT
HETATM    1  C1  UNL     1     -21.519  18.370   8.548  1.00 20.00     0.157 C 
HETATM    2  N9  UNL     1     -21.673  18.811   9.630  1.00 20.00    -0.275 NA
HETATM    3  S10 UNL     1     -21.293  17.772   7.089  1.00 20.00    -0.055 SA
ENDROOT
BRANCH   2   4
HETATM    4  C8  UNL     1     -23.035  19.202   9.952  1.00 20.00     0.159 C 
BRANCH   4   5
HETATM    5  C6  UNL     1     -23.513  18.347  11.128  1.00 20.00    -0.026 C 
HETATM    6  C4  UNL     1     -23.670  16.874  10.728  1.00 20.00     0.011 C 
HETATM    7  C2  UNL     1     -24.656  16.291  11.737  1.00 20.00     0.001 C 
HETATM    8  C3  UNL     1     -25.475  17.469  12.262  1.00 20.00     0.001 C 
HETATM    9  C5  UNL     1     -24.945  18.709  11.546  1.00 20.00     0.011 C 
HETATM   10  C7  UNL     1     -22.532  18.505  12.301  1.00 20.00     0.017 C 
ENDBRANCH   4   5
ENDBRANCH   2   4
TORSDOF 2
ENDMDL
MODEL 3
REMARK VINA RESULT:      -3.6     11.863     12.857
REMARK  2 active torsions:
REMARK  status: ('A' for Active; 'I' for Inactive)
REMARK    1  A    between atoms: C6_6  and  C8_8 
REMARK    2  A    between atoms: C8_8  and  N9_9 
ROOT
HETATM    1  C1  UNL     1     -30.770  18.744   1.212  1.00 20.00     0.157 C 
HETATM    2  N9  UNL     1     -31.373  18.620   0.207  1.00 20.00    -0.275 NA
HETATM    3  S10 UNL     1     -29.940  18.911   2.561  1.00 20.00    -0.055 SA
ENDROOT
BRANCH   2   4
HETATM    4  C8  UNL     1     -32.816  18.524   0.356  1.00 20.00     0.159 C 
BRANCH   4   5
HETATM    5  C6  UNL     1     -33.440  18.489  -1.041  1.00 20.00    -0.026 C 
HETATM    6  C4  UNL     1     -33.499  17.059  -1.597  1.00 20.00     0.011 C 
HETATM    7  C2  UNL     1     -33.571  17.226  -3.112  1.00 20.00     0.001 C 
HETATM    8  C3  UNL     1     -32.959  18.591  -3.421  1.00 20.00     0.001 C 
HETATM    9  C5  UNL     1     -32.548  19.187  -2.076  1.00 20.00     0.011 C 
HETATM   10  C7  UNL     1     -34.838  19.125  -0.988  1.00 20.00     0.017 C 
ENDBRANCH   4   5
ENDBRANCH   2   4
TORSDOF 2
ENDMDL
MODEL 4
REMARK VINA RESULT:      -3.6     10.040     10.880
REMARK  2 active torsions:
REMARK  status: ('A' for Active; 'I' for Inactive)
REMARK    1  A    between atoms: C6_6  and  C8_8 
REMARK    2  A    between atoms: C8_8  and  N9_9 
ROOT
HETATM    1  C1  UNL     1     -42.852   3.484  -2.690  1.00 20.00     0.157 C 
HETATM    2  N9  UNL     1     -42.729   4.511  -2.125  1.00 20.00    -0.275 NA
HETATM    3  S10 UNL     1     -43.010   2.103  -3.469  1.00 20.00    -0.055 SA
ENDROOT
BRANCH   2   4
HETATM    4  C8  UNL     1     -43.304   4.558  -0.790  1.00 20.00     0.159 C 
BRANCH   4   5
HETATM    5  C6  UNL     1     -42.563   5.629   0.013  1.00 20.00    -0.026 C 
HETATM    6  C4  UNL     1     -43.069   7.038  -0.324  1.00 20.00     0.011 C 
HETATM    7  C2  UNL     1     -41.924   7.973   0.057  1.00 20.00     0.001 C 
HETATM    8  C3  UNL     1     -40.651   7.129   0.009  1.00 20.00     0.001 C 
HETATM    9  C5  UNL     1     -41.087   5.723  -0.397  1.00 20.00     0.011 C 
HETATM   10  C7  UNL     1     -42.707   5.329   1.514  1.00 20.00     0.017 C 
ENDBRANCH   4   5
ENDBRANCH   2   4
TORSDOF 2
ENDMDL
MODEL 5
REMARK VINA RESULT:      -3.5     11.828     12.386
REMARK  2 active torsions:
REMARK  status: ('A' for Active; 'I' for Inactive)
REMARK    1  A    between atoms: C6_6  and  C8_8 
REMARK    2  A    between atoms: C8_8  and  N9_9 
ROOT
HETATM    1  C1  UNL     1     -34.041  16.141  -4.369  1.00 20.00     0.157 C 
HETATM    2  N9  UNL     1     -34.029  16.912  -3.478  1.00 20.00    -0.275 NA
HETATM    3  S10 UNL     1     -34.072  15.106  -5.579  1.00 20.00    -0.055 SA
ENDROOT
BRANCH   2   4
HETATM    4  C8  UNL     1     -32.912  16.780  -2.556  1.00 20.00     0.159 C 
BRANCH   4   5
HETATM    5  C6  UNL     1     -32.912  17.996  -1.627  1.00 20.00    -0.026 C 
HETATM    6  C4  UNL     1     -31.590  18.118  -0.857  1.00 20.00     0.011 C 
HETATM    7  C2  UNL     1     -31.927  18.945   0.381  1.00 20.00     0.001 C 
HETATM    8  C3  UNL     1     -33.425  18.763   0.621  1.00 20.00     0.001 C 
HETATM    9  C5  UNL     1     -33.923  17.835  -0.484  1.00 20.00     0.011 C 
HETATM   10  C7  UNL     1     -33.197  19.263  -2.450  1.00 20.00     0.017 C 
ENDBRANCH   4   5
ENDBRANCH   2   4
TORSDOF 2
ENDMDL
MODEL 6
REMARK VINA RESULT:      -3.4      9.559     10.811
REMARK  2 active torsions:
REMARK  status: ('A' for Active; 'I' for Inactive)
REMARK    1  A    between atoms: C6_6  and  C8_8 
REMARK    2  A    between atoms: C8_8  and  N9_9 
ROOT
HETATM    1  C1  UNL     1     -40.740  16.648   7.459  1.00 20.00     0.157 C 
HETATM    2  N9  UNL     1     -40.732  15.469   7.476  1.00 20.00    -0.275 NA
HETATM    3  S10 UNL     1     -40.737  18.241   7.449  1.00 20.00    -0.055 SA
ENDROOT
BRANCH   2   4
HETATM    4  C8  UNL     1     -41.670  14.829   6.569  1.00 20.00     0.159 C 
BRANCH   4   5
HETATM    5  C6  UNL     1     -41.186  13.400   6.311  1.00 20.00    -0.026 C 
HETATM    6  C4  UNL     1     -39.848  13.122   7.010  1.00 20.00     0.011 C 
HETATM    7  C2  UNL     1     -39.228  11.963   6.234  1.00 20.00     0.001 C 
HETATM    8  C3  UNL     1     -39.848  12.004   4.838  1.00 20.00     0.001 C 
HETATM    9  C5  UNL     1     -40.816  13.186   4.837  1.00 20.00     0.011 C 
HETATM   10  C7  UNL     1     -42.270  12.408   6.764  1.00 20.00     0.017 C 
ENDBRANCH   4   5
ENDBRANCH   2   4
TORSDOF 2
ENDMDL
MODEL 7
REMARK VINA RESULT:      -3.4      9.452     10.881
REMARK  2 active torsions:
REMARK  status: ('A' for Active; 'I' for Inactive)
REMARK    1  A    between atoms: C6_6  and  C8_8 
REMARK    2  A    between atoms: C8_8  and  N9_9 
ROOT
HETATM    1  C1  UNL     1     -39.676  12.109   5.646  1.00 20.00     0.157 C 
HETATM    2  N9  UNL     1     -40.099  12.444   6.694  1.00 20.00    -0.275 NA
HETATM    3  S10 UNL     1     -39.090  11.652   4.237  1.00 20.00    -0.055 SA
ENDROOT
BRANCH   2   4
HETATM    4  C8  UNL     1     -41.478  12.903   6.689  1.00 20.00     0.159 C 
BRANCH   4   5
HETATM    5  C6  UNL     1     -41.582  14.115   7.618  1.00 20.00    -0.026 C 
HETATM    6  C4  UNL     1     -41.479  15.434   6.839  1.00 20.00     0.011 C 
HETATM    7  C2  UNL     1     -41.019  16.466   7.865  1.00 20.00     0.001 C 
HETATM    8  C3  UNL     1     -40.306  15.683   8.967  1.00 20.00     0.001 C 
HETATM    9  C5  UNL     1     -40.371  14.214   8.556  1.00 20.00     0.011 C 
HETATM   10  C7  UNL     1     -42.896  14.036   8.411  1.00 20.00     0.017 C 
ENDBRANCH   4   5
ENDBRANCH   2   4
TORSDOF 2
ENDMDL
MODEL 8
REMARK VINA RESULT:      -3.4     13.193     14.069
REMARK  2 active torsions:
REMARK  status: ('A' for Active; 'I' for Inactive)
REMARK    1  A    between atoms: C6_6  and  C8_8 
REMARK    2  A    between atoms: C8_8  and  N9_9 
ROOT
HETATM    1  C1  UNL     1     -23.766  -3.168   9.253  1.00 20.00     0.157 C 
HETATM    2  N9  UNL     1     -24.250  -2.866  10.284  1.00 20.00    -0.275 NA
HETATM    3  S10 UNL     1     -23.099  -3.565   7.862  1.00 20.00    -0.055 SA
ENDROOT
BRANCH   2   4
HETATM    4  C8  UNL     1     -25.484  -3.560  10.618  1.00 20.00     0.159 C 
BRANCH   4   5
HETATM    5  C6  UNL     1     -26.474  -2.535  11.176  1.00 20.00    -0.026 C 
HETATM    6  C4  UNL     1     -27.296  -1.879  10.058  1.00 20.00     0.011 C 
HETATM    7  C2  UNL     1     -27.769  -0.550  10.642  1.00 20.00     0.001 C 
HETATM    8  C3  UNL     1     -26.777  -0.193  11.748  1.00 20.00     0.001 C 
HETATM    9  C5  UNL     1     -25.752  -1.324  11.781  1.00 20.00     0.011 C 
HETATM   10  C7  UNL     1     -27.382  -3.218  12.210  1.00 20.00     0.017 C 
ENDBRANCH   4   5
ENDBRANCH   2   4
TORSDOF 2
ENDMDL
MODEL 9
REMARK VINA RESULT:      -3.4     12.145     13.371
REMARK  2 active torsions:
REMARK  status: ('A' for Active; 'I' for Inactive)
REMARK    1  A    between atoms: C6_6  and  C8_8 
REMARK    2  A    between atoms: C8_8  and  N9_9 
ROOT
HETATM    1  C1  UNL     1     -31.188  18.838   0.062  1.00 20.00     0.157 C 
HETATM    2  N9  UNL     1     -31.660  18.643  -1.000  1.00 20.00    -0.275 NA
HETATM    3  S10 UNL     1     -30.534  19.110   1.489  1.00 20.00    -0.055 SA
ENDROOT
BRANCH   2   4
HETATM    4  C8  UNL     1     -32.929  17.933  -0.994  1.00 20.00     0.159 C 
BRANCH   4   5
HETATM    5  C6  UNL     1     -33.464  17.896  -2.427  1.00 20.00    -0.026 C 
HETATM    6  C4  UNL     1     -32.769  18.937  -3.316  1.00 20.00     0.011 C 
HETATM    7  C2  UNL     1     -33.743  19.193  -4.463  1.00 20.00     0.001 C 
HETATM    8  C3  UNL     1     -35.129  18.821  -3.937  1.00 20.00     0.001 C 
HETATM    9  C5  UNL     1     -34.927  18.356  -2.497  1.00 20.00     0.011 C 
HETATM   10  C7  UNL     1     -33.298  16.478  -2.995  1.00 20.00     0.017 C 
ENDBRANCH   4   5
ENDBRANCH   2   4
TORSDOF 2
ENDMDL
