MODEL 1
REMARK VINA RESULT:      -5.3      0.000      0.000
REMARK  4 active torsions:
REMARK  status: ('A' for Active; 'I' for Inactive)
REMARK    1  A    between atoms: C8_8  and  C11_11 
REMARK    2  A    between atoms: C9_9  and  C10_10 
REMARK    3  A    between atoms: C10_10  and  C11_11 
REMARK    4  A    between atoms: C11_11  and  O12_12 
ROOT
HETATM    1  C1  UNL     1     -32.587   9.077   0.028  1.00 20.00     0.012 C 
HETATM    2  C2  UNL     1     -32.625   9.063   1.227  1.00 20.00    -0.117 C 
HETATM    3  C9  UNL     1     -32.673   9.052   2.695  1.00 20.00     0.095 C 
ENDROOT
BRANCH   3   4
HETATM    4  C10 UNL     1     -31.859   7.900   3.294  1.00 20.00     0.044 C 
BRANCH   4   5
HETATM    5  C11 UNL     1     -32.710   6.697   3.719  1.00 20.00     0.123 C 
BRANCH   5   6
HETATM    6  C8  UNL     1     -34.080   7.151   4.234  1.00 20.00     0.018 C 
HETATM    7  C6  UNL     1     -33.986   7.721   5.661  1.00 20.00     0.034 C 
HETATM    8  C4  UNL     1     -33.988   6.673   6.737  1.00 20.00    -0.030 C 
HETATM    9  C3  UNL     1     -34.343   5.400   6.519  1.00 20.00    -0.031 C 
HETATM   10  C5  UNL     1     -34.801   4.891   5.185  1.00 20.00     0.027 C 
HETATM   11  C7  UNL     1     -35.108   6.011   4.184  1.00 20.00     0.011 C 
ENDBRANCH   5   6
BRANCH   5  12
HETATM   12  O12 UNL     1     -32.905   5.840   2.599  1.00 20.00    -0.395 OA
HETATM   13  H28 UNL     1     -32.410   6.231   1.862  1.00 20.00     0.210 HD
ENDBRANCH   5  12
ENDBRANCH   4   5
ENDBRANCH   3   4
TORSDOF 4
ENDMDL
MODEL 2
REMARK VINA RESULT:      -4.6     11.398     12.815
REMARK  4 active torsions:
REMARK  status: ('A' for Active; 'I' for Inactive)
REMARK    1  A    between atoms: C8_8  and  C11_11 
REMARK    2  A    between atoms: C9_9  and  C10_10 
REMARK    3  A    between atoms: C10_10  and  C11_11 
REMARK    4  A    between atoms: C11_11  and  O12_12 
ROOT
HETATM    1  C1  UNL     1     -32.287  18.569  -1.386  1.00 20.00     0.012 C 
HETATM    2  C2  UNL     1     -32.887  17.625  -1.821  1.00 20.00    -0.117 C 
HETATM    3  C9  UNL     1     -33.624  16.468  -2.347  1.00 20.00     0.095 C 
ENDROOT
BRANCH   3   4
HETATM    4  C10 UNL     1     -33.029  15.950  -3.661  1.00 20.00     0.044 C 
BRANCH   4   5
HETATM    5  C11 UNL     1     -33.945  14.976  -4.411  1.00 20.00     0.123 C 
BRANCH   5   6
HETATM    6  C8  UNL     1     -34.300  15.516  -5.801  1.00 20.00     0.018 C 
HETATM    7  C6  UNL     1     -34.375  17.054  -5.805  1.00 20.00     0.034 C 
HETATM    8  C4  UNL     1     -35.685  17.601  -5.315  1.00 20.00    -0.030 C 
HETATM    9  C3  UNL     1     -36.787  16.852  -5.179  1.00 20.00    -0.031 C 
HETATM   10  C5  UNL     1     -36.838  15.393  -5.525  1.00 20.00     0.027 C 
HETATM   11  C7  UNL     1     -35.616  14.918  -6.319  1.00 20.00     0.011 C 
ENDBRANCH   5   6
BRANCH   5  12
HETATM   12  O12 UNL     1     -33.276  13.727  -4.566  1.00 20.00    -0.395 OA
HETATM   13  H28 UNL     1     -33.794  13.213  -5.204  1.00 20.00     0.210 HD
ENDBRANCH   5  12
ENDBRANCH   4   5
ENDBRANCH   3   4
TORSDOF 4
ENDMDL
MODEL 3
REMARK VINA RESULT:      -4.4     11.580     13.548
REMARK  4 active torsions:
REMARK  status: ('A' for Active; 'I' for Inactive)
REMARK    1  A    between atoms: C8_8  and  C11_11 
REMARK    2  A    between atoms: C9_9  and  C10_10 
REMARK    3  A    between atoms: C10_10  and  C11_11 
REMARK    4  A    between atoms: C11_11  and  O12_12 
ROOT
HETATM    1  C1  UNL     1     -33.399  16.676  -2.652  1.00 20.00     0.012 C 
HETATM    2  C2  UNL     1     -33.450  15.773  -3.441  1.00 20.00    -0.117 C 
HETATM    3  C9  UNL     1     -33.509  14.664  -4.402  1.00 20.00     0.095 C 
ENDROOT
BRANCH   3   4
HETATM    4  C10 UNL     1     -33.977  15.121  -5.788  1.00 20.00     0.044 C 
BRANCH   4   5
HETATM    5  C11 UNL     1     -35.501  15.145  -5.949  1.00 20.00     0.123 C 
BRANCH   5   6
HETATM    6  C8  UNL     1     -35.952  16.392  -6.717  1.00 20.00     0.018 C 
HETATM    7  C6  UNL     1     -35.106  17.623  -6.340  1.00 20.00     0.034 C 
HETATM    8  C4  UNL     1     -35.552  18.304  -5.078  1.00 20.00    -0.030 C 
HETATM    9  C3  UNL     1     -36.737  18.071  -4.498  1.00 20.00    -0.031 C 
HETATM   10  C5  UNL     1     -37.755  17.124  -5.060  1.00 20.00     0.027 C 
HETATM   11  C7  UNL     1     -37.443  16.684  -6.495  1.00 20.00     0.011 C 
ENDBRANCH   5   6
BRANCH   5  12
HETATM   12  O12 UNL     1     -35.916  13.991  -6.672  1.00 20.00    -0.395 OA
HETATM   13  H28 UNL     1     -36.671  14.262  -7.217  1.00 20.00     0.210 HD
ENDBRANCH   5  12
ENDBRANCH   4   5
ENDBRANCH   3   4
TORSDOF 4
ENDMDL
MODEL 4
REMARK VINA RESULT:      -4.2      9.802     10.812
REMARK  4 active torsions:
REMARK  status: ('A' for Active; 'I' for Inactive)
REMARK    1  A    between atoms: C8_8  and  C11_11 
REMARK    2  A    between atoms: C9_9  and  C10_10 
REMARK    3  A    between atoms: C10_10  and  C11_11 
REMARK    4  A    between atoms: C11_11  and  O12_12 
ROOT
HETATM    1  C1  UNL     1     -38.838  11.588   3.509  1.00 20.00     0.012 C 
HETATM    2  C2  UNL     1     -39.213  11.844   4.620  1.00 20.00    -0.117 C 
HETATM    3  C9  UNL     1     -39.667  12.152   5.983  1.00 20.00     0.095 C 
ENDROOT
BRANCH   3   4
HETATM    4  C10 UNL     1     -41.050  12.813   5.998  1.00 20.00     0.044 C 
BRANCH   4   5
HETATM    5  C11 UNL     1     -41.751  12.747   7.360  1.00 20.00     0.123 C 
BRANCH   5   6
HETATM    6  C8  UNL     1     -42.380  14.097   7.718  1.00 20.00     0.018 C 
HETATM    7  C6  UNL     1     -41.560  15.270   7.149  1.00 20.00     0.034 C 
HETATM    8  C4  UNL     1     -40.380  15.655   7.995  1.00 20.00    -0.030 C 
HETATM    9  C3  UNL     1     -40.220  15.244   9.260  1.00 20.00    -0.031 C 
HETATM   10  C5  UNL     1     -41.213  14.377   9.975  1.00 20.00     0.027 C 
HETATM   11  C7  UNL     1     -42.551  14.255   9.236  1.00 20.00     0.011 C 
ENDBRANCH   5   6
BRANCH   5  12
HETATM   12  O12 UNL     1     -42.781  11.764   7.311  1.00 20.00    -0.395 OA
HETATM   13  H28 UNL     1     -42.352  10.925   7.080  1.00 20.00     0.210 HD
ENDBRANCH   5  12
ENDBRANCH   4   5
ENDBRANCH   3   4
TORSDOF 4
ENDMDL
MODEL 5
REMARK VINA RESULT:      -4.1     11.769     13.414
REMARK  4 active torsions:
REMARK  status: ('A' for Active; 'I' for Inactive)
REMARK    1  A    between atoms: C8_8  and  C11_11 
REMARK    2  A    between atoms: C9_9  and  C10_10 
REMARK    3  A    between atoms: C10_10  and  C11_11 
REMARK    4  A    between atoms: C11_11  and  O12_12 
ROOT
HETATM    1  C1  UNL     1     -33.690  18.005  -0.389  1.00 20.00     0.012 C 
HETATM    2  C2  UNL     1     -33.585  17.319  -1.368  1.00 20.00    -0.117 C 
HETATM    3  C9  UNL     1     -33.453  16.475  -2.564  1.00 20.00     0.095 C 
ENDROOT
BRANCH   3   4
HETATM    4  C10 UNL     1     -33.496  17.293  -3.859  1.00 20.00     0.044 C 
BRANCH   4   5
HETATM    5  C11 UNL     1     -34.777  17.088  -4.676  1.00 20.00     0.123 C 
BRANCH   5   6
HETATM    6  C8  UNL     1     -34.963  15.612  -5.043  1.00 20.00     0.018 C 
HETATM    7  C6  UNL     1     -33.822  15.107  -5.946  1.00 20.00     0.034 C 
HETATM    8  C4  UNL     1     -34.006  15.437  -7.399  1.00 20.00    -0.030 C 
HETATM    9  C3  UNL     1     -35.172  15.849  -7.916  1.00 20.00    -0.031 C 
HETATM   10  C5  UNL     1     -36.423  16.001  -7.104  1.00 20.00     0.027 C 
HETATM   11  C7  UNL     1     -36.322  15.363  -5.713  1.00 20.00     0.011 C 
ENDBRANCH   5   6
BRANCH   5  12
HETATM   12  O12 UNL     1     -35.898  17.510  -3.906  1.00 20.00    -0.395 OA
HETATM   13  H28 UNL     1     -36.610  17.703  -4.536  1.00 20.00     0.210 HD
ENDBRANCH   5  12
ENDBRANCH   4   5
ENDBRANCH   3   4
TORSDOF 4
ENDMDL
MODEL 6
REMARK VINA RESULT:      -4.1     10.199     11.315
REMARK  4 active torsions:
REMARK  status: ('A' for Active; 'I' for Inactive)
REMARK    1  A    between atoms: C8_8  and  C11_11 
REMARK    2  A    between atoms: C9_9  and  C10_10 
REMARK    3  A    between atoms: C10_10  and  C11_11 
REMARK    4  A    between atoms: C11_11  and  O12_12 
ROOT
HETATM    1  C1  UNL     1     -38.915  11.680   3.477  1.00 20.00     0.012 C 
HETATM    2  C2  UNL     1     -39.339  11.719   4.599  1.00 20.00    -0.117 C 
HETATM    3  C9  UNL     1     -39.856  11.761   5.973  1.00 20.00     0.095 C 
ENDROOT
BRANCH   3   4
HETATM    4  C10 UNL     1     -40.962  12.808   6.146  1.00 20.00     0.044 C 
BRANCH   4   5
HETATM    5  C11 UNL     1     -40.580  13.960   7.083  1.00 20.00     0.123 C 
BRANCH   5   6
HETATM    6  C8  UNL     1     -41.825  14.575   7.732  1.00 20.00     0.018 C 
HETATM    7  C6  UNL     1     -42.859  15.002   6.673  1.00 20.00     0.034 C 
HETATM    8  C4  UNL     1     -42.582  16.343   6.058  1.00 20.00    -0.030 C 
HETATM    9  C3  UNL     1     -41.715  17.223   6.577  1.00 20.00    -0.031 C 
HETATM   10  C5  UNL     1     -40.947  16.972   7.841  1.00 20.00     0.027 C 
HETATM   11  C7  UNL     1     -41.463  15.765   8.632  1.00 20.00     0.011 C 
ENDBRANCH   5   6
BRANCH   5  12
HETATM   12  O12 UNL     1     -39.728  13.466   8.112  1.00 20.00    -0.395 OA
HETATM   13  H28 UNL     1     -40.270  13.403   8.914  1.00 20.00     0.210 HD
ENDBRANCH   5  12
ENDBRANCH   4   5
ENDBRANCH   3   4
TORSDOF 4
ENDMDL
MODEL 7
REMARK VINA RESULT:      -3.9     11.840     13.857
REMARK  4 active torsions:
REMARK  status: ('A' for Active; 'I' for Inactive)
REMARK    1  A    between atoms: C8_8  and  C11_11 
REMARK    2  A    between atoms: C9_9  and  C10_10 
REMARK    3  A    between atoms: C10_10  and  C11_11 
REMARK    4  A    between atoms: C11_11  and  O12_12 
ROOT
HETATM    1  C1  UNL     1     -33.013  14.788  -4.224  1.00 20.00     0.012 C 
HETATM    2  C2  UNL     1     -33.304  15.778  -3.610  1.00 20.00    -0.117 C 
HETATM    3  C9  UNL     1     -33.659  16.986  -2.854  1.00 20.00     0.095 C 
ENDROOT
BRANCH   3   4
HETATM    4  C10 UNL     1     -34.441  17.994  -3.703  1.00 20.00     0.044 C 
BRANCH   4   5
HETATM    5  C11 UNL     1     -34.208  17.843  -5.211  1.00 20.00     0.123 C 
BRANCH   5   6
HETATM    6  C8  UNL     1     -35.536  17.843  -5.975  1.00 20.00     0.018 C 
HETATM    7  C6  UNL     1     -36.584  16.951  -5.283  1.00 20.00     0.034 C 
HETATM    8  C4  UNL     1     -36.455  15.492  -5.613  1.00 20.00    -0.030 C 
HETATM    9  C3  UNL     1     -35.717  15.034  -6.633  1.00 20.00    -0.031 C 
HETATM   10  C5  UNL     1     -34.961  15.930  -7.569  1.00 20.00     0.027 C 
HETATM   11  C7  UNL     1     -35.348  17.407  -7.435  1.00 20.00     0.011 C 
ENDBRANCH   5   6
BRANCH   5  12
HETATM   12  O12 UNL     1     -33.416  18.932  -5.675  1.00 20.00    -0.395 OA
HETATM   13  H28 UNL     1     -32.689  19.036  -5.042  1.00 20.00     0.210 HD
ENDBRANCH   5  12
ENDBRANCH   4   5
ENDBRANCH   3   4
TORSDOF 4
ENDMDL
MODEL 8
REMARK VINA RESULT:      -3.9     10.301     11.398
REMARK  4 active torsions:
REMARK  status: ('A' for Active; 'I' for Inactive)
REMARK    1  A    between atoms: C8_8  and  C11_11 
REMARK    2  A    between atoms: C9_9  and  C10_10 
REMARK    3  A    between atoms: C10_10  and  C11_11 
REMARK    4  A    between atoms: C11_11  and  O12_12 
ROOT
HETATM    1  C1  UNL     1     -38.919  11.687   3.975  1.00 20.00     0.012 C 
HETATM    2  C2  UNL     1     -39.687  11.883   4.876  1.00 20.00    -0.117 C 
HETATM    3  C9  UNL     1     -40.630  12.116   5.978  1.00 20.00     0.095 C 
ENDROOT
BRANCH   3   4
HETATM    4  C10 UNL     1     -40.952  13.604   6.161  1.00 20.00     0.044 C 
BRANCH   4   5
HETATM    5  C11 UNL     1     -40.561  14.155   7.538  1.00 20.00     0.123 C 
BRANCH   5   6
HETATM    6  C8  UNL     1     -41.792  14.301   8.439  1.00 20.00     0.018 C 
HETATM    7  C6  UNL     1     -42.671  15.488   8.006  1.00 20.00     0.034 C 
HETATM    8  C4  UNL     1     -42.199  16.816   8.525  1.00 20.00    -0.030 C 
HETATM    9  C3  UNL     1     -41.299  16.941   9.509  1.00 20.00    -0.031 C 
HETATM   10  C5  UNL     1     -40.685  15.768  10.215  1.00 20.00     0.027 C 
HETATM   11  C7  UNL     1     -41.396  14.443   9.916  1.00 20.00     0.011 C 
ENDBRANCH   5   6
BRANCH   5  12
HETATM   12  O12 UNL     1     -39.645  13.260   8.160  1.00 20.00    -0.395 OA
HETATM   13  H28 UNL     1     -38.756  13.604   7.980  1.00 20.00     0.210 HD
ENDBRANCH   5  12
ENDBRANCH   4   5
ENDBRANCH   3   4
TORSDOF 4
ENDMDL
MODEL 9
REMARK VINA RESULT:      -3.7     10.169     11.251
REMARK  4 active torsions:
REMARK  status: ('A' for Active; 'I' for Inactive)
REMARK    1  A    between atoms: C8_8  and  C11_11 
REMARK    2  A    between atoms: C9_9  and  C10_10 
REMARK    3  A    between atoms: C10_10  and  C11_11 
REMARK    4  A    between atoms: C11_11  and  O12_12 
ROOT
HETATM    1  C1  UNL     1     -39.009  11.638   3.891  1.00 20.00     0.012 C 
HETATM    2  C2  UNL     1     -39.331  12.011   4.986  1.00 20.00    -0.117 C 
HETATM    3  C9  UNL     1     -39.719  12.463   6.329  1.00 20.00     0.095 C 
ENDROOT
BRANCH   3   4
HETATM    4  C10 UNL     1     -41.230  12.690   6.450  1.00 20.00     0.044 C 
BRANCH   4   5
HETATM    5  C11 UNL     1     -41.610  14.123   6.842  1.00 20.00     0.123 C 
BRANCH   5   6
HETATM    6  C8  UNL     1     -40.466  14.805   7.600  1.00 20.00     0.018 C 
HETATM    7  C6  UNL     1     -40.410  14.346   9.069  1.00 20.00     0.034 C 
HETATM    8  C4  UNL     1     -41.369  15.070   9.970  1.00 20.00    -0.030 C 
HETATM    9  C3  UNL     1     -41.991  16.204   9.619  1.00 20.00    -0.031 C 
HETATM   10  C5  UNL     1     -41.776  16.885   8.300  1.00 20.00     0.027 C 
HETATM   11  C7  UNL     1     -40.573  16.335   7.525  1.00 20.00     0.011 C 
ENDBRANCH   5   6
BRANCH   5  12
HETATM   12  O12 UNL     1     -41.887  14.874   5.664  1.00 20.00    -0.395 OA
HETATM   13  H28 UNL     1     -42.621  15.469   5.881  1.00 20.00     0.210 HD
ENDBRANCH   5  12
ENDBRANCH   4   5
ENDBRANCH   3   4
TORSDOF 4
ENDMDL
