MODEL 1
REMARK VINA RESULT:      -4.4      0.000      0.000
REMARK  3 active torsions:
REMARK  status: ('A' for Active; 'I' for Inactive)
REMARK    1  A    between atoms: C5_5  and  C9_9 
REMARK    2  A    between atoms: C8_8  and  N10_10 
REMARK    3  A    between atoms: C9_9  and  N10_10 
ROOT
HETATM    1  C1  UNL     1     -32.242   9.009   4.844  1.00 20.00     0.013 C 
HETATM    2  C2  UNL     1     -32.252   8.171   3.985  1.00 20.00    -0.087 C 
HETATM    3  C8  UNL     1     -32.261   7.151   2.933  1.00 20.00     0.364 C 
ENDROOT
BRANCH   3   4
HETATM    4  N10 UNL     1     -33.000   5.957   3.373  1.00 20.00     0.095 N 
HETATM    5  C7  UNL     1     -32.942   4.929   2.322  1.00 20.00     0.310 C 
BRANCH   4   6
HETATM    6  C9  UNL     1     -34.358   6.279   3.718  1.00 20.00     0.278 C 
BRANCH   6   7
HETATM    7  C5  UNL     1     -34.891   5.340   4.745  1.00 20.00     0.018 A 
HETATM    8  C3  UNL     1     -33.950   4.595   5.655  1.00 20.00     0.011 A 
HETATM    9  C4  UNL     1     -34.861   5.653   6.222  1.00 20.00    -0.012 A 
HETATM   10  C6  UNL     1     -34.296   6.923   6.761  1.00 20.00     0.010 C 
ENDBRANCH   6   7
ENDBRANCH   4   6
ENDBRANCH   3   4
TORSDOF 3
ENDMDL
MODEL 2
REMARK VINA RESULT:      -4.2      1.174      2.830
REMARK  3 active torsions:
REMARK  status: ('A' for Active; 'I' for Inactive)
REMARK    1  A    between atoms: C5_5  and  C9_9 
REMARK    2  A    between atoms: C8_8  and  N10_10 
REMARK    3  A    between atoms: C9_9  and  N10_10 
ROOT
HETATM    1  C1  UNL     1     -32.924   5.197   2.598  1.00 20.00     0.013 C 
HETATM    2  C2  UNL     1     -32.539   6.328   2.715  1.00 20.00    -0.087 C 
HETATM    3  C8  UNL     1     -32.064   7.707   2.855  1.00 20.00     0.364 C 
ENDROOT
BRANCH   3   4
HETATM    4  N10 UNL     1     -32.894   8.446   3.820  1.00 20.00     0.095 N 
HETATM    5  C7  UNL     1     -32.029   9.065   4.837  1.00 20.00     0.310 C 
BRANCH   4   6
HETATM    6  C9  UNL     1     -33.884   7.595   4.421  1.00 20.00     0.278 C 
BRANCH   6   7
HETATM    7  C5  UNL     1     -33.480   7.185   5.795  1.00 20.00     0.018 A 
HETATM    8  C3  UNL     1     -34.493   7.159   6.910  1.00 20.00     0.011 A 
HETATM    9  C4  UNL     1     -33.900   5.868   6.405  1.00 20.00    -0.012 A 
HETATM   10  C6  UNL     1     -34.751   4.884   5.677  1.00 20.00     0.010 C 
ENDBRANCH   6   7
ENDBRANCH   4   6
ENDBRANCH   3   4
TORSDOF 3
ENDMDL
MODEL 3
REMARK VINA RESULT:      -4.1      1.500      2.808
REMARK  3 active torsions:
REMARK  status: ('A' for Active; 'I' for Inactive)
REMARK    1  A    between atoms: C5_5  and  C9_9 
REMARK    2  A    between atoms: C8_8  and  N10_10 
REMARK    3  A    between atoms: C9_9  and  N10_10 
ROOT
HETATM    1  C1  UNL     1     -32.197   8.404   0.641  1.00 20.00     0.013 C 
HETATM    2  C2  UNL     1     -32.179   8.029   1.781  1.00 20.00    -0.087 C 
HETATM    3  C8  UNL     1     -32.155   7.567   3.171  1.00 20.00     0.364 C 
ENDROOT
BRANCH   3   4
HETATM    4  N10 UNL     1     -32.918   8.482   4.036  1.00 20.00     0.095 N 
HETATM    5  C7  UNL     1     -32.033   9.020   5.082  1.00 20.00     0.310 C 
BRANCH   4   6
HETATM    6  C9  UNL     1     -34.066   7.832   4.605  1.00 20.00     0.278 C 
BRANCH   6   7
HETATM    7  C5  UNL     1     -33.691   7.022   5.798  1.00 20.00     0.018 A 
HETATM    8  C3  UNL     1     -34.757   6.472   6.709  1.00 20.00     0.011 A 
HETATM    9  C4  UNL     1     -33.928   5.532   5.873  1.00 20.00    -0.012 A 
HETATM   10  C6  UNL     1     -34.556   4.764   4.760  1.00 20.00     0.010 C 
ENDBRANCH   6   7
ENDBRANCH   4   6
ENDBRANCH   3   4
TORSDOF 3
ENDMDL
MODEL 4
REMARK VINA RESULT:      -4.1      1.568      2.567
REMARK  3 active torsions:
REMARK  status: ('A' for Active; 'I' for Inactive)
REMARK    1  A    between atoms: C5_5  and  C9_9 
REMARK    2  A    between atoms: C8_8  and  N10_10 
REMARK    3  A    between atoms: C9_9  and  N10_10 
ROOT
HETATM    1  C1  UNL     1     -32.591   9.100   0.440  1.00 20.00     0.013 C 
HETATM    2  C2  UNL     1     -32.402   8.433   1.420  1.00 20.00    -0.087 C 
HETATM    3  C8  UNL     1     -32.168   7.616   2.613  1.00 20.00     0.364 C 
ENDROOT
BRANCH   3   4
HETATM    4  N10 UNL     1     -32.929   8.139   3.759  1.00 20.00     0.095 N 
HETATM    5  C7  UNL     1     -32.202   9.270   4.356  1.00 20.00     0.310 C 
BRANCH   4   6
HETATM    6  C9  UNL     1     -33.189   7.111   4.729  1.00 20.00     0.278 C 
BRANCH   6   7
HETATM    7  C5  UNL     1     -34.273   6.198   4.270  1.00 20.00     0.018 A 
HETATM    8  C3  UNL     1     -34.036   4.713   4.196  1.00 20.00     0.011 A 
HETATM    9  C4  UNL     1     -35.002   5.267   5.211  1.00 20.00    -0.012 A 
HETATM   10  C6  UNL     1     -34.688   5.193   6.666  1.00 20.00     0.010 C 
ENDBRANCH   6   7
ENDBRANCH   4   6
ENDBRANCH   3   4
TORSDOF 3
ENDMDL
MODEL 5
REMARK VINA RESULT:      -3.9      1.396      2.950
REMARK  3 active torsions:
REMARK  status: ('A' for Active; 'I' for Inactive)
REMARK    1  A    between atoms: C5_5  and  C9_9 
REMARK    2  A    between atoms: C8_8  and  N10_10 
REMARK    3  A    between atoms: C9_9  and  N10_10 
ROOT
HETATM    1  C1  UNL     1     -32.168   7.224   2.218  1.00 20.00     0.013 C 
HETATM    2  C2  UNL     1     -32.215   7.712   3.313  1.00 20.00    -0.087 C 
HETATM    3  C8  UNL     1     -32.268   8.310   4.650  1.00 20.00     0.364 C 
ENDROOT
BRANCH   3   4
HETATM    4  N10 UNL     1     -33.553   8.010   5.303  1.00 20.00     0.095 N 
HETATM    5  C7  UNL     1     -33.955   9.151   6.140  1.00 20.00     0.310 C 
BRANCH   4   6
HETATM    6  C9  UNL     1     -33.481   6.797   6.070  1.00 20.00     0.278 C 
BRANCH   6   7
HETATM    7  C5  UNL     1     -34.703   5.966   5.881  1.00 20.00     0.018 A 
HETATM    8  C3  UNL     1     -35.487   6.048   4.597  1.00 20.00     0.011 A 
HETATM    9  C4  UNL     1     -34.742   4.783   4.941  1.00 20.00    -0.012 A 
HETATM   10  C6  UNL     1     -33.562   4.363   4.134  1.00 20.00     0.010 C 
ENDBRANCH   6   7
ENDBRANCH   4   6
ENDBRANCH   3   4
TORSDOF 3
ENDMDL
MODEL 6
REMARK VINA RESULT:      -3.7      1.275      3.957
REMARK  3 active torsions:
REMARK  status: ('A' for Active; 'I' for Inactive)
REMARK    1  A    between atoms: C5_5  and  C9_9 
REMARK    2  A    between atoms: C8_8  and  N10_10 
REMARK    3  A    between atoms: C9_9  and  N10_10 
ROOT
HETATM    1  C1  UNL     1     -32.831   5.080   2.298  1.00 20.00     0.013 C 
HETATM    2  C2  UNL     1     -33.527   5.105   3.276  1.00 20.00    -0.087 C 
HETATM    3  C8  UNL     1     -34.379   5.131   4.468  1.00 20.00     0.364 C 
ENDROOT
BRANCH   3   4
HETATM    4  N10 UNL     1     -34.031   6.272   5.331  1.00 20.00     0.095 N 
HETATM    5  C7  UNL     1     -34.744   6.153   6.612  1.00 20.00     0.310 C 
BRANCH   4   6
HETATM    6  C9  UNL     1     -34.317   7.524   4.685  1.00 20.00     0.278 C 
BRANCH   6   7
HETATM    7  C5  UNL     1     -33.198   8.491   4.864  1.00 20.00     0.018 A 
HETATM    8  C3  UNL     1     -31.791   8.103   4.491  1.00 20.00     0.011 A 
HETATM    9  C4  UNL     1     -32.512   9.163   3.697  1.00 20.00    -0.012 A 
HETATM   10  C6  UNL     1     -32.904   8.905   2.283  1.00 20.00     0.010 C 
ENDBRANCH   6   7
ENDBRANCH   4   6
ENDBRANCH   3   4
TORSDOF 3
ENDMDL
MODEL 7
REMARK VINA RESULT:      -3.7     12.103     13.401
REMARK  3 active torsions:
REMARK  status: ('A' for Active; 'I' for Inactive)
REMARK    1  A    between atoms: C5_5  and  C9_9 
REMARK    2  A    between atoms: C8_8  and  N10_10 
REMARK    3  A    between atoms: C9_9  and  N10_10 
ROOT
HETATM    1  C1  UNL     1     -31.288  18.690  -0.175  1.00 20.00     0.013 C 
HETATM    2  C2  UNL     1     -32.188  18.211  -0.810  1.00 20.00    -0.087 C 
HETATM    3  C8  UNL     1     -33.288  17.626  -1.580  1.00 20.00     0.364 C 
ENDROOT
BRANCH   3   4
HETATM    4  N10 UNL     1     -33.017  17.716  -3.024  1.00 20.00     0.095 N 
HETATM    5  C7  UNL     1     -33.061  19.125  -3.444  1.00 20.00     0.310 C 
BRANCH   4   6
HETATM    6  C9  UNL     1     -33.939  16.914  -3.782  1.00 20.00     0.278 C 
BRANCH   6   7
HETATM    7  C5  UNL     1     -33.396  15.547  -4.017  1.00 20.00     0.018 A 
HETATM    8  C3  UNL     1     -34.321  14.359  -4.063  1.00 20.00     0.011 A 
HETATM    9  C4  UNL     1     -33.609  14.802  -5.314  1.00 20.00    -0.012 A 
HETATM   10  C6  UNL     1     -34.379  15.381  -6.452  1.00 20.00     0.010 C 
ENDBRANCH   6   7
ENDBRANCH   4   6
ENDBRANCH   3   4
TORSDOF 3
ENDMDL
MODEL 8
REMARK VINA RESULT:      -3.6      0.821      3.404
REMARK  3 active torsions:
REMARK  status: ('A' for Active; 'I' for Inactive)
REMARK    1  A    between atoms: C5_5  and  C9_9 
REMARK    2  A    between atoms: C8_8  and  N10_10 
REMARK    3  A    between atoms: C9_9  and  N10_10 
ROOT
HETATM    1  C1  UNL     1     -34.779   5.739   6.697  1.00 20.00     0.013 C 
HETATM    2  C2  UNL     1     -34.442   5.129   5.719  1.00 20.00    -0.087 C 
HETATM    3  C8  UNL     1     -34.032   4.382   4.528  1.00 20.00     0.364 C 
ENDROOT
BRANCH   3   4
HETATM    4  N10 UNL     1     -33.950   5.272   3.358  1.00 20.00     0.095 N 
HETATM    5  C7  UNL     1     -32.758   4.932   2.566  1.00 20.00     0.310 C 
BRANCH   4   6
HETATM    6  C9  UNL     1     -33.943   6.654   3.751  1.00 20.00     0.278 C 
BRANCH   6   7
HETATM    7  C5  UNL     1     -32.617   7.281   3.490  1.00 20.00     0.018 A 
HETATM    8  C3  UNL     1     -32.532   8.688   2.960  1.00 20.00     0.011 A 
HETATM    9  C4  UNL     1     -32.057   8.385   4.357  1.00 20.00    -0.012 A 
HETATM   10  C6  UNL     1     -32.791   8.927   5.535  1.00 20.00     0.010 C 
ENDBRANCH   6   7
ENDBRANCH   4   6
ENDBRANCH   3   4
TORSDOF 3
ENDMDL
MODEL 9
REMARK VINA RESULT:      -3.6     12.246     13.282
REMARK  3 active torsions:
REMARK  status: ('A' for Active; 'I' for Inactive)
REMARK    1  A    between atoms: C5_5  and  C9_9 
REMARK    2  A    between atoms: C8_8  and  N10_10 
REMARK    3  A    between atoms: C9_9  and  N10_10 
ROOT
HETATM    1  C1  UNL     1     -31.725  18.732  -0.606  1.00 20.00     0.013 C 
HETATM    2  C2  UNL     1     -32.499  18.000  -1.160  1.00 20.00    -0.087 C 
HETATM    3  C8  UNL     1     -33.447  17.106  -1.831  1.00 20.00     0.364 C 
ENDROOT
BRANCH   3   4
HETATM    4  N10 UNL     1     -33.107  16.966  -3.257  1.00 20.00     0.095 N 
HETATM    5  C7  UNL     1     -33.636  18.119  -4.003  1.00 20.00     0.310 C 
BRANCH   4   6
HETATM    6  C9  UNL     1     -33.598  15.725  -3.792  1.00 20.00     0.278 C 
BRANCH   6   7
HETATM    7  C5  UNL     1     -34.360  15.946  -5.053  1.00 20.00     0.018 A 
HETATM    8  C3  UNL     1     -34.134  15.054  -6.245  1.00 20.00     0.011 A 
HETATM    9  C4  UNL     1     -35.451  15.009  -5.515  1.00 20.00    -0.012 A 
HETATM   10  C6  UNL     1     -35.843  13.794  -4.745  1.00 20.00     0.010 C 
ENDBRANCH   6   7
ENDBRANCH   4   6
ENDBRANCH   3   4
TORSDOF 3
ENDMDL
