MODEL 1
REMARK VINA RESULT:      -3.8      0.000      0.000
REMARK  4 active torsions:
REMARK  status: ('A' for Active; 'I' for Inactive)
REMARK    1  A    between atoms: C2_2  and  C10_10 
REMARK    2  A    between atoms: C7_7  and  C11_11 
REMARK    3  A    between atoms: C10_10  and  N12_12 
REMARK    4  A    between atoms: C11_11  and  N12_12 
ROOT
HETATM    1  C1  UNL     1     -33.434  16.516  -2.649  1.00 20.00    -0.109 C 
HETATM    2  C2  UNL     1     -33.404  15.678  -3.509  1.00 20.00    -0.077 C 
HETATM    3  C8  UNL     1     -33.471  17.537  -1.602  1.00 20.00     0.112 C 
ENDROOT
BRANCH   2   4
HETATM    4  C10 UNL     1     -33.367  14.650  -4.553  1.00 20.00     0.362 C 
BRANCH   4   5
HETATM    5  N12 UNL     1     -33.489  15.253  -5.888  1.00 20.00     0.095 N 
HETATM    6  H31 UNL     1     -32.756  14.839  -6.484  1.00 20.00     0.317 HD
BRANCH   5   7
HETATM    7  C11 UNL     1     -34.778  15.056  -6.452  1.00 20.00     0.279 C 
BRANCH   7   8
HETATM    8  C7  UNL     1     -35.502  16.400  -6.546  1.00 20.00    -0.018 C 
HETATM    9  C5  UNL     1     -34.519  17.578  -6.481  1.00 20.00     0.011 C 
HETATM   10  C3  UNL     1     -35.353  18.766  -6.007  1.00 20.00     0.001 C 
HETATM   11  C4  UNL     1     -36.545  18.176  -5.254  1.00 20.00     0.001 C 
HETATM   12  C6  UNL     1     -36.377  16.659  -5.312  1.00 20.00     0.011 C 
HETATM   13  C9  UNL     1     -36.335  16.439  -7.837  1.00 20.00     0.017 C 
ENDBRANCH   7   8
ENDBRANCH   5   7
ENDBRANCH   4   5
ENDBRANCH   2   4
TORSDOF 4
ENDMDL
MODEL 2
REMARK VINA RESULT:      -3.7      0.995      1.648
REMARK  4 active torsions:
REMARK  status: ('A' for Active; 'I' for Inactive)
REMARK    1  A    between atoms: C2_2  and  C10_10 
REMARK    2  A    between atoms: C7_7  and  C11_11 
REMARK    3  A    between atoms: C10_10  and  N12_12 
REMARK    4  A    between atoms: C11_11  and  N12_12 
ROOT
HETATM    1  C1  UNL     1     -33.481  16.616  -2.666  1.00 20.00    -0.109 C 
HETATM    2  C2  UNL     1     -33.126  15.775  -3.447  1.00 20.00    -0.077 C 
HETATM    3  C8  UNL     1     -33.914  17.640  -1.715  1.00 20.00     0.112 C 
ENDROOT
BRANCH   2   4
HETATM    4  C10 UNL     1     -32.697  14.752  -4.404  1.00 20.00     0.362 C 
BRANCH   4   5
HETATM    5  N12 UNL     1     -33.805  14.360  -5.286  1.00 20.00     0.095 N 
HETATM    6  H31 UNL     1     -34.619  14.151  -4.687  1.00 20.00     0.317 HD
BRANCH   5   7
HETATM    7  C11 UNL     1     -34.116  15.365  -6.240  1.00 20.00     0.279 C 
BRANCH   7   8
HETATM    8  C7  UNL     1     -35.607  15.699  -6.159  1.00 20.00    -0.018 C 
HETATM    9  C5  UNL     1     -36.231  15.842  -7.554  1.00 20.00     0.011 C 
HETATM   10  C3  UNL     1     -37.472  16.706  -7.348  1.00 20.00     0.001 C 
HETATM   11  C4  UNL     1     -37.222  17.513  -6.073  1.00 20.00     0.001 C 
HETATM   12  C6  UNL     1     -35.842  17.096  -5.569  1.00 20.00     0.011 C 
HETATM   13  C9  UNL     1     -36.324  14.618  -5.335  1.00 20.00     0.017 C 
ENDBRANCH   7   8
ENDBRANCH   5   7
ENDBRANCH   4   5
ENDBRANCH   2   4
TORSDOF 4
ENDMDL
MODEL 3
REMARK VINA RESULT:      -3.6      0.863      1.844
REMARK  4 active torsions:
REMARK  status: ('A' for Active; 'I' for Inactive)
REMARK    1  A    between atoms: C2_2  and  C10_10 
REMARK    2  A    between atoms: C7_7  and  C11_11 
REMARK    3  A    between atoms: C10_10  and  N12_12 
REMARK    4  A    between atoms: C11_11  and  N12_12 
ROOT
HETATM    1  C1  UNL     1     -33.427  16.625  -2.683  1.00 20.00    -0.109 C 
HETATM    2  C2  UNL     1     -33.304  15.728  -3.473  1.00 20.00    -0.077 C 
HETATM    3  C8  UNL     1     -33.577  17.718  -1.723  1.00 20.00     0.112 C 
ENDROOT
BRANCH   2   4
HETATM    4  C10 UNL     1     -33.155  14.628  -4.429  1.00 20.00     0.362 C 
BRANCH   4   5
HETATM    5  N12 UNL     1     -34.357  14.492  -5.264  1.00 20.00     0.095 N 
HETATM    6  H31 UNL     1     -35.161  14.819  -4.707  1.00 20.00     0.317 HD
BRANCH   5   7
HETATM    7  C11 UNL     1     -34.251  15.215  -6.483  1.00 20.00     0.279 C 
BRANCH   7   8
HETATM    8  C7  UNL     1     -35.365  16.262  -6.551  1.00 20.00    -0.018 C 
HETATM    9  C5  UNL     1     -36.481  15.967  -5.539  1.00 20.00     0.011 C 
HETATM   10  C3  UNL     1     -37.714  16.678  -6.089  1.00 20.00     0.001 C 
HETATM   11  C4  UNL     1     -37.487  16.821  -7.594  1.00 20.00     0.001 C 
HETATM   12  C6  UNL     1     -36.126  16.191  -7.882  1.00 20.00     0.011 C 
HETATM   13  C9  UNL     1     -34.762  17.658  -6.326  1.00 20.00     0.017 C 
ENDBRANCH   7   8
ENDBRANCH   5   7
ENDBRANCH   4   5
ENDBRANCH   2   4
TORSDOF 4
ENDMDL
MODEL 4
REMARK VINA RESULT:      -3.6      1.499      2.623
REMARK  4 active torsions:
REMARK  status: ('A' for Active; 'I' for Inactive)
REMARK    1  A    between atoms: C2_2  and  C10_10 
REMARK    2  A    between atoms: C7_7  and  C11_11 
REMARK    3  A    between atoms: C10_10  and  N12_12 
REMARK    4  A    between atoms: C11_11  and  N12_12 
ROOT
HETATM    1  C1  UNL     1     -33.766  17.955  -0.389  1.00 20.00    -0.109 C 
HETATM    2  C2  UNL     1     -33.439  17.408  -1.408  1.00 20.00    -0.077 C 
HETATM    3  C8  UNL     1     -34.164  18.620   0.851  1.00 20.00     0.112 C 
ENDROOT
BRANCH   2   4
HETATM    4  C10 UNL     1     -33.037  16.748  -2.653  1.00 20.00     0.362 C 
BRANCH   4   5
HETATM    5  N12 UNL     1     -34.118  15.895  -3.167  1.00 20.00     0.095 N 
HETATM    6  H31 UNL     1     -34.905  16.511  -3.423  1.00 20.00     0.317 HD
BRANCH   5   7
HETATM    7  C11 UNL     1     -33.703  15.109  -4.276  1.00 20.00     0.279 C 
BRANCH   7   8
HETATM    8  C7  UNL     1     -34.689  15.297  -5.430  1.00 20.00    -0.018 C 
HETATM    9  C5  UNL     1     -33.988  15.206  -6.793  1.00 20.00     0.011 C 
HETATM   10  C3  UNL     1     -34.899  15.958  -7.759  1.00 20.00     0.001 C 
HETATM   11  C4  UNL     1     -35.710  16.934  -6.907  1.00 20.00     0.001 C 
HETATM   12  C6  UNL     1     -35.252  16.724  -5.466  1.00 20.00     0.011 C 
HETATM   13  C9  UNL     1     -35.814  14.257  -5.310  1.00 20.00     0.017 C 
ENDBRANCH   7   8
ENDBRANCH   5   7
ENDBRANCH   4   5
ENDBRANCH   2   4
TORSDOF 4
ENDMDL
MODEL 5
REMARK VINA RESULT:      -3.5     14.278     15.483
REMARK  4 active torsions:
REMARK  status: ('A' for Active; 'I' for Inactive)
REMARK    1  A    between atoms: C2_2  and  C10_10 
REMARK    2  A    between atoms: C7_7  and  C11_11 
REMARK    3  A    between atoms: C10_10  and  N12_12 
REMARK    4  A    between atoms: C11_11  and  N12_12 
ROOT
HETATM    1  C1  UNL     1     -42.013   0.855  -3.779  1.00 20.00    -0.109 C 
HETATM    2  C2  UNL     1     -42.422   1.971  -3.602  1.00 20.00    -0.077 C 
HETATM    3  C8  UNL     1     -41.516  -0.504  -3.995  1.00 20.00     0.112 C 
ENDROOT
BRANCH   2   4
HETATM    4  C10 UNL     1     -42.917   3.332  -3.380  1.00 20.00     0.362 C 
BRANCH   4   5
HETATM    5  N12 UNL     1     -42.281   3.936  -2.201  1.00 20.00     0.095 N 
HETATM    6  H31 UNL     1     -41.720   4.738  -2.527  1.00 20.00     0.317 HD
BRANCH   5   7
HETATM    7  C11 UNL     1     -43.231   4.339  -1.224  1.00 20.00     0.279 C 
BRANCH   7   8
HETATM    8  C7  UNL     1     -42.590   5.360  -0.283  1.00 20.00    -0.018 C 
HETATM    9  C5  UNL     1     -43.304   6.718  -0.350  1.00 20.00     0.011 C 
HETATM   10  C3  UNL     1     -42.274   7.734   0.135  1.00 20.00     0.001 C 
HETATM   11  C4  UNL     1     -40.904   7.103  -0.114  1.00 20.00     0.001 C 
HETATM   12  C6  UNL     1     -41.171   5.734  -0.736  1.00 20.00     0.011 C 
HETATM   13  C9  UNL     1     -42.588   4.800   1.148  1.00 20.00     0.017 C 
ENDBRANCH   7   8
ENDBRANCH   5   7
ENDBRANCH   4   5
ENDBRANCH   2   4
TORSDOF 4
ENDMDL
MODEL 6
REMARK VINA RESULT:      -3.5      1.888      3.282
REMARK  4 active torsions:
REMARK  status: ('A' for Active; 'I' for Inactive)
REMARK    1  A    between atoms: C2_2  and  C10_10 
REMARK    2  A    between atoms: C7_7  and  C11_11 
REMARK    3  A    between atoms: C10_10  and  N12_12 
REMARK    4  A    between atoms: C11_11  and  N12_12 
ROOT
HETATM    1  C1  UNL     1     -31.963  18.306  -0.551  1.00 20.00    -0.109 C 
HETATM    2  C2  UNL     1     -32.843  17.951  -1.289  1.00 20.00    -0.077 C 
HETATM    3  C8  UNL     1     -30.893  18.737   0.348  1.00 20.00     0.112 C 
ENDROOT
BRANCH   2   4
HETATM    4  C10 UNL     1     -33.919  17.521  -2.185  1.00 20.00     0.362 C 
BRANCH   4   5
HETATM    5  N12 UNL     1     -33.598  16.231  -2.811  1.00 20.00     0.095 N 
HETATM    6  H31 UNL     1     -34.400  15.601  -2.655  1.00 20.00     0.317 HD
BRANCH   5   7
HETATM    7  C11 UNL     1     -33.312  16.362  -4.197  1.00 20.00     0.279 C 
BRANCH   7   8
HETATM    8  C7  UNL     1     -34.306  15.522  -5.002  1.00 20.00    -0.018 C 
HETATM    9  C5  UNL     1     -35.643  16.253  -5.188  1.00 20.00     0.011 C 
HETATM   10  C3  UNL     1     -36.664  15.151  -5.456  1.00 20.00     0.001 C 
HETATM   11  C4  UNL     1     -36.087  13.877  -4.839  1.00 20.00     0.001 C 
HETATM   12  C6  UNL     1     -34.742  14.269  -4.231  1.00 20.00     0.011 C 
HETATM   13  C9  UNL     1     -33.678  15.153  -6.355  1.00 20.00     0.017 C 
ENDBRANCH   7   8
ENDBRANCH   5   7
ENDBRANCH   4   5
ENDBRANCH   2   4
TORSDOF 4
ENDMDL
MODEL 7
REMARK VINA RESULT:      -3.4      3.116      5.085
REMARK  4 active torsions:
REMARK  status: ('A' for Active; 'I' for Inactive)
REMARK    1  A    between atoms: C2_2  and  C10_10 
REMARK    2  A    between atoms: C7_7  and  C11_11 
REMARK    3  A    between atoms: C10_10  and  N12_12 
REMARK    4  A    between atoms: C11_11  and  N12_12 
ROOT
HETATM    1  C1  UNL     1     -31.552  18.695   1.665  1.00 20.00    -0.109 C 
HETATM    2  C2  UNL     1     -32.629  18.814   1.144  1.00 20.00    -0.077 C 
HETATM    3  C8  UNL     1     -30.242  18.552   2.298  1.00 20.00     0.112 C 
ENDROOT
BRANCH   2   4
HETATM    4  C10 UNL     1     -33.945  18.954   0.515  1.00 20.00     0.362 C 
BRANCH   4   5
HETATM    5  N12 UNL     1     -33.813  19.233  -0.922  1.00 20.00     0.095 N 
HETATM    6  H31 UNL     1     -32.844  19.006  -1.195  1.00 20.00     0.317 HD
BRANCH   5   7
HETATM    7  C11 UNL     1     -34.749  18.502  -1.701  1.00 20.00     0.279 C 
BRANCH   7   8
HETATM    8  C7  UNL     1     -34.029  17.847  -2.880  1.00 20.00    -0.018 C 
HETATM    9  C5  UNL     1     -35.013  17.424  -3.980  1.00 20.00     0.011 C 
HETATM   10  C3  UNL     1     -34.292  16.326  -4.757  1.00 20.00     0.001 C 
HETATM   11  C4  UNL     1     -33.261  15.731  -3.797  1.00 20.00     0.001 C 
HETATM   12  C6  UNL     1     -33.407  16.501  -2.486  1.00 20.00     0.011 C 
HETATM   13  C9  UNL     1     -32.965  18.814  -3.424  1.00 20.00     0.017 C 
ENDBRANCH   7   8
ENDBRANCH   5   7
ENDBRANCH   4   5
ENDBRANCH   2   4
TORSDOF 4
ENDMDL
MODEL 8
REMARK VINA RESULT:      -3.4      1.826      5.289
REMARK  4 active torsions:
REMARK  status: ('A' for Active; 'I' for Inactive)
REMARK    1  A    between atoms: C2_2  and  C10_10 
REMARK    2  A    between atoms: C7_7  and  C11_11 
REMARK    3  A    between atoms: C10_10  and  N12_12 
REMARK    4  A    between atoms: C11_11  and  N12_12 
ROOT
HETATM    1  C1  UNL     1     -35.275  15.923  -5.747  1.00 20.00    -0.109 C 
HETATM    2  C2  UNL     1     -34.792  17.021  -5.683  1.00 20.00    -0.077 C 
HETATM    3  C8  UNL     1     -35.862  14.586  -5.826  1.00 20.00     0.112 C 
ENDROOT
BRANCH   2   4
HETATM    4  C10 UNL     1     -34.209  18.363  -5.609  1.00 20.00     0.362 C 
BRANCH   4   5
HETATM    5  N12 UNL     1     -33.347  18.497  -4.426  1.00 20.00     0.095 N 
HETATM    6  H31 UNL     1     -32.599  19.168  -4.660  1.00 20.00     0.317 HD
BRANCH   5   7
HETATM    7  C11 UNL     1     -34.070  18.917  -3.277  1.00 20.00     0.279 C 
BRANCH   7   8
HETATM    8  C7  UNL     1     -33.507  18.219  -2.038  1.00 20.00    -0.018 C 
HETATM    9  C5  UNL     1     -34.367  18.491  -0.796  1.00 20.00     0.011 C 
HETATM   10  C3  UNL     1     -33.435  18.262   0.391  1.00 20.00     0.001 C 
HETATM   11  C4  UNL     1     -32.015  18.473  -0.136  1.00 20.00     0.001 C 
HETATM   12  C6  UNL     1     -32.157  18.817  -1.617  1.00 20.00     0.011 C 
HETATM   13  C9  UNL     1     -33.387  16.712  -2.316  1.00 20.00     0.017 C 
ENDBRANCH   7   8
ENDBRANCH   5   7
ENDBRANCH   4   5
ENDBRANCH   2   4
TORSDOF 4
ENDMDL
MODEL 9
REMARK VINA RESULT:      -3.3      1.243      1.726
REMARK  4 active torsions:
REMARK  status: ('A' for Active; 'I' for Inactive)
REMARK    1  A    between atoms: C2_2  and  C10_10 
REMARK    2  A    between atoms: C7_7  and  C11_11 
REMARK    3  A    between atoms: C10_10  and  N12_12 
REMARK    4  A    between atoms: C11_11  and  N12_12 
ROOT
HETATM    1  C1  UNL     1     -33.394  16.992  -1.979  1.00 20.00    -0.109 C 
HETATM    2  C2  UNL     1     -33.442  16.233  -2.909  1.00 20.00    -0.077 C 
HETATM    3  C8  UNL     1     -33.335  17.917  -0.847  1.00 20.00     0.112 C 
ENDROOT
BRANCH   2   4
HETATM    4  C10 UNL     1     -33.507  15.304  -4.040  1.00 20.00     0.362 C 
BRANCH   4   5
HETATM    5  N12 UNL     1     -34.832  15.340  -4.675  1.00 20.00     0.095 N 
HETATM    6  H31 UNL     1     -35.520  15.580  -3.945  1.00 20.00     0.317 HD
BRANCH   5   7
HETATM    7  C11 UNL     1     -34.886  16.264  -5.753  1.00 20.00     0.279 C 
BRANCH   7   8
HETATM    8  C7  UNL     1     -36.206  17.035  -5.695  1.00 20.00    -0.018 C 
HETATM    9  C5  UNL     1     -36.276  17.943  -4.458  1.00 20.00     0.011 C 
HETATM   10  C3  UNL     1     -37.765  18.170  -4.216  1.00 20.00     0.001 C 
HETATM   11  C4  UNL     1     -38.487  16.985  -4.858  1.00 20.00     0.001 C 
HETATM   12  C6  UNL     1     -37.399  16.099  -5.460  1.00 20.00     0.011 C 
HETATM   13  C9  UNL     1     -36.378  17.844  -6.990  1.00 20.00     0.017 C 
ENDBRANCH   7   8
ENDBRANCH   5   7
ENDBRANCH   4   5
ENDBRANCH   2   4
TORSDOF 4
ENDMDL
