MODEL 1
REMARK VINA RESULT:      -4.4      0.000      0.000
REMARK  2 active torsions:
REMARK  status: ('A' for Active; 'I' for Inactive)
REMARK    1  A    between atoms: C3_3  and  C8_8 
REMARK    2  A    between atoms: C10_10  and  N11_11 
ROOT
HETATM    1  C1  UNL     1     -32.910   9.615   0.374  1.00 20.00     0.013 C 
HETATM    2  C2  UNL     1     -32.472   8.636   0.913  1.00 20.00    -0.087 C 
HETATM    3  C10 UNL     1     -31.936   7.440   1.568  1.00 20.00     0.364 C 
ENDROOT
BRANCH   3   4
HETATM    4  N11 UNL     1     -32.146   7.506   3.015  1.00 20.00     0.100 N 
HETATM    5  C6  UNL     1     -32.320   8.900   3.445  1.00 20.00     0.273 C 
HETATM    6  C4  UNL     1     -32.488   8.990   4.963  1.00 20.00     0.031 C 
HETATM    7  C5  UNL     1     -33.647   8.125   5.446  1.00 20.00     0.015 C 
HETATM    8  C8  UNL     1     -33.498   6.698   4.925  1.00 20.00     0.083 C 
HETATM    9  C7  UNL     1     -33.299   6.680   3.405  1.00 20.00     0.285 C 
BRANCH   8  10
HETATM   10  C3  UNL     1     -34.716   5.898   5.274  1.00 20.00     0.129 C 
HETATM   11  C9  UNL     1     -34.714   5.212   6.612  1.00 20.00     0.091 C 
HETATM   12  O12 UNL     1     -35.671   5.809   4.504  1.00 20.00    -0.298 OA
ENDBRANCH   8  10
ENDBRANCH   3   4
TORSDOF 2
ENDMDL
MODEL 2
REMARK VINA RESULT:      -4.4     11.510     12.277
REMARK  2 active torsions:
REMARK  status: ('A' for Active; 'I' for Inactive)
REMARK    1  A    between atoms: C3_3  and  C8_8 
REMARK    2  A    between atoms: C10_10  and  N11_11 
ROOT
HETATM    1  C1  UNL     1     -30.125  18.664   3.306  1.00 20.00     0.013 C 
HETATM    2  C2  UNL     1     -30.370  18.851   2.146  1.00 20.00    -0.087 C 
HETATM    3  C10 UNL     1     -30.667  19.083   0.730  1.00 20.00     0.364 C 
ENDROOT
BRANCH   3   4
HETATM    4  N11 UNL     1     -31.927  18.443   0.355  1.00 20.00     0.100 N 
HETATM    5  C6  UNL     1     -33.068  19.263   0.785  1.00 20.00     0.273 C 
HETATM    6  C4  UNL     1     -34.395  18.580   0.447  1.00 20.00     0.031 C 
HETATM    7  C5  UNL     1     -34.490  18.258  -1.040  1.00 20.00     0.015 C 
HETATM    8  C8  UNL     1     -33.260  17.475  -1.494  1.00 20.00     0.083 C 
HETATM    9  C7  UNL     1     -31.967  18.195  -1.094  1.00 20.00     0.285 C 
BRANCH   8  10
HETATM   10  C3  UNL     1     -33.289  17.298  -2.981  1.00 20.00     0.129 C 
HETATM   11  C9  UNL     1     -33.430  15.890  -3.492  1.00 20.00     0.091 C 
HETATM   12  O12 UNL     1     -33.204  18.257  -3.747  1.00 20.00    -0.298 OA
ENDBRANCH   8  10
ENDBRANCH   3   4
TORSDOF 2
ENDMDL
MODEL 3
REMARK VINA RESULT:      -4.4     11.529     13.266
REMARK  2 active torsions:
REMARK  status: ('A' for Active; 'I' for Inactive)
REMARK    1  A    between atoms: C3_3  and  C8_8 
REMARK    2  A    between atoms: C10_10  and  N11_11 
ROOT
HETATM    1  C1  UNL     1     -33.780  18.064  -0.380  1.00 20.00     0.013 C 
HETATM    2  C2  UNL     1     -33.562  17.391  -1.349  1.00 20.00    -0.087 C 
HETATM    3  C10 UNL     1     -33.292  16.567  -2.531  1.00 20.00     0.364 C 
ENDROOT
BRANCH   3   4
HETATM    4  N11 UNL     1     -34.114  17.000  -3.661  1.00 20.00     0.100 N 
HETATM    5  C6  UNL     1     -33.624  18.280  -4.191  1.00 20.00     0.273 C 
HETATM    6  C4  UNL     1     -34.507  18.773  -5.340  1.00 20.00     0.031 C 
HETATM    7  C5  UNL     1     -34.609  17.731  -6.448  1.00 20.00     0.015 C 
HETATM    8  C8  UNL     1     -35.039  16.384  -5.873  1.00 20.00     0.083 C 
HETATM    9  C7  UNL     1     -34.138  15.965  -4.706  1.00 20.00     0.285 C 
BRANCH   8  10
HETATM   10  C3  UNL     1     -34.987  15.333  -6.940  1.00 20.00     0.129 C 
HETATM   11  C9  UNL     1     -33.847  15.418  -7.917  1.00 20.00     0.091 C 
HETATM   12  O12 UNL     1     -35.835  14.445  -7.011  1.00 20.00    -0.298 OA
ENDBRANCH   8  10
ENDBRANCH   3   4
TORSDOF 2
ENDMDL
MODEL 4
REMARK VINA RESULT:      -4.2     11.445     12.802
REMARK  2 active torsions:
REMARK  status: ('A' for Active; 'I' for Inactive)
REMARK    1  A    between atoms: C3_3  and  C8_8 
REMARK    2  A    between atoms: C10_10  and  N11_11 
ROOT
HETATM    1  C1  UNL     1     -32.197  18.491  -1.179  1.00 20.00     0.013 C 
HETATM    2  C2  UNL     1     -33.006  18.431  -2.063  1.00 20.00    -0.087 C 
HETATM    3  C10 UNL     1     -33.996  18.361  -3.142  1.00 20.00     0.364 C 
ENDROOT
BRANCH   3   4
HETATM    4  N11 UNL     1     -33.716  17.230  -4.026  1.00 20.00     0.100 N 
HETATM    5  C6  UNL     1     -33.280  16.064  -3.245  1.00 20.00     0.273 C 
HETATM    6  C4  UNL     1     -32.932  14.888  -4.160  1.00 20.00     0.031 C 
HETATM    7  C5  UNL     1     -34.103  14.524  -5.066  1.00 20.00     0.015 C 
HETATM    8  C8  UNL     1     -34.603  15.760  -5.811  1.00 20.00     0.083 C 
HETATM    9  C7  UNL     1     -34.898  16.911  -4.841  1.00 20.00     0.285 C 
BRANCH   8  10
HETATM   10  C3  UNL     1     -35.846  15.426  -6.577  1.00 20.00     0.129 C 
HETATM   11  C9  UNL     1     -36.969  16.425  -6.512  1.00 20.00     0.091 C 
HETATM   12  O12 UNL     1     -35.943  14.388  -7.228  1.00 20.00    -0.298 OA
ENDBRANCH   8  10
ENDBRANCH   3   4
TORSDOF 2
ENDMDL
MODEL 5
REMARK VINA RESULT:      -4.2     10.197     11.368
REMARK  2 active torsions:
REMARK  status: ('A' for Active; 'I' for Inactive)
REMARK    1  A    between atoms: C3_3  and  C8_8 
REMARK    2  A    between atoms: C10_10  and  N11_11 
ROOT
HETATM    1  C1  UNL     1     -41.037  17.693   7.492  1.00 20.00     0.013 C 
HETATM    2  C2  UNL     1     -40.707  16.758   8.168  1.00 20.00    -0.087 C 
HETATM    3  C10 UNL     1     -40.302  15.619   8.997  1.00 20.00     0.364 C 
ENDROOT
BRANCH   3   4
HETATM    4  N11 UNL     1     -40.828  14.369   8.448  1.00 20.00     0.100 N 
HETATM    5  C6  UNL     1     -42.293  14.339   8.553  1.00 20.00     0.273 C 
HETATM    6  C4  UNL     1     -42.855  13.014   8.033  1.00 20.00     0.031 C 
HETATM    7  C5  UNL     1     -42.410  12.748   6.599  1.00 20.00     0.015 C 
HETATM    8  C8  UNL     1     -40.892  12.864   6.484  1.00 20.00     0.083 C 
HETATM    9  C7  UNL     1     -40.392  14.196   7.054  1.00 20.00     0.285 C 
BRANCH   8  10
HETATM   10  C3  UNL     1     -40.480  12.754   5.048  1.00 20.00     0.129 C 
HETATM   11  C9  UNL     1     -39.378  11.779   4.733  1.00 20.00     0.091 C 
HETATM   12  O12 UNL     1     -41.017  13.426   4.170  1.00 20.00    -0.298 OA
ENDBRANCH   8  10
ENDBRANCH   3   4
TORSDOF 2
ENDMDL
MODEL 6
REMARK VINA RESULT:      -4.2      9.976     11.330
REMARK  2 active torsions:
REMARK  status: ('A' for Active; 'I' for Inactive)
REMARK    1  A    between atoms: C3_3  and  C8_8 
REMARK    2  A    between atoms: C10_10  and  N11_11 
ROOT
HETATM    1  C1  UNL     1     -40.362  14.892  10.921  1.00 20.00     0.013 C 
HETATM    2  C2  UNL     1     -40.677  15.415   9.888  1.00 20.00    -0.087 C 
HETATM    3  C10 UNL     1     -41.060  16.058   8.628  1.00 20.00     0.364 C 
ENDROOT
BRANCH   3   4
HETATM    4  N11 UNL     1     -41.494  15.060   7.651  1.00 20.00     0.100 N 
HETATM    5  C6  UNL     1     -42.002  15.716   6.438  1.00 20.00     0.273 C 
HETATM    6  C4  UNL     1     -42.510  14.686   5.427  1.00 20.00     0.031 C 
HETATM    7  C5  UNL     1     -41.428  13.670   5.080  1.00 20.00     0.015 C 
HETATM    8  C8  UNL     1     -40.849  13.054   6.351  1.00 20.00     0.083 C 
HETATM    9  C7  UNL     1     -40.393  14.138   7.335  1.00 20.00     0.285 C 
BRANCH   8  10
HETATM   10  C3  UNL     1     -39.686  12.174   6.009  1.00 20.00     0.129 C 
HETATM   11  C9  UNL     1     -39.498  11.837   4.555  1.00 20.00     0.091 C 
HETATM   12  O12 UNL     1     -38.921  11.752   6.874  1.00 20.00    -0.298 OA
ENDBRANCH   8  10
ENDBRANCH   3   4
TORSDOF 2
ENDMDL
MODEL 7
REMARK VINA RESULT:      -4.2     10.193     11.262
REMARK  2 active torsions:
REMARK  status: ('A' for Active; 'I' for Inactive)
REMARK    1  A    between atoms: C3_3  and  C8_8 
REMARK    2  A    between atoms: C10_10  and  N11_11 
ROOT
HETATM    1  C1  UNL     1     -40.430  18.176   7.146  1.00 20.00     0.013 C 
HETATM    2  C2  UNL     1     -40.900  17.215   7.689  1.00 20.00    -0.087 C 
HETATM    3  C10 UNL     1     -41.474  16.043   8.356  1.00 20.00     0.364 C 
ENDROOT
BRANCH   3   4
HETATM    4  N11 UNL     1     -41.768  14.989   7.385  1.00 20.00     0.100 N 
HETATM    5  C6  UNL     1     -42.221  15.572   6.115  1.00 20.00     0.273 C 
HETATM    6  C4  UNL     1     -42.584  14.481   5.106  1.00 20.00     0.031 C 
HETATM    7  C5  UNL     1     -41.417  13.527   4.877  1.00 20.00     0.015 C 
HETATM    8  C8  UNL     1     -40.900  12.990   6.209  1.00 20.00     0.083 C 
HETATM    9  C7  UNL     1     -40.590  14.131   7.185  1.00 20.00     0.285 C 
BRANCH   8  10
HETATM   10  C3  UNL     1     -39.661  12.178   5.986  1.00 20.00     0.129 C 
HETATM   11  C9  UNL     1     -39.349  11.796   4.565  1.00 20.00     0.091 C 
HETATM   12  O12 UNL     1     -38.933  11.844   6.919  1.00 20.00    -0.298 OA
ENDBRANCH   8  10
ENDBRANCH   3   4
TORSDOF 2
ENDMDL
MODEL 8
REMARK VINA RESULT:      -4.1     10.009     10.983
REMARK  2 active torsions:
REMARK  status: ('A' for Active; 'I' for Inactive)
REMARK    1  A    between atoms: C3_3  and  C8_8 
REMARK    2  A    between atoms: C10_10  and  N11_11 
ROOT
HETATM    1  C1  UNL     1     -38.894  11.707   3.575  1.00 20.00     0.013 C 
HETATM    2  C2  UNL     1     -39.403  11.724   4.662  1.00 20.00    -0.087 C 
HETATM    3  C10 UNL     1     -40.022  11.741   5.990  1.00 20.00     0.364 C 
ENDROOT
BRANCH   3   4
HETATM    4  N11 UNL     1     -40.958  12.859   6.109  1.00 20.00     0.100 N 
HETATM    5  C6  UNL     1     -42.228  12.407   6.692  1.00 20.00     0.273 C 
HETATM    6  C4  UNL     1     -43.236  13.555   6.774  1.00 20.00     0.031 C 
HETATM    7  C5  UNL     1     -42.671  14.735   7.557  1.00 20.00     0.015 C 
HETATM    8  C8  UNL     1     -41.312  15.145   6.994  1.00 20.00     0.083 C 
HETATM    9  C7  UNL     1     -40.363  13.944   6.906  1.00 20.00     0.285 C 
BRANCH   8  10
HETATM   10  C3  UNL     1     -40.697  16.199   7.862  1.00 20.00     0.129 C 
HETATM   11  C9  UNL     1     -40.356  15.800   9.272  1.00 20.00     0.091 C 
HETATM   12  O12 UNL     1     -40.480  17.334   7.442  1.00 20.00    -0.298 OA
ENDBRANCH   8  10
ENDBRANCH   3   4
TORSDOF 2
ENDMDL
MODEL 9
REMARK VINA RESULT:      -4.1     14.432     15.873
REMARK  2 active torsions:
REMARK  status: ('A' for Active; 'I' for Inactive)
REMARK    1  A    between atoms: C3_3  and  C8_8 
REMARK    2  A    between atoms: C10_10  and  N11_11 
ROOT
HETATM    1  C1  UNL     1     -28.916  17.391  12.279  1.00 20.00     0.013 C 
HETATM    2  C2  UNL     1     -28.057  18.229  12.302  1.00 20.00    -0.087 C 
HETATM    3  C10 UNL     1     -27.012  19.256  12.332  1.00 20.00     0.364 C 
ENDROOT
BRANCH   3   4
HETATM    4  N11 UNL     1     -25.716  18.683  11.966  1.00 20.00     0.100 N 
HETATM    5  C6  UNL     1     -25.729  17.225  12.148  1.00 20.00     0.273 C 
HETATM    6  C4  UNL     1     -24.364  16.618  11.821  1.00 20.00     0.031 C 
HETATM    7  C5  UNL     1     -23.919  16.982  10.409  1.00 20.00     0.015 C 
HETATM    8  C8  UNL     1     -23.988  18.494  10.203  1.00 20.00     0.083 C 
HETATM    9  C7  UNL     1     -25.368  19.043  10.583  1.00 20.00     0.285 C 
BRANCH   8  10
HETATM   10  C3  UNL     1     -23.699  18.828   8.772  1.00 20.00     0.129 C 
HETATM   11  C9  UNL     1     -22.250  18.900   8.373  1.00 20.00     0.091 C 
HETATM   12  O12 UNL     1     -24.602  19.030   7.962  1.00 20.00    -0.298 OA
ENDBRANCH   8  10
ENDBRANCH   3   4
TORSDOF 2
ENDMDL
