MODEL 1
REMARK VINA RESULT:      -3.8      0.000      0.000
REMARK  3 active torsions:
REMARK  status: ('A' for Active; 'I' for Inactive)
REMARK    1  A    between atoms: C4_4  and  C8_8 
REMARK    2  A    between atoms: C7_7  and  N10_10 
REMARK    3  A    between atoms: C8_8  and  N10_10 
ROOT
HETATM    1  C1  UNL     1     -34.107  14.579  -4.075  1.00 20.00     0.089 C 
HETATM    2  C7  UNL     1     -33.254  15.742  -3.840  1.00 20.00     0.394 C 
HETATM    3  N9  UNL     1     -34.781  13.653  -4.262  1.00 20.00    -0.195 NA
ENDROOT
BRANCH   2   4
HETATM    4  N10 UNL     1     -34.052  16.977  -3.793  1.00 20.00     0.097 N 
HETATM    5  C6  UNL     1     -34.481  17.336  -5.154  1.00 20.00     0.311 C 
BRANCH   4   6
HETATM    6  C8  UNL     1     -33.323  18.050  -3.174  1.00 20.00     0.278 C 
BRANCH   6   7
HETATM    7  C4  UNL     1     -32.802  17.646  -1.838  1.00 20.00     0.018 A 
HETATM    8  C2  UNL     1     -33.631  17.878  -0.602  1.00 20.00     0.011 A 
HETATM    9  C3  UNL     1     -32.389  18.696  -0.840  1.00 20.00    -0.012 A 
HETATM   10  C5  UNL     1     -31.182  18.487   0.007  1.00 20.00     0.010 C 
ENDBRANCH   6   7
ENDBRANCH   4   6
ENDBRANCH   2   4
TORSDOF 3
ENDMDL
MODEL 2
REMARK VINA RESULT:      -3.7      1.966      4.875
REMARK  3 active torsions:
REMARK  status: ('A' for Active; 'I' for Inactive)
REMARK    1  A    between atoms: C4_4  and  C8_8 
REMARK    2  A    between atoms: C7_7  and  N10_10 
REMARK    3  A    between atoms: C8_8  and  N10_10 
ROOT
HETATM    1  C1  UNL     1     -31.939  18.334  -0.860  1.00 20.00     0.089 C 
HETATM    2  C7  UNL     1     -33.271  17.886  -1.260  1.00 20.00     0.394 C 
HETATM    3  N9  UNL     1     -30.882  18.691  -0.538  1.00 20.00    -0.195 NA
ENDROOT
BRANCH   2   4
HETATM    4  N10 UNL     1     -33.347  17.703  -2.718  1.00 20.00     0.097 N 
HETATM    5  C6  UNL     1     -34.680  18.104  -3.194  1.00 20.00     0.311 C 
BRANCH   4   6
HETATM    6  C8  UNL     1     -33.042  16.349  -3.093  1.00 20.00     0.278 C 
BRANCH   6   7
HETATM    7  C4  UNL     1     -34.047  15.819  -4.056  1.00 20.00     0.018 A 
HETATM    8  C2  UNL     1     -34.315  14.338  -4.130  1.00 20.00     0.011 A 
HETATM    9  C3  UNL     1     -33.598  15.031  -5.259  1.00 20.00    -0.012 A 
HETATM   10  C5  UNL     1     -34.275  15.221  -6.572  1.00 20.00     0.010 C 
ENDBRANCH   6   7
ENDBRANCH   4   6
ENDBRANCH   2   4
TORSDOF 3
ENDMDL
MODEL 3
REMARK VINA RESULT:      -3.7      2.215      4.685
REMARK  3 active torsions:
REMARK  status: ('A' for Active; 'I' for Inactive)
REMARK    1  A    between atoms: C4_4  and  C8_8 
REMARK    2  A    between atoms: C7_7  and  N10_10 
REMARK    3  A    between atoms: C8_8  and  N10_10 
ROOT
HETATM    1  C1  UNL     1     -31.731  18.903  -0.403  1.00 20.00     0.089 C 
HETATM    2  C7  UNL     1     -33.150  19.257  -0.434  1.00 20.00     0.394 C 
HETATM    3  N9  UNL     1     -30.605  18.626  -0.375  1.00 20.00    -0.195 NA
ENDROOT
BRANCH   2   4
HETATM    4  N10 UNL     1     -33.815  18.651  -1.598  1.00 20.00     0.097 N 
HETATM    5  C6  UNL     1     -35.236  19.033  -1.604  1.00 20.00     0.311 C 
BRANCH   4   6
HETATM    6  C8  UNL     1     -33.657  17.223  -1.608  1.00 20.00     0.278 C 
BRANCH   6   7
HETATM    7  C4  UNL     1     -33.178  16.743  -2.934  1.00 20.00     0.018 A 
HETATM    8  C2  UNL     1     -33.991  17.009  -4.173  1.00 20.00     0.011 A 
HETATM    9  C3  UNL     1     -33.886  15.608  -3.628  1.00 20.00    -0.012 A 
HETATM   10  C5  UNL     1     -33.102  14.576  -4.362  1.00 20.00     0.010 C 
ENDBRANCH   6   7
ENDBRANCH   4   6
ENDBRANCH   2   4
TORSDOF 3
ENDMDL
MODEL 4
REMARK VINA RESULT:      -3.7      1.435      1.868
REMARK  3 active torsions:
REMARK  status: ('A' for Active; 'I' for Inactive)
REMARK    1  A    between atoms: C4_4  and  C8_8 
REMARK    2  A    between atoms: C7_7  and  N10_10 
REMARK    3  A    between atoms: C8_8  and  N10_10 
ROOT
HETATM    1  C1  UNL     1     -35.106  14.738  -6.151  1.00 20.00     0.089 C 
HETATM    2  C7  UNL     1     -33.975  15.093  -5.297  1.00 20.00     0.394 C 
HETATM    3  N9  UNL     1     -36.002  14.454  -6.832  1.00 20.00    -0.195 NA
ENDROOT
BRANCH   2   4
HETATM    4  N10 UNL     1     -34.312  16.232  -4.428  1.00 20.00     0.097 N 
HETATM    5  C6  UNL     1     -34.499  17.437  -5.251  1.00 20.00     0.311 C 
BRANCH   4   6
HETATM    6  C8  UNL     1     -33.308  16.437  -3.420  1.00 20.00     0.278 C 
BRANCH   6   7
HETATM    7  C4  UNL     1     -33.681  17.554  -2.508  1.00 20.00     0.018 A 
HETATM    8  C2  UNL     1     -32.710  18.675  -2.247  1.00 20.00     0.011 A 
HETATM    9  C3  UNL     1     -33.022  17.680  -1.159  1.00 20.00    -0.012 A 
HETATM   10  C5  UNL     1     -33.820  18.095   0.027  1.00 20.00     0.010 C 
ENDBRANCH   6   7
ENDBRANCH   4   6
ENDBRANCH   2   4
TORSDOF 3
ENDMDL
MODEL 5
REMARK VINA RESULT:      -3.6      1.899      2.859
REMARK  3 active torsions:
REMARK  status: ('A' for Active; 'I' for Inactive)
REMARK    1  A    between atoms: C4_4  and  C8_8 
REMARK    2  A    between atoms: C7_7  and  N10_10 
REMARK    3  A    between atoms: C8_8  and  N10_10 
ROOT
HETATM    1  C1  UNL     1     -35.368  15.358  -6.997  1.00 20.00     0.089 C 
HETATM    2  C7  UNL     1     -34.490  16.526  -6.938  1.00 20.00     0.394 C 
HETATM    3  N9  UNL     1     -36.061  14.430  -7.047  1.00 20.00    -0.195 NA
ENDROOT
BRANCH   2   4
HETATM    4  N10 UNL     1     -35.051  17.558  -6.052  1.00 20.00     0.097 N 
HETATM    5  C6  UNL     1     -34.236  18.780  -6.145  1.00 20.00     0.311 C 
BRANCH   4   6
HETATM    6  C8  UNL     1     -35.143  17.092  -4.696  1.00 20.00     0.278 C 
BRANCH   6   7
HETATM    7  C4  UNL     1     -33.816  17.136  -4.020  1.00 20.00     0.018 A 
HETATM    8  C2  UNL     1     -33.167  15.863  -3.544  1.00 20.00     0.011 A 
HETATM    9  C3  UNL     1     -33.709  16.851  -2.545  1.00 20.00    -0.012 A 
HETATM   10  C5  UNL     1     -32.778  17.645  -1.696  1.00 20.00     0.010 C 
ENDBRANCH   6   7
ENDBRANCH   4   6
ENDBRANCH   2   4
TORSDOF 3
ENDMDL
MODEL 6
REMARK VINA RESULT:      -3.5     12.035     13.375
REMARK  3 active torsions:
REMARK  status: ('A' for Active; 'I' for Inactive)
REMARK    1  A    between atoms: C4_4  and  C8_8 
REMARK    2  A    between atoms: C7_7  and  N10_10 
REMARK    3  A    between atoms: C8_8  and  N10_10 
ROOT
HETATM    1  C1  UNL     1     -41.578  14.187   9.026  1.00 20.00     0.089 C 
HETATM    2  C7  UNL     1     -42.476  14.612   7.952  1.00 20.00     0.394 C 
HETATM    3  N9  UNL     1     -40.867  13.854   9.880  1.00 20.00    -0.195 NA
ENDROOT
BRANCH   2   4
HETATM    4  N10 UNL     1     -42.255  13.811   6.738  1.00 20.00     0.097 N 
HETATM    5  C6  UNL     1     -42.699  12.429   6.974  1.00 20.00     0.311 C 
BRANCH   4   6
HETATM    6  C8  UNL     1     -40.879  13.856   6.324  1.00 20.00     0.278 C 
BRANCH   6   7
HETATM    7  C4  UNL     1     -40.418  12.524   5.843  1.00 20.00     0.018 A 
HETATM    8  C2  UNL     1     -39.222  11.863   6.477  1.00 20.00     0.011 A 
HETATM    9  C3  UNL     1     -39.129  12.403   5.074  1.00 20.00    -0.012 A 
HETATM   10  C5  UNL     1     -39.033  11.469   3.917  1.00 20.00     0.010 C 
ENDBRANCH   6   7
ENDBRANCH   4   6
ENDBRANCH   2   4
TORSDOF 3
ENDMDL
MODEL 7
REMARK VINA RESULT:      -3.5     10.781     11.831
REMARK  3 active torsions:
REMARK  status: ('A' for Active; 'I' for Inactive)
REMARK    1  A    between atoms: C4_4  and  C8_8 
REMARK    2  A    between atoms: C7_7  and  N10_10 
REMARK    3  A    between atoms: C8_8  and  N10_10 
ROOT
HETATM    1  C1  UNL     1     -32.714   9.066   1.231  1.00 20.00     0.089 C 
HETATM    2  C7  UNL     1     -32.931   9.096   2.677  1.00 20.00     0.394 C 
HETATM    3  N9  UNL     1     -32.546   9.046   0.083  1.00 20.00    -0.195 NA
ENDROOT
BRANCH   2   4
HETATM    4  N10 UNL     1     -32.142   8.050   3.345  1.00 20.00     0.097 N 
HETATM    5  C6  UNL     1     -32.505   6.735   2.794  1.00 20.00     0.311 C 
BRANCH   4   6
HETATM    6  C8  UNL     1     -32.323   8.088   4.771  1.00 20.00     0.278 C 
BRANCH   6   7
HETATM    7  C4  UNL     1     -33.642   7.516   5.161  1.00 20.00     0.018 A 
HETATM    8  C2  UNL     1     -34.197   7.766   6.540  1.00 20.00     0.011 A 
HETATM    9  C3  UNL     1     -33.712   6.391   6.161  1.00 20.00    -0.012 A 
HETATM   10  C5  UNL     1     -34.686   5.281   5.969  1.00 20.00     0.010 C 
ENDBRANCH   6   7
ENDBRANCH   4   6
ENDBRANCH   2   4
TORSDOF 3
ENDMDL
MODEL 8
REMARK VINA RESULT:      -3.5     11.374     12.651
REMARK  3 active torsions:
REMARK  status: ('A' for Active; 'I' for Inactive)
REMARK    1  A    between atoms: C4_4  and  C8_8 
REMARK    2  A    between atoms: C7_7  and  N10_10 
REMARK    3  A    between atoms: C8_8  and  N10_10 
ROOT
HETATM    1  C1  UNL     1     -42.674  14.429   4.366  1.00 20.00     0.089 C 
HETATM    2  C7  UNL     1     -43.278  14.232   5.683  1.00 20.00     0.394 C 
HETATM    3  N9  UNL     1     -42.198  14.588   3.320  1.00 20.00    -0.195 NA
ENDROOT
BRANCH   2   4
HETATM    4  N10 UNL     1     -42.665  13.088   6.374  1.00 20.00     0.097 N 
HETATM    5  C6  UNL     1     -43.353  12.862   7.655  1.00 20.00     0.311 C 
BRANCH   4   6
HETATM    6  C8  UNL     1     -41.254  13.286   6.566  1.00 20.00     0.278 C 
BRANCH   6   7
HETATM    7  C4  UNL     1     -40.469  12.156   5.998  1.00 20.00     0.018 A 
HETATM    8  C2  UNL     1     -39.061  11.901   6.468  1.00 20.00     0.011 A 
HETATM    9  C3  UNL     1     -39.307  12.430   5.079  1.00 20.00    -0.012 A 
HETATM   10  C5  UNL     1     -39.070  11.559   3.894  1.00 20.00     0.010 C 
ENDBRANCH   6   7
ENDBRANCH   4   6
ENDBRANCH   2   4
TORSDOF 3
ENDMDL
MODEL 9
REMARK VINA RESULT:      -3.5     11.128     12.282
REMARK  3 active torsions:
REMARK  status: ('A' for Active; 'I' for Inactive)
REMARK    1  A    between atoms: C4_4  and  C8_8 
REMARK    2  A    between atoms: C7_7  and  N10_10 
REMARK    3  A    between atoms: C8_8  and  N10_10 
ROOT
HETATM    1  C1  UNL     1     -32.195   8.060   1.670  1.00 20.00     0.089 C 
HETATM    2  C7  UNL     1     -32.218   7.601   3.058  1.00 20.00     0.394 C 
HETATM    3  N9  UNL     1     -32.173   8.421   0.568  1.00 20.00    -0.195 NA
ENDROOT
BRANCH   2   4
HETATM    4  N10 UNL     1     -32.865   8.595   3.928  1.00 20.00     0.097 N 
HETATM    5  C6  UNL     1     -31.943   8.975   5.009  1.00 20.00     0.311 C 
BRANCH   4   6
HETATM    6  C8  UNL     1     -34.110   8.102   4.451  1.00 20.00     0.278 C 
BRANCH   6   7
HETATM    7  C4  UNL     1     -34.045   6.636   4.705  1.00 20.00     0.018 A 
HETATM    8  C2  UNL     1     -35.270   5.780   4.518  1.00 20.00     0.011 A 
HETATM    9  C3  UNL     1     -34.741   6.045   5.903  1.00 20.00    -0.012 A 
HETATM   10  C5  UNL     1     -34.094   4.950   6.679  1.00 20.00     0.010 C 
ENDBRANCH   6   7
ENDBRANCH   4   6
ENDBRANCH   2   4
TORSDOF 3
ENDMDL
