MODEL 1
REMARK VINA RESULT:      -5.7      0.000      0.000
REMARK  4 active torsions:
REMARK  status: ('A' for Active; 'I' for Inactive)
REMARK    1  A    between atoms: C6_6  and  C10_10 
REMARK    2  A    between atoms: C8_8  and  C9_9 
REMARK    3  A    between atoms: C9_9  and  C10_10 
REMARK    4  A    between atoms: C10_10  and  O11_11 
ROOT
HETATM    1  C1  UNL     1     -34.847   5.233   5.975  1.00 20.00    -0.031 C 
HETATM    2  C2  UNL     1     -34.391   6.312   6.626  1.00 20.00    -0.030 C 
HETATM    3  C3  UNL     1     -34.619   5.003   4.511  1.00 20.00     0.027 C 
HETATM    4  C4  UNL     1     -33.633   7.417   5.953  1.00 20.00     0.034 C 
HETATM    5  C5  UNL     1     -33.566   5.937   3.908  1.00 20.00     0.011 C 
HETATM    6  C6  UNL     1     -33.740   7.374   4.418  1.00 20.00     0.018 C 
ENDROOT
BRANCH   6   7
HETATM    7  C10 UNL     1     -32.719   8.313   3.779  1.00 20.00     0.122 C 
BRANCH   7   8
HETATM    8  C9  UNL     1     -31.963   7.623   2.641  1.00 20.00     0.032 C 
BRANCH   8   9
HETATM    9  C8  UNL     1     -32.247   8.276   1.287  1.00 20.00    -0.002 C 
HETATM   10  C7  UNL     1     -32.902   9.639   1.453  1.00 20.00     0.005 C 
ENDBRANCH   8   9
ENDBRANCH   7   8
BRANCH   7  11
HETATM   11  O11 UNL     1     -31.810   8.746   4.785  1.00 20.00    -0.395 OA
HETATM   12  H29 UNL     1     -32.285   8.696   5.630  1.00 20.00     0.210 HD
ENDBRANCH   7  11
ENDBRANCH   6   7
TORSDOF 4
ENDMDL
MODEL 2
REMARK VINA RESULT:      -5.2      0.601      1.668
REMARK  4 active torsions:
REMARK  status: ('A' for Active; 'I' for Inactive)
REMARK    1  A    between atoms: C6_6  and  C10_10 
REMARK    2  A    between atoms: C8_8  and  C9_9 
REMARK    3  A    between atoms: C9_9  and  C10_10 
REMARK    4  A    between atoms: C10_10  and  O11_11 
ROOT
HETATM    1  C1  UNL     1     -34.713   4.920   5.694  1.00 20.00    -0.031 C 
HETATM    2  C2  UNL     1     -34.374   4.993   4.399  1.00 20.00    -0.030 C 
HETATM    3  C3  UNL     1     -34.507   6.048   6.659  1.00 20.00     0.027 C 
HETATM    4  C4  UNL     1     -33.722   6.198   3.788  1.00 20.00     0.034 C 
HETATM    5  C5  UNL     1     -34.173   7.377   5.975  1.00 20.00     0.011 C 
HETATM    6  C6  UNL     1     -33.165   7.179   4.836  1.00 20.00     0.018 C 
ENDROOT
BRANCH   6   7
HETATM    7  C10 UNL     1     -32.798   8.511   4.186  1.00 20.00     0.122 C 
BRANCH   7   8
HETATM    8  C9  UNL     1     -32.275   8.312   2.762  1.00 20.00     0.032 C 
BRANCH   8   9
HETATM    9  C8  UNL     1     -32.838   9.356   1.795  1.00 20.00    -0.002 C 
HETATM   10  C7  UNL     1     -32.547   8.988   0.347  1.00 20.00     0.005 C 
ENDBRANCH   8   9
ENDBRANCH   7   8
BRANCH   7  11
HETATM   11  O11 UNL     1     -31.811   9.150   4.990  1.00 20.00    -0.395 OA
HETATM   12  H29 UNL     1     -31.853  10.097   4.780  1.00 20.00     0.210 HD
ENDBRANCH   7  11
ENDBRANCH   6   7
TORSDOF 4
ENDMDL
MODEL 3
REMARK VINA RESULT:      -4.2      0.901      4.619
REMARK  4 active torsions:
REMARK  status: ('A' for Active; 'I' for Inactive)
REMARK    1  A    between atoms: C6_6  and  C10_10 
REMARK    2  A    between atoms: C8_8  and  C9_9 
REMARK    3  A    between atoms: C9_9  and  C10_10 
REMARK    4  A    between atoms: C10_10  and  O11_11 
ROOT
HETATM    1  C1  UNL     1     -32.480   8.774   0.673  1.00 20.00    -0.031 C 
HETATM    2  C2  UNL     1     -32.051   7.592   1.137  1.00 20.00    -0.030 C 
HETATM    3  C3  UNL     1     -33.008   9.859   1.562  1.00 20.00     0.027 C 
HETATM    4  C4  UNL     1     -32.086   7.218   2.589  1.00 20.00     0.034 C 
HETATM    5  C5  UNL     1     -32.723   9.618   3.048  1.00 20.00     0.011 C 
HETATM    6  C6  UNL     1     -32.971   8.154   3.432  1.00 20.00     0.018 C 
ENDROOT
BRANCH   6   7
HETATM    7  C10 UNL     1     -32.731   7.926   4.922  1.00 20.00     0.122 C 
BRANCH   7   8
HETATM    8  C9  UNL     1     -34.050   7.738   5.677  1.00 20.00     0.032 C 
BRANCH   8   9
HETATM    9  C8  UNL     1     -34.157   6.346   6.304  1.00 20.00    -0.002 C 
HETATM   10  C7  UNL     1     -34.820   5.359   5.356  1.00 20.00     0.005 C 
ENDBRANCH   8   9
ENDBRANCH   7   8
BRANCH   7  11
HETATM   11  O11 UNL     1     -32.019   9.044   5.442  1.00 20.00    -0.395 OA
HETATM   12  H29 UNL     1     -31.607   9.488   4.684  1.00 20.00     0.210 HD
ENDBRANCH   7  11
ENDBRANCH   6   7
TORSDOF 4
ENDMDL
MODEL 4
REMARK VINA RESULT:      -4.1     11.714     12.183
REMARK  4 active torsions:
REMARK  status: ('A' for Active; 'I' for Inactive)
REMARK    1  A    between atoms: C6_6  and  C10_10 
REMARK    2  A    between atoms: C8_8  and  C9_9 
REMARK    3  A    between atoms: C9_9  and  C10_10 
REMARK    4  A    between atoms: C10_10  and  O11_11 
ROOT
HETATM    1  C1  UNL     1     -31.443  18.933   2.670  1.00 20.00    -0.031 C 
HETATM    2  C2  UNL     1     -32.723  19.262   2.448  1.00 20.00    -0.030 C 
HETATM    3  C3  UNL     1     -30.533  18.417   1.596  1.00 20.00     0.027 C 
HETATM    4  C4  UNL     1     -33.389  19.118   1.112  1.00 20.00     0.034 C 
HETATM    5  C5  UNL     1     -31.099  18.598   0.184  1.00 20.00     0.011 C 
HETATM    6  C6  UNL     1     -32.590  18.240   0.132  1.00 20.00     0.018 C 
ENDROOT
BRANCH   6   7
HETATM    7  C10 UNL     1     -33.139  18.376  -1.286  1.00 20.00     0.122 C 
BRANCH   7   8
HETATM    8  C9  UNL     1     -33.550  17.017  -1.858  1.00 20.00     0.032 C 
BRANCH   8   9
HETATM    9  C8  UNL     1     -33.329  16.942  -3.371  1.00 20.00    -0.002 C 
HETATM   10  C7  UNL     1     -33.327  15.502  -3.861  1.00 20.00     0.005 C 
ENDBRANCH   8   9
ENDBRANCH   7   8
BRANCH   7  11
HETATM   11  O11 UNL     1     -32.140  18.975  -2.105  1.00 20.00    -0.395 OA
HETATM   12  H29 UNL     1     -31.778  18.269  -2.663  1.00 20.00     0.210 HD
ENDBRANCH   7  11
ENDBRANCH   6   7
TORSDOF 4
ENDMDL
MODEL 5
REMARK VINA RESULT:      -4.1     11.491     12.318
REMARK  4 active torsions:
REMARK  status: ('A' for Active; 'I' for Inactive)
REMARK    1  A    between atoms: C6_6  and  C10_10 
REMARK    2  A    between atoms: C8_8  and  C9_9 
REMARK    3  A    between atoms: C9_9  and  C10_10 
REMARK    4  A    between atoms: C10_10  and  O11_11 
ROOT
HETATM    1  C1  UNL     1     -32.047  18.957   1.241  1.00 20.00    -0.031 C 
HETATM    2  C2  UNL     1     -31.192  18.660   0.252  1.00 20.00    -0.030 C 
HETATM    3  C3  UNL     1     -33.536  18.893   1.083  1.00 20.00     0.027 C 
HETATM    4  C4  UNL     1     -31.636  18.264  -1.125  1.00 20.00     0.034 C 
HETATM    5  C5  UNL     1     -33.980  18.165  -0.189  1.00 20.00     0.011 C 
HETATM    6  C6  UNL     1     -33.120  18.574  -1.392  1.00 20.00     0.018 C 
ENDROOT
BRANCH   6   7
HETATM    7  C10 UNL     1     -33.595  17.883  -2.669  1.00 20.00     0.122 C 
BRANCH   7   8
HETATM    8  C9  UNL     1     -33.534  16.359  -2.533  1.00 20.00     0.032 C 
BRANCH   8   9
HETATM    9  C8  UNL     1     -33.109  15.685  -3.840  1.00 20.00    -0.002 C 
HETATM   10  C7  UNL     1     -34.017  14.513  -4.182  1.00 20.00     0.005 C 
ENDBRANCH   8   9
ENDBRANCH   7   8
BRANCH   7  11
HETATM   11  O11 UNL     1     -32.776  18.316  -3.750  1.00 20.00    -0.395 OA
HETATM   12  H29 UNL     1     -33.062  19.216  -3.971  1.00 20.00     0.210 HD
ENDBRANCH   7  11
ENDBRANCH   6   7
TORSDOF 4
ENDMDL
MODEL 6
REMARK VINA RESULT:      -4.1     11.628     12.754
REMARK  4 active torsions:
REMARK  status: ('A' for Active; 'I' for Inactive)
REMARK    1  A    between atoms: C6_6  and  C10_10 
REMARK    2  A    between atoms: C8_8  and  C9_9 
REMARK    3  A    between atoms: C9_9  and  C10_10 
REMARK    4  A    between atoms: C10_10  and  O11_11 
ROOT
HETATM    1  C1  UNL     1     -34.049  15.078  -5.794  1.00 20.00    -0.031 C 
HETATM    2  C2  UNL     1     -34.789  16.188  -5.920  1.00 20.00    -0.030 C 
HETATM    3  C3  UNL     1     -33.256  14.757  -4.562  1.00 20.00     0.027 C 
HETATM    4  C4  UNL     1     -34.876  17.241  -4.856  1.00 20.00     0.034 C 
HETATM    5  C5  UNL     1     -33.617  15.640  -3.364  1.00 20.00     0.011 C 
HETATM    6  C6  UNL     1     -33.781  17.107  -3.782  1.00 20.00     0.018 C 
ENDROOT
BRANCH   6   7
HETATM    7  C10 UNL     1     -34.094  17.992  -2.578  1.00 20.00     0.122 C 
BRANCH   7   8
HETATM    8  C9  UNL     1     -33.603  17.356  -1.276  1.00 20.00     0.032 C 
BRANCH   8   9
HETATM    9  C8  UNL     1     -32.995  18.391  -0.326  1.00 20.00    -0.002 C 
HETATM   10  C7  UNL     1     -31.487  18.487  -0.499  1.00 20.00     0.005 C 
ENDBRANCH   8   9
ENDBRANCH   7   8
BRANCH   7  11
HETATM   11  O11 UNL     1     -35.500  18.205  -2.525  1.00 20.00    -0.395 OA
HETATM   12  H29 UNL     1     -35.633  19.091  -2.152  1.00 20.00     0.210 HD
ENDBRANCH   7  11
ENDBRANCH   6   7
TORSDOF 4
ENDMDL
MODEL 7
REMARK VINA RESULT:      -4.0     11.682     12.944
REMARK  4 active torsions:
REMARK  status: ('A' for Active; 'I' for Inactive)
REMARK    1  A    between atoms: C6_6  and  C10_10 
REMARK    2  A    between atoms: C8_8  and  C9_9 
REMARK    3  A    between atoms: C9_9  and  C10_10 
REMARK    4  A    between atoms: C10_10  and  O11_11 
ROOT
HETATM    1  C1  UNL     1     -34.240  18.170  -2.264  1.00 20.00    -0.031 C 
HETATM    2  C2  UNL     1     -34.865  18.387  -3.430  1.00 20.00    -0.030 C 
HETATM    3  C3  UNL     1     -33.445  16.932  -1.979  1.00 20.00     0.027 C 
HETATM    4  C4  UNL     1     -34.861  17.400  -4.559  1.00 20.00     0.034 C 
HETATM    5  C5  UNL     1     -33.153  16.098  -3.231  1.00 20.00     0.011 C 
HETATM    6  C6  UNL     1     -34.389  15.998  -4.134  1.00 20.00     0.018 C 
ENDROOT
BRANCH   6   7
HETATM    7  C10 UNL     1     -34.110  15.127  -5.357  1.00 20.00     0.122 C 
BRANCH   7   8
HETATM    8  C9  UNL     1     -35.403  14.764  -6.090  1.00 20.00     0.032 C 
BRANCH   8   9
HETATM    9  C8  UNL     1     -35.428  15.321  -7.515  1.00 20.00    -0.002 C 
HETATM   10  C7  UNL     1     -34.072  15.883  -7.917  1.00 20.00     0.005 C 
ENDBRANCH   8   9
ENDBRANCH   7   8
BRANCH   7  11
HETATM   11  O11 UNL     1     -33.436  13.948  -4.929  1.00 20.00    -0.395 OA
HETATM   12  H29 UNL     1     -32.913  14.194  -4.150  1.00 20.00     0.210 HD
ENDBRANCH   7  11
ENDBRANCH   6   7
TORSDOF 4
ENDMDL
MODEL 8
REMARK VINA RESULT:      -4.0     11.245     12.519
REMARK  4 active torsions:
REMARK  status: ('A' for Active; 'I' for Inactive)
REMARK    1  A    between atoms: C6_6  and  C10_10 
REMARK    2  A    between atoms: C8_8  and  C9_9 
REMARK    3  A    between atoms: C9_9  and  C10_10 
REMARK    4  A    between atoms: C10_10  and  O11_11 
ROOT
HETATM    1  C1  UNL     1     -34.288  18.638  -1.899  1.00 20.00    -0.031 C 
HETATM    2  C2  UNL     1     -33.733  17.493  -1.477  1.00 20.00    -0.030 C 
HETATM    3  C3  UNL     1     -34.737  18.857  -3.312  1.00 20.00     0.027 C 
HETATM    4  C4  UNL     1     -33.475  16.324  -2.381  1.00 20.00     0.034 C 
HETATM    5  C5  UNL     1     -34.796  17.568  -4.137  1.00 20.00     0.011 C 
HETATM    6  C6  UNL     1     -33.570  16.684  -3.875  1.00 20.00     0.018 C 
ENDROOT
BRANCH   6   7
HETATM    7  C10 UNL     1     -33.608  15.421  -4.733  1.00 20.00     0.122 C 
BRANCH   7   8
HETATM    8  C9  UNL     1     -34.505  14.350  -4.110  1.00 20.00     0.032 C 
BRANCH   8   9
HETATM    9  C8  UNL     1     -35.768  14.107  -4.940  1.00 20.00    -0.002 C 
HETATM   10  C7  UNL     1     -35.655  14.736  -6.321  1.00 20.00     0.005 C 
ENDBRANCH   8   9
ENDBRANCH   7   8
BRANCH   7  11
HETATM   11  O11 UNL     1     -32.279  14.931  -4.876  1.00 20.00    -0.395 OA
HETATM   12  H29 UNL     1     -31.737  15.679  -5.174  1.00 20.00     0.210 HD
ENDBRANCH   7  11
ENDBRANCH   6   7
TORSDOF 4
ENDMDL
MODEL 9
REMARK VINA RESULT:      -4.0     15.142     16.573
REMARK  4 active torsions:
REMARK  status: ('A' for Active; 'I' for Inactive)
REMARK    1  A    between atoms: C6_6  and  C10_10 
REMARK    2  A    between atoms: C8_8  and  C9_9 
REMARK    3  A    between atoms: C9_9  and  C10_10 
REMARK    4  A    between atoms: C10_10  and  O11_11 
ROOT
HETATM    1  C1  UNL     1     -22.509  18.661   7.196  1.00 20.00    -0.031 C 
HETATM    2  C2  UNL     1     -23.444  19.263   7.944  1.00 20.00    -0.030 C 
HETATM    3  C3  UNL     1     -21.527  17.674   7.753  1.00 20.00     0.027 C 
HETATM    4  C4  UNL     1     -23.586  19.039   9.420  1.00 20.00     0.034 C 
HETATM    5  C5  UNL     1     -21.887  17.188   9.160  1.00 20.00     0.011 C 
HETATM    6  C6  UNL     1     -22.360  18.348  10.045  1.00 20.00     0.018 C 
ENDROOT
BRANCH   6   7
HETATM    7  C10 UNL     1     -22.674  17.869  11.461  1.00 20.00     0.122 C 
BRANCH   7   8
HETATM    8  C9  UNL     1     -24.035  18.383  11.935  1.00 20.00     0.032 C 
BRANCH   8   9
HETATM    9  C8  UNL     1     -25.053  17.250  12.088  1.00 20.00    -0.002 C 
HETATM   10  C7  UNL     1     -24.423  15.895  11.804  1.00 20.00     0.005 C 
ENDBRANCH   8   9
ENDBRANCH   7   8
BRANCH   7  11
HETATM   11  O11 UNL     1     -21.643  18.323  12.332  1.00 20.00    -0.395 OA
HETATM   12  H29 UNL     1     -20.834  17.854  12.073  1.00 20.00     0.210 HD
ENDBRANCH   7  11
ENDBRANCH   6   7
TORSDOF 4
ENDMDL
