MODEL 1
REMARK VINA RESULT:      -4.0      0.000      0.000
REMARK  2 active torsions:
REMARK  status: ('A' for Active; 'I' for Inactive)
REMARK    1  A    between atoms: C6_6  and  C8_8 
REMARK    2  A    between atoms: C8_8  and  N9_9 
ROOT
HETATM    1  C1  UNL     1     -32.183   8.019   2.305  1.00 20.00     0.332 C 
HETATM    2  N9  UNL     1     -32.252   8.056   3.481  1.00 20.00    -0.247 NA
HETATM    3  O10 UNL     1     -32.111   7.987   1.132  1.00 20.00    -0.260 OA
ENDROOT
BRANCH   2   4
HETATM    4  C8  UNL     1     -32.736   6.831   4.100  1.00 20.00     0.162 C 
BRANCH   4   5
HETATM    5  C6  UNL     1     -33.882   7.197   5.058  1.00 20.00    -0.026 C 
HETATM    6  C4  UNL     1     -33.727   6.485   6.408  1.00 20.00     0.011 C 
HETATM    7  C2  UNL     1     -34.262   5.074   6.177  1.00 20.00     0.001 C 
HETATM    8  C3  UNL     1     -35.222   5.171   4.991  1.00 20.00     0.001 C 
HETATM    9  C5  UNL     1     -35.222   6.636   4.563  1.00 20.00     0.011 C 
HETATM   10  C7  UNL     1     -33.934   8.717   5.225  1.00 20.00     0.017 C 
ENDBRANCH   4   5
ENDBRANCH   2   4
TORSDOF 2
ENDMDL
MODEL 2
REMARK VINA RESULT:      -3.9     11.818     12.524
REMARK  2 active torsions:
REMARK  status: ('A' for Active; 'I' for Inactive)
REMARK    1  A    between atoms: C6_6  and  C8_8 
REMARK    2  A    between atoms: C8_8  and  N9_9 
ROOT
HETATM    1  C1  UNL     1     -33.608  15.238  -3.932  1.00 20.00     0.332 C 
HETATM    2  N9  UNL     1     -33.465  16.375  -3.661  1.00 20.00    -0.247 NA
HETATM    3  O10 UNL     1     -33.750  14.103  -4.207  1.00 20.00    -0.260 OA
ENDROOT
BRANCH   2   4
HETATM    4  C8  UNL     1     -33.340  16.650  -2.237  1.00 20.00     0.162 C 
BRANCH   4   5
HETATM    5  C6  UNL     1     -33.215  18.171  -2.051  1.00 20.00    -0.026 C 
HETATM    6  C4  UNL     1     -32.030  18.525  -1.142  1.00 20.00     0.011 C 
HETATM    7  C2  UNL     1     -32.541  18.310   0.280  1.00 20.00     0.001 C 
HETATM    8  C3  UNL     1     -34.062  18.443   0.211  1.00 20.00     0.001 C 
HETATM    9  C5  UNL     1     -34.398  18.733  -1.250  1.00 20.00     0.011 C 
HETATM   10  C7  UNL     1     -33.094  18.840  -3.421  1.00 20.00     0.017 C 
ENDBRANCH   4   5
ENDBRANCH   2   4
TORSDOF 2
ENDMDL
MODEL 3
REMARK VINA RESULT:      -3.7     12.067     13.014
REMARK  2 active torsions:
REMARK  status: ('A' for Active; 'I' for Inactive)
REMARK    1  A    between atoms: C6_6  and  C8_8 
REMARK    2  A    between atoms: C8_8  and  N9_9 
ROOT
HETATM    1  C1  UNL     1     -30.705  18.889   0.224  1.00 20.00     0.332 C 
HETATM    2  N9  UNL     1     -31.202  18.514  -0.777  1.00 20.00    -0.247 NA
HETATM    3  O10 UNL     1     -30.205  19.260   1.221  1.00 20.00    -0.260 OA
ENDROOT
BRANCH   2   4
HETATM    4  C8  UNL     1     -32.398  19.244  -1.172  1.00 20.00     0.162 C 
BRANCH   4   5
HETATM    5  C6  UNL     1     -33.591  18.276  -1.120  1.00 20.00    -0.026 C 
HETATM    6  C4  UNL     1     -33.275  16.964  -1.852  1.00 20.00     0.011 C 
HETATM    7  C2  UNL     1     -33.487  17.274  -3.332  1.00 20.00     0.001 C 
HETATM    8  C3  UNL     1     -34.450  18.460  -3.385  1.00 20.00     0.001 C 
HETATM    9  C5  UNL     1     -34.777  18.809  -1.936  1.00 20.00     0.011 C 
HETATM   10  C7  UNL     1     -33.977  18.028   0.339  1.00 20.00     0.017 C 
ENDBRANCH   4   5
ENDBRANCH   2   4
TORSDOF 2
ENDMDL
MODEL 4
REMARK VINA RESULT:      -3.7      9.439     10.599
REMARK  2 active torsions:
REMARK  status: ('A' for Active; 'I' for Inactive)
REMARK    1  A    between atoms: C6_6  and  C8_8 
REMARK    2  A    between atoms: C8_8  and  N9_9 
ROOT
HETATM    1  C1  UNL     1     -42.898   4.095  -2.384  1.00 20.00     0.332 C 
HETATM    2  N9  UNL     1     -42.992   4.710  -1.383  1.00 20.00    -0.247 NA
HETATM    3  O10 UNL     1     -42.808   3.481  -3.382  1.00 20.00    -0.260 OA
ENDROOT
BRANCH   2   4
HETATM    4  C8  UNL     1     -41.779   5.404  -0.979  1.00 20.00     0.162 C 
BRANCH   4   5
HETATM    5  C6  UNL     1     -42.061   6.135   0.344  1.00 20.00    -0.026 C 
HETATM    6  C4  UNL     1     -43.177   7.175   0.178  1.00 20.00     0.011 C 
HETATM    7  C2  UNL     1     -42.497   8.392  -0.444  1.00 20.00     0.001 C 
HETATM    8  C3  UNL     1     -41.018   8.290  -0.072  1.00 20.00     0.001 C 
HETATM    9  C5  UNL     1     -40.874   7.016   0.757  1.00 20.00     0.011 C 
HETATM   10  C7  UNL     1     -42.404   5.108   1.424  1.00 20.00     0.017 C 
ENDBRANCH   4   5
ENDBRANCH   2   4
TORSDOF 2
ENDMDL
MODEL 5
REMARK VINA RESULT:      -3.7     10.004     11.135
REMARK  2 active torsions:
REMARK  status: ('A' for Active; 'I' for Inactive)
REMARK    1  A    between atoms: C6_6  and  C8_8 
REMARK    2  A    between atoms: C8_8  and  N9_9 
ROOT
HETATM    1  C1  UNL     1     -40.241  14.570   9.229  1.00 20.00     0.332 C 
HETATM    2  N9  UNL     1     -40.368  13.734   8.408  1.00 20.00    -0.247 NA
HETATM    3  O10 UNL     1     -40.113  15.401  10.051  1.00 20.00    -0.260 OA
ENDROOT
BRANCH   2   4
HETATM    4  C8  UNL     1     -40.421  14.228   7.040  1.00 20.00     0.162 C 
BRANCH   4   5
HETATM    5  C6  UNL     1     -41.020  13.124   6.154  1.00 20.00    -0.026 C 
HETATM    6  C4  UNL     1     -41.519  13.692   4.818  1.00 20.00     0.011 C 
HETATM    7  C2  UNL     1     -42.886  14.298   5.130  1.00 20.00     0.001 C 
HETATM    8  C3  UNL     1     -43.397  13.575   6.376  1.00 20.00     0.001 C 
HETATM    9  C5  UNL     1     -42.317  12.567   6.758  1.00 20.00     0.011 C 
HETATM   10  C7  UNL     1     -39.978  12.024   5.944  1.00 20.00     0.017 C 
ENDBRANCH   4   5
ENDBRANCH   2   4
TORSDOF 2
ENDMDL
MODEL 6
REMARK VINA RESULT:      -3.5     11.696     12.641
REMARK  2 active torsions:
REMARK  status: ('A' for Active; 'I' for Inactive)
REMARK    1  A    between atoms: C6_6  and  C8_8 
REMARK    2  A    between atoms: C8_8  and  N9_9 
ROOT
HETATM    1  C1  UNL     1     -33.610  17.118  -2.007  1.00 20.00     0.332 C 
HETATM    2  N9  UNL     1     -33.199  16.453  -2.888  1.00 20.00    -0.247 NA
HETATM    3  O10 UNL     1     -34.017  17.782  -1.126  1.00 20.00    -0.260 OA
ENDROOT
BRANCH   2   4
HETATM    4  C8  UNL     1     -34.050  16.411  -4.068  1.00 20.00     0.162 C 
BRANCH   4   5
HETATM    5  C6  UNL     1     -33.838  15.057  -4.765  1.00 20.00    -0.026 C 
HETATM    6  C4  UNL     1     -33.998  15.185  -6.287  1.00 20.00     0.011 C 
HETATM    7  C2  UNL     1     -35.505  15.168  -6.531  1.00 20.00     0.001 C 
HETATM    8  C3  UNL     1     -36.123  14.453  -5.330  1.00 20.00     0.001 C 
HETATM    9  C5  UNL     1     -34.961  14.070  -4.417  1.00 20.00     0.011 C 
HETATM   10  C7  UNL     1     -32.464  14.504  -4.387  1.00 20.00     0.017 C 
ENDBRANCH   4   5
ENDBRANCH   2   4
TORSDOF 2
ENDMDL
MODEL 7
REMARK VINA RESULT:      -3.5      9.351     10.602
REMARK  2 active torsions:
REMARK  status: ('A' for Active; 'I' for Inactive)
REMARK    1  A    between atoms: C6_6  and  C8_8 
REMARK    2  A    between atoms: C8_8  and  N9_9 
ROOT
HETATM    1  C1  UNL     1     -39.087  12.091   5.760  1.00 20.00     0.332 C 
HETATM    2  N9  UNL     1     -40.160  12.073   6.247  1.00 20.00    -0.247 NA
HETATM    3  O10 UNL     1     -38.015  12.105   5.277  1.00 20.00    -0.260 OA
ENDROOT
BRANCH   2   4
HETATM    4  C8  UNL     1     -41.088  13.057   5.709  1.00 20.00     0.162 C 
BRANCH   4   5
HETATM    5  C6  UNL     1     -42.009  13.523   6.849  1.00 20.00    -0.026 C 
HETATM    6  C4  UNL     1     -42.803  14.773   6.448  1.00 20.00     0.011 C 
HETATM    7  C2  UNL     1     -41.836  15.938   6.642  1.00 20.00     0.001 C 
HETATM    8  C3  UNL     1     -40.803  15.468   7.667  1.00 20.00     0.001 C 
HETATM    9  C5  UNL     1     -41.196  14.042   8.043  1.00 20.00     0.011 C 
HETATM   10  C7  UNL     1     -42.933  12.373   7.254  1.00 20.00     0.017 C 
ENDBRANCH   4   5
ENDBRANCH   2   4
TORSDOF 2
ENDMDL
MODEL 8
REMARK VINA RESULT:      -3.4      9.489     10.474
REMARK  2 active torsions:
REMARK  status: ('A' for Active; 'I' for Inactive)
REMARK    1  A    between atoms: C6_6  and  C8_8 
REMARK    2  A    between atoms: C8_8  and  N9_9 
ROOT
HETATM    1  C1  UNL     1     -39.110  12.145   5.828  1.00 20.00     0.332 C 
HETATM    2  N9  UNL     1     -40.137  12.171   6.406  1.00 20.00    -0.247 NA
HETATM    3  O10 UNL     1     -38.086  12.114   5.251  1.00 20.00    -0.260 OA
ENDROOT
BRANCH   2   4
HETATM    4  C8  UNL     1     -40.519  13.483   6.907  1.00 20.00     0.162 C 
BRANCH   4   5
HETATM    5  C6  UNL     1     -41.973  13.753   6.486  1.00 20.00    -0.026 C 
HETATM    6  C4  UNL     1     -42.606  14.855   7.347  1.00 20.00     0.011 C 
HETATM    7  C2  UNL     1     -43.022  14.159   8.640  1.00 20.00     0.001 C 
HETATM    8  C3  UNL     1     -43.196  12.681   8.292  1.00 20.00     0.001 C 
HETATM    9  C5  UNL     1     -42.876  12.554   6.805  1.00 20.00     0.011 C 
HETATM   10  C7  UNL     1     -42.011  14.108   4.999  1.00 20.00     0.017 C 
ENDBRANCH   4   5
ENDBRANCH   2   4
TORSDOF 2
ENDMDL
MODEL 9
REMARK VINA RESULT:      -3.4     11.544     13.268
REMARK  2 active torsions:
REMARK  status: ('A' for Active; 'I' for Inactive)
REMARK    1  A    between atoms: C6_6  and  C8_8 
REMARK    2  A    between atoms: C8_8  and  N9_9 
ROOT
HETATM    1  C1  UNL     1     -33.378  16.780  -2.323  1.00 20.00     0.332 C 
HETATM    2  N9  UNL     1     -33.255  16.221  -3.353  1.00 20.00    -0.247 NA
HETATM    3  O10 UNL     1     -33.496  17.335  -1.294  1.00 20.00    -0.260 OA
ENDROOT
BRANCH   2   4
HETATM    4  C8  UNL     1     -34.221  16.605  -4.372  1.00 20.00     0.162 C 
BRANCH   4   5
HETATM    5  C6  UNL     1     -34.667  15.334  -5.114  1.00 20.00    -0.026 C 
HETATM    6  C4  UNL     1     -33.940  15.189  -6.457  1.00 20.00     0.011 C 
HETATM    7  C2  UNL     1     -34.690  16.111  -7.416  1.00 20.00     0.001 C 
HETATM    8  C3  UNL     1     -36.097  16.270  -6.841  1.00 20.00     0.001 C 
HETATM    9  C5  UNL     1     -36.131  15.437  -5.563  1.00 20.00     0.011 C 
HETATM   10  C7  UNL     1     -34.437  14.118  -4.215  1.00 20.00     0.017 C 
ENDBRANCH   4   5
ENDBRANCH   2   4
TORSDOF 2
ENDMDL
