MODEL 1
REMARK VINA RESULT:      -4.3      0.000      0.000
REMARK  3 active torsions:
REMARK  status: ('A' for Active; 'I' for Inactive)
REMARK    1  A    between atoms: C5_5  and  C6_6 
REMARK    2  A    between atoms: C5_5  and  C7_7 
REMARK    3  A    between atoms: C7_7  and  C8_8 
ROOT
HETATM    1  C1  UNL     1     -33.702   7.647   6.440  1.00 20.00     0.011 C 
HETATM    2  C7  UNL     1     -33.865   7.360   4.937  1.00 20.00    -0.010 C 
ENDROOT
BRANCH   2   3
HETATM    3  C5  UNL     1     -32.528   7.636   4.193  1.00 20.00     0.020 C 
BRANCH   3   4
HETATM    4  C6  UNL     1     -32.565   8.711   3.104  1.00 20.00     0.115 C 
HETATM    5 CL9  UNL     1     -32.143   8.065   1.503  1.00 20.00    -0.130 Cl
ENDBRANCH   3   4
ENDBRANCH   2   3
BRANCH   2   6
HETATM    6  C8  UNL     1     -34.452   5.923   4.646  1.00 20.00    -0.048 C 
HETATM    7  C2  UNL     1     -34.481   5.082   5.943  1.00 20.00     0.015 C 
HETATM    8  C3  UNL     1     -33.632   5.153   3.594  1.00 20.00     0.015 C 
HETATM    9  C4  UNL     1     -35.911   6.022   4.144  1.00 20.00     0.015 C 
ENDBRANCH   2   6
TORSDOF 3
ENDMDL
MODEL 2
REMARK VINA RESULT:      -4.2      0.026      1.440
REMARK  3 active torsions:
REMARK  status: ('A' for Active; 'I' for Inactive)
REMARK    1  A    between atoms: C5_5  and  C6_6 
REMARK    2  A    between atoms: C5_5  and  C7_7 
REMARK    3  A    between atoms: C7_7  and  C8_8 
ROOT
HETATM    1  C1  UNL     1     -33.695   7.686   6.421  1.00 20.00     0.011 C 
HETATM    2  C7  UNL     1     -33.869   7.363   4.927  1.00 20.00    -0.010 C 
ENDROOT
BRANCH   2   3
HETATM    3  C5  UNL     1     -32.536   7.615   4.167  1.00 20.00     0.020 C 
BRANCH   3   4
HETATM    4  C6  UNL     1     -32.562   8.706   3.094  1.00 20.00     0.115 C 
HETATM    5 CL9  UNL     1     -32.146   8.079   1.484  1.00 20.00    -0.130 Cl
ENDBRANCH   3   4
ENDBRANCH   2   3
BRANCH   2   6
HETATM    6  C8  UNL     1     -34.463   5.921   4.676  1.00 20.00    -0.048 C 
HETATM    7  C2  UNL     1     -35.909   6.022   4.139  1.00 20.00     0.015 C 
HETATM    8  C3  UNL     1     -34.486   5.062   5.954  1.00 20.00     0.015 C 
HETATM    9  C4  UNL     1     -33.639   5.170   3.605  1.00 20.00     0.015 C 
ENDBRANCH   2   6
TORSDOF 3
ENDMDL
MODEL 3
REMARK VINA RESULT:      -4.2      0.028      1.438
REMARK  3 active torsions:
REMARK  status: ('A' for Active; 'I' for Inactive)
REMARK    1  A    between atoms: C5_5  and  C6_6 
REMARK    2  A    between atoms: C5_5  and  C7_7 
REMARK    3  A    between atoms: C7_7  and  C8_8 
ROOT
HETATM    1  C1  UNL     1     -33.695   7.662   6.438  1.00 20.00     0.011 C 
HETATM    2  C7  UNL     1     -33.877   7.368   4.940  1.00 20.00    -0.010 C 
ENDROOT
BRANCH   2   3
HETATM    3  C5  UNL     1     -32.542   7.614   4.180  1.00 20.00     0.020 C 
BRANCH   3   4
HETATM    4  C6  UNL     1     -32.561   8.705   3.108  1.00 20.00     0.115 C 
HETATM    5 CL9  UNL     1     -32.149   8.076   1.498  1.00 20.00    -0.130 Cl
ENDBRANCH   3   4
ENDBRANCH   2   3
BRANCH   2   6
HETATM    6  C8  UNL     1     -34.494   5.941   4.664  1.00 20.00    -0.048 C 
HETATM    7  C2  UNL     1     -33.642   5.179   3.624  1.00 20.00     0.015 C 
HETATM    8  C3  UNL     1     -35.940   6.015   4.137  1.00 20.00     0.015 C 
HETATM    9  C4  UNL     1     -34.494   5.089   5.954  1.00 20.00     0.015 C 
ENDBRANCH   2   6
TORSDOF 3
ENDMDL
MODEL 4
REMARK VINA RESULT:      -4.0      0.934      2.107
REMARK  3 active torsions:
REMARK  status: ('A' for Active; 'I' for Inactive)
REMARK    1  A    between atoms: C5_5  and  C6_6 
REMARK    2  A    between atoms: C5_5  and  C7_7 
REMARK    3  A    between atoms: C7_7  and  C8_8 
ROOT
HETATM    1  C1  UNL     1     -33.253   5.360   2.785  1.00 20.00     0.011 C 
HETATM    2  C7  UNL     1     -33.024   6.204   4.050  1.00 20.00    -0.010 C 
ENDROOT
BRANCH   2   3
HETATM    3  C5  UNL     1     -32.581   7.643   3.659  1.00 20.00     0.020 C 
BRANCH   3   4
HETATM    4  C6  UNL     1     -32.237   7.871   2.186  1.00 20.00     0.115 C 
HETATM    5 CL9  UNL     1     -32.846   9.429   1.585  1.00 20.00    -0.130 Cl
ENDBRANCH   3   4
ENDBRANCH   2   3
BRANCH   2   6
HETATM    6  C8  UNL     1     -34.258   6.181   5.036  1.00 20.00    -0.048 C 
HETATM    7  C2  UNL     1     -34.218   4.912   5.917  1.00 20.00     0.015 C 
HETATM    8  C3  UNL     1     -35.607   6.206   4.292  1.00 20.00     0.015 C 
HETATM    9  C4  UNL     1     -34.213   7.393   5.994  1.00 20.00     0.015 C 
ENDBRANCH   2   6
TORSDOF 3
ENDMDL
MODEL 5
REMARK VINA RESULT:      -3.9      0.936      2.059
REMARK  3 active torsions:
REMARK  status: ('A' for Active; 'I' for Inactive)
REMARK    1  A    between atoms: C5_5  and  C6_6 
REMARK    2  A    between atoms: C5_5  and  C7_7 
REMARK    3  A    between atoms: C7_7  and  C8_8 
ROOT
HETATM    1  C1  UNL     1     -33.287   5.389   2.808  1.00 20.00     0.011 C 
HETATM    2  C7  UNL     1     -33.022   6.223   4.074  1.00 20.00    -0.010 C 
ENDROOT
BRANCH   2   3
HETATM    3  C5  UNL     1     -32.561   7.656   3.684  1.00 20.00     0.020 C 
BRANCH   3   4
HETATM    4  C6  UNL     1     -32.209   7.879   2.212  1.00 20.00     0.115 C 
HETATM    5 CL9  UNL     1     -32.838   9.423   1.594  1.00 20.00    -0.130 Cl
ENDBRANCH   3   4
ENDBRANCH   2   3
BRANCH   2   6
HETATM    6  C8  UNL     1     -34.239   6.215   5.080  1.00 20.00    -0.048 C 
HETATM    7  C2  UNL     1     -34.240   7.505   5.932  1.00 20.00     0.015 C 
HETATM    8  C3  UNL     1     -34.204   5.009   6.038  1.00 20.00     0.015 C 
HETATM    9  C4  UNL     1     -35.581   6.184   4.314  1.00 20.00     0.015 C 
ENDBRANCH   2   6
TORSDOF 3
ENDMDL
MODEL 6
REMARK VINA RESULT:      -3.7     15.452     16.590
REMARK  3 active torsions:
REMARK  status: ('A' for Active; 'I' for Inactive)
REMARK    1  A    between atoms: C5_5  and  C6_6 
REMARK    2  A    between atoms: C5_5  and  C7_7 
REMARK    3  A    between atoms: C7_7  and  C8_8 
ROOT
HETATM    1  C1  UNL     1     -24.672  19.253   9.210  1.00 20.00     0.011 C 
HETATM    2  C7  UNL     1     -23.756  18.222   9.890  1.00 20.00    -0.010 C 
ENDROOT
BRANCH   2   3
HETATM    3  C5  UNL     1     -22.266  18.621   9.696  1.00 20.00     0.020 C 
BRANCH   3   4
HETATM    4  C6  UNL     1     -21.370  17.589   9.007  1.00 20.00     0.115 C 
HETATM    5 CL9  UNL     1     -21.306  17.819   7.246  1.00 20.00    -0.130 Cl
ENDBRANCH   3   4
ENDBRANCH   2   3
BRANCH   2   6
HETATM    6  C8  UNL     1     -24.137  17.963  11.400  1.00 20.00    -0.048 C 
HETATM    7  C2  UNL     1     -24.424  16.462  11.632  1.00 20.00     0.015 C 
HETATM    8  C3  UNL     1     -25.379  18.761  11.840  1.00 20.00     0.015 C 
HETATM    9  C4  UNL     1     -22.964  18.344  12.332  1.00 20.00     0.015 C 
ENDBRANCH   2   6
TORSDOF 3
ENDMDL
MODEL 7
REMARK VINA RESULT:      -3.4      1.653      2.472
REMARK  3 active torsions:
REMARK  status: ('A' for Active; 'I' for Inactive)
REMARK    1  A    between atoms: C5_5  and  C6_6 
REMARK    2  A    between atoms: C5_5  and  C7_7 
REMARK    3  A    between atoms: C7_7  and  C8_8 
ROOT
HETATM    1  C1  UNL     1     -32.942   5.376   2.718  1.00 20.00     0.011 C 
HETATM    2  C7  UNL     1     -33.164   6.339   3.897  1.00 20.00    -0.010 C 
ENDROOT
BRANCH   2   3
HETATM    3  C5  UNL     1     -33.366   7.789   3.372  1.00 20.00     0.020 C 
BRANCH   3   4
HETATM    4  C6  UNL     1     -32.226   8.773   3.639  1.00 20.00     0.115 C 
HETATM    5 CL9  UNL     1     -32.186   9.318   5.330  1.00 20.00    -0.130 Cl
ENDBRANCH   3   4
ENDBRANCH   2   3
BRANCH   2   6
HETATM    6  C8  UNL     1     -34.315   5.865   4.869  1.00 20.00    -0.048 C 
HETATM    7  C2  UNL     1     -34.198   4.348   5.140  1.00 20.00     0.015 C 
HETATM    8  C3  UNL     1     -35.719   6.143   4.301  1.00 20.00     0.015 C 
HETATM    9  C4  UNL     1     -34.199   6.574   6.238  1.00 20.00     0.015 C 
ENDBRANCH   2   6
TORSDOF 3
ENDMDL
MODEL 8
REMARK VINA RESULT:      -3.4     12.053     13.020
REMARK  3 active torsions:
REMARK  status: ('A' for Active; 'I' for Inactive)
REMARK    1  A    between atoms: C5_5  and  C6_6 
REMARK    2  A    between atoms: C5_5  and  C7_7 
REMARK    3  A    between atoms: C7_7  and  C8_8 
ROOT
HETATM    1  C1  UNL     1     -33.873  18.107   0.431  1.00 20.00     0.011 C 
HETATM    2  C7  UNL     1     -33.080  18.734  -0.729  1.00 20.00    -0.010 C 
ENDROOT
BRANCH   2   3
HETATM    3  C5  UNL     1     -31.556  18.514  -0.515  1.00 20.00     0.020 C 
BRANCH   3   4
HETATM    4  C6  UNL     1     -30.923  19.250   0.667  1.00 20.00     0.115 C 
HETATM    5 CL9  UNL     1     -30.537  18.156   2.014  1.00 20.00    -0.130 Cl
ENDBRANCH   3   4
ENDBRANCH   2   3
BRANCH   2   6
HETATM    6  C8  UNL     1     -33.584  18.254  -2.147  1.00 20.00    -0.048 C 
HETATM    7  C2  UNL     1     -35.091  18.555  -2.313  1.00 20.00     0.015 C 
HETATM    8  C3  UNL     1     -33.370  16.745  -2.369  1.00 20.00     0.015 C 
HETATM    9  C4  UNL     1     -32.848  19.015  -3.273  1.00 20.00     0.015 C 
ENDBRANCH   2   6
TORSDOF 3
ENDMDL
MODEL 9
REMARK VINA RESULT:      -3.3      9.569     10.390
REMARK  3 active torsions:
REMARK  status: ('A' for Active; 'I' for Inactive)
REMARK    1  A    between atoms: C5_5  and  C6_6 
REMARK    2  A    between atoms: C5_5  and  C7_7 
REMARK    3  A    between atoms: C7_7  and  C8_8 
ROOT
HETATM    1  C1  UNL     1     -40.449  14.126   7.904  1.00 20.00     0.011 C 
HETATM    2  C7  UNL     1     -40.682  13.838   6.411  1.00 20.00    -0.010 C 
ENDROOT
BRANCH   2   3
HETATM    3  C5  UNL     1     -40.356  12.351   6.096  1.00 20.00     0.020 C 
BRANCH   3   4
HETATM    4  C6  UNL     1     -38.954  12.063   5.556  1.00 20.00     0.115 C 
HETATM    5 CL9  UNL     1     -38.969  11.641   3.830  1.00 20.00    -0.130 Cl
ENDBRANCH   3   4
ENDBRANCH   2   3
BRANCH   2   6
HETATM    6  C8  UNL     1     -42.117  14.276   5.917  1.00 20.00    -0.048 C 
HETATM    7  C2  UNL     1     -42.454  15.693   6.436  1.00 20.00     0.015 C 
HETATM    8  C3  UNL     1     -43.223  13.317   6.394  1.00 20.00     0.015 C 
HETATM    9  C4  UNL     1     -42.166  14.341   4.374  1.00 20.00     0.015 C 
ENDBRANCH   2   6
TORSDOF 3
ENDMDL
