MODEL 1
REMARK VINA RESULT:      -4.8      0.000      0.000
REMARK  4 active torsions:
REMARK  status: ('A' for Active; 'I' for Inactive)
REMARK    1  A    between atoms: C4_4  and  C5_5 
REMARK    2  A    between atoms: C5_5  and  C6_6 
REMARK    3  A    between atoms: C6_6  and  C8_8 
REMARK    4  A    between atoms: C7_7  and  C8_8 
ROOT
HETATM    1  C1  UNL     1     -32.142   7.333   2.191  1.00 20.00     0.012 C 
HETATM    2  C2  UNL     1     -32.217   7.870   3.261  1.00 20.00    -0.117 C 
HETATM    3  C4  UNL     1     -32.308   8.530   4.572  1.00 20.00     0.093 C 
ENDROOT
BRANCH   3   4
HETATM    4  C5  UNL     1     -33.696   8.379   5.202  1.00 20.00     0.012 C 
BRANCH   4   5
HETATM    5  C6  UNL     1     -33.748   7.269   6.260  1.00 20.00     0.006 C 
BRANCH   5   6
HETATM    6  C8  UNL     1     -34.769   6.157   5.934  1.00 20.00    -0.005 C 
HETATM    7  C3  UNL     1     -34.385   4.870   6.672  1.00 20.00     0.011 C 
BRANCH   6   8
HETATM    8  C7  UNL     1     -34.976   5.899   4.433  1.00 20.00     0.119 C 
HETATM    9 CL9  UNL     1     -33.898   4.646   3.770  1.00 20.00    -0.130 Cl
ENDBRANCH   6   8
ENDBRANCH   5   6
ENDBRANCH   4   5
ENDBRANCH   3   4
TORSDOF 4
ENDMDL
MODEL 2
REMARK VINA RESULT:      -4.8      0.981      1.095
REMARK  4 active torsions:
REMARK  status: ('A' for Active; 'I' for Inactive)
REMARK    1  A    between atoms: C4_4  and  C5_5 
REMARK    2  A    between atoms: C5_5  and  C6_6 
REMARK    3  A    between atoms: C6_6  and  C8_8 
REMARK    4  A    between atoms: C7_7  and  C8_8 
ROOT
HETATM    1  C1  UNL     1     -32.096   8.087   2.197  1.00 20.00     0.012 C 
HETATM    2  C2  UNL     1     -32.270   8.355   3.354  1.00 20.00    -0.117 C 
HETATM    3  C4  UNL     1     -32.482   8.687   4.771  1.00 20.00     0.093 C 
ENDROOT
BRANCH   3   4
HETATM    4  C5  UNL     1     -33.288   7.610   5.504  1.00 20.00     0.012 C 
BRANCH   4   5
HETATM    5  C6  UNL     1     -34.381   6.988   4.625  1.00 20.00     0.006 C 
BRANCH   5   6
HETATM    6  C8  UNL     1     -34.791   5.567   5.066  1.00 20.00    -0.005 C 
HETATM    7  C3  UNL     1     -34.618   5.426   6.583  1.00 20.00     0.011 C 
BRANCH   6   8
HETATM    8  C7  UNL     1     -34.075   4.432   4.316  1.00 20.00     0.119 C 
HETATM    9 CL9  UNL     1     -33.206   4.978   2.860  1.00 20.00    -0.130 Cl
ENDBRANCH   6   8
ENDBRANCH   5   6
ENDBRANCH   4   5
ENDBRANCH   3   4
TORSDOF 4
ENDMDL
MODEL 3
REMARK VINA RESULT:      -4.7      2.090      3.967
REMARK  4 active torsions:
REMARK  status: ('A' for Active; 'I' for Inactive)
REMARK    1  A    between atoms: C4_4  and  C5_5 
REMARK    2  A    between atoms: C5_5  and  C6_6 
REMARK    3  A    between atoms: C6_6  and  C8_8 
REMARK    4  A    between atoms: C7_7  and  C8_8 
ROOT
HETATM    1  C1  UNL     1     -34.802   5.087   5.713  1.00 20.00     0.012 C 
HETATM    2  C2  UNL     1     -34.288   6.142   5.964  1.00 20.00    -0.117 C 
HETATM    3  C4  UNL     1     -33.656   7.434   6.272  1.00 20.00     0.093 C 
ENDROOT
BRANCH   3   4
HETATM    4  C5  UNL     1     -33.527   8.326   5.035  1.00 20.00     0.012 C 
BRANCH   4   5
HETATM    5  C6  UNL     1     -32.342   7.932   4.142  1.00 20.00     0.006 C 
BRANCH   5   6
HETATM    6  C8  UNL     1     -32.767   7.394   2.759  1.00 20.00    -0.005 C 
HETATM    7  C3  UNL     1     -32.620   5.868   2.729  1.00 20.00     0.011 C 
BRANCH   6   8
HETATM    8  C7  UNL     1     -32.046   8.047   1.569  1.00 20.00     0.119 C 
HETATM    9 CL9  UNL     1     -32.788   9.575   1.037  1.00 20.00    -0.130 Cl
ENDBRANCH   6   8
ENDBRANCH   5   6
ENDBRANCH   4   5
ENDBRANCH   3   4
TORSDOF 4
ENDMDL
MODEL 4
REMARK VINA RESULT:      -4.7      1.710      2.764
REMARK  4 active torsions:
REMARK  status: ('A' for Active; 'I' for Inactive)
REMARK    1  A    between atoms: C4_4  and  C5_5 
REMARK    2  A    between atoms: C5_5  and  C6_6 
REMARK    3  A    between atoms: C6_6  and  C8_8 
REMARK    4  A    between atoms: C7_7  and  C8_8 
ROOT
HETATM    1  C1  UNL     1     -32.479   8.742   4.361  1.00 20.00     0.012 C 
HETATM    2  C2  UNL     1     -32.348   7.772   3.667  1.00 20.00    -0.117 C 
HETATM    3  C4  UNL     1     -32.185   6.583   2.818  1.00 20.00     0.093 C 
ENDROOT
BRANCH   3   4
HETATM    4  C5  UNL     1     -33.445   5.713   2.790  1.00 20.00     0.012 C 
BRANCH   4   5
HETATM    5  C6  UNL     1     -33.497   4.709   3.949  1.00 20.00     0.006 C 
BRANCH   5   6
HETATM    6  C8  UNL     1     -34.672   4.951   4.920  1.00 20.00    -0.005 C 
HETATM    7  C3  UNL     1     -35.610   6.017   4.342  1.00 20.00     0.011 C 
BRANCH   6   8
HETATM    8  C7  UNL     1     -34.254   5.297   6.359  1.00 20.00     0.119 C 
HETATM    9 CL9  UNL     1     -34.311   7.040   6.717  1.00 20.00    -0.130 Cl
ENDBRANCH   6   8
ENDBRANCH   5   6
ENDBRANCH   4   5
ENDBRANCH   3   4
TORSDOF 4
ENDMDL
MODEL 5
REMARK VINA RESULT:      -4.6      1.879      3.810
REMARK  4 active torsions:
REMARK  status: ('A' for Active; 'I' for Inactive)
REMARK    1  A    between atoms: C4_4  and  C5_5 
REMARK    2  A    between atoms: C5_5  and  C6_6 
REMARK    3  A    between atoms: C6_6  and  C8_8 
REMARK    4  A    between atoms: C7_7  and  C8_8 
ROOT
HETATM    1  C1  UNL     1     -34.048   4.289   4.155  1.00 20.00     0.012 C 
HETATM    2  C2  UNL     1     -34.370   4.909   5.131  1.00 20.00    -0.117 C 
HETATM    3  C4  UNL     1     -34.765   5.667   6.328  1.00 20.00     0.093 C 
ENDROOT
BRANCH   3   4
HETATM    4  C5  UNL     1     -34.064   7.026   6.411  1.00 20.00     0.012 C 
BRANCH   4   5
HETATM    5  C6  UNL     1     -33.981   7.732   5.052  1.00 20.00     0.006 C 
BRANCH   5   6
HETATM    6  C8  UNL     1     -32.534   7.931   4.550  1.00 20.00    -0.005 C 
HETATM    7  C3  UNL     1     -32.051   9.341   4.910  1.00 20.00     0.011 C 
BRANCH   6   8
HETATM    8  C7  UNL     1     -32.329   7.636   3.055  1.00 20.00     0.119 C 
HETATM    9 CL9  UNL     1     -32.645   9.036   2.003  1.00 20.00    -0.130 Cl
ENDBRANCH   6   8
ENDBRANCH   5   6
ENDBRANCH   4   5
ENDBRANCH   3   4
TORSDOF 4
ENDMDL
MODEL 6
REMARK VINA RESULT:      -4.5      1.035      3.660
REMARK  4 active torsions:
REMARK  status: ('A' for Active; 'I' for Inactive)
REMARK    1  A    between atoms: C4_4  and  C5_5 
REMARK    2  A    between atoms: C5_5  and  C6_6 
REMARK    3  A    between atoms: C6_6  and  C8_8 
REMARK    4  A    between atoms: C7_7  and  C8_8 
ROOT
HETATM    1  C1  UNL     1     -34.720   5.223   6.296  1.00 20.00     0.012 C 
HETATM    2  C2  UNL     1     -34.253   6.329   6.306  1.00 20.00    -0.117 C 
HETATM    3  C4  UNL     1     -33.680   7.682   6.321  1.00 20.00     0.093 C 
ENDROOT
BRANCH   3   4
HETATM    4  C5  UNL     1     -33.605   8.296   4.920  1.00 20.00     0.012 C 
BRANCH   4   5
HETATM    5  C6  UNL     1     -32.210   8.173   4.294  1.00 20.00     0.006 C 
BRANCH   5   6
HETATM    6  C8  UNL     1     -32.176   7.275   3.038  1.00 20.00    -0.005 C 
HETATM    7  C3  UNL     1     -32.226   8.145   1.777  1.00 20.00     0.011 C 
BRANCH   6   8
HETATM    8  C7  UNL     1     -33.256   6.181   3.004  1.00 20.00     0.119 C 
HETATM    9 CL9  UNL     1     -32.644   4.591   2.487  1.00 20.00    -0.130 Cl
ENDBRANCH   6   8
ENDBRANCH   5   6
ENDBRANCH   4   5
ENDBRANCH   3   4
TORSDOF 4
ENDMDL
MODEL 7
REMARK VINA RESULT:      -4.3      1.142      1.730
REMARK  4 active torsions:
REMARK  status: ('A' for Active; 'I' for Inactive)
REMARK    1  A    between atoms: C4_4  and  C5_5 
REMARK    2  A    between atoms: C5_5  and  C6_6 
REMARK    3  A    between atoms: C6_6  and  C8_8 
REMARK    4  A    between atoms: C7_7  and  C8_8 
ROOT
HETATM    1  C1  UNL     1     -32.823   5.124   2.396  1.00 20.00     0.012 C 
HETATM    2  C2  UNL     1     -32.534   6.268   2.614  1.00 20.00    -0.117 C 
HETATM    3  C4  UNL     1     -32.181   7.670   2.878  1.00 20.00     0.093 C 
ENDROOT
BRANCH   3   4
HETATM    4  C5  UNL     1     -32.327   8.036   4.358  1.00 20.00     0.012 C 
BRANCH   4   5
HETATM    5  C6  UNL     1     -33.776   8.357   4.747  1.00 20.00     0.006 C 
BRANCH   5   6
HETATM    6  C8  UNL     1     -34.418   7.290   5.660  1.00 20.00    -0.005 C 
HETATM    7  C3  UNL     1     -33.353   6.693   6.587  1.00 20.00     0.011 C 
BRANCH   6   8
HETATM    8  C7  UNL     1     -35.189   6.189   4.915  1.00 20.00     0.119 C 
HETATM    9 CL9  UNL     1     -34.539   4.554   5.189  1.00 20.00    -0.130 Cl
ENDBRANCH   6   8
ENDBRANCH   5   6
ENDBRANCH   4   5
ENDBRANCH   3   4
TORSDOF 4
ENDMDL
MODEL 8
REMARK VINA RESULT:      -4.0      1.912      4.499
REMARK  4 active torsions:
REMARK  status: ('A' for Active; 'I' for Inactive)
REMARK    1  A    between atoms: C4_4  and  C5_5 
REMARK    2  A    between atoms: C5_5  and  C6_6 
REMARK    3  A    between atoms: C6_6  and  C8_8 
REMARK    4  A    between atoms: C7_7  and  C8_8 
ROOT
HETATM    1  C1  UNL     1     -34.774   5.739   6.381  1.00 20.00     0.012 C 
HETATM    2  C2  UNL     1     -34.401   5.100   5.437  1.00 20.00    -0.117 C 
HETATM    3  C4  UNL     1     -33.945   4.314   4.280  1.00 20.00     0.093 C 
ENDROOT
BRANCH   3   4
HETATM    4  C5  UNL     1     -33.788   5.172   3.022  1.00 20.00     0.012 C 
BRANCH   4   5
HETATM    5  C6  UNL     1     -32.467   5.952   2.999  1.00 20.00     0.006 C 
BRANCH   5   6
HETATM    6  C8  UNL     1     -32.658   7.484   2.978  1.00 20.00    -0.005 C 
HETATM    7  C3  UNL     1     -32.071   8.060   1.684  1.00 20.00     0.011 C 
BRANCH   6   8
HETATM    8  C7  UNL     1     -32.108   8.215   4.213  1.00 20.00     0.119 C 
HETATM    9 CL9  UNL     1     -33.369   8.710   5.367  1.00 20.00    -0.130 Cl
ENDBRANCH   6   8
ENDBRANCH   5   6
ENDBRANCH   4   5
ENDBRANCH   3   4
TORSDOF 4
ENDMDL
MODEL 9
REMARK VINA RESULT:      -4.0      2.048      4.301
REMARK  4 active torsions:
REMARK  status: ('A' for Active; 'I' for Inactive)
REMARK    1  A    between atoms: C4_4  and  C5_5 
REMARK    2  A    between atoms: C5_5  and  C6_6 
REMARK    3  A    between atoms: C6_6  and  C8_8 
REMARK    4  A    between atoms: C7_7  and  C8_8 
ROOT
HETATM    1  C1  UNL     1     -34.813   5.459   6.597  1.00 20.00     0.012 C 
HETATM    2  C2  UNL     1     -34.475   5.165   5.483  1.00 20.00    -0.117 C 
HETATM    3  C4  UNL     1     -34.064   4.801   4.119  1.00 20.00     0.093 C 
ENDROOT
BRANCH   3   4
HETATM    4  C5  UNL     1     -33.897   6.028   3.218  1.00 20.00     0.012 C 
BRANCH   4   5
HETATM    5  C6  UNL     1     -32.428   6.439   3.045  1.00 20.00     0.006 C 
BRANCH   5   6
HETATM    6  C8  UNL     1     -32.156   7.914   3.410  1.00 20.00    -0.005 C 
HETATM    7  C3  UNL     1     -32.715   8.214   4.806  1.00 20.00     0.011 C 
BRANCH   6   8
HETATM    8  C7  UNL     1     -32.662   8.934   2.376  1.00 20.00     0.119 C 
HETATM    9 CL9  UNL     1     -32.250   8.509   0.697  1.00 20.00    -0.130 Cl
ENDBRANCH   6   8
ENDBRANCH   5   6
ENDBRANCH   4   5
ENDBRANCH   3   4
TORSDOF 4
ENDMDL
