MODEL 1
REMARK VINA RESULT:      -4.5      0.000      0.000
REMARK  5 active torsions:
REMARK  status: ('A' for Active; 'I' for Inactive)
REMARK    1  A    between atoms: C4_4  and  C5_5 
REMARK    2  A    between atoms: C4_4  and  C6_6 
REMARK    3  A    between atoms: C5_5  and  C8_8 
REMARK    4  A    between atoms: C6_6  and  C9_9 
REMARK    5  A    between atoms: C7_7  and  C9_9 
ROOT
HETATM    1  C4  UNL     1     -34.093   7.612   5.868  1.00 20.00     0.001 C 
ENDROOT
BRANCH   1   2
HETATM    2  C5  UNL     1     -34.033   6.150   6.322  1.00 20.00     0.004 C 
BRANCH   2   3
HETATM    3  C8  UNL     1     -34.802   5.188   5.397  1.00 20.00    -0.023 C 
HETATM    4  C1  UNL     1     -33.871   4.265   4.610  1.00 20.00     0.009 C 
HETATM    5  C2  UNL     1     -35.675   5.988   4.428  1.00 20.00     0.009 C 
ENDBRANCH   2   3
ENDBRANCH   1   2
BRANCH   1   6
HETATM    6  C6  UNL     1     -32.803   8.021   5.151  1.00 20.00     0.005 C 
BRANCH   6   7
HETATM    7  C9  UNL     1     -32.957   8.134   3.621  1.00 20.00    -0.005 C 
HETATM    8  C3  UNL     1     -32.154   7.023   2.935  1.00 20.00     0.011 C 
BRANCH   7   9
HETATM    9  C7  UNL     1     -32.603   9.516   3.048  1.00 20.00     0.119 C 
HETATM   10 CL10 UNL     1     -32.913   9.665   1.301  1.00 20.00    -0.130 Cl
ENDBRANCH   7   9
ENDBRANCH   6   7
ENDBRANCH   1   6
TORSDOF 5
ENDMDL
MODEL 2
REMARK VINA RESULT:      -4.4      2.175      4.535
REMARK  5 active torsions:
REMARK  status: ('A' for Active; 'I' for Inactive)
REMARK    1  A    between atoms: C4_4  and  C5_5 
REMARK    2  A    between atoms: C4_4  and  C6_6 
REMARK    3  A    between atoms: C5_5  and  C8_8 
REMARK    4  A    between atoms: C6_6  and  C9_9 
REMARK    5  A    between atoms: C7_7  and  C9_9 
ROOT
HETATM    1  C4  UNL     1     -33.366   5.760   2.828  1.00 20.00     0.001 C 
ENDROOT
BRANCH   1   2
HETATM    2  C5  UNL     1     -32.294   6.799   3.174  1.00 20.00     0.004 C 
BRANCH   2   3
HETATM    3  C8  UNL     1     -32.863   8.205   3.437  1.00 20.00    -0.023 C 
HETATM    4  C1  UNL     1     -32.681   9.143   2.243  1.00 20.00     0.009 C 
HETATM    5  C2  UNL     1     -32.196   8.810   4.674  1.00 20.00     0.009 C 
ENDBRANCH   2   3
ENDBRANCH   1   2
BRANCH   1   6
HETATM    6  C6  UNL     1     -33.496   4.710   3.936  1.00 20.00     0.005 C 
BRANCH   6   7
HETATM    7  C9  UNL     1     -34.692   4.952   4.879  1.00 20.00    -0.005 C 
HETATM    8  C3  UNL     1     -35.617   6.018   4.281  1.00 20.00     0.011 C 
BRANCH   7   9
HETATM    9  C7  UNL     1     -34.301   5.298   6.325  1.00 20.00     0.119 C 
HETATM   10 CL10 UNL     1     -34.297   7.046   6.665  1.00 20.00    -0.130 Cl
ENDBRANCH   7   9
ENDBRANCH   6   7
ENDBRANCH   1   6
TORSDOF 5
ENDMDL
MODEL 3
REMARK VINA RESULT:      -4.3      1.675      2.630
REMARK  5 active torsions:
REMARK  status: ('A' for Active; 'I' for Inactive)
REMARK    1  A    between atoms: C4_4  and  C5_5 
REMARK    2  A    between atoms: C4_4  and  C6_6 
REMARK    3  A    between atoms: C5_5  and  C8_8 
REMARK    4  A    between atoms: C6_6  and  C9_9 
REMARK    5  A    between atoms: C7_7  and  C9_9 
ROOT
HETATM    1  C4  UNL     1     -33.584   5.060   2.938  1.00 20.00     0.001 C 
ENDROOT
BRANCH   1   2
HETATM    2  C5  UNL     1     -33.704   4.474   4.349  1.00 20.00     0.004 C 
BRANCH   2   3
HETATM    3  C8  UNL     1     -34.889   5.042   5.151  1.00 20.00    -0.023 C 
HETATM    4  C1  UNL     1     -35.689   6.078   4.360  1.00 20.00     0.009 C 
HETATM    5  C2  UNL     1     -34.381   5.667   6.453  1.00 20.00     0.009 C 
ENDBRANCH   2   3
ENDBRANCH   1   2
BRANCH   1   6
HETATM    6  C6  UNL     1     -32.334   5.937   2.809  1.00 20.00     0.005 C 
BRANCH   6   7
HETATM    7  C9  UNL     1     -32.627   7.448   2.913  1.00 20.00    -0.005 C 
HETATM    8  C3  UNL     1     -32.114   8.163   1.658  1.00 20.00     0.011 C 
BRANCH   7   9
HETATM    9  C7  UNL     1     -32.095   8.111   4.193  1.00 20.00     0.119 C 
HETATM   10 CL10 UNL     1     -33.377   8.731   5.262  1.00 20.00    -0.130 Cl
ENDBRANCH   7   9
ENDBRANCH   6   7
ENDBRANCH   1   6
TORSDOF 5
ENDMDL
MODEL 4
REMARK VINA RESULT:      -4.3      2.148      4.233
REMARK  5 active torsions:
REMARK  status: ('A' for Active; 'I' for Inactive)
REMARK    1  A    between atoms: C4_4  and  C5_5 
REMARK    2  A    between atoms: C4_4  and  C6_6 
REMARK    3  A    between atoms: C5_5  and  C8_8 
REMARK    4  A    between atoms: C6_6  and  C9_9 
REMARK    5  A    between atoms: C7_7  and  C9_9 
ROOT
HETATM    1  C4  UNL     1     -33.750   8.184   4.855  1.00 20.00     0.001 C 
ENDROOT
BRANCH   1   2
HETATM    2  C5  UNL     1     -32.268   8.339   4.497  1.00 20.00     0.004 C 
BRANCH   2   3
HETATM    3  C8  UNL     1     -31.975   8.148   2.997  1.00 20.00    -0.023 C 
HETATM    4  C1  UNL     1     -32.774   9.111   2.118  1.00 20.00     0.009 C 
HETATM    5  C2  UNL     1     -32.280   6.705   2.591  1.00 20.00     0.009 C 
ENDBRANCH   2   3
ENDBRANCH   1   2
BRANCH   1   6
HETATM    6  C6  UNL     1     -33.921   7.462   6.195  1.00 20.00     0.005 C 
BRANCH   6   7
HETATM    7  C9  UNL     1     -34.686   6.128   6.083  1.00 20.00    -0.005 C 
HETATM    8  C3  UNL     1     -33.892   5.014   6.777  1.00 20.00     0.011 C 
BRANCH   7   9
HETATM    9  C7  UNL     1     -35.067   5.733   4.648  1.00 20.00     0.119 C 
HETATM   10 CL10 UNL     1     -34.139   4.351   4.017  1.00 20.00    -0.130 Cl
ENDBRANCH   7   9
ENDBRANCH   6   7
ENDBRANCH   1   6
TORSDOF 5
ENDMDL
MODEL 5
REMARK VINA RESULT:      -4.1      1.983      2.351
REMARK  5 active torsions:
REMARK  status: ('A' for Active; 'I' for Inactive)
REMARK    1  A    between atoms: C4_4  and  C5_5 
REMARK    2  A    between atoms: C4_4  and  C6_6 
REMARK    3  A    between atoms: C5_5  and  C8_8 
REMARK    4  A    between atoms: C6_6  and  C9_9 
REMARK    5  A    between atoms: C7_7  and  C9_9 
ROOT
HETATM    1  C4  UNL     1     -33.693   8.033   4.664  1.00 20.00     0.001 C 
ENDROOT
BRANCH   1   2
HETATM    2  C5  UNL     1     -33.746   7.343   6.031  1.00 20.00     0.004 C 
BRANCH   2   3
HETATM    3  C8  UNL     1     -34.684   6.122   6.067  1.00 20.00    -0.023 C 
HETATM    4  C1  UNL     1     -33.944   4.824   6.391  1.00 20.00     0.009 C 
HETATM    5  C2  UNL     1     -35.404   5.983   4.723  1.00 20.00     0.009 C 
ENDBRANCH   2   3
ENDBRANCH   1   2
BRANCH   1   6
HETATM    6  C6  UNL     1     -32.269   8.032   4.099  1.00 20.00     0.005 C 
BRANCH   6   7
HETATM    7  C9  UNL     1     -32.138   7.280   2.759  1.00 20.00    -0.005 C 
HETATM    8  C3  UNL     1     -32.098   8.285   1.602  1.00 20.00     0.011 C 
BRANCH   7   9
HETATM    9  C7  UNL     1     -33.209   6.202   2.528  1.00 20.00     0.119 C 
HETATM   10 CL10 UNL     1     -32.601   4.539   2.717  1.00 20.00    -0.130 Cl
ENDBRANCH   7   9
ENDBRANCH   6   7
ENDBRANCH   1   6
TORSDOF 5
ENDMDL
MODEL 6
REMARK VINA RESULT:      -4.0      0.959      2.197
REMARK  5 active torsions:
REMARK  status: ('A' for Active; 'I' for Inactive)
REMARK    1  A    between atoms: C4_4  and  C5_5 
REMARK    2  A    between atoms: C4_4  and  C6_6 
REMARK    3  A    between atoms: C5_5  and  C8_8 
REMARK    4  A    between atoms: C6_6  and  C9_9 
REMARK    5  A    between atoms: C7_7  and  C9_9 
ROOT
HETATM    1  C4  UNL     1     -33.433   5.984   2.875  1.00 20.00     0.001 C 
ENDROOT
BRANCH   1   2
HETATM    2  C5  UNL     1     -33.536   4.869   3.922  1.00 20.00     0.004 C 
BRANCH   2   3
HETATM    3  C8  UNL     1     -34.761   5.006   4.845  1.00 20.00    -0.023 C 
HETATM    4  C1  UNL     1     -35.742   6.075   4.362  1.00 20.00     0.009 C 
HETATM    5  C2  UNL     1     -34.302   5.334   6.268  1.00 20.00     0.009 C 
ENDBRANCH   2   3
ENDBRANCH   1   2
BRANCH   1   6
HETATM    6  C6  UNL     1     -32.069   6.678   2.941  1.00 20.00     0.005 C 
BRANCH   6   7
HETATM    7  C9  UNL     1     -32.154   8.169   3.328  1.00 20.00    -0.005 C 
HETATM    8  C3  UNL     1     -32.797   8.309   4.713  1.00 20.00     0.011 C 
BRANCH   7   9
HETATM    9  C7  UNL     1     -32.859   9.056   2.290  1.00 20.00     0.119 C 
HETATM   10 CL10 UNL     1     -32.362   8.725   0.613  1.00 20.00    -0.130 Cl
ENDBRANCH   7   9
ENDBRANCH   6   7
ENDBRANCH   1   6
TORSDOF 5
ENDMDL
MODEL 7
REMARK VINA RESULT:      -4.0      0.871      1.437
REMARK  5 active torsions:
REMARK  status: ('A' for Active; 'I' for Inactive)
REMARK    1  A    between atoms: C4_4  and  C5_5 
REMARK    2  A    between atoms: C4_4  and  C6_6 
REMARK    3  A    between atoms: C5_5  and  C8_8 
REMARK    4  A    between atoms: C6_6  and  C9_9 
REMARK    5  A    between atoms: C7_7  and  C9_9 
ROOT
HETATM    1  C4  UNL     1     -33.330   6.802   6.225  1.00 20.00     0.001 C 
ENDROOT
BRANCH   1   2
HETATM    2  C5  UNL     1     -34.674   6.104   6.452  1.00 20.00     0.004 C 
BRANCH   2   3
HETATM    3  C8  UNL     1     -35.087   5.176   5.294  1.00 20.00    -0.023 C 
HETATM    4  C1  UNL     1     -33.904   4.397   4.718  1.00 20.00     0.009 C 
HETATM    5  C2  UNL     1     -35.754   5.995   4.187  1.00 20.00     0.009 C 
ENDBRANCH   2   3
ENDBRANCH   1   2
BRANCH   1   6
HETATM    6  C6  UNL     1     -33.495   8.049   5.350  1.00 20.00     0.005 C 
BRANCH   6   7
HETATM    7  C9  UNL     1     -32.360   8.237   4.323  1.00 20.00    -0.005 C 
HETATM    8  C3  UNL     1     -32.432   9.645   3.721  1.00 20.00     0.011 C 
BRANCH   7   9
HETATM    9  C7  UNL     1     -32.309   7.161   3.227  1.00 20.00     0.119 C 
HETATM   10 CL10 UNL     1     -32.161   7.824   1.582  1.00 20.00    -0.130 Cl
ENDBRANCH   7   9
ENDBRANCH   6   7
ENDBRANCH   1   6
TORSDOF 5
ENDMDL
MODEL 8
REMARK VINA RESULT:      -3.7      2.679      4.870
REMARK  5 active torsions:
REMARK  status: ('A' for Active; 'I' for Inactive)
REMARK    1  A    between atoms: C4_4  and  C5_5 
REMARK    2  A    between atoms: C4_4  and  C6_6 
REMARK    3  A    between atoms: C5_5  and  C8_8 
REMARK    4  A    between atoms: C6_6  and  C9_9 
REMARK    5  A    between atoms: C7_7  and  C9_9 
ROOT
HETATM    1  C4  UNL     1     -32.084   7.524   3.176  1.00 20.00     0.001 C 
ENDROOT
BRANCH   1   2
HETATM    2  C5  UNL     1     -32.261   7.404   1.659  1.00 20.00     0.004 C 
BRANCH   2   3
HETATM    3  C8  UNL     1     -32.268   8.762   0.932  1.00 20.00    -0.023 C 
HETATM    4  C1  UNL     1     -32.971   9.854   1.739  1.00 20.00     0.009 C 
HETATM    5  C2  UNL     1     -32.942   8.614  -0.434  1.00 20.00     0.009 C 
ENDBRANCH   2   3
ENDBRANCH   1   2
BRANCH   1   6
HETATM    6  C6  UNL     1     -33.241   6.850   3.922  1.00 20.00     0.005 C 
BRANCH   6   7
HETATM    7  C9  UNL     1     -33.770   7.674   5.114  1.00 20.00    -0.005 C 
HETATM    8  C3  UNL     1     -32.840   8.864   5.376  1.00 20.00     0.011 C 
BRANCH   7   9
HETATM    9  C7  UNL     1     -34.008   6.857   6.394  1.00 20.00     0.119 C 
HETATM   10 CL10 UNL     1     -34.729   5.257   6.096  1.00 20.00    -0.130 Cl
ENDBRANCH   7   9
ENDBRANCH   6   7
ENDBRANCH   1   6
TORSDOF 5
ENDMDL
MODEL 9
REMARK VINA RESULT:      -3.6     11.773     12.600
REMARK  5 active torsions:
REMARK  status: ('A' for Active; 'I' for Inactive)
REMARK    1  A    between atoms: C4_4  and  C5_5 
REMARK    2  A    between atoms: C4_4  and  C6_6 
REMARK    3  A    between atoms: C5_5  and  C8_8 
REMARK    4  A    between atoms: C6_6  and  C9_9 
REMARK    5  A    between atoms: C7_7  and  C9_9 
ROOT
HETATM    1  C4  UNL     1     -33.433  17.603  -1.351  1.00 20.00     0.001 C 
ENDROOT
BRANCH   1   2
HETATM    2  C5  UNL     1     -32.070  18.249  -1.083  1.00 20.00     0.004 C 
BRANCH   2   3
HETATM    3  C8  UNL     1     -31.986  18.965   0.278  1.00 20.00    -0.023 C 
HETATM    4  C1  UNL     1     -30.895  18.384   1.179  1.00 20.00     0.009 C 
HETATM    5  C2  UNL     1     -33.339  18.884   0.989  1.00 20.00     0.009 C 
ENDBRANCH   2   3
ENDBRANCH   1   2
BRANCH   1   6
HETATM    6  C6  UNL     1     -33.342  16.568  -2.477  1.00 20.00     0.005 C 
BRANCH   6   7
HETATM    7  C9  UNL     1     -33.857  17.088  -3.835  1.00 20.00    -0.005 C 
HETATM    8  C3  UNL     1     -34.899  18.190  -3.608  1.00 20.00     0.011 C 
BRANCH   7   9
HETATM    9  C7  UNL     1     -34.394  15.994  -4.772  1.00 20.00     0.119 C 
HETATM   10 CL10 UNL     1     -34.117  14.341  -4.171  1.00 20.00    -0.130 Cl
ENDBRANCH   7   9
ENDBRANCH   6   7
ENDBRANCH   1   6
TORSDOF 5
ENDMDL
