MODEL 1
REMARK VINA RESULT:      -3.9      0.000      0.000
REMARK  2 active torsions:
REMARK  status: ('A' for Active; 'I' for Inactive)
REMARK    1  A    between atoms: C5_5  and  C7_7 
REMARK    2  A    between atoms: C6_6  and  C7_7 
ROOT
HETATM    1  C3  UNL     1     -34.845   5.081   6.292  1.00 20.00     0.016 C 
HETATM    2  C4  UNL     1     -35.745   6.152   4.230  1.00 20.00     0.016 C 
HETATM    3  C7  UNL     1     -34.442   5.716   4.942  1.00 20.00    -0.032 C 
ENDROOT
BRANCH   3   4
HETATM    4  C5  UNL     1     -33.767   4.594   4.103  1.00 20.00     0.123 C 
HETATM    5 CL8  UNL     1     -32.947   5.175   2.630  1.00 20.00    -0.130 Cl
ENDBRANCH   3   4
BRANCH   3   6
HETATM    6  C6  UNL     1     -33.499   6.962   5.146  1.00 20.00    -0.014 C 
HETATM    7  C1  UNL     1     -33.550   7.558   6.560  1.00 20.00     0.010 C 
HETATM    8  C2  UNL     1     -33.738   8.098   4.137  1.00 20.00     0.010 C 
ENDBRANCH   3   6
TORSDOF 2
ENDMDL
MODEL 2
REMARK VINA RESULT:      -3.7      0.862      1.350
REMARK  2 active torsions:
REMARK  status: ('A' for Active; 'I' for Inactive)
REMARK    1  A    between atoms: C5_5  and  C7_7 
REMARK    2  A    between atoms: C6_6  and  C7_7 
ROOT
HETATM    1  C3  UNL     1     -34.388   5.938   6.354  1.00 20.00     0.016 C 
HETATM    2  C4  UNL     1     -35.714   6.032   4.247  1.00 20.00     0.016 C 
HETATM    3  C7  UNL     1     -34.290   6.187   4.832  1.00 20.00    -0.032 C 
ENDROOT
BRANCH   3   4
HETATM    4  C5  UNL     1     -33.387   5.062   4.251  1.00 20.00     0.123 C 
HETATM    5 CL8  UNL     1     -33.321   5.025   2.470  1.00 20.00    -0.130 Cl
ENDBRANCH   3   4
BRANCH   3   6
HETATM    6  C6  UNL     1     -33.733   7.627   4.516  1.00 20.00    -0.014 C 
HETATM    7  C1  UNL     1     -32.383   7.625   3.783  1.00 20.00     0.010 C 
HETATM    8  C2  UNL     1     -33.606   8.533   5.751  1.00 20.00     0.010 C 
ENDBRANCH   3   6
TORSDOF 2
ENDMDL
MODEL 3
REMARK VINA RESULT:      -3.7      1.978      3.025
REMARK  2 active torsions:
REMARK  status: ('A' for Active; 'I' for Inactive)
REMARK    1  A    between atoms: C5_5  and  C7_7 
REMARK    2  A    between atoms: C6_6  and  C7_7 
ROOT
HETATM    1  C3  UNL     1     -34.036   8.493   4.700  1.00 20.00     0.016 C 
HETATM    2  C4  UNL     1     -35.177   6.322   4.260  1.00 20.00     0.016 C 
HETATM    3  C7  UNL     1     -33.831   6.961   4.679  1.00 20.00    -0.032 C 
ENDROOT
BRANCH   3   4
HETATM    4  C5  UNL     1     -33.509   6.533   6.139  1.00 20.00     0.123 C 
HETATM    5 CL8  UNL     1     -34.425   5.110   6.702  1.00 20.00    -0.130 Cl
ENDBRANCH   3   4
BRANCH   3   6
HETATM    6  C6  UNL     1     -32.699   6.541   3.668  1.00 20.00    -0.014 C 
HETATM    7  C1  UNL     1     -32.241   7.675   2.739  1.00 20.00     0.010 C 
HETATM    8  C2  UNL     1     -33.057   5.324   2.799  1.00 20.00     0.010 C 
ENDBRANCH   3   6
TORSDOF 2
ENDMDL
MODEL 4
REMARK VINA RESULT:      -3.6      1.685      3.078
REMARK  2 active torsions:
REMARK  status: ('A' for Active; 'I' for Inactive)
REMARK    1  A    between atoms: C5_5  and  C7_7 
REMARK    2  A    between atoms: C6_6  and  C7_7 
ROOT
HETATM    1  C3  UNL     1     -34.594   8.440   4.828  1.00 20.00     0.016 C 
HETATM    2  C4  UNL     1     -33.342   6.921   6.355  1.00 20.00     0.016 C 
HETATM    3  C7  UNL     1     -33.597   7.260   4.867  1.00 20.00    -0.032 C 
ENDROOT
BRANCH   3   4
HETATM    4  C5  UNL     1     -32.270   7.773   4.239  1.00 20.00     0.123 C 
HETATM    5 CL8  UNL     1     -32.496   8.902   2.877  1.00 20.00    -0.130 Cl
ENDBRANCH   3   4
BRANCH   3   6
HETATM    6  C6  UNL     1     -34.166   5.996   4.117  1.00 20.00    -0.014 C 
HETATM    7  C1  UNL     1     -34.625   4.870   5.055  1.00 20.00     0.010 C 
HETATM    8  C2  UNL     1     -33.199   5.395   3.084  1.00 20.00     0.010 C 
ENDBRANCH   3   6
TORSDOF 2
ENDMDL
MODEL 5
REMARK VINA RESULT:      -3.6      1.975      2.625
REMARK  2 active torsions:
REMARK  status: ('A' for Active; 'I' for Inactive)
REMARK    1  A    between atoms: C5_5  and  C7_7 
REMARK    2  A    between atoms: C6_6  and  C7_7 
ROOT
HETATM    1  C3  UNL     1     -35.558   6.037   4.231  1.00 20.00     0.016 C 
HETATM    2  C4  UNL     1     -33.441   5.169   3.245  1.00 20.00     0.016 C 
HETATM    3  C7  UNL     1     -34.017   6.100   4.339  1.00 20.00    -0.032 C 
ENDROOT
BRANCH   3   4
HETATM    4  C5  UNL     1     -33.643   5.521   5.733  1.00 20.00     0.123 C 
HETATM    5 CL8  UNL     1     -35.003   5.450   6.884  1.00 20.00    -0.130 Cl
ENDBRANCH   3   4
BRANCH   3   6
HETATM    6  C6  UNL     1     -33.481   7.567   4.135  1.00 20.00    -0.014 C 
HETATM    7  C1  UNL     1     -32.165   7.645   3.348  1.00 20.00     0.010 C 
HETATM    8  C2  UNL     1     -33.306   8.356   5.443  1.00 20.00     0.010 C 
ENDBRANCH   3   6
TORSDOF 2
ENDMDL
MODEL 6
REMARK VINA RESULT:      -3.5      2.153      3.149
REMARK  2 active torsions:
REMARK  status: ('A' for Active; 'I' for Inactive)
REMARK    1  A    between atoms: C5_5  and  C7_7 
REMARK    2  A    between atoms: C6_6  and  C7_7 
ROOT
HETATM    1  C3  UNL     1     -35.759   6.148   4.094  1.00 20.00     0.016 C 
HETATM    2  C4  UNL     1     -34.017   4.639   5.041  1.00 20.00     0.016 C 
HETATM    3  C7  UNL     1     -34.243   6.013   4.365  1.00 20.00    -0.032 C 
ENDROOT
BRANCH   3   4
HETATM    4  C5  UNL     1     -33.867   7.134   5.376  1.00 20.00     0.123 C 
HETATM    5 CL8  UNL     1     -34.443   6.842   7.038  1.00 20.00    -0.130 Cl
ENDBRANCH   3   4
BRANCH   3   6
HETATM    6  C6  UNL     1     -33.407   6.101   3.033  1.00 20.00    -0.014 C 
HETATM    7  C1  UNL     1     -32.811   4.760   2.581  1.00 20.00     0.010 C 
HETATM    8  C2  UNL     1     -32.273   7.139   3.075  1.00 20.00     0.010 C 
ENDBRANCH   3   6
TORSDOF 2
ENDMDL
MODEL 7
REMARK VINA RESULT:      -3.5     15.973     17.157
REMARK  2 active torsions:
REMARK  status: ('A' for Active; 'I' for Inactive)
REMARK    1  A    between atoms: C5_5  and  C7_7 
REMARK    2  A    between atoms: C6_6  and  C7_7 
ROOT
HETATM    1  C3  UNL     1     -23.068  18.587  12.173  1.00 20.00     0.016 C 
HETATM    2  C4  UNL     1     -25.153  19.003  10.875  1.00 20.00     0.016 C 
HETATM    3  C7  UNL     1     -23.731  18.398  10.790  1.00 20.00    -0.032 C 
ENDROOT
BRANCH   3   4
HETATM    4  C5  UNL     1     -23.855  16.865  10.559  1.00 20.00     0.123 C 
HETATM    5 CL8  UNL     1     -24.450  15.958  11.975  1.00 20.00    -0.130 Cl
ENDBRANCH   3   4
BRANCH   3   6
HETATM    6  C6  UNL     1     -22.910  19.111   9.651  1.00 20.00    -0.014 C 
HETATM    7  C1  UNL     1     -23.641  19.175   8.302  1.00 20.00     0.010 C 
HETATM    8  C2  UNL     1     -21.516  18.507   9.413  1.00 20.00     0.010 C 
ENDBRANCH   3   6
TORSDOF 2
ENDMDL
MODEL 8
REMARK VINA RESULT:      -3.4      8.609      9.726
REMARK  2 active torsions:
REMARK  status: ('A' for Active; 'I' for Inactive)
REMARK    1  A    between atoms: C5_5  and  C7_7 
REMARK    2  A    between atoms: C6_6  and  C7_7 
ROOT
HETATM    1  C3  UNL     1     -40.552   5.727  -0.385  1.00 20.00     0.016 C 
HETATM    2  C4  UNL     1     -42.834   5.139  -1.196  1.00 20.00     0.016 C 
HETATM    3  C7  UNL     1     -42.058   6.013  -0.181  1.00 20.00    -0.032 C 
ENDROOT
BRANCH   3   4
HETATM    4  C5  UNL     1     -42.282   7.510  -0.538  1.00 20.00     0.123 C 
HETATM    5 CL8  UNL     1     -40.921   8.576  -0.101  1.00 20.00    -0.130 Cl
ENDBRANCH   3   4
BRANCH   3   6
HETATM    6  C6  UNL     1     -42.519   5.670   1.286  1.00 20.00    -0.014 C 
HETATM    7  C1  UNL     1     -43.230   4.315   1.415  1.00 20.00     0.010 C 
HETATM    8  C2  UNL     1     -43.414   6.745   1.926  1.00 20.00     0.010 C 
ENDBRANCH   3   6
TORSDOF 2
ENDMDL
MODEL 9
REMARK VINA RESULT:      -3.4      1.163      2.920
REMARK  2 active torsions:
REMARK  status: ('A' for Active; 'I' for Inactive)
REMARK    1  A    between atoms: C5_5  and  C7_7 
REMARK    2  A    between atoms: C6_6  and  C7_7 
ROOT
HETATM    1  C3  UNL     1     -34.276   8.474   3.669  1.00 20.00     0.016 C 
HETATM    2  C4  UNL     1     -32.333   8.359   5.225  1.00 20.00     0.016 C 
HETATM    3  C7  UNL     1     -33.242   7.514   4.300  1.00 20.00    -0.032 C 
ENDROOT
BRANCH   3   4
HETATM    4  C5  UNL     1     -32.380   6.954   3.132  1.00 20.00     0.123 C 
HETATM    5 CL8  UNL     1     -32.837   5.311   2.611  1.00 20.00    -0.130 Cl
ENDBRANCH   3   4
BRANCH   3   6
HETATM    6  C6  UNL     1     -33.942   6.373   5.130  1.00 20.00    -0.014 C 
HETATM    7  C1  UNL     1     -35.311   5.951   4.577  1.00 20.00     0.010 C 
HETATM    8  C2  UNL     1     -34.108   6.698   6.623  1.00 20.00     0.010 C 
ENDBRANCH   3   6
TORSDOF 2
ENDMDL
