MODEL 1
REMARK VINA RESULT:      -4.4      0.000      0.000
REMARK  1 active torsions:
REMARK  status: ('A' for Active; 'I' for Inactive)
REMARK    1  A    between atoms: C6_6  and  C9_9 
ROOT
HETATM    1  C1  UNL     1     -32.625   8.027   3.129  1.00 20.00    -0.085 C 
HETATM    2  C2  UNL     1     -32.637   9.208   2.497  1.00 20.00     0.014 C 
HETATM    3  C3  UNL     1     -32.007   6.788   2.541  1.00 20.00     0.059 C 
HETATM    4  C4  UNL     1     -33.258   7.809   4.478  1.00 20.00     0.065 C 
HETATM    5  C5  UNL     1     -33.017   5.644   2.590  1.00 20.00     0.172 C 
HETATM    6  C6  UNL     1     -34.204   6.604   4.407  1.00 20.00     0.128 C 
HETATM    7  O10 UNL     1     -33.501   5.450   3.923  1.00 20.00    -0.385 OA
ENDROOT
BRANCH   6   8
HETATM    8  C9  UNL     1     -34.757   6.264   5.785  1.00 20.00     0.007 C 
HETATM    9  C7  UNL     1     -34.448   4.811   6.148  1.00 20.00     0.012 C 
HETATM   10  C8  UNL     1     -34.193   7.210   6.844  1.00 20.00     0.012 C 
ENDBRANCH   6   8
TORSDOF 1
ENDMDL
MODEL 2
REMARK VINA RESULT:      -4.4      1.177      3.600
REMARK  1 active torsions:
REMARK  status: ('A' for Active; 'I' for Inactive)
REMARK    1  A    between atoms: C6_6  and  C9_9 
ROOT
HETATM    1  C1  UNL     1     -34.441   5.914   5.350  1.00 20.00    -0.085 C 
HETATM    2  C2  UNL     1     -34.722   5.478   6.585  1.00 20.00     0.014 C 
HETATM    3  C3  UNL     1     -34.671   5.085   4.115  1.00 20.00     0.059 C 
HETATM    4  C4  UNL     1     -33.834   7.263   5.072  1.00 20.00     0.065 C 
HETATM    5  C5  UNL     1     -33.391   5.045   3.285  1.00 20.00     0.172 C 
HETATM    6  C6  UNL     1     -32.594   7.091   4.187  1.00 20.00     0.128 C 
HETATM    7  O10 UNL     1     -32.934   6.370   2.993  1.00 20.00    -0.385 OA
ENDROOT
BRANCH   6   8
HETATM    8  C9  UNL     1     -32.032   8.443   3.767  1.00 20.00     0.007 C 
HETATM    9  C7  UNL     1     -32.718   8.942   2.494  1.00 20.00     0.012 C 
HETATM   10  C8  UNL     1     -32.185   9.466   4.891  1.00 20.00     0.012 C 
ENDBRANCH   6   8
TORSDOF 1
ENDMDL
MODEL 3
REMARK VINA RESULT:      -4.2     12.164     13.096
REMARK  1 active torsions:
REMARK  status: ('A' for Active; 'I' for Inactive)
REMARK    1  A    between atoms: C6_6  and  C9_9 
ROOT
HETATM    1  C1  UNL     1     -33.594  16.534  -3.392  1.00 20.00    -0.085 C 
HETATM    2  C2  UNL     1     -33.279  15.311  -3.839  1.00 20.00     0.014 C 
HETATM    3  C3  UNL     1     -34.117  17.626  -4.286  1.00 20.00     0.059 C 
HETATM    4  C4  UNL     1     -33.427  16.953  -1.956  1.00 20.00     0.065 C 
HETATM    5  C5  UNL     1     -33.281  18.888  -4.087  1.00 20.00     0.172 C 
HETATM    6  C6  UNL     1     -32.622  18.256  -1.896  1.00 20.00     0.128 C 
HETATM    7  O10 UNL     1     -33.248  19.263  -2.706  1.00 20.00    -0.385 OA
ENDROOT
BRANCH   6   8
HETATM    8  C9  UNL     1     -32.550  18.788  -0.471  1.00 20.00     0.007 C 
HETATM    9  C7  UNL     1     -33.658  18.181   0.390  1.00 20.00     0.012 C 
HETATM   10  C8  UNL     1     -31.181  18.505   0.145  1.00 20.00     0.012 C 
ENDBRANCH   6   8
TORSDOF 1
ENDMDL
MODEL 4
REMARK VINA RESULT:      -4.0     12.136     12.913
REMARK  1 active torsions:
REMARK  status: ('A' for Active; 'I' for Inactive)
REMARK    1  A    between atoms: C6_6  and  C9_9 
ROOT
HETATM    1  C1  UNL     1     -31.723  18.642   0.704  1.00 20.00    -0.085 C 
HETATM    2  C2  UNL     1     -30.667  18.268   1.437  1.00 20.00     0.014 C 
HETATM    3  C3  UNL     1     -32.964  19.250   1.301  1.00 20.00     0.059 C 
HETATM    4  C4  UNL     1     -31.793  18.464  -0.790  1.00 20.00     0.065 C 
HETATM    5  C5  UNL     1     -34.190  18.484   0.811  1.00 20.00     0.172 C 
HETATM    6  C6  UNL     1     -33.091  17.734  -1.155  1.00 20.00     0.128 C 
HETATM    7  O10 UNL     1     -34.222  18.438  -0.620  1.00 20.00    -0.385 OA
ENDROOT
BRANCH   6   8
HETATM    8  C9  UNL     1     -33.267  17.658  -2.665  1.00 20.00     0.007 C 
HETATM    9  C7  UNL     1     -33.284  16.203  -3.135  1.00 20.00     0.012 C 
HETATM   10  C8  UNL     1     -34.546  18.373  -3.099  1.00 20.00     0.012 C 
ENDBRANCH   6   8
TORSDOF 1
ENDMDL
MODEL 5
REMARK VINA RESULT:      -3.8     12.242     13.227
REMARK  1 active torsions:
REMARK  status: ('A' for Active; 'I' for Inactive)
REMARK    1  A    between atoms: C6_6  and  C9_9 
ROOT
HETATM    1  C1  UNL     1     -33.683  18.568   0.623  1.00 20.00    -0.085 C 
HETATM    2  C2  UNL     1     -34.688  19.072   1.352  1.00 20.00     0.014 C 
HETATM    3  C3  UNL     1     -32.245  18.617   1.063  1.00 20.00     0.059 C 
HETATM    4  C4  UNL     1     -33.885  17.929  -0.725  1.00 20.00     0.065 C 
HETATM    5  C5  UNL     1     -31.393  19.214  -0.055  1.00 20.00     0.172 C 
HETATM    6  C6  UNL     1     -32.937  18.576  -1.742  1.00 20.00     0.128 C 
HETATM    7  O10 UNL     1     -31.581  18.493  -1.277  1.00 20.00    -0.385 OA
ENDROOT
BRANCH   6   8
HETATM    8  C9  UNL     1     -33.010  17.864  -3.086  1.00 20.00     0.007 C 
HETATM    9  C7  UNL     1     -33.340  16.383  -2.896  1.00 20.00     0.012 C 
HETATM   10  C8  UNL     1     -34.042  18.528  -3.996  1.00 20.00     0.012 C 
ENDBRANCH   6   8
TORSDOF 1
ENDMDL
MODEL 6
REMARK VINA RESULT:      -3.7     11.862     13.013
REMARK  1 active torsions:
REMARK  status: ('A' for Active; 'I' for Inactive)
REMARK    1  A    between atoms: C6_6  and  C9_9 
ROOT
HETATM    1  C1  UNL     1     -35.019  16.295  -5.406  1.00 20.00    -0.085 C 
HETATM    2  C2  UNL     1     -36.282  16.398  -5.841  1.00 20.00     0.014 C 
HETATM    3  C3  UNL     1     -34.107  15.163  -5.793  1.00 20.00     0.059 C 
HETATM    4  C4  UNL     1     -34.392  17.284  -4.459  1.00 20.00     0.065 C 
HETATM    5  C5  UNL     1     -33.507  14.542  -4.534  1.00 20.00     0.172 C 
HETATM    6  C6  UNL     1     -33.780  16.534  -3.271  1.00 20.00     0.128 C 
HETATM    7  O10 UNL     1     -32.857  15.538  -3.737  1.00 20.00    -0.385 OA
ENDROOT
BRANCH   6   8
HETATM    8  C9  UNL     1     -33.015  17.484  -2.361  1.00 20.00     0.007 C 
HETATM    9  C7  UNL     1     -32.902  18.870  -2.998  1.00 20.00     0.012 C 
HETATM   10  C8  UNL     1     -33.684  17.580  -0.991  1.00 20.00     0.012 C 
ENDBRANCH   6   8
TORSDOF 1
ENDMDL
MODEL 7
REMARK VINA RESULT:      -3.7      9.589     10.503
REMARK  1 active torsions:
REMARK  status: ('A' for Active; 'I' for Inactive)
REMARK    1  A    between atoms: C6_6  and  C9_9 
ROOT
HETATM    1  C1  UNL     1     -42.400  14.308   5.243  1.00 20.00    -0.085 C 
HETATM    2  C2  UNL     1     -42.541  15.606   4.942  1.00 20.00     0.014 C 
HETATM    3  C3  UNL     1     -43.376  13.555   6.106  1.00 20.00     0.059 C 
HETATM    4  C4  UNL     1     -41.234  13.477   4.777  1.00 20.00     0.065 C 
HETATM    5  C5  UNL     1     -42.620  12.841   7.223  1.00 20.00     0.172 C 
HETATM    6  C6  UNL     1     -40.598  12.772   5.981  1.00 20.00     0.128 C 
HETATM    7  O10 UNL     1     -41.588  12.007   6.686  1.00 20.00    -0.385 OA
ENDROOT
BRANCH   6   8
HETATM    8  C9  UNL     1     -39.504  11.813   5.535  1.00 20.00     0.007 C 
HETATM    9  C7  UNL     1     -39.380  11.803   4.011  1.00 20.00     0.012 C 
HETATM   10  C8  UNL     1     -38.166  12.180   6.177  1.00 20.00     0.012 C 
ENDBRANCH   6   8
TORSDOF 1
ENDMDL
MODEL 8
REMARK VINA RESULT:      -3.6      9.537     10.598
REMARK  1 active torsions:
REMARK  status: ('A' for Active; 'I' for Inactive)
REMARK    1  A    between atoms: C6_6  and  C9_9 
ROOT
HETATM    1  C1  UNL     1     -41.772  14.524   7.186  1.00 20.00    -0.085 C 
HETATM    2  C2  UNL     1     -42.479  14.690   8.312  1.00 20.00     0.014 C 
HETATM    3  C3  UNL     1     -42.056  15.285   5.919  1.00 20.00     0.059 C 
HETATM    4  C4  UNL     1     -40.643  13.537   7.062  1.00 20.00     0.065 C 
HETATM    5  C5  UNL     1     -42.198  14.304   4.759  1.00 20.00     0.172 C 
HETATM    6  C6  UNL     1     -40.875  12.650   5.833  1.00 20.00     0.128 C 
HETATM    7  O10 UNL     1     -41.043  13.462   4.661  1.00 20.00    -0.385 OA
ENDROOT
BRANCH   6   8
HETATM    8  C9  UNL     1     -39.686  11.731   5.591  1.00 20.00     0.007 C 
HETATM    9  C7  UNL     1     -39.237  11.799   4.130  1.00 20.00     0.012 C 
HETATM   10  C8  UNL     1     -38.528  12.086   6.522  1.00 20.00     0.012 C 
ENDBRANCH   6   8
TORSDOF 1
ENDMDL
MODEL 9
REMARK VINA RESULT:      -3.6      1.445      2.922
REMARK  1 active torsions:
REMARK  status: ('A' for Active; 'I' for Inactive)
REMARK    1  A    between atoms: C6_6  and  C9_9 
ROOT
HETATM    1  C1  UNL     1     -33.177   5.208   3.083  1.00 20.00    -0.085 C 
HETATM    2  C2  UNL     1     -33.016   4.882   1.793  1.00 20.00     0.014 C 
HETATM    3  C3  UNL     1     -33.772   4.270   4.098  1.00 20.00     0.059 C 
HETATM    4  C4  UNL     1     -32.809   6.556   3.643  1.00 20.00     0.065 C 
HETATM    5  C5  UNL     1     -34.903   4.978   4.841  1.00 20.00     0.172 C 
HETATM    6  C6  UNL     1     -34.006   7.133   4.408  1.00 20.00     0.128 C 
HETATM    7  O10 UNL     1     -34.443   6.207   5.414  1.00 20.00    -0.385 OA
ENDROOT
BRANCH   6   8
HETATM    8  C9  UNL     1     -33.631   8.432   5.108  1.00 20.00     0.007 C 
HETATM    9  C7  UNL     1     -33.742   8.281   6.625  1.00 20.00     0.012 C 
HETATM   10  C8  UNL     1     -32.220   8.870   4.718  1.00 20.00     0.012 C 
ENDBRANCH   6   8
TORSDOF 1
ENDMDL
