MODEL 1
REMARK VINA RESULT:      -3.7      0.000      0.000
REMARK  4 active torsions:
REMARK  status: ('A' for Active; 'I' for Inactive)
REMARK    1  A    between atoms: C1_1  and  C6_6 
REMARK    2  A    between atoms: C2_2  and  C7_7 
REMARK    3  A    between atoms: C6_6  and  S9_9 
REMARK    4  A    between atoms: C8_8  and  S9_9 
ROOT
HETATM    1  C6  UNL     1     -33.286  16.289  -3.275  1.00 20.00     0.101 C 
ENDROOT
BRANCH   1   2
HETATM    2  C1  UNL     1     -33.487  16.961  -1.954  1.00 20.00    -0.020 C 
HETATM    3  C2  UNL     1     -32.610  17.823  -1.417  1.00 20.00    -0.015 C 
BRANCH   3   4
HETATM    4  C7  UNL     1     -32.814  18.499  -0.101  1.00 20.00     0.141 C 
HETATM    5 CL10 UNL     1     -31.283  18.544   0.799  1.00 20.00    -0.126 Cl
ENDBRANCH   3   4
ENDBRANCH   1   2
BRANCH   1   6
HETATM    6  S9  UNL     1     -34.414  16.981  -4.503  1.00 20.00    -0.156 SA
BRANCH   6   7
HETATM    7  C8  UNL     1     -34.878  15.408  -5.326  1.00 20.00    -0.003 C 
HETATM    8  C3  UNL     1     -34.111  15.300  -6.647  1.00 20.00     0.026 C 
HETATM    9  C4  UNL     1     -34.503  14.248  -4.398  1.00 20.00     0.026 C 
HETATM   10  C5  UNL     1     -36.387  15.415  -5.584  1.00 20.00     0.026 C 
ENDBRANCH   6   7
ENDBRANCH   1   6
TORSDOF 4
ENDMDL
MODEL 2
REMARK VINA RESULT:      -3.6      0.956      1.609
REMARK  4 active torsions:
REMARK  status: ('A' for Active; 'I' for Inactive)
REMARK    1  A    between atoms: C1_1  and  C6_6 
REMARK    2  A    between atoms: C2_2  and  C7_7 
REMARK    3  A    between atoms: C6_6  and  S9_9 
REMARK    4  A    between atoms: C8_8  and  S9_9 
ROOT
HETATM    1  C6  UNL     1     -33.396  16.842  -3.637  1.00 20.00     0.101 C 
ENDROOT
BRANCH   1   2
HETATM    2  C1  UNL     1     -33.351  17.028  -2.154  1.00 20.00    -0.020 C 
HETATM    3  C2  UNL     1     -32.706  18.038  -1.550  1.00 20.00    -0.015 C 
BRANCH   3   4
HETATM    4  C7  UNL     1     -32.668  18.227  -0.069  1.00 20.00     0.141 C 
HETATM    5 CL10 UNL     1     -30.988  18.431   0.471  1.00 20.00    -0.126 Cl
ENDBRANCH   3   4
ENDBRANCH   1   2
BRANCH   1   6
HETATM    6  S9  UNL     1     -33.672  15.104  -4.038  1.00 20.00    -0.156 SA
BRANCH   6   7
HETATM    7  C8  UNL     1     -34.856  15.355  -5.417  1.00 20.00    -0.003 C 
HETATM    8  C3  UNL     1     -35.942  14.278  -5.333  1.00 20.00     0.026 C 
HETATM    9  C4  UNL     1     -35.479  16.747  -5.273  1.00 20.00     0.026 C 
HETATM   10  C5  UNL     1     -34.098  15.246  -6.743  1.00 20.00     0.026 C 
ENDBRANCH   6   7
ENDBRANCH   1   6
TORSDOF 4
ENDMDL
MODEL 3
REMARK VINA RESULT:      -3.4      1.475      2.113
REMARK  4 active torsions:
REMARK  status: ('A' for Active; 'I' for Inactive)
REMARK    1  A    between atoms: C1_1  and  C6_6 
REMARK    2  A    between atoms: C2_2  and  C7_7 
REMARK    3  A    between atoms: C6_6  and  S9_9 
REMARK    4  A    between atoms: C8_8  and  S9_9 
ROOT
HETATM    1  C6  UNL     1     -33.700  15.035  -4.053  1.00 20.00     0.101 C 
ENDROOT
BRANCH   1   2
HETATM    2  C1  UNL     1     -33.199  16.268  -3.373  1.00 20.00    -0.020 C 
HETATM    3  C2  UNL     1     -33.489  16.588  -2.103  1.00 20.00    -0.015 C 
BRANCH   3   4
HETATM    4  C7  UNL     1     -32.982  17.817  -1.422  1.00 20.00     0.141 C 
HETATM    5 CL10 UNL     1     -33.863  18.072   0.099  1.00 20.00    -0.126 Cl
ENDBRANCH   3   4
ENDBRANCH   1   2
BRANCH   1   6
HETATM    6  S9  UNL     1     -33.820  15.310  -5.833  1.00 20.00    -0.156 SA
BRANCH   6   7
HETATM    7  C8  UNL     1     -35.650  15.285  -5.964  1.00 20.00    -0.003 C 
HETATM    8  C3  UNL     1     -36.189  14.149  -5.090  1.00 20.00     0.026 C 
HETATM    9  C4  UNL     1     -36.188  16.633  -5.474  1.00 20.00     0.026 C 
HETATM   10  C5  UNL     1     -36.035  15.060  -7.429  1.00 20.00     0.026 C 
ENDBRANCH   6   7
ENDBRANCH   1   6
TORSDOF 4
ENDMDL
MODEL 4
REMARK VINA RESULT:      -3.2     11.211     12.081
REMARK  4 active torsions:
REMARK  status: ('A' for Active; 'I' for Inactive)
REMARK    1  A    between atoms: C1_1  and  C6_6 
REMARK    2  A    between atoms: C2_2  and  C7_7 
REMARK    3  A    between atoms: C6_6  and  S9_9 
REMARK    4  A    between atoms: C8_8  and  S9_9 
ROOT
HETATM    1  C6  UNL     1     -32.185   7.169   3.806  1.00 20.00     0.101 C 
ENDROOT
BRANCH   1   2
HETATM    2  C1  UNL     1     -32.200   7.927   2.518  1.00 20.00    -0.020 C 
HETATM    3  C2  UNL     1     -32.823   9.104   2.354  1.00 20.00    -0.015 C 
BRANCH   3   4
HETATM    4  C7  UNL     1     -32.832   9.864   1.069  1.00 20.00     0.141 C 
HETATM    5 CL10 UNL     1     -33.033   8.743  -0.295  1.00 20.00    -0.126 Cl
ENDBRANCH   3   4
ENDBRANCH   1   2
BRANCH   1   6
HETATM    6  S9  UNL     1     -33.620   7.611   4.807  1.00 20.00    -0.156 SA
BRANCH   6   7
HETATM    7  C8  UNL     1     -34.454   5.977   4.779  1.00 20.00    -0.003 C 
HETATM    8  C3  UNL     1     -33.642   5.027   3.894  1.00 20.00     0.026 C 
HETATM    9  C4  UNL     1     -34.518   5.443   6.213  1.00 20.00     0.026 C 
HETATM   10  C5  UNL     1     -35.866   6.156   4.215  1.00 20.00     0.026 C 
ENDBRANCH   6   7
ENDBRANCH   1   6
TORSDOF 4
ENDMDL
MODEL 5
REMARK VINA RESULT:      -3.2     12.185     13.606
REMARK  4 active torsions:
REMARK  status: ('A' for Active; 'I' for Inactive)
REMARK    1  A    between atoms: C1_1  and  C6_6 
REMARK    2  A    between atoms: C2_2  and  C7_7 
REMARK    3  A    between atoms: C6_6  and  S9_9 
REMARK    4  A    between atoms: C8_8  and  S9_9 
ROOT
HETATM    1  C6  UNL     1     -42.151  13.632   6.162  1.00 20.00     0.101 C 
ENDROOT
BRANCH   1   2
HETATM    2  C1  UNL     1     -40.880  13.194   5.507  1.00 20.00    -0.020 C 
HETATM    3  C2  UNL     1     -39.929  12.482   6.130  1.00 20.00    -0.015 C 
BRANCH   3   4
HETATM    4  C7  UNL     1     -38.664  12.038   5.474  1.00 20.00     0.141 C 
HETATM    5 CL10 UNL     1     -38.966  11.671   3.763  1.00 20.00    -0.126 Cl
ENDBRANCH   3   4
ENDBRANCH   1   2
BRANCH   1   6
HETATM    6  S9  UNL     1     -42.076  15.394   6.549  1.00 20.00    -0.156 SA
BRANCH   6   7
HETATM    7  C8  UNL     1     -41.797  15.238   8.355  1.00 20.00    -0.003 C 
HETATM    8  C3  UNL     1     -42.492  16.405   9.062  1.00 20.00     0.026 C 
HETATM    9  C4  UNL     1     -42.391  13.905   8.823  1.00 20.00     0.026 C 
HETATM   10  C5  UNL     1     -40.290  15.272   8.624  1.00 20.00     0.026 C 
ENDBRANCH   6   7
ENDBRANCH   1   6
TORSDOF 4
ENDMDL
MODEL 6
REMARK VINA RESULT:      -3.2     12.332     13.797
REMARK  4 active torsions:
REMARK  status: ('A' for Active; 'I' for Inactive)
REMARK    1  A    between atoms: C1_1  and  C6_6 
REMARK    2  A    between atoms: C2_2  and  C7_7 
REMARK    3  A    between atoms: C6_6  and  S9_9 
REMARK    4  A    between atoms: C8_8  and  S9_9 
ROOT
HETATM    1  C6  UNL     1     -41.991  14.644   6.338  1.00 20.00     0.101 C 
ENDROOT
BRANCH   1   2
HETATM    2  C1  UNL     1     -41.418  13.306   5.995  1.00 20.00    -0.020 C 
HETATM    3  C2  UNL     1     -40.120  12.996   6.126  1.00 20.00    -0.015 C 
BRANCH   3   4
HETATM    4  C7  UNL     1     -39.550  11.658   5.790  1.00 20.00     0.141 C 
HETATM    5 CL10 UNL     1     -39.028  11.632   4.092  1.00 20.00    -0.126 Cl
ENDBRANCH   3   4
ENDBRANCH   1   2
BRANCH   1   6
HETATM    6  S9  UNL     1     -42.527  14.669   8.062  1.00 20.00    -0.156 SA
BRANCH   6   7
HETATM    7  C8  UNL     1     -41.263  15.838   8.696  1.00 20.00    -0.003 C 
HETATM    8  C3  UNL     1     -40.729  16.667   7.525  1.00 20.00     0.026 C 
HETATM    9  C4  UNL     1     -41.927  16.751   9.733  1.00 20.00     0.026 C 
HETATM   10  C5  UNL     1     -40.131  15.035   9.342  1.00 20.00     0.026 C 
ENDBRANCH   6   7
ENDBRANCH   1   6
TORSDOF 4
ENDMDL
MODEL 7
REMARK VINA RESULT:      -3.0     24.455     25.157
REMARK  4 active torsions:
REMARK  status: ('A' for Active; 'I' for Inactive)
REMARK    1  A    between atoms: C1_1  and  C6_6 
REMARK    2  A    between atoms: C2_2  and  C7_7 
REMARK    3  A    between atoms: C6_6  and  S9_9 
REMARK    4  A    between atoms: C8_8  and  S9_9 
ROOT
HETATM    1  C6  UNL     1     -24.964  -1.582  12.227  1.00 20.00     0.101 C 
ENDROOT
BRANCH   1   2
HETATM    2  C1  UNL     1     -23.847  -2.114  11.389  1.00 20.00    -0.020 C 
HETATM    3  C2  UNL     1     -24.029  -2.894  10.312  1.00 20.00    -0.015 C 
BRANCH   3   4
HETATM    4  C7  UNL     1     -22.913  -3.418   9.471  1.00 20.00     0.141 C 
HETATM    5 CL10 UNL     1     -23.246  -3.099   7.756  1.00 20.00    -0.126 Cl
ENDBRANCH   3   4
ENDBRANCH   1   2
BRANCH   1   6
HETATM    6  S9  UNL     1     -26.330  -2.762  12.264  1.00 20.00    -0.156 SA
BRANCH   6   7
HETATM    7  C8  UNL     1     -27.578  -1.721  11.412  1.00 20.00    -0.003 C 
HETATM    8  C3  UNL     1     -27.068  -0.278  11.369  1.00 20.00     0.026 C 
HETATM    9  C4  UNL     1     -27.767  -2.260   9.990  1.00 20.00     0.026 C 
HETATM   10  C5  UNL     1     -28.895  -1.798  12.189  1.00 20.00     0.026 C 
ENDBRANCH   6   7
ENDBRANCH   1   6
TORSDOF 4
ENDMDL
MODEL 8
REMARK VINA RESULT:      -2.9     13.712     15.396
REMARK  4 active torsions:
REMARK  status: ('A' for Active; 'I' for Inactive)
REMARK    1  A    between atoms: C1_1  and  C6_6 
REMARK    2  A    between atoms: C2_2  and  C7_7 
REMARK    3  A    between atoms: C6_6  and  S9_9 
REMARK    4  A    between atoms: C8_8  and  S9_9 
ROOT
HETATM    1  C6  UNL     1     -43.242   4.848  -0.541  1.00 20.00     0.101 C 
ENDROOT
BRANCH   1   2
HETATM    2  C1  UNL     1     -43.390   4.014  -1.773  1.00 20.00    -0.020 C 
HETATM    3  C2  UNL     1     -42.438   3.895  -2.711  1.00 20.00    -0.015 C 
BRANCH   3   4
HETATM    4  C7  UNL     1     -42.585   3.056  -3.938  1.00 20.00     0.141 C 
HETATM    5 CL10 UNL     1     -41.557   1.613  -3.810  1.00 20.00    -0.126 Cl
ENDBRANCH   3   4
ENDBRANCH   1   2
BRANCH   1   6
HETATM    6  S9  UNL     1     -41.632   5.664  -0.532  1.00 20.00    -0.156 SA
BRANCH   6   7
HETATM    7  C8  UNL     1     -42.078   7.078   0.549  1.00 20.00    -0.003 C 
HETATM    8  C3  UNL     1     -40.791   7.705   1.092  1.00 20.00     0.026 C 
HETATM    9  C4  UNL     1     -42.855   8.100  -0.287  1.00 20.00     0.026 C 
HETATM   10  C5  UNL     1     -42.946   6.562   1.699  1.00 20.00     0.026 C 
ENDBRANCH   6   7
ENDBRANCH   1   6
TORSDOF 4
ENDMDL
MODEL 9
REMARK VINA RESULT:      -2.9     24.374     25.137
REMARK  4 active torsions:
REMARK  status: ('A' for Active; 'I' for Inactive)
REMARK    1  A    between atoms: C1_1  and  C6_6 
REMARK    2  A    between atoms: C2_2  and  C7_7 
REMARK    3  A    between atoms: C6_6  and  S9_9 
REMARK    4  A    between atoms: C8_8  and  S9_9 
ROOT
HETATM    1  C6  UNL     1     -25.266  -1.747  11.865  1.00 20.00     0.101 C 
ENDROOT
BRANCH   1   2
HETATM    2  C1  UNL     1     -24.249  -2.441  11.017  1.00 20.00    -0.020 C 
HETATM    3  C2  UNL     1     -24.559  -3.312  10.045  1.00 20.00    -0.015 C 
BRANCH   3   4
HETATM    4  C7  UNL     1     -23.543  -4.000   9.194  1.00 20.00     0.141 C 
HETATM    5 CL10 UNL     1     -23.196  -3.019   7.754  1.00 20.00    -0.126 Cl
ENDBRANCH   3   4
ENDBRANCH   1   2
BRANCH   1   6
HETATM    6  S9  UNL     1     -26.652  -2.852  12.205  1.00 20.00    -0.156 SA
BRANCH   6   7
HETATM    7  C8  UNL     1     -27.943  -1.914  11.298  1.00 20.00    -0.003 C 
HETATM    8  C3  UNL     1     -29.236  -1.942  12.118  1.00 20.00     0.026 C 
HETATM    9  C4  UNL     1     -27.457  -0.472  11.121  1.00 20.00     0.026 C 
HETATM   10  C5  UNL     1     -28.162  -2.573   9.934  1.00 20.00     0.026 C 
ENDBRANCH   6   7
ENDBRANCH   1   6
TORSDOF 4
ENDMDL
