MODEL 1
REMARK VINA RESULT:      -4.5      0.000      0.000
REMARK  0 active torsions:
REMARK  status: ('A' for Active; 'I' for Inactive)
ROOT
HETATM    1  C1  UNL     1     -32.827   7.648   3.941  1.00 20.00    -0.088 C 
HETATM    2  C2  UNL     1     -32.881   8.946   3.610  1.00 20.00     0.014 C 
HETATM    3  C3  UNL     1     -32.252   6.602   3.024  1.00 20.00     0.037 C 
HETATM    4  C4  UNL     1     -33.348   7.124   5.255  1.00 20.00     0.042 C 
HETATM    5  C5  UNL     1     -33.792   4.901   4.113  1.00 20.00     0.013 C 
HETATM    6  C6  UNL     1     -33.262   5.470   2.782  1.00 20.00    -0.014 C 
HETATM    7  C7  UNL     1     -34.376   5.983   5.059  1.00 20.00    -0.044 C 
HETATM    8  C8  UNL     1     -32.628   4.359   1.942  1.00 20.00     0.010 C 
HETATM    9  C9  UNL     1     -35.699   6.540   4.492  1.00 20.00     0.015 C 
HETATM   10  C10 UNL     1     -34.679   5.341   6.425  1.00 20.00     0.015 C 
ENDROOT
TORSDOF 0
ENDMDL
MODEL 2
REMARK VINA RESULT:      -4.2      0.961      3.154
REMARK  0 active torsions:
REMARK  status: ('A' for Active; 'I' for Inactive)
ROOT
HETATM    1  C1  UNL     1     -34.213   6.680   5.107  1.00 20.00    -0.088 C 
HETATM    2  C2  UNL     1     -34.356   6.492   6.426  1.00 20.00     0.014 C 
HETATM    3  C3  UNL     1     -34.138   5.538   4.129  1.00 20.00     0.037 C 
HETATM    4  C4  UNL     1     -34.102   8.051   4.490  1.00 20.00     0.042 C 
HETATM    5  C5  UNL     1     -32.746   7.022   2.609  1.00 20.00     0.013 C 
HETATM    6  C6  UNL     1     -32.868   5.634   3.269  1.00 20.00    -0.014 C 
HETATM    7  C7  UNL     1     -32.831   8.196   3.618  1.00 20.00    -0.044 C 
HETATM    8  C8  UNL     1     -32.859   4.535   2.205  1.00 20.00     0.010 C 
HETATM    9  C9  UNL     1     -31.570   8.241   4.506  1.00 20.00     0.015 C 
HETATM   10  C10 UNL     1     -32.908   9.521   2.838  1.00 20.00     0.015 C 
ENDROOT
TORSDOF 0
ENDMDL
MODEL 3
REMARK VINA RESULT:      -3.9      1.182      1.968
REMARK  0 active torsions:
REMARK  status: ('A' for Active; 'I' for Inactive)
ROOT
HETATM    1  C1  UNL     1     -33.356   7.966   5.482  1.00 20.00    -0.088 C 
HETATM    2  C2  UNL     1     -33.908   8.948   6.209  1.00 20.00     0.014 C 
HETATM    3  C3  UNL     1     -32.451   8.238   4.310  1.00 20.00     0.037 C 
HETATM    4  C4  UNL     1     -33.604   6.507   5.768  1.00 20.00     0.042 C 
HETATM    5  C5  UNL     1     -33.200   6.026   3.310  1.00 20.00     0.013 C 
HETATM    6  C6  UNL     1     -32.962   7.527   3.047  1.00 20.00    -0.014 C 
HETATM    7  C7  UNL     1     -34.127   5.751   4.523  1.00 20.00    -0.044 C 
HETATM    8  C8  UNL     1     -31.976   7.716   1.892  1.00 20.00     0.010 C 
HETATM    9  C9  UNL     1     -35.576   6.173   4.204  1.00 20.00     0.015 C 
HETATM   10  C10 UNL     1     -34.127   4.240   4.818  1.00 20.00     0.015 C 
ENDROOT
TORSDOF 0
ENDMDL
MODEL 4
REMARK VINA RESULT:      -3.7     11.918     13.765
REMARK  0 active torsions:
REMARK  status: ('A' for Active; 'I' for Inactive)
ROOT
HETATM    1  C1  UNL     1     -33.610  17.701  -1.851  1.00 20.00    -0.088 C 
HETATM    2  C2  UNL     1     -32.741  18.159  -0.939  1.00 20.00     0.014 C 
HETATM    3  C3  UNL     1     -33.620  16.269  -2.313  1.00 20.00     0.037 C 
HETATM    4  C4  UNL     1     -34.644  18.585  -2.502  1.00 20.00     0.042 C 
HETATM    5  C5  UNL     1     -34.568  17.064  -4.531  1.00 20.00     0.013 C 
HETATM    6  C6  UNL     1     -33.504  16.185  -3.843  1.00 20.00    -0.014 C 
HETATM    7  C7  UNL     1     -34.560  18.537  -4.047  1.00 20.00    -0.044 C 
HETATM    8  C8  UNL     1     -33.629  14.733  -4.309  1.00 20.00     0.010 C 
HETATM    9  C9  UNL     1     -33.292  19.263  -4.542  1.00 20.00     0.015 C 
HETATM   10  C10 UNL     1     -35.783  19.263  -4.637  1.00 20.00     0.015 C 
ENDROOT
TORSDOF 0
ENDMDL
MODEL 5
REMARK VINA RESULT:      -3.7      0.832      3.327
REMARK  0 active torsions:
REMARK  status: ('A' for Active; 'I' for Inactive)
ROOT
HETATM    1  C1  UNL     1     -32.992   5.840   3.174  1.00 20.00    -0.088 C 
HETATM    2  C2  UNL     1     -33.167   5.438   1.907  1.00 20.00     0.014 C 
HETATM    3  C3  UNL     1     -33.604   5.118   4.345  1.00 20.00     0.037 C 
HETATM    4  C4  UNL     1     -32.179   7.058   3.533  1.00 20.00     0.042 C 
HETATM    5  C5  UNL     1     -33.616   7.322   5.608  1.00 20.00     0.013 C 
HETATM    6  C6  UNL     1     -34.436   6.078   5.208  1.00 20.00    -0.014 C 
HETATM    7  C7  UNL     1     -32.982   8.058   4.400  1.00 20.00    -0.044 C 
HETATM    8  C8  UNL     1     -34.958   5.361   6.454  1.00 20.00     0.010 C 
HETATM    9  C9  UNL     1     -34.071   8.751   3.554  1.00 20.00     0.015 C 
HETATM   10  C10 UNL     1     -32.026   9.146   4.923  1.00 20.00     0.015 C 
ENDROOT
TORSDOF 0
ENDMDL
MODEL 6
REMARK VINA RESULT:      -3.6     12.383     13.389
REMARK  0 active torsions:
REMARK  status: ('A' for Active; 'I' for Inactive)
ROOT
HETATM    1  C1  UNL     1     -34.089  18.589   0.612  1.00 20.00    -0.088 C 
HETATM    2  C2  UNL     1     -35.183  19.263   0.996  1.00 20.00     0.014 C 
HETATM    3  C3  UNL     1     -32.760  18.745   1.301  1.00 20.00     0.037 C 
HETATM    4  C4  UNL     1     -34.094  17.629  -0.550  1.00 20.00     0.042 C 
HETATM    5  C5  UNL     1     -31.632  18.137  -0.891  1.00 20.00     0.013 C 
HETATM    6  C6  UNL     1     -31.661  19.121   0.296  1.00 20.00    -0.014 C 
HETATM    7  C7  UNL     1     -33.004  17.974  -1.594  1.00 20.00    -0.044 C 
HETATM    8  C8  UNL     1     -30.297  19.164   0.986  1.00 20.00     0.010 C 
HETATM    9  C9  UNL     1     -33.378  19.262  -2.358  1.00 20.00     0.015 C 
HETATM   10  C10 UNL     1     -32.909  16.827  -2.616  1.00 20.00     0.015 C 
ENDROOT
TORSDOF 0
ENDMDL
MODEL 7
REMARK VINA RESULT:      -3.6      9.698     11.296
REMARK  0 active torsions:
REMARK  status: ('A' for Active; 'I' for Inactive)
ROOT
HETATM    1  C1  UNL     1     -42.177  14.580   5.434  1.00 20.00    -0.088 C 
HETATM    2  C2  UNL     1     -43.417  14.733   4.948  1.00 20.00     0.014 C 
HETATM    3  C3  UNL     1     -41.185  13.620   4.833  1.00 20.00     0.037 C 
HETATM    4  C4  UNL     1     -41.674  15.346   6.631  1.00 20.00     0.042 C 
HETATM    5  C5  UNL     1     -40.103  13.415   7.121  1.00 20.00     0.013 C 
HETATM    6  C6  UNL     1     -40.645  12.651   5.896  1.00 20.00    -0.014 C 
HETATM    7  C7  UNL     1     -41.125  14.408   7.733  1.00 20.00    -0.044 C 
HETATM    8  C8  UNL     1     -39.557  11.757   5.300  1.00 20.00     0.010 C 
HETATM    9  C9  UNL     1     -42.279  13.646   8.416  1.00 20.00     0.015 C 
HETATM   10  C10 UNL     1     -40.417  15.256   8.805  1.00 20.00     0.015 C 
ENDROOT
TORSDOF 0
ENDMDL
MODEL 8
REMARK VINA RESULT:      -3.6     12.429     13.662
REMARK  0 active torsions:
REMARK  status: ('A' for Active; 'I' for Inactive)
ROOT
HETATM    1  C1  UNL     1     -31.830  18.822   0.214  1.00 20.00    -0.088 C 
HETATM    2  C2  UNL     1     -30.716  18.182   0.597  1.00 20.00     0.014 C 
HETATM    3  C3  UNL     1     -32.887  19.263   1.192  1.00 20.00     0.037 C 
HETATM    4  C4  UNL     1     -32.126  19.143  -1.229  1.00 20.00     0.042 C 
HETATM    5  C5  UNL     1     -34.600  19.049  -0.671  1.00 20.00     0.013 C 
HETATM    6  C6  UNL     1     -34.265  18.711   0.796  1.00 20.00    -0.014 C 
HETATM    7  C7  UNL     1     -33.506  18.600  -1.674  1.00 20.00    -0.044 C 
HETATM    8  C8  UNL     1     -35.347  19.258   1.729  1.00 20.00     0.010 C 
HETATM    9  C9  UNL     1     -33.470  17.061  -1.784  1.00 20.00     0.015 C 
HETATM   10  C10 UNL     1     -33.841  19.166  -3.066  1.00 20.00     0.015 C 
ENDROOT
TORSDOF 0
ENDMDL
MODEL 9
REMARK VINA RESULT:      -3.5     12.006     14.045
REMARK  0 active torsions:
REMARK  status: ('A' for Active; 'I' for Inactive)
ROOT
HETATM    1  C1  UNL     1     -34.185  15.482  -4.530  1.00 20.00    -0.088 C 
HETATM    2  C2  UNL     1     -34.794  14.288  -4.573  1.00 20.00     0.014 C 
HETATM    3  C3  UNL     1     -33.304  15.900  -3.384  1.00 20.00     0.037 C 
HETATM    4  C4  UNL     1     -34.343  16.512  -5.619  1.00 20.00     0.042 C 
HETATM    5  C5  UNL     1     -33.920  18.313  -3.883  1.00 20.00     0.013 C 
HETATM    6  C6  UNL     1     -33.774  17.237  -2.789  1.00 20.00    -0.014 C 
HETATM    7  C7  UNL     1     -34.823  17.876  -5.065  1.00 20.00    -0.044 C 
HETATM    8  C8  UNL     1     -32.807  17.708  -1.702  1.00 20.00     0.010 C 
HETATM    9  C9  UNL     1     -36.297  17.787  -4.618  1.00 20.00     0.015 C 
HETATM   10  C10 UNL     1     -34.729  18.931  -6.182  1.00 20.00     0.015 C 
ENDROOT
TORSDOF 0
ENDMDL
