MODEL 1
REMARK VINA RESULT:      -3.7      0.000      0.000
REMARK  1 active torsions:
REMARK  status: ('A' for Active; 'I' for Inactive)
REMARK    1  A    between atoms: C6_6  and  N8_8 
ROOT
HETATM    1  C1  UNL     1     -24.475  17.166  11.273  1.00 20.00     0.158 C 
HETATM    2  N8  UNL     1     -23.606  16.989  10.506  1.00 20.00    -0.265 NA
HETATM    3  S9  UNL     1     -25.667  17.373  12.307  1.00 20.00    -0.055 SA
ENDROOT
BRANCH   2   4
HETATM    4  C6  UNL     1     -22.648  18.099  10.397  1.00 20.00     0.051 C 
HETATM    5  C4  UNL     1     -23.293  19.263   9.649  1.00 20.00     0.033 C 
HETATM    6  C2  UNL     1     -23.240  18.851   8.179  1.00 20.00     0.002 C 
HETATM    7  C3  UNL     1     -22.083  17.858   8.056  1.00 20.00     0.002 C 
HETATM    8  C5  UNL     1     -21.511  17.689   9.463  1.00 20.00     0.033 C 
HETATM    9  C7  UNL     1     -22.172  18.468  11.793  1.00 20.00     0.041 C 
ENDBRANCH   2   4
TORSDOF 1
ENDMDL
MODEL 2
REMARK VINA RESULT:      -3.6     15.456     16.615
REMARK  1 active torsions:
REMARK  status: ('A' for Active; 'I' for Inactive)
REMARK    1  A    between atoms: C6_6  and  N8_8 
ROOT
HETATM    1  C1  UNL     1     -32.421   7.375   3.276  1.00 20.00     0.158 C 
HETATM    2  N8  UNL     1     -32.584   6.852   4.313  1.00 20.00    -0.265 NA
HETATM    3  S9  UNL     1     -32.171   8.065   1.864  1.00 20.00    -0.055 SA
ENDROOT
BRANCH   2   4
HETATM    4  C6  UNL     1     -33.789   7.284   5.036  1.00 20.00     0.051 C 
HETATM    5  C4  UNL     1     -33.795   6.675   6.436  1.00 20.00     0.033 C 
HETATM    6  C2  UNL     1     -34.237   5.228   6.224  1.00 20.00     0.002 C 
HETATM    7  C3  UNL     1     -35.038   5.214   4.921  1.00 20.00     0.002 C 
HETATM    8  C5  UNL     1     -35.016   6.646   4.388  1.00 20.00     0.033 C 
HETATM    9  C7  UNL     1     -33.836   8.803   5.038  1.00 20.00     0.041 C 
ENDBRANCH   2   4
TORSDOF 1
ENDMDL
MODEL 3
REMARK VINA RESULT:      -3.5     14.153     15.382
REMARK  1 active torsions:
REMARK  status: ('A' for Active; 'I' for Inactive)
REMARK    1  A    between atoms: C6_6  and  N8_8 
ROOT
HETATM    1  C1  UNL     1     -33.554  16.687  -2.260  1.00 20.00     0.158 C 
HETATM    2  N8  UNL     1     -33.679  17.060  -1.155  1.00 20.00    -0.265 NA
HETATM    3  S9  UNL     1     -33.388  16.147  -3.748  1.00 20.00    -0.055 SA
ENDROOT
BRANCH   2   4
HETATM    4  C6  UNL     1     -33.576  18.517  -0.984  1.00 20.00     0.051 C 
HETATM    5  C4  UNL     1     -32.183  18.986  -1.397  1.00 20.00     0.033 C 
HETATM    6  C2  UNL     1     -31.288  18.616  -0.217  1.00 20.00     0.002 C 
HETATM    7  C3  UNL     1     -32.202  18.549   1.008  1.00 20.00     0.002 C 
HETATM    8  C5  UNL     1     -33.614  18.849   0.507  1.00 20.00     0.033 C 
HETATM    9  C7  UNL     1     -34.695  19.178  -1.772  1.00 20.00     0.041 C 
ENDBRANCH   2   4
TORSDOF 1
ENDMDL
MODEL 4
REMARK VINA RESULT:      -3.5     13.993     15.227
REMARK  1 active torsions:
REMARK  status: ('A' for Active; 'I' for Inactive)
REMARK    1  A    between atoms: C6_6  and  N8_8 
ROOT
HETATM    1  C1  UNL     1     -31.363  18.621  -0.111  1.00 20.00     0.158 C 
HETATM    2  N8  UNL     1     -31.758  18.733  -1.209  1.00 20.00    -0.265 NA
HETATM    3  S9  UNL     1     -30.793  18.475   1.368  1.00 20.00    -0.055 SA
ENDROOT
BRANCH   2   4
HETATM    4  C6  UNL     1     -33.211  18.573  -1.358  1.00 20.00     0.051 C 
HETATM    5  C4  UNL     1     -33.556  17.091  -1.481  1.00 20.00     0.033 C 
HETATM    6  C2  UNL     1     -33.201  16.732  -2.922  1.00 20.00     0.002 C 
HETATM    7  C3  UNL     1     -33.276  18.038  -3.717  1.00 20.00     0.002 C 
HETATM    8  C5  UNL     1     -33.640  19.130  -2.714  1.00 20.00     0.033 C 
HETATM    9  C7  UNL     1     -33.897  19.257  -0.186  1.00 20.00     0.041 C 
ENDBRANCH   2   4
TORSDOF 1
ENDMDL
MODEL 5
REMARK VINA RESULT:      -3.3     14.391     15.581
REMARK  1 active torsions:
REMARK  status: ('A' for Active; 'I' for Inactive)
REMARK    1  A    between atoms: C6_6  and  N8_8 
ROOT
HETATM    1  C1  UNL     1     -34.866  19.139  -2.256  1.00 20.00     0.158 C 
HETATM    2  N8  UNL     1     -33.746  19.251  -1.926  1.00 20.00    -0.265 NA
HETATM    3  S9  UNL     1     -36.385  19.019  -2.717  1.00 20.00    -0.055 SA
ENDROOT
BRANCH   2   4
HETATM    4  C6  UNL     1     -33.197  18.090  -1.212  1.00 20.00     0.051 C 
HETATM    5  C4  UNL     1     -33.805  18.011   0.187  1.00 20.00     0.033 C 
HETATM    6  C2  UNL     1     -33.056  19.072   0.991  1.00 20.00     0.002 C 
HETATM    7  C3  UNL     1     -31.708  19.263   0.292  1.00 20.00     0.002 C 
HETATM    8  C5  UNL     1     -31.718  18.334  -0.921  1.00 20.00     0.033 C 
HETATM    9  C7  UNL     1     -33.444  16.844  -2.048  1.00 20.00     0.041 C 
ENDBRANCH   2   4
TORSDOF 1
ENDMDL
MODEL 6
REMARK VINA RESULT:      -3.2     18.013     19.093
REMARK  1 active torsions:
REMARK  status: ('A' for Active; 'I' for Inactive)
REMARK    1  A    between atoms: C6_6  and  N8_8 
ROOT
HETATM    1  C1  UNL     1     -40.410  12.159   5.898  1.00 20.00     0.158 C 
HETATM    2  N8  UNL     1     -41.209  12.414   6.717  1.00 20.00    -0.265 NA
HETATM    3  S9  UNL     1     -39.325  11.777   4.797  1.00 20.00    -0.055 SA
ENDROOT
BRANCH   2   4
HETATM    4  C6  UNL     1     -41.628  13.823   6.746  1.00 20.00     0.051 C 
HETATM    5  C4  UNL     1     -40.461  14.698   7.198  1.00 20.00     0.033 C 
HETATM    6  C2  UNL     1     -40.404  14.509   8.713  1.00 20.00     0.002 C 
HETATM    7  C3  UNL     1     -41.812  14.094   9.144  1.00 20.00     0.002 C 
HETATM    8  C5  UNL     1     -42.647  14.019   7.867  1.00 20.00     0.033 C 
HETATM    9  C7  UNL     1     -42.168  14.197   5.375  1.00 20.00     0.041 C 
ENDBRANCH   2   4
TORSDOF 1
ENDMDL
MODEL 7
REMARK VINA RESULT:      -3.2     17.802     18.619
REMARK  1 active torsions:
REMARK  status: ('A' for Active; 'I' for Inactive)
REMARK    1  A    between atoms: C6_6  and  N8_8 
ROOT
HETATM    1  C1  UNL     1     -39.821  12.468   6.214  1.00 20.00     0.158 C 
HETATM    2  N8  UNL     1     -40.035  12.900   7.283  1.00 20.00    -0.265 NA
HETATM    3  S9  UNL     1     -39.499  11.868   4.775  1.00 20.00    -0.055 SA
ENDROOT
BRANCH   2   4
HETATM    4  C6  UNL     1     -41.311  13.619   7.410  1.00 20.00     0.051 C 
HETATM    5  C4  UNL     1     -41.242  14.930   6.631  1.00 20.00     0.033 C 
HETATM    6  C2  UNL     1     -40.434  15.866   7.527  1.00 20.00     0.002 C 
HETATM    7  C3  UNL     1     -40.602  15.341   8.954  1.00 20.00     0.002 C 
HETATM    8  C5  UNL     1     -41.477  14.093   8.852  1.00 20.00     0.033 C 
HETATM    9  C7  UNL     1     -42.433  12.701   6.949  1.00 20.00     0.041 C 
ENDBRANCH   2   4
TORSDOF 1
ENDMDL
MODEL 8
REMARK VINA RESULT:      -3.0     17.668     18.506
REMARK  1 active torsions:
REMARK  status: ('A' for Active; 'I' for Inactive)
REMARK    1  A    between atoms: C6_6  and  N8_8 
ROOT
HETATM    1  C1  UNL     1     -40.494  14.376   9.752  1.00 20.00     0.158 C 
HETATM    2  N8  UNL     1     -40.287  13.765   8.773  1.00 20.00    -0.265 NA
HETATM    3  S9  UNL     1     -40.758  15.181  11.099  1.00 20.00    -0.055 SA
ENDROOT
BRANCH   2   4
HETATM    4  C6  UNL     1     -40.831  14.367   7.547  1.00 20.00     0.051 C 
HETATM    5  C4  UNL     1     -42.330  14.092   7.459  1.00 20.00     0.033 C 
HETATM    6  C2  UNL     1     -42.427  12.642   6.990  1.00 20.00     0.002 C 
HETATM    7  C3  UNL     1     -41.121  12.345   6.250  1.00 20.00     0.002 C 
HETATM    8  C5  UNL     1     -40.281  13.618   6.334  1.00 20.00     0.033 C 
HETATM    9  C7  UNL     1     -40.488  15.848   7.540  1.00 20.00     0.041 C 
ENDBRANCH   2   4
TORSDOF 1
ENDMDL
MODEL 9
REMARK VINA RESULT:      -3.0     18.298     19.176
REMARK  1 active torsions:
REMARK  status: ('A' for Active; 'I' for Inactive)
REMARK    1  A    between atoms: C6_6  and  N8_8 
ROOT
HETATM    1  C1  UNL     1     -42.766  12.896   7.811  1.00 20.00     0.158 C 
HETATM    2  N8  UNL     1     -42.302  12.631   6.767  1.00 20.00    -0.265 NA
HETATM    3  S9  UNL     1     -43.417  13.226   9.225  1.00 20.00    -0.055 SA
ENDROOT
BRANCH   2   4
HETATM    4  C6  UNL     1     -41.301  13.591   6.279  1.00 20.00     0.051 C 
HETATM    5  C4  UNL     1     -40.936  13.264   4.833  1.00 20.00     0.033 C 
HETATM    6  C2  UNL     1     -39.987  12.072   4.937  1.00 20.00     0.002 C 
HETATM    7  C3  UNL     1     -39.361  12.146   6.331  1.00 20.00     0.002 C 
HETATM    8  C5  UNL     1     -39.984  13.360   7.018  1.00 20.00     0.033 C 
HETATM    9  C7  UNL     1     -41.850  14.997   6.460  1.00 20.00     0.041 C 
ENDBRANCH   2   4
TORSDOF 1
ENDMDL
