MODEL 1
REMARK VINA RESULT:      -4.5      0.000      0.000
REMARK  4 active torsions:
REMARK  status: ('A' for Active; 'I' for Inactive)
REMARK    1  A    between atoms: C1_1  and  C12_12 
REMARK    2  A    between atoms: C6_6  and  C10_10 
REMARK    3  A    between atoms: C7_7  and  C11_11 
REMARK    4  A    between atoms: C11_11  and  C12_12 
ROOT
HETATM    1  C2  UNL     1     -32.996  18.993  -3.861  1.00 20.00     0.001 C 
HETATM    2  C3  UNL     1     -32.731  19.263  -2.382  1.00 20.00     0.005 C 
HETATM    3  C4  UNL     1     -34.164  18.030  -4.058  1.00 20.00     0.005 C 
HETATM    4  C5  UNL     1     -33.699  17.003  -1.795  1.00 20.00     0.009 C 
HETATM    5  C6  UNL     1     -32.519  17.966  -1.592  1.00 20.00    -0.014 C 
HETATM    6  C7  UNL     1     -34.002  16.720  -3.274  1.00 20.00    -0.013 C 
ENDROOT
BRANCH   6   7
HETATM    7  C11 UNL     1     -32.948  15.808  -3.905  1.00 20.00     0.015 C 
BRANCH   7   8
HETATM    8  C12 UNL     1     -33.570  14.706  -4.769  1.00 20.00     0.043 C 
HETATM    9  C9  UNL     1     -34.736  14.047  -4.036  1.00 20.00     0.017 C 
BRANCH   8  10
HETATM   10  C1  UNL     1     -34.092  15.219  -6.101  1.00 20.00     0.235 C 
HETATM   11  O13 UNL     1     -33.583  14.986  -7.193  1.00 20.00    -0.306 OA
ENDBRANCH   8  10
ENDBRANCH   7   8
ENDBRANCH   6   7
BRANCH   5  12
HETATM   12  C10 UNL     1     -32.323  18.268  -0.107  1.00 20.00     0.000 C 
HETATM   13  C8  UNL     1     -31.017  18.945   0.150  1.00 20.00     0.005 C 
ENDBRANCH   5  12
TORSDOF 4
ENDMDL
MODEL 2
REMARK VINA RESULT:      -4.5      2.504      5.282
REMARK  4 active torsions:
REMARK  status: ('A' for Active; 'I' for Inactive)
REMARK    1  A    between atoms: C1_1  and  C12_12 
REMARK    2  A    between atoms: C6_6  and  C10_10 
REMARK    3  A    between atoms: C7_7  and  C11_11 
REMARK    4  A    between atoms: C11_11  and  C12_12 
ROOT
HETATM    1  C2  UNL     1     -34.651  18.389  -4.321  1.00 20.00     0.001 C 
HETATM    2  C3  UNL     1     -34.910  17.110  -5.113  1.00 20.00     0.005 C 
HETATM    3  C4  UNL     1     -33.243  18.411  -3.730  1.00 20.00     0.005 C 
HETATM    4  C5  UNL     1     -33.222  15.883  -3.686  1.00 20.00     0.009 C 
HETATM    5  C6  UNL     1     -34.640  15.854  -4.276  1.00 20.00    -0.014 C 
HETATM    6  C7  UNL     1     -32.923  17.165  -2.893  1.00 20.00    -0.013 C 
ENDROOT
BRANCH   6   7
HETATM    7  C11 UNL     1     -33.651  17.183  -1.547  1.00 20.00     0.015 C 
BRANCH   7   8
HETATM    8  C12 UNL     1     -33.227  18.365  -0.669  1.00 20.00     0.043 C 
HETATM    9  C9  UNL     1     -34.083  18.426   0.593  1.00 20.00     0.017 C 
BRANCH   8  10
HETATM   10  C1  UNL     1     -31.772  18.294  -0.238  1.00 20.00     0.235 C 
HETATM   11  O13 UNL     1     -30.862  18.962  -0.719  1.00 20.00    -0.306 OA
ENDBRANCH   8  10
ENDBRANCH   7   8
ENDBRANCH   6   7
BRANCH   5  12
HETATM   12  C10 UNL     1     -34.845  14.595  -5.117  1.00 20.00     0.000 C 
HETATM   13  C8  UNL     1     -35.645  14.876  -6.346  1.00 20.00     0.005 C 
ENDBRANCH   5  12
TORSDOF 4
ENDMDL
MODEL 3
REMARK VINA RESULT:      -4.0      3.030      5.560
REMARK  4 active torsions:
REMARK  status: ('A' for Active; 'I' for Inactive)
REMARK    1  A    between atoms: C1_1  and  C12_12 
REMARK    2  A    between atoms: C6_6  and  C10_10 
REMARK    3  A    between atoms: C7_7  and  C11_11 
REMARK    4  A    between atoms: C11_11  and  C12_12 
ROOT
HETATM    1  C2  UNL     1     -33.242  16.250  -3.760  1.00 20.00     0.001 C 
HETATM    2  C3  UNL     1     -34.298  16.943  -4.616  1.00 20.00     0.005 C 
HETATM    3  C4  UNL     1     -33.588  16.313  -2.275  1.00 20.00     0.005 C 
HETATM    4  C5  UNL     1     -34.890  18.444  -2.670  1.00 20.00     0.009 C 
HETATM    5  C6  UNL     1     -34.542  18.388  -4.165  1.00 20.00    -0.014 C 
HETATM    6  C7  UNL     1     -33.853  17.741  -1.780  1.00 20.00    -0.013 C 
ENDROOT
BRANCH   6   7
HETATM    7  C11 UNL     1     -32.559  18.552  -1.668  1.00 20.00     0.015 C 
BRANCH   7   8
HETATM    8  C12 UNL     1     -32.287  19.022  -0.235  1.00 20.00     0.043 C 
HETATM    9  C9  UNL     1     -33.361  18.494   0.713  1.00 20.00     0.017 C 
BRANCH   8  10
HETATM   10  C1  UNL     1     -30.938  18.567   0.294  1.00 20.00     0.235 C 
HETATM   11  O13 UNL     1     -30.168  19.262   0.949  1.00 20.00    -0.306 OA
ENDBRANCH   8  10
ENDBRANCH   7   8
ENDBRANCH   6   7
BRANCH   5  12
HETATM   12  C10 UNL     1     -35.650  19.031  -4.998  1.00 20.00     0.000 C 
HETATM   13  C8  UNL     1     -36.466  18.006  -5.714  1.00 20.00     0.005 C 
ENDBRANCH   5  12
TORSDOF 4
ENDMDL
MODEL 4
REMARK VINA RESULT:      -3.9     11.990     13.023
REMARK  4 active torsions:
REMARK  status: ('A' for Active; 'I' for Inactive)
REMARK    1  A    between atoms: C1_1  and  C12_12 
REMARK    2  A    between atoms: C6_6  and  C10_10 
REMARK    3  A    between atoms: C7_7  and  C11_11 
REMARK    4  A    between atoms: C11_11  and  C12_12 
ROOT
HETATM    1  C2  UNL     1     -42.988  15.345   5.554  1.00 20.00     0.001 C 
HETATM    2  C3  UNL     1     -42.467  16.092   6.779  1.00 20.00     0.005 C 
HETATM    3  C4  UNL     1     -43.049  13.839   5.796  1.00 20.00     0.005 C 
HETATM    4  C5  UNL     1     -41.180  14.035   7.487  1.00 20.00     0.009 C 
HETATM    5  C6  UNL     1     -41.111  15.550   7.246  1.00 20.00    -0.014 C 
HETATM    6  C7  UNL     1     -41.715  13.253   6.278  1.00 20.00    -0.013 C 
ENDROOT
BRANCH   6   7
HETATM    7  C11 UNL     1     -40.685  13.182   5.148  1.00 20.00     0.015 C 
BRANCH   7   8
HETATM    8  C12 UNL     1     -39.797  11.938   5.243  1.00 20.00     0.043 C 
HETATM    9  C9  UNL     1     -39.199  11.602   3.879  1.00 20.00     0.017 C 
BRANCH   8  10
HETATM   10  C1  UNL     1     -38.648  12.102   6.224  1.00 20.00     0.235 C 
HETATM   11  O13 UNL     1     -38.714  11.881   7.429  1.00 20.00    -0.306 OA
ENDBRANCH   8  10
ENDBRANCH   7   8
ENDBRANCH   6   7
BRANCH   5  12
HETATM   12  C10 UNL     1     -40.650  16.274   8.510  1.00 20.00     0.000 C 
HETATM   13  C8  UNL     1     -40.179  15.316   9.555  1.00 20.00     0.005 C 
ENDBRANCH   5  12
TORSDOF 4
ENDMDL
MODEL 5
REMARK VINA RESULT:      -3.9      2.153      3.182
REMARK  4 active torsions:
REMARK  status: ('A' for Active; 'I' for Inactive)
REMARK    1  A    between atoms: C1_1  and  C12_12 
REMARK    2  A    between atoms: C6_6  and  C10_10 
REMARK    3  A    between atoms: C7_7  and  C11_11 
REMARK    4  A    between atoms: C11_11  and  C12_12 
ROOT
HETATM    1  C2  UNL     1     -31.763  18.288   0.230  1.00 20.00     0.001 C 
HETATM    2  C3  UNL     1     -32.929  18.911   0.991  1.00 20.00     0.005 C 
HETATM    3  C4  UNL     1     -31.783  18.671  -1.247  1.00 20.00     0.005 C 
HETATM    4  C5  UNL     1     -34.293  18.960  -1.137  1.00 20.00     0.009 C 
HETATM    5  C6  UNL     1     -34.279  18.570   0.348  1.00 20.00    -0.014 C 
HETATM    6  C7  UNL     1     -33.121  18.360  -1.931  1.00 20.00    -0.013 C 
ENDROOT
BRANCH   6   7
HETATM    7  C11 UNL     1     -33.304  16.858  -2.163  1.00 20.00     0.015 C 
BRANCH   7   8
HETATM    8  C12 UNL     1     -33.295  16.491  -3.650  1.00 20.00     0.043 C 
HETATM    9  C9  UNL     1     -33.615  15.010  -3.837  1.00 20.00     0.017 C 
BRANCH   8  10
HETATM   10  C1  UNL     1     -34.299  17.289  -4.465  1.00 20.00     0.235 C 
HETATM   11  O13 UNL     1     -35.518  17.212  -4.349  1.00 20.00    -0.306 OA
ENDBRANCH   8  10
ENDBRANCH   7   8
ENDBRANCH   6   7
BRANCH   5  12
HETATM   12  C10 UNL     1     -35.419  19.263   1.094  1.00 20.00     0.000 C 
HETATM   13  C8  UNL     1     -35.195  19.258   2.571  1.00 20.00     0.005 C 
ENDBRANCH   5  12
TORSDOF 4
ENDMDL
MODEL 6
REMARK VINA RESULT:      -3.9     13.253     14.780
REMARK  4 active torsions:
REMARK  status: ('A' for Active; 'I' for Inactive)
REMARK    1  A    between atoms: C1_1  and  C12_12 
REMARK    2  A    between atoms: C6_6  and  C10_10 
REMARK    3  A    between atoms: C7_7  and  C11_11 
REMARK    4  A    between atoms: C11_11  and  C12_12 
ROOT
HETATM    1  C2  UNL     1     -42.426  14.254   5.561  1.00 20.00     0.001 C 
HETATM    2  C3  UNL     1     -41.274  13.330   5.177  1.00 20.00     0.005 C 
HETATM    3  C4  UNL     1     -41.950  15.418   6.426  1.00 20.00     0.005 C 
HETATM    4  C5  UNL     1     -40.030  14.006   7.271  1.00 20.00     0.009 C 
HETATM    5  C6  UNL     1     -40.506  12.829   6.406  1.00 20.00    -0.014 C 
HETATM    6  C7  UNL     1     -41.164  14.966   7.664  1.00 20.00    -0.013 C 
ENDROOT
BRANCH   6   7
HETATM    7  C11 UNL     1     -42.082  14.355   8.726  1.00 20.00     0.015 C 
BRANCH   7   8
HETATM    8  C12 UNL     1     -41.363  14.132  10.061  1.00 20.00     0.043 C 
HETATM    9  C9  UNL     1     -40.889  15.463  10.640  1.00 20.00     0.017 C 
BRANCH   8  10
HETATM   10  C1  UNL     1     -42.241  13.460  11.103  1.00 20.00     0.235 C 
HETATM   11  O13 UNL     1     -42.212  12.266  11.384  1.00 20.00    -0.306 OA
ENDBRANCH   8  10
ENDBRANCH   7   8
ENDBRANCH   6   7
BRANCH   5  12
HETATM   12  C10 UNL     1     -39.322  11.961   5.983  1.00 20.00     0.000 C 
HETATM   13  C8  UNL     1     -39.266  11.789   4.500  1.00 20.00     0.005 C 
ENDBRANCH   5  12
TORSDOF 4
ENDMDL
MODEL 7
REMARK VINA RESULT:      -3.9      2.815      4.097
REMARK  4 active torsions:
REMARK  status: ('A' for Active; 'I' for Inactive)
REMARK    1  A    between atoms: C1_1  and  C12_12 
REMARK    2  A    between atoms: C6_6  and  C10_10 
REMARK    3  A    between atoms: C7_7  and  C11_11 
REMARK    4  A    between atoms: C11_11  and  C12_12 
ROOT
HETATM    1  C2  UNL     1     -33.535  14.529  -4.667  1.00 20.00     0.001 C 
HETATM    2  C3  UNL     1     -33.061  15.637  -3.731  1.00 20.00     0.005 C 
HETATM    3  C4  UNL     1     -33.983  15.084  -6.017  1.00 20.00     0.005 C 
HETATM    4  C5  UNL     1     -34.567  17.285  -4.918  1.00 20.00     0.009 C 
HETATM    5  C6  UNL     1     -34.121  16.731  -3.556  1.00 20.00    -0.014 C 
HETATM    6  C7  UNL     1     -35.037  16.192  -5.890  1.00 20.00    -0.013 C 
ENDROOT
BRANCH   6   7
HETATM    7  C11 UNL     1     -36.406  15.632  -5.496  1.00 20.00     0.015 C 
BRANCH   7   8
HETATM    8  C12 UNL     1     -37.499  16.705  -5.499  1.00 20.00     0.043 C 
HETATM    9  C9  UNL     1     -37.857  17.099  -6.930  1.00 20.00     0.017 C 
BRANCH   8  10
HETATM   10  C1  UNL     1     -38.776  16.254  -4.810  1.00 20.00     0.235 C 
HETATM   11  O13 UNL     1     -39.117  15.085  -4.655  1.00 20.00    -0.306 OA
ENDBRANCH   8  10
ENDBRANCH   7   8
ENDBRANCH   6   7
BRANCH   5  12
HETATM   12  C10 UNL     1     -33.590  17.856  -2.668  1.00 20.00     0.000 C 
HETATM   13  C8  UNL     1     -33.660  17.495  -1.220  1.00 20.00     0.005 C 
ENDBRANCH   5  12
TORSDOF 4
ENDMDL
MODEL 8
REMARK VINA RESULT:      -3.9     24.561     25.459
REMARK  4 active torsions:
REMARK  status: ('A' for Active; 'I' for Inactive)
REMARK    1  A    between atoms: C1_1  and  C12_12 
REMARK    2  A    between atoms: C6_6  and  C10_10 
REMARK    3  A    between atoms: C7_7  and  C11_11 
REMARK    4  A    between atoms: C11_11  and  C12_12 
ROOT
HETATM    1  C2  UNL     1     -25.204  -1.375  11.989  1.00 20.00     0.001 C 
HETATM    2  C3  UNL     1     -23.955  -1.961  11.337  1.00 20.00     0.005 C 
HETATM    3  C4  UNL     1     -26.223  -2.459  12.332  1.00 20.00     0.005 C 
HETATM    4  C5  UNL     1     -25.321  -3.898  10.459  1.00 20.00     0.009 C 
HETATM    5  C6  UNL     1     -24.297  -2.810  10.106  1.00 20.00    -0.014 C 
HETATM    6  C7  UNL     1     -26.587  -3.343  11.131  1.00 20.00    -0.013 C 
ENDROOT
BRANCH   6   7
HETATM    7  C11 UNL     1     -27.482  -2.605  10.134  1.00 20.00     0.015 C 
BRANCH   7   8
HETATM    8  C12 UNL     1     -28.925  -3.120  10.152  1.00 20.00     0.043 C 
HETATM    9  C9  UNL     1     -28.947  -4.643  10.252  1.00 20.00     0.017 C 
BRANCH   8  10
HETATM   10  C1  UNL     1     -29.739  -2.568  11.309  1.00 20.00     0.235 C 
HETATM   11  O13 UNL     1     -30.943  -2.335  11.275  1.00 20.00    -0.306 OA
ENDBRANCH   8  10
ENDBRANCH   7   8
ENDBRANCH   6   7
BRANCH   5  12
HETATM   12  C10 UNL     1     -23.032  -3.434   9.518  1.00 20.00     0.000 C 
HETATM   13  C8  UNL     1     -23.008  -3.331   8.028  1.00 20.00     0.005 C 
ENDBRANCH   5  12
TORSDOF 4
ENDMDL
MODEL 9
REMARK VINA RESULT:      -3.8     13.337     14.726
REMARK  4 active torsions:
REMARK  status: ('A' for Active; 'I' for Inactive)
REMARK    1  A    between atoms: C1_1  and  C12_12 
REMARK    2  A    between atoms: C6_6  and  C10_10 
REMARK    3  A    between atoms: C7_7  and  C11_11 
REMARK    4  A    between atoms: C11_11  and  C12_12 
ROOT
HETATM    1  C2  UNL     1     -42.351  14.302   5.135  1.00 20.00     0.001 C 
HETATM    2  C3  UNL     1     -41.146  13.421   4.818  1.00 20.00     0.005 C 
HETATM    3  C4  UNL     1     -42.120  15.145   6.387  1.00 20.00     0.005 C 
HETATM    4  C5  UNL     1     -40.517  13.399   7.267  1.00 20.00     0.009 C 
HETATM    5  C6  UNL     1     -40.748  12.544   6.012  1.00 20.00    -0.014 C 
HETATM    6  C7  UNL     1     -41.707  14.310   7.606  1.00 20.00    -0.013 C 
ENDROOT
BRANCH   6   7
HETATM    7  C11 UNL     1     -42.885  13.516   8.176  1.00 20.00     0.015 C 
BRANCH   7   8
HETATM    8  C12 UNL     1     -43.070  13.742   9.679  1.00 20.00     0.043 C 
HETATM    9  C9  UNL     1     -43.417  12.430  10.378  1.00 20.00     0.017 C 
BRANCH   8  10
HETATM   10  C1  UNL     1     -41.832  14.310  10.352  1.00 20.00     0.235 C 
HETATM   11  O13 UNL     1     -40.931  13.641  10.849  1.00 20.00    -0.306 OA
ENDBRANCH   8  10
ENDBRANCH   7   8
ENDBRANCH   6   7
BRANCH   5  12
HETATM   12  C10 UNL     1     -39.500  11.725   5.684  1.00 20.00     0.000 C 
HETATM   13  C8  UNL     1     -39.187  11.758   4.224  1.00 20.00     0.005 C 
ENDBRANCH   5  12
TORSDOF 4
ENDMDL
