MODEL 1
REMARK VINA RESULT:      -4.2      0.000      0.000
REMARK  1 active torsions:
REMARK  status: ('A' for Active; 'I' for Inactive)
REMARK    1  A    between atoms: C2_2  and  C6_6 
ROOT
HETATM    1  C1  UNL     1     -35.497   6.270   4.406  1.00 20.00     0.015 A 
HETATM    2  C2  UNL     1     -34.083   6.782   4.466  1.00 20.00     0.008 A 
HETATM    3  C3  UNL     1     -34.428   5.433   5.076  1.00 20.00    -0.043 A 
HETATM    4  C4  UNL     1     -33.937   4.206   4.352  1.00 20.00     0.015 C 
HETATM    5  C5  UNL     1     -34.489   5.275   6.572  1.00 20.00     0.015 C 
ENDROOT
BRANCH   2   6
HETATM    6  C6  UNL     1     -33.749   7.977   5.292  1.00 20.00     0.120 C 
HETATM    7 CL7  UNL     1     -32.262   8.772   4.709  1.00 20.00    -0.130 Cl
ENDBRANCH   2   6
TORSDOF 1
ENDMDL
MODEL 2
REMARK VINA RESULT:      -4.0      2.101      2.711
REMARK  1 active torsions:
REMARK  status: ('A' for Active; 'I' for Inactive)
REMARK    1  A    between atoms: C2_2  and  C6_6 
ROOT
HETATM    1  C1  UNL     1     -35.469   6.037   4.359  1.00 20.00     0.015 A 
HETATM    2  C2  UNL     1     -34.128   5.379   4.170  1.00 20.00     0.008 A 
HETATM    3  C3  UNL     1     -34.416   6.166   5.439  1.00 20.00    -0.043 A 
HETATM    4  C4  UNL     1     -34.607   5.378   6.708  1.00 20.00     0.015 C 
HETATM    5  C5  UNL     1     -33.781   7.516   5.649  1.00 20.00     0.015 C 
ENDROOT
BRANCH   2   6
HETATM    6  C6  UNL     1     -33.193   5.864   3.116  1.00 20.00     0.120 C 
HETATM    7 CL7  UNL     1     -32.737   4.548   2.001  1.00 20.00    -0.130 Cl
ENDBRANCH   2   6
TORSDOF 1
ENDMDL
MODEL 3
REMARK VINA RESULT:      -4.0      1.076      1.934
REMARK  1 active torsions:
REMARK  status: ('A' for Active; 'I' for Inactive)
REMARK    1  A    between atoms: C2_2  and  C6_6 
ROOT
HETATM    1  C1  UNL     1     -34.061   6.311   6.111  1.00 20.00     0.015 A 
HETATM    2  C2  UNL     1     -33.949   7.484   5.173  1.00 20.00     0.008 A 
HETATM    3  C3  UNL     1     -34.415   6.135   4.650  1.00 20.00    -0.043 A 
HETATM    4  C4  UNL     1     -35.873   6.004   4.289  1.00 20.00     0.015 C 
HETATM    5  C5  UNL     1     -33.498   5.300   3.796  1.00 20.00     0.015 C 
ENDROOT
BRANCH   2   6
HETATM    6  C6  UNL     1     -32.615   8.059   4.842  1.00 20.00     0.120 C 
HETATM    7 CL7  UNL     1     -32.612   8.789   3.213  1.00 20.00    -0.130 Cl
ENDBRANCH   2   6
TORSDOF 1
ENDMDL
MODEL 4
REMARK VINA RESULT:      -3.8      1.518      1.716
REMARK  1 active torsions:
REMARK  status: ('A' for Active; 'I' for Inactive)
REMARK    1  A    between atoms: C2_2  and  C6_6 
ROOT
HETATM    1  C1  UNL     1     -35.126   6.491   4.330  1.00 20.00     0.015 A 
HETATM    2  C2  UNL     1     -33.629   6.364   4.229  1.00 20.00     0.008 A 
HETATM    3  C3  UNL     1     -34.316   6.208   5.577  1.00 20.00    -0.043 A 
HETATM    4  C4  UNL     1     -34.381   4.820   6.159  1.00 20.00     0.015 C 
HETATM    5  C5  UNL     1     -34.206   7.299   6.610  1.00 20.00     0.015 C 
ENDROOT
BRANCH   2   6
HETATM    6  C6  UNL     1     -32.794   7.549   3.884  1.00 20.00     0.120 C 
HETATM    7 CL7  UNL     1     -32.159   7.429   2.220  1.00 20.00    -0.130 Cl
ENDBRANCH   2   6
TORSDOF 1
ENDMDL
MODEL 5
REMARK VINA RESULT:      -3.7      2.272      3.471
REMARK  1 active torsions:
REMARK  status: ('A' for Active; 'I' for Inactive)
REMARK    1  A    between atoms: C2_2  and  C6_6 
ROOT
HETATM    1  C1  UNL     1     -34.498   8.032   4.841  1.00 20.00     0.015 A 
HETATM    2  C2  UNL     1     -33.694   7.262   5.855  1.00 20.00     0.008 A 
HETATM    3  C3  UNL     1     -33.011   7.846   4.629  1.00 20.00    -0.043 A 
HETATM    4  C4  UNL     1     -32.114   9.038   4.845  1.00 20.00     0.015 C 
HETATM    5  C5  UNL     1     -32.564   6.941   3.511  1.00 20.00     0.015 C 
ENDROOT
BRANCH   2   6
HETATM    6  C6  UNL     1     -33.912   5.798   6.034  1.00 20.00     0.120 C 
HETATM    7 CL7  UNL     1     -35.233   5.209   4.989  1.00 20.00    -0.130 Cl
ENDBRANCH   2   6
TORSDOF 1
ENDMDL
MODEL 6
REMARK VINA RESULT:      -3.3      8.683      9.601
REMARK  1 active torsions:
REMARK  status: ('A' for Active; 'I' for Inactive)
REMARK    1  A    between atoms: C2_2  and  C6_6 
ROOT
HETATM    1  C1  UNL     1     -41.267  13.520   5.343  1.00 20.00     0.015 A 
HETATM    2  C2  UNL     1     -40.675  12.247   5.890  1.00 20.00     0.008 A 
HETATM    3  C3  UNL     1     -41.346  13.238   6.829  1.00 20.00    -0.043 A 
HETATM    4  C4  UNL     1     -42.683  12.844   7.401  1.00 20.00     0.015 C 
HETATM    5  C5  UNL     1     -40.512  14.084   7.754  1.00 20.00     0.015 C 
ENDROOT
BRANCH   2   6
HETATM    6  C6  UNL     1     -39.200  12.032   5.867  1.00 20.00     0.120 C 
HETATM    7 CL7  UNL     1     -38.626  11.665   4.218  1.00 20.00    -0.130 Cl
ENDBRANCH   2   6
TORSDOF 1
ENDMDL
MODEL 7
REMARK VINA RESULT:      -3.3     15.706     16.880
REMARK  1 active torsions:
REMARK  status: ('A' for Active; 'I' for Inactive)
REMARK    1  A    between atoms: C2_2  and  C6_6 
ROOT
HETATM    1  C1  UNL     1     -22.855  18.361  12.297  1.00 20.00     0.015 A 
HETATM    2  C2  UNL     1     -23.290  18.468  10.860  1.00 20.00     0.008 A 
HETATM    3  C3  UNL     1     -24.210  17.827  11.886  1.00 20.00    -0.043 A 
HETATM    4  C4  UNL     1     -25.431  18.609  12.298  1.00 20.00     0.015 C 
HETATM    5  C5  UNL     1     -24.413  16.335  11.890  1.00 20.00     0.015 C 
ENDROOT
BRANCH   2   6
HETATM    6  C6  UNL     1     -22.593  17.683   9.802  1.00 20.00     0.120 C 
HETATM    7 CL7  UNL     1     -22.840  18.408   8.190  1.00 20.00    -0.130 Cl
ENDBRANCH   2   6
TORSDOF 1
ENDMDL
MODEL 8
REMARK VINA RESULT:      -3.2      2.416      3.650
REMARK  1 active torsions:
REMARK  status: ('A' for Active; 'I' for Inactive)
REMARK    1  A    between atoms: C2_2  and  C6_6 
ROOT
HETATM    1  C1  UNL     1     -32.605   6.812   3.742  1.00 20.00     0.015 A 
HETATM    2  C2  UNL     1     -33.852   7.325   4.411  1.00 20.00     0.008 A 
HETATM    3  C3  UNL     1     -32.786   8.302   3.940  1.00 20.00    -0.043 A 
HETATM    4  C4  UNL     1     -33.108   9.139   2.730  1.00 20.00     0.015 C 
HETATM    5  C5  UNL     1     -31.901   8.994   4.943  1.00 20.00     0.015 C 
ENDROOT
BRANCH   2   6
HETATM    6  C6  UNL     1     -34.105   7.043   5.853  1.00 20.00     0.120 C 
HETATM    7 CL7  UNL     1     -34.737   5.390   6.086  1.00 20.00    -0.130 Cl
ENDBRANCH   2   6
TORSDOF 1
ENDMDL
MODEL 9
REMARK VINA RESULT:      -3.2     12.609     13.337
REMARK  1 active torsions:
REMARK  status: ('A' for Active; 'I' for Inactive)
REMARK    1  A    between atoms: C2_2  and  C6_6 
ROOT
HETATM    1  C1  UNL     1     -33.827  17.984   0.275  1.00 20.00     0.015 A 
HETATM    2  C2  UNL     1     -32.841  18.869  -0.440  1.00 20.00     0.008 A 
HETATM    3  C3  UNL     1     -33.856  18.065  -1.237  1.00 20.00    -0.043 A 
HETATM    4  C4  UNL     1     -34.985  18.827  -1.880  1.00 20.00     0.015 C 
HETATM    5  C5  UNL     1     -33.414  16.855  -2.018  1.00 20.00     0.015 C 
ENDROOT
BRANCH   2   6
HETATM    6  C6  UNL     1     -31.387  18.543  -0.426  1.00 20.00     0.120 C 
HETATM    7 CL7  UNL     1     -30.807  18.246   1.236  1.00 20.00    -0.130 Cl
ENDBRANCH   2   6
TORSDOF 1
ENDMDL
