MODEL 1
REMARK VINA RESULT:      -3.8      0.000      0.000
REMARK  2 active torsions:
REMARK  status: ('A' for Active; 'I' for Inactive)
REMARK    1  A    between atoms: C1_1  and  C5_5 
REMARK    2  A    between atoms: C1_1  and  C6_6 
ROOT
HETATM    1  C2  UNL     1     -34.992   6.294   4.154  1.00 20.00     0.023 C 
HETATM    2  C3  UNL     1     -34.475   4.976   4.710  1.00 20.00     0.075 C 
HETATM    3  C4  UNL     1     -34.202   7.105   6.333  1.00 20.00     0.086 C 
HETATM    4  C5  UNL     1     -34.238   7.425   4.844  1.00 20.00     0.066 C 
HETATM    5  S8  UNL     1     -34.132   5.294   6.460  1.00 20.00    -0.168 SA
ENDROOT
BRANCH   4   6
HETATM    6  C1  UNL     1     -32.852   7.599   4.291  1.00 20.00     0.145 C 
HETATM    7  O7  UNL     1     -32.043   8.340   4.848  1.00 20.00    -0.296 OA
BRANCH   6   8
HETATM    8  C6  UNL     1     -32.544   6.817   3.035  1.00 20.00     0.193 C 
HETATM    9 CL9  UNL     1     -32.149   7.908   1.699  1.00 20.00    -0.123 Cl
ENDBRANCH   6   8
ENDBRANCH   4   6
TORSDOF 2
ENDMDL
MODEL 2
REMARK VINA RESULT:      -3.7      1.645      1.792
REMARK  2 active torsions:
REMARK  status: ('A' for Active; 'I' for Inactive)
REMARK    1  A    between atoms: C1_1  and  C5_5 
REMARK    2  A    between atoms: C1_1  and  C6_6 
ROOT
HETATM    1  C2  UNL     1     -35.087   5.439   4.728  1.00 20.00     0.023 C 
HETATM    2  C3  UNL     1     -34.314   5.248   6.024  1.00 20.00     0.075 C 
HETATM    3  C4  UNL     1     -34.199   7.716   4.957  1.00 20.00     0.086 C 
HETATM    4  C5  UNL     1     -34.447   6.591   3.961  1.00 20.00     0.066 C 
HETATM    5  S8  UNL     1     -33.835   6.916   6.547  1.00 20.00    -0.168 SA
ENDROOT
BRANCH   4   6
HETATM    6  C1  UNL     1     -33.174   6.176   3.280  1.00 20.00     0.145 C 
HETATM    7  O7  UNL     1     -33.036   5.031   2.853  1.00 20.00    -0.296 OA
BRANCH   6   8
HETATM    8  C6  UNL     1     -32.112   7.245   3.169  1.00 20.00     0.193 C 
HETATM    9 CL9  UNL     1     -32.137   7.990   1.564  1.00 20.00    -0.123 Cl
ENDBRANCH   6   8
ENDBRANCH   4   6
TORSDOF 2
ENDMDL
MODEL 3
REMARK VINA RESULT:      -3.7     12.512     13.227
REMARK  2 active torsions:
REMARK  status: ('A' for Active; 'I' for Inactive)
REMARK    1  A    between atoms: C1_1  and  C5_5 
REMARK    2  A    between atoms: C1_1  and  C6_6 
ROOT
HETATM    1  C2  UNL     1     -35.927  14.719  -6.167  1.00 20.00     0.023 C 
HETATM    2  C3  UNL     1     -36.864  15.657  -5.423  1.00 20.00     0.075 C 
HETATM    3  C4  UNL     1     -34.459  16.684  -6.061  1.00 20.00     0.086 C 
HETATM    4  C5  UNL     1     -34.495  15.170  -5.899  1.00 20.00     0.066 C 
HETATM    5  S8  UNL     1     -36.085  17.291  -5.521  1.00 20.00    -0.168 SA
ENDROOT
BRANCH   4   6
HETATM    6  C1  UNL     1     -34.020  14.756  -4.536  1.00 20.00     0.145 C 
HETATM    7  O7  UNL     1     -34.483  13.759  -3.986  1.00 20.00    -0.296 OA
BRANCH   6   8
HETATM    8  C6  UNL     1     -32.962  15.639  -3.915  1.00 20.00     0.193 C 
HETATM    9 CL9  UNL     1     -33.570  16.401  -2.438  1.00 20.00    -0.123 Cl
ENDBRANCH   6   8
ENDBRANCH   4   6
TORSDOF 2
ENDMDL
MODEL 4
REMARK VINA RESULT:      -3.5      9.116      9.618
REMARK  2 active torsions:
REMARK  status: ('A' for Active; 'I' for Inactive)
REMARK    1  A    between atoms: C1_1  and  C5_5 
REMARK    2  A    between atoms: C1_1  and  C6_6 
ROOT
HETATM    1  C2  UNL     1     -41.766  13.465   5.608  1.00 20.00     0.023 C 
HETATM    2  C3  UNL     1     -42.685  12.985   6.722  1.00 20.00     0.075 C 
HETATM    3  C4  UNL     1     -40.530  14.387   7.519  1.00 20.00     0.086 C 
HETATM    4  C5  UNL     1     -40.372  13.652   6.195  1.00 20.00     0.066 C 
HETATM    5  S8  UNL     1     -42.117  13.841   8.215  1.00 20.00    -0.168 SA
ENDROOT
BRANCH   4   6
HETATM    6  C1  UNL     1     -39.658  12.342   6.381  1.00 20.00     0.145 C 
HETATM    7  O7  UNL     1     -38.974  12.138   7.382  1.00 20.00    -0.296 OA
BRANCH   6   8
HETATM    8  C6  UNL     1     -39.842  11.332   5.272  1.00 20.00     0.193 C 
HETATM    9 CL9  UNL     1     -38.835  11.744   3.876  1.00 20.00    -0.123 Cl
ENDBRANCH   6   8
ENDBRANCH   4   6
TORSDOF 2
ENDMDL
MODEL 5
REMARK VINA RESULT:      -3.4      9.878     10.481
REMARK  2 active torsions:
REMARK  status: ('A' for Active; 'I' for Inactive)
REMARK    1  A    between atoms: C1_1  and  C5_5 
REMARK    2  A    between atoms: C1_1  and  C6_6 
ROOT
HETATM    1  C2  UNL     1     -40.566  13.977   7.755  1.00 20.00     0.023 C 
HETATM    2  C3  UNL     1     -40.426  15.435   7.346  1.00 20.00     0.075 C 
HETATM    3  C4  UNL     1     -42.647  14.193   6.471  1.00 20.00     0.086 C 
HETATM    4  C5  UNL     1     -41.454  13.282   6.730  1.00 20.00     0.066 C 
HETATM    5  S8  UNL     1     -42.033  15.895   6.647  1.00 20.00    -0.168 SA
ENDROOT
BRANCH   4   6
HETATM    6  C1  UNL     1     -40.715  12.978   5.458  1.00 20.00     0.145 C 
HETATM    7  O7  UNL     1     -41.106  13.430   4.383  1.00 20.00    -0.296 OA
BRANCH   6   8
HETATM    8  C6  UNL     1     -39.495  12.098   5.602  1.00 20.00     0.193 C 
HETATM    9 CL9  UNL     1     -38.830  11.684   4.015  1.00 20.00    -0.123 Cl
ENDBRANCH   6   8
ENDBRANCH   4   6
TORSDOF 2
ENDMDL
MODEL 6
REMARK VINA RESULT:      -3.4     12.613     13.137
REMARK  2 active torsions:
REMARK  status: ('A' for Active; 'I' for Inactive)
REMARK    1  A    between atoms: C1_1  and  C5_5 
REMARK    2  A    between atoms: C1_1  and  C6_6 
ROOT
HETATM    1  C2  UNL     1     -34.752  18.495  -1.469  1.00 20.00     0.023 C 
HETATM    2  C3  UNL     1     -34.394  19.232  -2.750  1.00 20.00     0.075 C 
HETATM    3  C4  UNL     1     -33.153  16.873  -2.383  1.00 20.00     0.086 C 
HETATM    4  C5  UNL     1     -33.587  17.582  -1.107  1.00 20.00     0.066 C 
HETATM    5  S8  UNL     1     -33.451  18.043  -3.740  1.00 20.00    -0.168 SA
ENDROOT
BRANCH   4   6
HETATM    6  C1  UNL     1     -32.445  18.341  -0.491  1.00 20.00     0.145 C 
HETATM    7  O7  UNL     1     -31.427  18.577  -1.140  1.00 20.00    -0.296 OA
BRANCH   6   8
HETATM    8  C6  UNL     1     -32.644  18.774   0.943  1.00 20.00     0.193 C 
HETATM    9 CL9  UNL     1     -31.268  18.283   1.941  1.00 20.00    -0.123 Cl
ENDBRANCH   6   8
ENDBRANCH   4   6
TORSDOF 2
ENDMDL
MODEL 7
REMARK VINA RESULT:      -3.3     12.415     13.065
REMARK  2 active torsions:
REMARK  status: ('A' for Active; 'I' for Inactive)
REMARK    1  A    between atoms: C1_1  and  C5_5 
REMARK    2  A    between atoms: C1_1  and  C6_6 
ROOT
HETATM    1  C2  UNL     1     -34.715  14.036  -4.416  1.00 20.00     0.023 C 
HETATM    2  C3  UNL     1     -36.067  14.392  -5.016  1.00 20.00     0.075 C 
HETATM    3  C4  UNL     1     -33.922  15.242  -6.402  1.00 20.00     0.086 C 
HETATM    4  C5  UNL     1     -33.697  15.059  -4.907  1.00 20.00     0.066 C 
HETATM    5  S8  UNL     1     -35.704  15.019  -6.677  1.00 20.00    -0.168 SA
ENDROOT
BRANCH   4   6
HETATM    6  C1  UNL     1     -33.812  16.366  -4.175  1.00 20.00     0.145 C 
HETATM    7  O7  UNL     1     -34.078  17.402  -4.781  1.00 20.00    -0.296 OA
BRANCH   6   8
HETATM    8  C6  UNL     1     -33.578  16.304  -2.683  1.00 20.00     0.193 C 
HETATM    9 CL9  UNL     1     -32.859  17.812  -2.099  1.00 20.00    -0.123 Cl
ENDBRANCH   6   8
ENDBRANCH   4   6
TORSDOF 2
ENDMDL
MODEL 8
REMARK VINA RESULT:      -3.3      2.459      2.911
REMARK  2 active torsions:
REMARK  status: ('A' for Active; 'I' for Inactive)
REMARK    1  A    between atoms: C1_1  and  C5_5 
REMARK    2  A    between atoms: C1_1  and  C6_6 
ROOT
HETATM    1  C2  UNL     1     -34.762   6.053   6.189  1.00 20.00     0.023 C 
HETATM    2  C3  UNL     1     -33.458   6.717   6.603  1.00 20.00     0.075 C 
HETATM    3  C4  UNL     1     -34.441   7.481   4.217  1.00 20.00     0.086 C 
HETATM    4  C5  UNL     1     -34.844   6.082   4.667  1.00 20.00     0.066 C 
HETATM    5  S8  UNL     1     -33.205   8.062   5.416  1.00 20.00    -0.168 SA
ENDROOT
BRANCH   4   6
HETATM    6  C1  UNL     1     -33.971   5.035   4.035  1.00 20.00     0.145 C 
HETATM    7  O7  UNL     1     -34.010   3.869   4.425  1.00 20.00    -0.296 OA
BRANCH   6   8
HETATM    8  C6  UNL     1     -33.072   5.516   2.921  1.00 20.00     0.193 C 
HETATM    9 CL9  UNL     1     -32.781   4.223   1.748  1.00 20.00    -0.123 Cl
ENDBRANCH   6   8
ENDBRANCH   4   6
TORSDOF 2
ENDMDL
MODEL 9
REMARK VINA RESULT:      -3.3     12.464     13.165
REMARK  2 active torsions:
REMARK  status: ('A' for Active; 'I' for Inactive)
REMARK    1  A    between atoms: C1_1  and  C5_5 
REMARK    2  A    between atoms: C1_1  and  C6_6 
ROOT
HETATM    1  C2  UNL     1     -33.022  15.845  -3.735  1.00 20.00     0.023 C 
HETATM    2  C3  UNL     1     -34.220  14.961  -4.045  1.00 20.00     0.075 C 
HETATM    3  C4  UNL     1     -34.306  17.438  -5.093  1.00 20.00     0.086 C 
HETATM    4  C5  UNL     1     -33.473  17.299  -3.825  1.00 20.00     0.066 C 
HETATM    5  S8  UNL     1     -35.156  15.848  -5.318  1.00 20.00    -0.168 SA
ENDROOT
BRANCH   4   6
HETATM    6  C1  UNL     1     -34.251  17.724  -2.613  1.00 20.00     0.145 C 
HETATM    7  O7  UNL     1     -35.312  18.336  -2.732  1.00 20.00    -0.296 OA
BRANCH   6   8
HETATM    8  C6  UNL     1     -33.643  17.355  -1.280  1.00 20.00     0.193 C 
HETATM    9 CL9  UNL     1     -32.106  18.197  -1.038  1.00 20.00    -0.123 Cl
ENDBRANCH   6   8
ENDBRANCH   4   6
TORSDOF 2
ENDMDL
