MODEL 1
REMARK VINA RESULT:      -3.7      0.000      0.000
REMARK  4 active torsions:
REMARK  status: ('A' for Active; 'I' for Inactive)
REMARK    1  A    between atoms: C1_1  and  C5_5 
REMARK    2  A    between atoms: C2_2  and  C6_6 
REMARK    3  A    between atoms: C5_5  and  N8_8 
REMARK    4  A    between atoms: C7_7  and  N8_8 
ROOT
HETATM    1  C5  UNL     1     -32.679   8.626   4.396  1.00 20.00     0.299 C 
ENDROOT
BRANCH   1   2
HETATM    2  C1  UNL     1     -33.459   7.411   4.778  1.00 20.00     0.000 C 
HETATM    3  C2  UNL     1     -33.797   7.111   6.041  1.00 20.00    -0.014 C 
BRANCH   3   4
HETATM    4  C6  UNL     1     -34.595   5.906   6.420  1.00 20.00     0.141 C 
HETATM    5 CL9  UNL     1     -34.750   4.819   5.025  1.00 20.00    -0.126 Cl
ENDBRANCH   3   4
ENDBRANCH   1   2
BRANCH   1   6
HETATM    6  N8  UNL     1     -32.167   8.453   3.066  1.00 20.00     0.087 N 
HETATM    7  C4  UNL     1     -32.237   7.045   2.642  1.00 20.00     0.310 C 
BRANCH   6   8
HETATM    8  C7  UNL     1     -32.892   9.291   2.097  1.00 20.00     0.268 C 
HETATM    9  C3  UNL     1     -32.506   8.953   0.698  1.00 20.00     0.037 C 
ENDBRANCH   6   8
ENDBRANCH   1   6
TORSDOF 4
ENDMDL
MODEL 2
REMARK VINA RESULT:      -3.7      2.688      4.783
REMARK  4 active torsions:
REMARK  status: ('A' for Active; 'I' for Inactive)
REMARK    1  A    between atoms: C1_1  and  C5_5 
REMARK    2  A    between atoms: C2_2  and  C6_6 
REMARK    3  A    between atoms: C5_5  and  N8_8 
REMARK    4  A    between atoms: C7_7  and  N8_8 
ROOT
HETATM    1  C5  UNL     1     -32.782   7.833   4.814  1.00 20.00     0.299 C 
ENDROOT
BRANCH   1   2
HETATM    2  C1  UNL     1     -32.316   7.620   3.410  1.00 20.00     0.000 C 
HETATM    3  C2  UNL     1     -32.450   8.532   2.436  1.00 20.00    -0.014 C 
BRANCH   3   4
HETATM    4  C6  UNL     1     -31.966   8.327   1.038  1.00 20.00     0.141 C 
HETATM    5 CL9  UNL     1     -32.972   9.257  -0.092  1.00 20.00    -0.126 Cl
ENDBRANCH   3   4
ENDBRANCH   1   2
BRANCH   1   6
HETATM    6  N8  UNL     1     -34.022   7.136   5.005  1.00 20.00     0.087 N 
HETATM    7  C4  UNL     1     -34.100   5.933   4.158  1.00 20.00     0.310 C 
BRANCH   6   8
HETATM    8  C7  UNL     1     -34.213   6.754   6.414  1.00 20.00     0.268 C 
HETATM    9  C3  UNL     1     -34.508   5.298   6.542  1.00 20.00     0.037 C 
ENDBRANCH   6   8
ENDBRANCH   1   6
TORSDOF 4
ENDMDL
MODEL 3
REMARK VINA RESULT:      -3.4     11.319     11.881
REMARK  4 active torsions:
REMARK  status: ('A' for Active; 'I' for Inactive)
REMARK    1  A    between atoms: C1_1  and  C5_5 
REMARK    2  A    between atoms: C2_2  and  C6_6 
REMARK    3  A    between atoms: C5_5  and  N8_8 
REMARK    4  A    between atoms: C7_7  and  N8_8 
ROOT
HETATM    1  C5  UNL     1     -33.725  14.737  -4.475  1.00 20.00     0.299 C 
ENDROOT
BRANCH   1   2
HETATM    2  C1  UNL     1     -33.036  15.793  -3.674  1.00 20.00     0.000 C 
HETATM    3  C2  UNL     1     -33.625  16.477  -2.683  1.00 20.00    -0.014 C 
BRANCH   3   4
HETATM    4  C6  UNL     1     -32.930  17.519  -1.869  1.00 20.00     0.141 C 
HETATM    5 CL9  UNL     1     -33.787  17.758  -0.332  1.00 20.00    -0.126 Cl
ENDBRANCH   3   4
ENDBRANCH   1   2
BRANCH   1   6
HETATM    6  N8  UNL     1     -34.560  15.367  -5.458  1.00 20.00     0.087 N 
HETATM    7  C4  UNL     1     -33.974  15.266  -6.805  1.00 20.00     0.310 C 
BRANCH   6   8
HETATM    8  C7  UNL     1     -35.912  14.784  -5.469  1.00 20.00     0.268 C 
HETATM    9  C3  UNL     1     -35.990  13.587  -4.584  1.00 20.00     0.037 C 
ENDBRANCH   6   8
ENDBRANCH   1   6
TORSDOF 4
ENDMDL
MODEL 4
REMARK VINA RESULT:      -3.4      2.755      4.671
REMARK  4 active torsions:
REMARK  status: ('A' for Active; 'I' for Inactive)
REMARK    1  A    between atoms: C1_1  and  C5_5 
REMARK    2  A    between atoms: C2_2  and  C6_6 
REMARK    3  A    between atoms: C5_5  and  N8_8 
REMARK    4  A    between atoms: C7_7  and  N8_8 
ROOT
HETATM    1  C5  UNL     1     -32.769   8.056   4.945  1.00 20.00     0.299 C 
ENDROOT
BRANCH   1   2
HETATM    2  C1  UNL     1     -32.318   7.805   3.543  1.00 20.00     0.000 C 
HETATM    3  C2  UNL     1     -32.530   8.658   2.531  1.00 20.00    -0.014 C 
BRANCH   3   4
HETATM    4  C6  UNL     1     -32.062   8.417   1.133  1.00 20.00     0.141 C 
HETATM    5 CL9  UNL     1     -32.998   9.414   0.000  1.00 20.00    -0.126 Cl
ENDBRANCH   3   4
ENDBRANCH   1   2
BRANCH   1   6
HETATM    6  N8  UNL     1     -33.358   6.856   5.468  1.00 20.00     0.087 N 
HETATM    7  C4  UNL     1     -34.257   7.147   6.598  1.00 20.00     0.310 C 
BRANCH   6   8
HETATM    8  C7  UNL     1     -34.100   6.123   4.430  1.00 20.00     0.268 C 
HETATM    9  C3  UNL     1     -34.781   4.925   4.998  1.00 20.00     0.037 C 
ENDBRANCH   6   8
ENDBRANCH   1   6
TORSDOF 4
ENDMDL
MODEL 5
REMARK VINA RESULT:      -3.4      0.997      1.966
REMARK  4 active torsions:
REMARK  status: ('A' for Active; 'I' for Inactive)
REMARK    1  A    between atoms: C1_1  and  C5_5 
REMARK    2  A    between atoms: C2_2  and  C6_6 
REMARK    3  A    between atoms: C5_5  and  N8_8 
REMARK    4  A    between atoms: C7_7  and  N8_8 
ROOT
HETATM    1  C5  UNL     1     -32.438   8.760   3.619  1.00 20.00     0.299 C 
ENDROOT
BRANCH   1   2
HETATM    2  C1  UNL     1     -32.712   8.031   4.894  1.00 20.00     0.000 C 
HETATM    3  C2  UNL     1     -33.943   7.701   5.311  1.00 20.00    -0.014 C 
BRANCH   3   4
HETATM    4  C6  UNL     1     -34.215   6.955   6.576  1.00 20.00     0.141 C 
HETATM    5 CL9  UNL     1     -34.626   5.267   6.207  1.00 20.00    -0.126 Cl
ENDBRANCH   3   4
ENDBRANCH   1   2
BRANCH   1   6
HETATM    6  N8  UNL     1     -32.671   7.872   2.515  1.00 20.00     0.087 N 
HETATM    7  C4  UNL     1     -32.191   8.452   1.248  1.00 20.00     0.310 C 
BRANCH   6   8
HETATM    8  C7  UNL     1     -32.026   6.566   2.728  1.00 20.00     0.268 C 
HETATM    9  C3  UNL     1     -32.999   5.450   2.558  1.00 20.00     0.037 C 
ENDBRANCH   6   8
ENDBRANCH   1   6
TORSDOF 4
ENDMDL
MODEL 6
REMARK VINA RESULT:      -3.4     11.374     11.876
REMARK  4 active torsions:
REMARK  status: ('A' for Active; 'I' for Inactive)
REMARK    1  A    between atoms: C1_1  and  C5_5 
REMARK    2  A    between atoms: C2_2  and  C6_6 
REMARK    3  A    between atoms: C5_5  and  N8_8 
REMARK    4  A    between atoms: C7_7  and  N8_8 
ROOT
HETATM    1  C5  UNL     1     -33.614  17.947  -0.508  1.00 20.00     0.299 C 
ENDROOT
BRANCH   1   2
HETATM    2  C1  UNL     1     -33.091  17.496  -1.832  1.00 20.00     0.000 C 
HETATM    3  C2  UNL     1     -33.667  16.536  -2.571  1.00 20.00    -0.014 C 
BRANCH   3   4
HETATM    4  C6  UNL     1     -33.155  16.098  -3.904  1.00 20.00     0.141 C 
HETATM    5 CL9  UNL     1     -33.560  14.391  -4.177  1.00 20.00    -0.126 Cl
ENDBRANCH   3   4
ENDBRANCH   1   2
BRANCH   1   6
HETATM    6  N8  UNL     1     -32.730  18.942   0.030  1.00 20.00     0.087 N 
HETATM    7  C4  UNL     1     -33.068  19.262   1.427  1.00 20.00     0.310 C 
BRANCH   6   8
HETATM    8  C7  UNL     1     -31.325  18.510  -0.046  1.00 20.00     0.268 C 
HETATM    9  C3  UNL     1     -30.678  18.544   1.296  1.00 20.00     0.037 C 
ENDBRANCH   6   8
ENDBRANCH   1   6
TORSDOF 4
ENDMDL
MODEL 7
REMARK VINA RESULT:      -3.4      2.673      4.369
REMARK  4 active torsions:
REMARK  status: ('A' for Active; 'I' for Inactive)
REMARK    1  A    between atoms: C1_1  and  C5_5 
REMARK    2  A    between atoms: C2_2  and  C6_6 
REMARK    3  A    between atoms: C5_5  and  N8_8 
REMARK    4  A    between atoms: C7_7  and  N8_8 
ROOT
HETATM    1  C5  UNL     1     -34.064   6.994   6.244  1.00 20.00     0.299 C 
ENDROOT
BRANCH   1   2
HETATM    2  C1  UNL     1     -33.793   7.860   5.057  1.00 20.00     0.000 C 
HETATM    3  C2  UNL     1     -32.577   8.014   4.511  1.00 20.00    -0.014 C 
BRANCH   3   4
HETATM    4  C6  UNL     1     -32.310   8.864   3.312  1.00 20.00     0.141 C 
HETATM    5 CL9  UNL     1     -32.155   7.842   1.869  1.00 20.00    -0.126 Cl
ENDBRANCH   3   4
ENDBRANCH   1   2
BRANCH   1   6
HETATM    6  N8  UNL     1     -34.871   5.880   5.835  1.00 20.00     0.087 N 
HETATM    7  C4  UNL     1     -35.567   6.158   4.567  1.00 20.00     0.310 C 
BRANCH   6   8
HETATM    8  C7  UNL     1     -34.065   4.656   5.691  1.00 20.00     0.268 C 
HETATM    9  C3  UNL     1     -33.896   4.289   4.256  1.00 20.00     0.037 C 
ENDBRANCH   6   8
ENDBRANCH   1   6
TORSDOF 4
ENDMDL
MODEL 8
REMARK VINA RESULT:      -3.3     11.395     12.198
REMARK  4 active torsions:
REMARK  status: ('A' for Active; 'I' for Inactive)
REMARK    1  A    between atoms: C1_1  and  C5_5 
REMARK    2  A    between atoms: C2_2  and  C6_6 
REMARK    3  A    between atoms: C5_5  and  N8_8 
REMARK    4  A    between atoms: C7_7  and  N8_8 
ROOT
HETATM    1  C5  UNL     1     -33.720  14.719  -4.467  1.00 20.00     0.299 C 
ENDROOT
BRANCH   1   2
HETATM    2  C1  UNL     1     -33.675  16.109  -3.920  1.00 20.00     0.000 C 
HETATM    3  C2  UNL     1     -33.348  16.397  -2.652  1.00 20.00    -0.014 C 
BRANCH   3   4
HETATM    4  C6  UNL     1     -33.283  17.788  -2.110  1.00 20.00     0.141 C 
HETATM    5 CL9  UNL     1     -33.783  17.797  -0.406  1.00 20.00    -0.126 Cl
ENDBRANCH   3   4
ENDBRANCH   1   2
BRANCH   1   6
HETATM    6  N8  UNL     1     -34.507  14.716  -5.668  1.00 20.00     0.087 N 
HETATM    7  C4  UNL     1     -35.924  14.436  -5.381  1.00 20.00     0.310 C 
BRANCH   6   8
HETATM    8  C7  UNL     1     -34.398  15.996  -6.387  1.00 20.00     0.268 C 
HETATM    9  C3  UNL     1     -34.054  15.782  -7.821  1.00 20.00     0.037 C 
ENDBRANCH   6   8
ENDBRANCH   1   6
TORSDOF 4
ENDMDL
MODEL 9
REMARK VINA RESULT:      -3.3     11.430     12.201
REMARK  4 active torsions:
REMARK  status: ('A' for Active; 'I' for Inactive)
REMARK    1  A    between atoms: C1_1  and  C5_5 
REMARK    2  A    between atoms: C2_2  and  C6_6 
REMARK    3  A    between atoms: C5_5  and  N8_8 
REMARK    4  A    between atoms: C7_7  and  N8_8 
ROOT
HETATM    1  C5  UNL     1     -33.342  17.011  -1.975  1.00 20.00     0.299 C 
ENDROOT
BRANCH   1   2
HETATM    2  C1  UNL     1     -33.535  16.603  -3.399  1.00 20.00     0.000 C 
HETATM    3  C2  UNL     1     -33.616  15.326  -3.801  1.00 20.00    -0.014 C 
BRANCH   3   4
HETATM    4  C6  UNL     1     -33.829  14.917  -5.222  1.00 20.00     0.141 C 
HETATM    5 CL9  UNL     1     -35.548  14.569  -5.500  1.00 20.00    -0.126 Cl
ENDBRANCH   3   4
ENDBRANCH   1   2
BRANCH   1   6
HETATM    6  N8  UNL     1     -32.478  18.157  -1.931  1.00 20.00     0.087 N 
HETATM    7  C4  UNL     1     -32.888  19.177  -2.912  1.00 20.00     0.310 C 
BRANCH   6   8
HETATM    8  C7  UNL     1     -32.448  18.758  -0.587  1.00 20.00     0.268 C 
HETATM    9  C3  UNL     1     -31.129  18.539   0.071  1.00 20.00     0.037 C 
ENDBRANCH   6   8
ENDBRANCH   1   6
TORSDOF 4
ENDMDL
