MODEL 1
REMARK VINA RESULT:      -4.7      0.000      0.000
REMARK  3 active torsions:
REMARK  status: ('A' for Active; 'I' for Inactive)
REMARK    1  A    between atoms: C3_3  and  C5_5 
REMARK    2  A    between atoms: C5_5  and  C7_7 
REMARK    3  A    between atoms: C6_6  and  C7_7 
ROOT
HETATM    1  C5  UNL     1     -34.641   6.394   3.957  1.00 20.00     0.010 C 
ENDROOT
BRANCH   1   2
HETATM    2  C3  UNL     1     -35.079   5.896   5.303  1.00 20.00    -0.014 A 
HETATM    3  C1  UNL     1     -34.190   4.983   6.100  1.00 20.00     0.005 A 
HETATM    4  C2  UNL     1     -34.409   6.400   6.551  1.00 20.00     0.005 A 
ENDBRANCH   1   2
BRANCH   1   5
HETATM    5  C7  UNL     1     -33.137   6.185   3.695  1.00 20.00    -0.004 C 
HETATM    6  C4  UNL     1     -32.889   5.131   2.609  1.00 20.00     0.011 C 
BRANCH   5   7
HETATM    7  C6  UNL     1     -32.426   7.508   3.366  1.00 20.00     0.119 C 
HETATM    8 CL8  UNL     1     -32.290   8.611   4.758  1.00 20.00    -0.130 Cl
ENDBRANCH   5   7
ENDBRANCH   1   5
TORSDOF 3
ENDMDL
MODEL 2
REMARK VINA RESULT:      -4.7      1.751      2.481
REMARK  3 active torsions:
REMARK  status: ('A' for Active; 'I' for Inactive)
REMARK    1  A    between atoms: C3_3  and  C5_5 
REMARK    2  A    between atoms: C5_5  and  C7_7 
REMARK    3  A    between atoms: C6_6  and  C7_7 
ROOT
HETATM    1  C5  UNL     1     -33.055   7.253   5.470  1.00 20.00     0.010 C 
ENDROOT
BRANCH   1   2
HETATM    2  C3  UNL     1     -34.415   6.757   5.866  1.00 20.00    -0.014 A 
HETATM    3  C1  UNL     1     -35.163   5.804   4.976  1.00 20.00     0.005 A 
HETATM    4  C2  UNL     1     -34.605   5.326   6.288  1.00 20.00     0.005 A 
ENDBRANCH   1   2
BRANCH   1   5
HETATM    5  C7  UNL     1     -33.031   7.895   4.069  1.00 20.00    -0.004 C 
HETATM    6  C4  UNL     1     -32.574   9.358   4.119  1.00 20.00     0.011 C 
BRANCH   5   7
HETATM    7  C6  UNL     1     -32.184   7.075   3.082  1.00 20.00     0.119 C 
HETATM    8 CL8  UNL     1     -32.890   5.491   2.677  1.00 20.00    -0.130 Cl
ENDBRANCH   5   7
ENDBRANCH   1   5
TORSDOF 3
ENDMDL
MODEL 3
REMARK VINA RESULT:      -4.6      2.027      3.366
REMARK  3 active torsions:
REMARK  status: ('A' for Active; 'I' for Inactive)
REMARK    1  A    between atoms: C3_3  and  C5_5 
REMARK    2  A    between atoms: C5_5  and  C7_7 
REMARK    3  A    between atoms: C6_6  and  C7_7 
ROOT
HETATM    1  C5  UNL     1     -33.847   6.748   5.807  1.00 20.00     0.010 C 
ENDROOT
BRANCH   1   2
HETATM    2  C3  UNL     1     -33.637   7.892   4.859  1.00 20.00    -0.014 A 
HETATM    3  C1  UNL     1     -32.541   8.891   5.107  1.00 20.00     0.005 A 
HETATM    4  C2  UNL     1     -32.431   7.922   3.963  1.00 20.00     0.005 A 
ENDBRANCH   1   2
BRANCH   1   5
HETATM    5  C7  UNL     1     -34.735   5.633   5.221  1.00 20.00    -0.004 C 
HETATM    6  C4  UNL     1     -35.760   6.185   4.223  1.00 20.00     0.011 C 
BRANCH   5   7
HETATM    7  C6  UNL     1     -33.897   4.505   4.599  1.00 20.00     0.119 C 
HETATM    8 CL8  UNL     1     -33.331   4.861   2.949  1.00 20.00    -0.130 Cl
ENDBRANCH   5   7
ENDBRANCH   1   5
TORSDOF 3
ENDMDL
MODEL 4
REMARK VINA RESULT:      -4.6      1.649      2.384
REMARK  3 active torsions:
REMARK  status: ('A' for Active; 'I' for Inactive)
REMARK    1  A    between atoms: C3_3  and  C5_5 
REMARK    2  A    between atoms: C5_5  and  C7_7 
REMARK    3  A    between atoms: C6_6  and  C7_7 
ROOT
HETATM    1  C5  UNL     1     -33.363   7.208   5.562  1.00 20.00     0.010 C 
ENDROOT
BRANCH   1   2
HETATM    2  C3  UNL     1     -34.613   6.401   5.364  1.00 20.00    -0.014 A 
HETATM    3  C1  UNL     1     -34.544   5.035   4.740  1.00 20.00     0.005 A 
HETATM    4  C2  UNL     1     -34.867   5.179   6.201  1.00 20.00     0.005 A 
ENDBRANCH   1   2
BRANCH   1   5
HETATM    5  C7  UNL     1     -32.992   8.060   4.333  1.00 20.00    -0.004 C 
HETATM    6  C4  UNL     1     -32.178   9.299   4.722  1.00 20.00     0.011 C 
BRANCH   5   7
HETATM    7  C6  UNL     1     -32.271   7.228   3.259  1.00 20.00     0.119 C 
HETATM    8 CL8  UNL     1     -32.201   8.023   1.667  1.00 20.00    -0.130 Cl
ENDBRANCH   5   7
ENDBRANCH   1   5
TORSDOF 3
ENDMDL
MODEL 5
REMARK VINA RESULT:      -4.5      1.953      3.324
REMARK  3 active torsions:
REMARK  status: ('A' for Active; 'I' for Inactive)
REMARK    1  A    between atoms: C3_3  and  C5_5 
REMARK    2  A    between atoms: C5_5  and  C7_7 
REMARK    3  A    between atoms: C6_6  and  C7_7 
ROOT
HETATM    1  C5  UNL     1     -33.949   7.122   4.535  1.00 20.00     0.010 C 
ENDROOT
BRANCH   1   2
HETATM    2  C3  UNL     1     -32.624   7.727   4.176  1.00 20.00    -0.014 A 
HETATM    3  C1  UNL     1     -32.561   8.982   3.351  1.00 20.00     0.005 A 
HETATM    4  C2  UNL     1     -32.186   9.020   4.806  1.00 20.00     0.005 A 
ENDBRANCH   1   2
BRANCH   1   5
HETATM    5  C7  UNL     1     -34.185   5.749   3.876  1.00 20.00    -0.004 C 
HETATM    6  C4  UNL     1     -33.043   5.368   2.927  1.00 20.00     0.011 C 
BRANCH   5   7
HETATM    7  C6  UNL     1     -34.436   4.651   4.922  1.00 20.00     0.119 C 
HETATM    8 CL8  UNL     1     -34.411   5.244   6.601  1.00 20.00    -0.130 Cl
ENDBRANCH   5   7
ENDBRANCH   1   5
TORSDOF 3
ENDMDL
MODEL 6
REMARK VINA RESULT:      -4.4      1.946      3.512
REMARK  3 active torsions:
REMARK  status: ('A' for Active; 'I' for Inactive)
REMARK    1  A    between atoms: C3_3  and  C5_5 
REMARK    2  A    between atoms: C5_5  and  C7_7 
REMARK    3  A    between atoms: C6_6  and  C7_7 
ROOT
HETATM    1  C5  UNL     1     -34.180   7.596   5.071  1.00 20.00     0.010 C 
ENDROOT
BRANCH   1   2
HETATM    2  C3  UNL     1     -32.932   8.415   4.907  1.00 20.00    -0.014 A 
HETATM    3  C1  UNL     1     -31.825   7.938   4.010  1.00 20.00     0.005 A 
HETATM    4  C2  UNL     1     -32.657   9.124   3.610  1.00 20.00     0.005 A 
ENDBRANCH   1   2
BRANCH   1   5
HETATM    5  C7  UNL     1     -33.898   6.089   5.222  1.00 20.00    -0.004 C 
HETATM    6  C4  UNL     1     -34.516   5.518   6.503  1.00 20.00     0.011 C 
BRANCH   5   7
HETATM    7  C6  UNL     1     -34.346   5.299   3.981  1.00 20.00     0.119 C 
HETATM    8 CL8  UNL     1     -33.060   5.085   2.767  1.00 20.00    -0.130 Cl
ENDBRANCH   5   7
ENDBRANCH   1   5
TORSDOF 3
ENDMDL
MODEL 7
REMARK VINA RESULT:      -4.3      1.647      2.004
REMARK  3 active torsions:
REMARK  status: ('A' for Active; 'I' for Inactive)
REMARK    1  A    between atoms: C3_3  and  C5_5 
REMARK    2  A    between atoms: C5_5  and  C7_7 
REMARK    3  A    between atoms: C6_6  and  C7_7 
ROOT
HETATM    1  C5  UNL     1     -33.701   7.644   4.850  1.00 20.00     0.010 C 
ENDROOT
BRANCH   1   2
HETATM    2  C3  UNL     1     -33.964   6.169   4.941  1.00 20.00    -0.014 A 
HETATM    3  C1  UNL     1     -34.706   5.601   6.119  1.00 20.00     0.005 A 
HETATM    4  C2  UNL     1     -35.358   5.635   4.765  1.00 20.00     0.005 A 
ENDBRANCH   1   2
BRANCH   1   5
HETATM    5  C7  UNL     1     -32.513   7.991   3.933  1.00 20.00    -0.004 C 
HETATM    6  C4  UNL     1     -32.322   6.945   2.827  1.00 20.00     0.011 C 
BRANCH   5   7
HETATM    7  C6  UNL     1     -32.639   9.408   3.349  1.00 20.00     0.119 C 
HETATM    8 CL8  UNL     1     -32.819   9.438   1.578  1.00 20.00    -0.130 Cl
ENDBRANCH   5   7
ENDBRANCH   1   5
TORSDOF 3
ENDMDL
MODEL 8
REMARK VINA RESULT:      -4.1      0.871      3.074
REMARK  3 active torsions:
REMARK  status: ('A' for Active; 'I' for Inactive)
REMARK    1  A    between atoms: C3_3  and  C5_5 
REMARK    2  A    between atoms: C5_5  and  C7_7 
REMARK    3  A    between atoms: C6_6  and  C7_7 
ROOT
HETATM    1  C5  UNL     1     -34.583   6.032   4.159  1.00 20.00     0.010 C 
ENDROOT
BRANCH   1   2
HETATM    2  C3  UNL     1     -33.228   5.577   3.702  1.00 20.00    -0.014 A 
HETATM    3  C1  UNL     1     -33.036   5.045   2.309  1.00 20.00     0.005 A 
HETATM    4  C2  UNL     1     -32.460   6.381   2.689  1.00 20.00     0.005 A 
ENDBRANCH   1   2
BRANCH   1   5
HETATM    5  C7  UNL     1     -34.667   6.243   5.683  1.00 20.00    -0.004 C 
HETATM    6  C4  UNL     1     -34.531   4.922   6.450  1.00 20.00     0.011 C 
BRANCH   5   7
HETATM    7  C6  UNL     1     -33.646   7.284   6.171  1.00 20.00     0.119 C 
HETATM    8 CL8  UNL     1     -33.539   8.724   5.129  1.00 20.00    -0.130 Cl
ENDBRANCH   5   7
ENDBRANCH   1   5
TORSDOF 3
ENDMDL
MODEL 9
REMARK VINA RESULT:      -3.7      9.173     10.155
REMARK  3 active torsions:
REMARK  status: ('A' for Active; 'I' for Inactive)
REMARK    1  A    between atoms: C3_3  and  C5_5 
REMARK    2  A    between atoms: C5_5  and  C7_7 
REMARK    3  A    between atoms: C6_6  and  C7_7 
ROOT
HETATM    1  C5  UNL     1     -40.868  13.257   5.272  1.00 20.00     0.010 C 
ENDROOT
BRANCH   1   2
HETATM    2  C3  UNL     1     -40.038  12.010   5.366  1.00 20.00    -0.014 A 
HETATM    3  C1  UNL     1     -39.143  11.607   4.227  1.00 20.00     0.005 A 
HETATM    4  C2  UNL     1     -38.545  12.103   5.514  1.00 20.00     0.005 A 
ENDBRANCH   1   2
BRANCH   1   5
HETATM    5  C7  UNL     1     -41.690  13.533   6.545  1.00 20.00    -0.004 C 
HETATM    6  C4  UNL     1     -42.558  12.331   6.936  1.00 20.00     0.011 C 
BRANCH   5   7
HETATM    7  C6  UNL     1     -40.798  13.985   7.713  1.00 20.00     0.119 C 
HETATM    8 CL8  UNL     1     -40.306  15.694   7.617  1.00 20.00    -0.130 Cl
ENDBRANCH   5   7
ENDBRANCH   1   5
TORSDOF 3
ENDMDL
