MODEL 1
REMARK VINA RESULT:      -4.6      0.000      0.000
REMARK  4 active torsions:
REMARK  status: ('A' for Active; 'I' for Inactive)
REMARK    1  A    between atoms: C2_2  and  C5_5 
REMARK    2  A    between atoms: C5_5  and  C6_6 
REMARK    3  A    between atoms: C6_6  and  C8_8 
REMARK    4  A    between atoms: C7_7  and  C8_8 
ROOT
HETATM    1  C1  UNL     1     -32.646   8.999   2.114  1.00 20.00    -0.111 C 
HETATM    2  C2  UNL     1     -32.596   8.737   3.286  1.00 20.00    -0.107 C 
HETATM    3  C3  UNL     1     -32.708   9.315   0.688  1.00 20.00     0.112 C 
ENDROOT
BRANCH   2   4
HETATM    4  C5  UNL     1     -32.531   8.419   4.718  1.00 20.00     0.094 C 
BRANCH   4   5
HETATM    5  C6  UNL     1     -33.819   7.769   5.231  1.00 20.00     0.017 C 
BRANCH   5   6
HETATM    6  C8  UNL     1     -33.814   6.223   5.267  1.00 20.00    -0.004 C 
HETATM    7  C4  UNL     1     -34.597   5.735   6.493  1.00 20.00     0.011 C 
BRANCH   6   8
HETATM    8  C7  UNL     1     -34.320   5.555   3.979  1.00 20.00     0.119 C 
HETATM    9 CL9  UNL     1     -33.033   5.222   2.795  1.00 20.00    -0.130 Cl
ENDBRANCH   6   8
ENDBRANCH   5   6
ENDBRANCH   4   5
ENDBRANCH   2   4
TORSDOF 4
ENDMDL
MODEL 2
REMARK VINA RESULT:      -4.5      1.548      2.491
REMARK  4 active torsions:
REMARK  status: ('A' for Active; 'I' for Inactive)
REMARK    1  A    between atoms: C2_2  and  C5_5 
REMARK    2  A    between atoms: C5_5  and  C6_6 
REMARK    3  A    between atoms: C6_6  and  C8_8 
REMARK    4  A    between atoms: C7_7  and  C8_8 
ROOT
HETATM    1  C1  UNL     1     -32.887   8.294   4.952  1.00 20.00    -0.111 C 
HETATM    2  C2  UNL     1     -33.561   7.644   5.704  1.00 20.00    -0.107 C 
HETATM    3  C3  UNL     1     -32.066   9.085   4.036  1.00 20.00     0.112 C 
ENDROOT
BRANCH   2   4
HETATM    4  C5  UNL     1     -34.385   6.852   6.626  1.00 20.00     0.094 C 
BRANCH   4   5
HETATM    5  C6  UNL     1     -34.254   5.346   6.379  1.00 20.00     0.017 C 
BRANCH   5   6
HETATM    6  C8  UNL     1     -34.805   4.844   5.024  1.00 20.00    -0.004 C 
HETATM    7  C4  UNL     1     -35.616   5.960   4.354  1.00 20.00     0.011 C 
BRANCH   6   8
HETATM    8  C7  UNL     1     -33.737   4.281   4.074  1.00 20.00     0.119 C 
HETATM    9 CL9  UNL     1     -33.157   5.459   2.872  1.00 20.00    -0.130 Cl
ENDBRANCH   6   8
ENDBRANCH   5   6
ENDBRANCH   4   5
ENDBRANCH   2   4
TORSDOF 4
ENDMDL
MODEL 3
REMARK VINA RESULT:      -4.4      1.009      4.066
REMARK  4 active torsions:
REMARK  status: ('A' for Active; 'I' for Inactive)
REMARK    1  A    between atoms: C2_2  and  C5_5 
REMARK    2  A    between atoms: C5_5  and  C6_6 
REMARK    3  A    between atoms: C6_6  and  C8_8 
REMARK    4  A    between atoms: C7_7  and  C8_8 
ROOT
HETATM    1  C1  UNL     1     -34.223   6.350   6.029  1.00 20.00    -0.111 C 
HETATM    2  C2  UNL     1     -33.760   7.438   5.817  1.00 20.00    -0.107 C 
HETATM    3  C3  UNL     1     -34.786   5.026   6.288  1.00 20.00     0.112 C 
ENDROOT
BRANCH   2   4
HETATM    4  C5  UNL     1     -33.195   8.768   5.554  1.00 20.00     0.094 C 
BRANCH   4   5
HETATM    5  C6  UNL     1     -32.211   8.763   4.379  1.00 20.00     0.017 C 
BRANCH   5   6
HETATM    6  C8  UNL     1     -32.755   8.164   3.061  1.00 20.00    -0.004 C 
HETATM    7  C4  UNL     1     -32.754   9.241   1.969  1.00 20.00     0.011 C 
BRANCH   6   8
HETATM    8  C7  UNL     1     -32.029   6.893   2.594  1.00 20.00     0.119 C 
HETATM    9 CL9  UNL     1     -33.016   5.418   2.726  1.00 20.00    -0.130 Cl
ENDBRANCH   6   8
ENDBRANCH   5   6
ENDBRANCH   4   5
ENDBRANCH   2   4
TORSDOF 4
ENDMDL
MODEL 4
REMARK VINA RESULT:      -4.2      1.976      4.305
REMARK  4 active torsions:
REMARK  status: ('A' for Active; 'I' for Inactive)
REMARK    1  A    between atoms: C2_2  and  C5_5 
REMARK    2  A    between atoms: C5_5  and  C6_6 
REMARK    3  A    between atoms: C6_6  and  C8_8 
REMARK    4  A    between atoms: C7_7  and  C8_8 
ROOT
HETATM    1  C1  UNL     1     -34.058   6.559   6.049  1.00 20.00    -0.111 C 
HETATM    2  C2  UNL     1     -33.417   7.449   5.559  1.00 20.00    -0.107 C 
HETATM    3  C3  UNL     1     -34.837   5.475   6.645  1.00 20.00     0.112 C 
ENDROOT
BRANCH   2   4
HETATM    4  C5  UNL     1     -32.636   8.537   4.958  1.00 20.00     0.094 C 
BRANCH   4   5
HETATM    5  C6  UNL     1     -32.893   8.679   3.454  1.00 20.00     0.017 C 
BRANCH   5   6
HETATM    6  C8  UNL     1     -32.081   7.726   2.548  1.00 20.00    -0.004 C 
HETATM    7  C4  UNL     1     -32.603   6.293   2.712  1.00 20.00     0.011 C 
BRANCH   6   8
HETATM    8  C7  UNL     1     -32.035   8.139   1.069  1.00 20.00     0.119 C 
HETATM    9 CL9  UNL     1     -32.765   9.731   0.749  1.00 20.00    -0.130 Cl
ENDBRANCH   6   8
ENDBRANCH   5   6
ENDBRANCH   4   5
ENDBRANCH   2   4
TORSDOF 4
ENDMDL
MODEL 5
REMARK VINA RESULT:      -3.9      1.781      4.441
REMARK  4 active torsions:
REMARK  status: ('A' for Active; 'I' for Inactive)
REMARK    1  A    between atoms: C2_2  and  C5_5 
REMARK    2  A    between atoms: C5_5  and  C6_6 
REMARK    3  A    between atoms: C6_6  and  C8_8 
REMARK    4  A    between atoms: C7_7  and  C8_8 
ROOT
HETATM    1  C1  UNL     1     -34.304   5.467   5.038  1.00 20.00    -0.111 C 
HETATM    2  C2  UNL     1     -33.717   5.565   3.995  1.00 20.00    -0.107 C 
HETATM    3  C3  UNL     1     -35.018   5.348   6.309  1.00 20.00     0.112 C 
ENDROOT
BRANCH   2   4
HETATM    4  C5  UNL     1     -32.998   5.683   2.720  1.00 20.00     0.094 C 
BRANCH   4   5
HETATM    5  C6  UNL     1     -32.132   6.945   2.653  1.00 20.00     0.017 C 
BRANCH   5   6
HETATM    6  C8  UNL     1     -32.799   8.238   3.176  1.00 20.00    -0.004 C 
HETATM    7  C4  UNL     1     -32.144   8.655   4.499  1.00 20.00     0.011 C 
BRANCH   6   8
HETATM    8  C7  UNL     1     -32.815   9.398   2.169  1.00 20.00     0.119 C 
HETATM    9 CL9  UNL     1     -32.510   8.891   0.491  1.00 20.00    -0.130 Cl
ENDBRANCH   6   8
ENDBRANCH   5   6
ENDBRANCH   4   5
ENDBRANCH   2   4
TORSDOF 4
ENDMDL
MODEL 6
REMARK VINA RESULT:      -3.9      1.614      1.940
REMARK  4 active torsions:
REMARK  status: ('A' for Active; 'I' for Inactive)
REMARK    1  A    between atoms: C2_2  and  C5_5 
REMARK    2  A    between atoms: C5_5  and  C6_6 
REMARK    3  A    between atoms: C6_6  and  C8_8 
REMARK    4  A    between atoms: C7_7  and  C8_8 
ROOT
HETATM    1  C1  UNL     1     -32.664   8.965   1.791  1.00 20.00    -0.111 C 
HETATM    2  C2  UNL     1     -32.655   8.833   2.985  1.00 20.00    -0.107 C 
HETATM    3  C3  UNL     1     -32.674   9.128   0.338  1.00 20.00     0.112 C 
ENDROOT
BRANCH   2   4
HETATM    4  C5  UNL     1     -32.647   8.671   4.445  1.00 20.00     0.094 C 
BRANCH   4   5
HETATM    5  C6  UNL     1     -32.929   7.228   4.874  1.00 20.00     0.017 C 
BRANCH   5   6
HETATM    6  C8  UNL     1     -33.937   6.457   3.991  1.00 20.00    -0.004 C 
HETATM    7  C4  UNL     1     -33.189   5.428   3.135  1.00 20.00     0.011 C 
BRANCH   6   8
HETATM    8  C7  UNL     1     -35.093   5.805   4.767  1.00 20.00     0.119 C 
HETATM    9 CL9  UNL     1     -34.657   5.320   6.423  1.00 20.00    -0.130 Cl
ENDBRANCH   6   8
ENDBRANCH   5   6
ENDBRANCH   4   5
ENDBRANCH   2   4
TORSDOF 4
ENDMDL
MODEL 7
REMARK VINA RESULT:      -3.9      1.628      2.122
REMARK  4 active torsions:
REMARK  status: ('A' for Active; 'I' for Inactive)
REMARK    1  A    between atoms: C2_2  and  C5_5 
REMARK    2  A    between atoms: C5_5  and  C6_6 
REMARK    3  A    between atoms: C6_6  and  C8_8 
REMARK    4  A    between atoms: C7_7  and  C8_8 
ROOT
HETATM    1  C1  UNL     1     -32.527   8.683   1.097  1.00 20.00    -0.111 C 
HETATM    2  C2  UNL     1     -32.239   8.188   2.153  1.00 20.00    -0.107 C 
HETATM    3  C3  UNL     1     -32.876   9.286  -0.188  1.00 20.00     0.112 C 
ENDROOT
BRANCH   2   4
HETATM    4  C5  UNL     1     -31.888   7.586   3.445  1.00 20.00     0.094 C 
BRANCH   4   5
HETATM    5  C6  UNL     1     -32.764   8.106   4.589  1.00 20.00     0.017 C 
BRANCH   5   6
HETATM    6  C8  UNL     1     -34.014   7.254   4.910  1.00 20.00    -0.004 C 
HETATM    7  C4  UNL     1     -34.025   6.004   4.021  1.00 20.00     0.011 C 
BRANCH   6   8
HETATM    8  C7  UNL     1     -34.169   6.886   6.394  1.00 20.00     0.119 C 
HETATM    9 CL9  UNL     1     -34.475   5.155   6.672  1.00 20.00    -0.130 Cl
ENDBRANCH   6   8
ENDBRANCH   5   6
ENDBRANCH   4   5
ENDBRANCH   2   4
TORSDOF 4
ENDMDL
MODEL 8
REMARK VINA RESULT:      -3.7     11.343     12.124
REMARK  4 active torsions:
REMARK  status: ('A' for Active; 'I' for Inactive)
REMARK    1  A    between atoms: C2_2  and  C5_5 
REMARK    2  A    between atoms: C5_5  and  C6_6 
REMARK    3  A    between atoms: C6_6  and  C8_8 
REMARK    4  A    between atoms: C7_7  and  C8_8 
ROOT
HETATM    1  C1  UNL     1     -31.061  18.485   0.771  1.00 20.00    -0.111 C 
HETATM    2  C2  UNL     1     -31.641  18.475  -0.281  1.00 20.00    -0.107 C 
HETATM    3  C3  UNL     1     -30.356  18.498   2.052  1.00 20.00     0.112 C 
ENDROOT
BRANCH   2   4
HETATM    4  C5  UNL     1     -32.347  18.463  -1.568  1.00 20.00     0.094 C 
BRANCH   4   5
HETATM    5  C6  UNL     1     -33.296  17.268  -1.703  1.00 20.00     0.017 C 
BRANCH   5   6
HETATM    6  C8  UNL     1     -33.751  16.939  -3.144  1.00 20.00    -0.004 C 
HETATM    7  C4  UNL     1     -33.573  18.176  -4.033  1.00 20.00     0.011 C 
BRANCH   6   8
HETATM    8  C7  UNL     1     -33.072  15.706  -3.759  1.00 20.00     0.119 C 
HETATM    9 CL9  UNL     1     -34.198  14.374  -4.114  1.00 20.00    -0.130 Cl
ENDBRANCH   6   8
ENDBRANCH   5   6
ENDBRANCH   4   5
ENDBRANCH   2   4
TORSDOF 4
ENDMDL
MODEL 9
REMARK VINA RESULT:      -3.6     11.554     12.311
REMARK  4 active torsions:
REMARK  status: ('A' for Active; 'I' for Inactive)
REMARK    1  A    between atoms: C2_2  and  C5_5 
REMARK    2  A    between atoms: C5_5  and  C6_6 
REMARK    3  A    between atoms: C6_6  and  C8_8 
REMARK    4  A    between atoms: C7_7  and  C8_8 
ROOT
HETATM    1  C1  UNL     1     -33.406  16.631  -2.491  1.00 20.00    -0.111 C 
HETATM    2  C2  UNL     1     -33.412  15.796  -3.355  1.00 20.00    -0.107 C 
HETATM    3  C3  UNL     1     -33.397  17.645  -1.438  1.00 20.00     0.112 C 
ENDROOT
BRANCH   2   4
HETATM    4  C5  UNL     1     -33.423  14.775  -4.411  1.00 20.00     0.094 C 
BRANCH   4   5
HETATM    5  C6  UNL     1     -34.182  15.235  -5.660  1.00 20.00     0.017 C 
BRANCH   5   6
HETATM    6  C8  UNL     1     -35.649  14.755  -5.760  1.00 20.00    -0.004 C 
HETATM    7  C4  UNL     1     -35.908  13.671  -4.706  1.00 20.00     0.011 C 
BRANCH   6   8
HETATM    8  C7  UNL     1     -36.693  15.879  -5.676  1.00 20.00     0.119 C 
HETATM    9 CL9  UNL     1     -36.009  17.456  -5.215  1.00 20.00    -0.130 Cl
ENDBRANCH   6   8
ENDBRANCH   5   6
ENDBRANCH   4   5
ENDBRANCH   2   4
TORSDOF 4
ENDMDL
