MODEL 1
REMARK VINA RESULT:      -3.8      0.000      0.000
REMARK  3 active torsions:
REMARK  status: ('A' for Active; 'I' for Inactive)
REMARK    1  A    between atoms: C1_1  and  C5_5 
REMARK    2  A    between atoms: C1_1  and  C7_7 
REMARK    3  A    between atoms: C6_6  and  C7_7 
ROOT
HETATM    1  C3  UNL     1     -34.343  19.263  -0.637  1.00 20.00     0.023 C 
HETATM    2  C4  UNL     1     -32.833  19.152  -2.609  1.00 20.00     0.023 C 
HETATM    3  C7  UNL     1     -33.183  18.471  -1.272  1.00 20.00     0.014 C 
ENDROOT
BRANCH   3   4
HETATM    4  C1  UNL     1     -31.952  18.515  -0.336  1.00 20.00     0.148 C 
HETATM    5  O8  UNL     1     -30.807  18.524  -0.796  1.00 20.00    -0.296 OA
BRANCH   4   6
HETATM    6  C5  UNL     1     -32.205  18.537   1.161  1.00 20.00     0.193 C 
HETATM    7 CL9  UNL     1     -30.684  18.335   2.048  1.00 20.00    -0.123 Cl
ENDBRANCH   4   6
ENDBRANCH   3   4
BRANCH   3   8
HETATM    8  C6  UNL     1     -33.607  17.007  -1.545  1.00 20.00     0.012 C 
HETATM    9  C2  UNL     1     -33.278  16.486  -2.939  1.00 20.00     0.006 C 
ENDBRANCH   3   8
TORSDOF 3
ENDMDL
MODEL 2
REMARK VINA RESULT:      -3.7     12.449     13.200
REMARK  3 active torsions:
REMARK  status: ('A' for Active; 'I' for Inactive)
REMARK    1  A    between atoms: C1_1  and  C5_5 
REMARK    2  A    between atoms: C1_1  and  C7_7 
REMARK    3  A    between atoms: C6_6  and  C7_7 
ROOT
HETATM    1  C3  UNL     1     -34.049   4.541   5.132  1.00 20.00     0.023 C 
HETATM    2  C4  UNL     1     -35.723   6.104   4.166  1.00 20.00     0.023 C 
HETATM    3  C7  UNL     1     -34.235   5.950   4.535  1.00 20.00     0.014 C 
ENDROOT
BRANCH   3   4
HETATM    4  C1  UNL     1     -33.855   7.015   5.591  1.00 20.00     0.148 C 
HETATM    5  O8  UNL     1     -33.608   6.691   6.755  1.00 20.00    -0.296 OA
BRANCH   4   6
HETATM    6  C5  UNL     1     -33.807   8.465   5.144  1.00 20.00     0.193 C 
HETATM    7 CL9  UNL     1     -32.131   8.969   4.860  1.00 20.00    -0.123 Cl
ENDBRANCH   4   6
ENDBRANCH   3   4
BRANCH   3   8
HETATM    8  C6  UNL     1     -33.377   6.118   3.258  1.00 20.00     0.012 C 
HETATM    9  C2  UNL     1     -32.937   4.817   2.596  1.00 20.00     0.006 C 
ENDBRANCH   3   8
TORSDOF 3
ENDMDL
MODEL 3
REMARK VINA RESULT:      -3.6     12.451     13.325
REMARK  3 active torsions:
REMARK  status: ('A' for Active; 'I' for Inactive)
REMARK    1  A    between atoms: C1_1  and  C5_5 
REMARK    2  A    between atoms: C1_1  and  C7_7 
REMARK    3  A    between atoms: C6_6  and  C7_7 
ROOT
HETATM    1  C3  UNL     1     -35.583   6.197   3.935  1.00 20.00     0.023 C 
HETATM    2  C4  UNL     1     -34.074   4.647   5.159  1.00 20.00     0.023 C 
HETATM    3  C7  UNL     1     -34.154   6.031   4.489  1.00 20.00     0.014 C 
ENDROOT
BRANCH   3   4
HETATM    4  C1  UNL     1     -33.136   6.098   3.325  1.00 20.00     0.148 C 
HETATM    5  O8  UNL     1     -33.043   5.174   2.513  1.00 20.00    -0.296 OA
BRANCH   4   6
HETATM    6  C5  UNL     1     -32.257   7.331   3.228  1.00 20.00     0.193 C 
HETATM    7 CL9  UNL     1     -32.194   7.915   1.555  1.00 20.00    -0.123 Cl
ENDBRANCH   4   6
ENDBRANCH   3   4
BRANCH   3   8
HETATM    8  C6  UNL     1     -33.847   7.122   5.543  1.00 20.00     0.012 C 
HETATM    9  C2  UNL     1     -34.402   6.851   6.937  1.00 20.00     0.006 C 
ENDBRANCH   3   8
TORSDOF 3
ENDMDL
MODEL 4
REMARK VINA RESULT:      -3.6     13.957     14.769
REMARK  3 active torsions:
REMARK  status: ('A' for Active; 'I' for Inactive)
REMARK    1  A    between atoms: C1_1  and  C5_5 
REMARK    2  A    between atoms: C1_1  and  C7_7 
REMARK    3  A    between atoms: C6_6  and  C7_7 
ROOT
HETATM    1  C3  UNL     1     -24.324  16.599  11.415  1.00 20.00     0.023 C 
HETATM    2  C4  UNL     1     -22.765  18.330  12.283  1.00 20.00     0.023 C 
HETATM    3  C7  UNL     1     -24.065  18.118  11.485  1.00 20.00     0.014 C 
ENDROOT
BRANCH   3   4
HETATM    4  C1  UNL     1     -23.886  18.679  10.054  1.00 20.00     0.148 C 
HETATM    5  O8  UNL     1     -24.863  19.012   9.379  1.00 20.00    -0.296 OA
BRANCH   4   6
HETATM    6  C5  UNL     1     -22.472  18.794   9.513  1.00 20.00     0.193 C 
HETATM    7 CL9  UNL     1     -22.018  17.314   8.649  1.00 20.00    -0.123 Cl
ENDBRANCH   4   6
ENDBRANCH   3   4
BRANCH   3   8
HETATM    8  C6  UNL     1     -25.228  18.836  12.210  1.00 20.00     0.012 C 
HETATM    9  C2  UNL     1     -26.514  18.027  12.332  1.00 20.00     0.006 C 
ENDBRANCH   3   8
TORSDOF 3
ENDMDL
MODEL 5
REMARK VINA RESULT:      -3.6     12.290     13.098
REMARK  3 active torsions:
REMARK  status: ('A' for Active; 'I' for Inactive)
REMARK    1  A    between atoms: C1_1  and  C5_5 
REMARK    2  A    between atoms: C1_1  and  C7_7 
REMARK    3  A    between atoms: C6_6  and  C7_7 
ROOT
HETATM    1  C3  UNL     1     -35.585   6.182   4.164  1.00 20.00     0.023 C 
HETATM    2  C4  UNL     1     -33.509   5.194   3.219  1.00 20.00     0.023 C 
HETATM    3  C7  UNL     1     -34.077   5.985   4.412  1.00 20.00     0.014 C 
ENDROOT
BRANCH   3   4
HETATM    4  C1  UNL     1     -33.381   7.365   4.490  1.00 20.00     0.148 C 
HETATM    5  O8  UNL     1     -33.735   8.206   5.319  1.00 20.00    -0.296 OA
BRANCH   4   6
HETATM    6  C5  UNL     1     -32.259   7.645   3.505  1.00 20.00     0.193 C 
HETATM    7 CL9  UNL     1     -32.666   9.037   2.485  1.00 20.00    -0.123 Cl
ENDBRANCH   4   6
ENDBRANCH   3   4
BRANCH   3   8
HETATM    8  C6  UNL     1     -33.838   5.181   5.713  1.00 20.00     0.012 C 
HETATM    9  C2  UNL     1     -34.885   5.386   6.802  1.00 20.00     0.006 C 
ENDBRANCH   3   8
TORSDOF 3
ENDMDL
MODEL 6
REMARK VINA RESULT:      -3.5     12.243     12.988
REMARK  3 active torsions:
REMARK  status: ('A' for Active; 'I' for Inactive)
REMARK    1  A    between atoms: C1_1  and  C5_5 
REMARK    2  A    between atoms: C1_1  and  C7_7 
REMARK    3  A    between atoms: C6_6  and  C7_7 
ROOT
HETATM    1  C3  UNL     1     -34.442   5.571   6.381  1.00 20.00     0.023 C 
HETATM    2  C4  UNL     1     -35.583   6.113   4.240  1.00 20.00     0.023 C 
HETATM    3  C7  UNL     1     -34.210   6.053   4.936  1.00 20.00     0.014 C 
ENDROOT
BRANCH   3   4
HETATM    4  C1  UNL     1     -33.583   7.468   4.956  1.00 20.00     0.148 C 
HETATM    5  O8  UNL     1     -34.075   8.368   5.640  1.00 20.00    -0.296 OA
BRANCH   4   6
HETATM    6  C5  UNL     1     -32.352   7.705   4.100  1.00 20.00     0.193 C 
HETATM    7 CL9  UNL     1     -32.701   8.893   2.831  1.00 20.00    -0.123 Cl
ENDBRANCH   4   6
ENDBRANCH   3   4
BRANCH   3   8
HETATM    8  C6  UNL     1     -33.297   5.064   4.171  1.00 20.00     0.012 C 
HETATM    9  C2  UNL     1     -33.393   5.136   2.651  1.00 20.00     0.006 C 
ENDBRANCH   3   8
TORSDOF 3
ENDMDL
MODEL 7
REMARK VINA RESULT:      -3.5     11.696     12.215
REMARK  3 active torsions:
REMARK  status: ('A' for Active; 'I' for Inactive)
REMARK    1  A    between atoms: C1_1  and  C5_5 
REMARK    2  A    between atoms: C1_1  and  C7_7 
REMARK    3  A    between atoms: C6_6  and  C7_7 
ROOT
HETATM    1  C3  UNL     1     -42.332  12.214   6.787  1.00 20.00     0.023 C 
HETATM    2  C4  UNL     1     -41.371  13.720   5.059  1.00 20.00     0.023 C 
HETATM    3  C7  UNL     1     -41.051  12.954   6.356  1.00 20.00     0.014 C 
ENDROOT
BRANCH   3   4
HETATM    4  C1  UNL     1     -40.638  13.960   7.458  1.00 20.00     0.148 C 
HETATM    5  O8  UNL     1     -40.051  13.579   8.474  1.00 20.00    -0.296 OA
BRANCH   4   6
HETATM    6  C5  UNL     1     -40.989  15.421   7.244  1.00 20.00     0.193 C 
HETATM    7 CL9  UNL     1     -40.538  16.379   8.667  1.00 20.00    -0.123 Cl
ENDBRANCH   4   6
ENDBRANCH   3   4
BRANCH   3   8
HETATM    8  C6  UNL     1     -39.906  11.948   6.081  1.00 20.00     0.012 C 
HETATM    9  C2  UNL     1     -39.499  11.814   4.618  1.00 20.00     0.006 C 
ENDBRANCH   3   8
TORSDOF 3
ENDMDL
MODEL 8
REMARK VINA RESULT:      -3.5     13.028     13.888
REMARK  3 active torsions:
REMARK  status: ('A' for Active; 'I' for Inactive)
REMARK    1  A    between atoms: C1_1  and  C5_5 
REMARK    2  A    between atoms: C1_1  and  C7_7 
REMARK    3  A    between atoms: C6_6  and  C7_7 
ROOT
HETATM    1  C3  UNL     1     -36.021   6.233   4.267  1.00 20.00     0.023 C 
HETATM    2  C4  UNL     1     -34.524   5.972   6.234  1.00 20.00     0.023 C 
HETATM    3  C7  UNL     1     -34.546   6.226   4.715  1.00 20.00     0.014 C 
ENDROOT
BRANCH   3   4
HETATM    4  C1  UNL     1     -33.790   5.086   3.992  1.00 20.00     0.148 C 
HETATM    5  O8  UNL     1     -33.951   3.909   4.326  1.00 20.00    -0.296 OA
BRANCH   4   6
HETATM    6  C5  UNL     1     -32.842   5.469   2.870  1.00 20.00     0.193 C 
HETATM    7 CL9  UNL     1     -32.795   4.195   1.638  1.00 20.00    -0.123 Cl
ENDBRANCH   4   6
ENDBRANCH   3   4
BRANCH   3   8
HETATM    8  C6  UNL     1     -33.881   7.592   4.420  1.00 20.00     0.012 C 
HETATM    9  C2  UNL     1     -33.002   8.140   5.540  1.00 20.00     0.006 C 
ENDBRANCH   3   8
TORSDOF 3
ENDMDL
MODEL 9
REMARK VINA RESULT:      -3.4     11.529     12.294
REMARK  3 active torsions:
REMARK  status: ('A' for Active; 'I' for Inactive)
REMARK    1  A    between atoms: C1_1  and  C5_5 
REMARK    2  A    between atoms: C1_1  and  C7_7 
REMARK    3  A    between atoms: C6_6  and  C7_7 
ROOT
HETATM    1  C3  UNL     1     -42.590  14.710   6.056  1.00 20.00     0.023 C 
HETATM    2  C4  UNL     1     -42.585  12.400   6.974  1.00 20.00     0.023 C 
HETATM    3  C7  UNL     1     -41.677  13.549   6.496  1.00 20.00     0.014 C 
ENDROOT
BRANCH   3   4
HETATM    4  C1  UNL     1     -40.834  13.068   5.290  1.00 20.00     0.148 C 
HETATM    5  O8  UNL     1     -41.071  13.475   4.151  1.00 20.00    -0.296 OA
BRANCH   4   6
HETATM    6  C5  UNL     1     -39.717  12.075   5.562  1.00 20.00     0.193 C 
HETATM    7 CL9  UNL     1     -38.910  11.624   4.050  1.00 20.00    -0.123 Cl
ENDBRANCH   4   6
ENDBRANCH   3   4
BRANCH   3   8
HETATM    8  C6  UNL     1     -40.758  13.988   7.662  1.00 20.00     0.012 C 
HETATM    9  C2  UNL     1     -40.340  15.454   7.640  1.00 20.00     0.006 C 
ENDBRANCH   3   8
TORSDOF 3
ENDMDL
