MODEL 1
REMARK VINA RESULT:      -4.9      0.000      0.000
REMARK  0 active torsions:
REMARK  status: ('A' for Active; 'I' for Inactive)
ROOT
HETATM    1  C1  UNL     1     -33.699   5.955   3.868  1.00 20.00    -0.066 C 
HETATM    2  C2  UNL     1     -33.045   5.341   2.872  1.00 20.00     0.016 C 
HETATM    3  C3  UNL     1     -34.809   5.296   4.640  1.00 20.00     0.037 C 
HETATM    4  C4  UNL     1     -33.364   7.348   4.324  1.00 20.00     0.201 C 
HETATM    5  C5  UNL     1     -34.559   5.452   6.139  1.00 20.00     0.030 C 
HETATM    6  C6  UNL     1     -34.232   6.901   6.492  1.00 20.00     0.168 C 
HETATM    7  O7  UNL     1     -33.109   7.357   5.733  1.00 20.00    -0.387 OA
ENDROOT
TORSDOF 0
ENDMDL
MODEL 2
REMARK VINA RESULT:      -4.7      1.467      3.086
REMARK  0 active torsions:
REMARK  status: ('A' for Active; 'I' for Inactive)
ROOT
HETATM    1  C1  UNL     1     -34.078   6.635   5.274  1.00 20.00    -0.066 C 
HETATM    2  C2  UNL     1     -34.445   5.981   6.386  1.00 20.00     0.016 C 
HETATM    3  C3  UNL     1     -33.660   8.080   5.281  1.00 20.00     0.037 C 
HETATM    4  C4  UNL     1     -34.022   5.977   3.924  1.00 20.00     0.201 C 
HETATM    5  C5  UNL     1     -32.341   8.240   4.528  1.00 20.00     0.030 C 
HETATM    6  C6  UNL     1     -32.395   7.538   3.173  1.00 20.00     0.168 C 
HETATM    7  O7  UNL     1     -32.728   6.157   3.341  1.00 20.00    -0.387 OA
ENDROOT
TORSDOF 0
ENDMDL
MODEL 3
REMARK VINA RESULT:      -4.4      1.359      2.471
REMARK  0 active torsions:
REMARK  status: ('A' for Active; 'I' for Inactive)
ROOT
HETATM    1  C1  UNL     1     -33.456   7.440   5.124  1.00 20.00    -0.066 C 
HETATM    2  C2  UNL     1     -33.443   8.778   5.035  1.00 20.00     0.016 C 
HETATM    3  C3  UNL     1     -33.792   6.713   6.397  1.00 20.00     0.037 C 
HETATM    4  C4  UNL     1     -33.167   6.544   3.952  1.00 20.00     0.201 C 
HETATM    5  C5  UNL     1     -34.842   5.640   6.118  1.00 20.00     0.030 C 
HETATM    6  C6  UNL     1     -34.447   4.788   4.914  1.00 20.00     0.168 C 
HETATM    7  O7  UNL     1     -34.239   5.614   3.765  1.00 20.00    -0.387 OA
ENDROOT
TORSDOF 0
ENDMDL
MODEL 4
REMARK VINA RESULT:      -4.4      0.979      1.283
REMARK  0 active torsions:
REMARK  status: ('A' for Active; 'I' for Inactive)
ROOT
HETATM    1  C1  UNL     1     -33.348   6.965   4.150  1.00 20.00    -0.066 C 
HETATM    2  C2  UNL     1     -32.350   7.257   3.304  1.00 20.00     0.016 C 
HETATM    3  C3  UNL     1     -34.287   5.810   3.932  1.00 20.00     0.037 C 
HETATM    4  C4  UNL     1     -33.601   7.744   5.410  1.00 20.00     0.201 C 
HETATM    5  C5  UNL     1     -34.389   4.978   5.208  1.00 20.00     0.030 C 
HETATM    6  C6  UNL     1     -34.650   5.867   6.422  1.00 20.00     0.168 C 
HETATM    7  O7  UNL     1     -33.631   6.864   6.538  1.00 20.00    -0.387 OA
ENDROOT
TORSDOF 0
ENDMDL
MODEL 5
REMARK VINA RESULT:      -4.3      1.162      2.558
REMARK  0 active torsions:
REMARK  status: ('A' for Active; 'I' for Inactive)
ROOT
HETATM    1  C1  UNL     1     -34.118   6.350   4.684  1.00 20.00    -0.066 C 
HETATM    2  C2  UNL     1     -35.303   5.731   4.587  1.00 20.00     0.016 C 
HETATM    3  C3  UNL     1     -33.045   6.221   3.638  1.00 20.00     0.037 C 
HETATM    4  C4  UNL     1     -33.764   7.254   5.831  1.00 20.00     0.201 C 
HETATM    5  C5  UNL     1     -32.534   7.607   3.248  1.00 20.00     0.030 C 
HETATM    6  C6  UNL     1     -32.203   8.437   4.485  1.00 20.00     0.168 C 
HETATM    7  O7  UNL     1     -33.344   8.532   5.342  1.00 20.00    -0.387 OA
ENDROOT
TORSDOF 0
ENDMDL
MODEL 6
REMARK VINA RESULT:      -3.9      1.698      2.543
REMARK  0 active torsions:
REMARK  status: ('A' for Active; 'I' for Inactive)
ROOT
HETATM    1  C1  UNL     1     -32.445   7.387   3.178  1.00 20.00    -0.066 C 
HETATM    2  C2  UNL     1     -32.154   7.848   1.953  1.00 20.00     0.016 C 
HETATM    3  C3  UNL     1     -32.289   8.221   4.420  1.00 20.00     0.037 C 
HETATM    4  C4  UNL     1     -32.982   6.004   3.419  1.00 20.00     0.201 C 
HETATM    5  C5  UNL     1     -33.567   8.150   5.254  1.00 20.00     0.030 C 
HETATM    6  C6  UNL     1     -34.021   6.705   5.439  1.00 20.00     0.168 C 
HETATM    7  O7  UNL     1     -34.199   6.072   4.169  1.00 20.00    -0.387 OA
ENDROOT
TORSDOF 0
ENDMDL
MODEL 7
REMARK VINA RESULT:      -3.7      1.408      2.913
REMARK  0 active torsions:
REMARK  status: ('A' for Active; 'I' for Inactive)
ROOT
HETATM    1  C1  UNL     1     -32.923   7.818   4.251  1.00 20.00    -0.066 C 
HETATM    2  C2  UNL     1     -32.125   8.753   4.786  1.00 20.00     0.016 C 
HETATM    3  C3  UNL     1     -32.645   7.177   2.919  1.00 20.00     0.037 C 
HETATM    4  C4  UNL     1     -34.151   7.301   4.946  1.00 20.00     0.201 C 
HETATM    5  C5  UNL     1     -32.736   5.658   3.046  1.00 20.00     0.030 C 
HETATM    6  C6  UNL     1     -34.019   5.244   3.762  1.00 20.00     0.168 C 
HETATM    7  O7  UNL     1     -34.099   5.874   5.044  1.00 20.00    -0.387 OA
ENDROOT
TORSDOF 0
ENDMDL
MODEL 8
REMARK VINA RESULT:      -3.5     12.885     13.406
REMARK  0 active torsions:
REMARK  status: ('A' for Active; 'I' for Inactive)
ROOT
HETATM    1  C1  UNL     1     -32.975  18.181  -0.698  1.00 20.00    -0.066 C 
HETATM    2  C2  UNL     1     -33.671  17.266  -1.388  1.00 20.00     0.016 C 
HETATM    3  C3  UNL     1     -33.305  18.553   0.722  1.00 20.00     0.037 C 
HETATM    4  C4  UNL     1     -31.784  18.897  -1.268  1.00 20.00     0.201 C 
HETATM    5  C5  UNL     1     -32.040  18.505   1.576  1.00 20.00     0.030 C 
HETATM    6  C6  UNL     1     -30.897  19.263   0.906  1.00 20.00     0.168 C 
HETATM    7  O7  UNL     1     -30.654  18.742  -0.403  1.00 20.00    -0.387 OA
ENDROOT
TORSDOF 0
ENDMDL
MODEL 9
REMARK VINA RESULT:      -3.3     12.962     13.661
REMARK  0 active torsions:
REMARK  status: ('A' for Active; 'I' for Inactive)
ROOT
HETATM    1  C1  UNL     1     -33.562  16.560  -3.380  1.00 20.00    -0.066 C 
HETATM    2  C2  UNL     1     -33.316  16.912  -2.110  1.00 20.00     0.016 C 
HETATM    3  C3  UNL     1     -33.151  15.230  -3.950  1.00 20.00     0.037 C 
HETATM    4  C4  UNL     1     -34.297  17.449  -4.343  1.00 20.00     0.201 C 
HETATM    5  C5  UNL     1     -34.337  14.584  -4.664  1.00 20.00     0.030 C 
HETATM    6  C6  UNL     1     -35.006  15.572  -5.616  1.00 20.00     0.168 C 
HETATM    7  O7  UNL     1     -35.409  16.749  -4.911  1.00 20.00    -0.387 OA
ENDROOT
TORSDOF 0
ENDMDL
