MODEL 1
REMARK VINA RESULT:      -4.0      0.000      0.000
REMARK  3 active torsions:
REMARK  status: ('A' for Active; 'I' for Inactive)
REMARK    1  A    between atoms: C6_6  and  C7_7 
REMARK    2  A    between atoms: C6_6  and  C8_8 
REMARK    3  A    between atoms: C7_7  and  C9_9 
ROOT
HETATM    1  C1  UNL     1     -33.088   7.669   5.800  1.00 20.00     0.011 C 
HETATM    2  C7  UNL     1     -33.680   7.090   4.501  1.00 20.00    -0.010 C 
ENDROOT
BRANCH   2   3
HETATM    3  C6  UNL     1     -32.558   6.893   3.441  1.00 20.00     0.024 C 
BRANCH   3   4
HETATM    4  C8  UNL     1     -32.044   8.164   2.740  1.00 20.00     0.078 C 
HETATM    5  C2  UNL     1     -32.936   9.360   3.065  1.00 20.00     0.026 C 
HETATM    6 CL10 UNL     1     -31.998   7.950   0.965  1.00 20.00    -0.125 Cl
ENDBRANCH   3   4
ENDBRANCH   2   3
BRANCH   2   7
HETATM    7  C9  UNL     1     -34.538   5.786   4.747  1.00 20.00    -0.048 C 
HETATM    8  C3  UNL     1     -33.929   4.543   4.072  1.00 20.00     0.015 C 
HETATM    9  C4  UNL     1     -34.659   5.500   6.262  1.00 20.00     0.015 C 
HETATM   10  C5  UNL     1     -35.976   5.971   4.211  1.00 20.00     0.015 C 
ENDBRANCH   2   7
TORSDOF 3
ENDMDL
MODEL 2
REMARK VINA RESULT:      -3.9      0.067      1.375
REMARK  3 active torsions:
REMARK  status: ('A' for Active; 'I' for Inactive)
REMARK    1  A    between atoms: C6_6  and  C7_7 
REMARK    2  A    between atoms: C6_6  and  C8_8 
REMARK    3  A    between atoms: C7_7  and  C9_9 
ROOT
HETATM    1  C1  UNL     1     -33.165   7.704   5.843  1.00 20.00     0.011 C 
HETATM    2  C7  UNL     1     -33.702   7.128   4.521  1.00 20.00    -0.010 C 
ENDROOT
BRANCH   2   3
HETATM    3  C6  UNL     1     -32.538   6.941   3.504  1.00 20.00     0.024 C 
BRANCH   3   4
HETATM    4  C8  UNL     1     -32.062   8.206   2.765  1.00 20.00     0.078 C 
HETATM    5  C2  UNL     1     -32.993   9.382   3.049  1.00 20.00     0.026 C 
HETATM    6 CL10 UNL     1     -32.002   7.936   0.998  1.00 20.00    -0.125 Cl
ENDBRANCH   3   4
ENDBRANCH   2   3
BRANCH   2   7
HETATM    7  C9  UNL     1     -34.562   5.819   4.727  1.00 20.00    -0.048 C 
HETATM    8  C3  UNL     1     -35.998   5.966   4.191  1.00 20.00     0.015 C 
HETATM    9  C4  UNL     1     -33.900   4.622   4.005  1.00 20.00     0.015 C 
HETATM   10  C5  UNL     1     -34.641   5.449   6.225  1.00 20.00     0.015 C 
ENDBRANCH   2   7
TORSDOF 3
ENDMDL
MODEL 3
REMARK VINA RESULT:      -3.8      9.681     10.701
REMARK  3 active torsions:
REMARK  status: ('A' for Active; 'I' for Inactive)
REMARK    1  A    between atoms: C6_6  and  C7_7 
REMARK    2  A    between atoms: C6_6  and  C8_8 
REMARK    3  A    between atoms: C7_7  and  C9_9 
ROOT
HETATM    1  C1  UNL     1     -42.801  12.316   6.993  1.00 20.00     0.011 C 
HETATM    2  C7  UNL     1     -41.529  13.170   6.837  1.00 20.00    -0.010 C 
ENDROOT
BRANCH   2   3
HETATM    3  C6  UNL     1     -40.890  12.932   5.439  1.00 20.00     0.024 C 
BRANCH   3   4
HETATM    4  C8  UNL     1     -39.834  11.814   5.347  1.00 20.00     0.078 C 
HETATM    5  C2  UNL     1     -38.753  12.002   6.408  1.00 20.00     0.026 C 
HETATM    6 CL10 UNL     1     -39.058  11.788   3.736  1.00 20.00    -0.125 Cl
ENDBRANCH   3   4
ENDBRANCH   2   3
BRANCH   2   7
HETATM    7  C9  UNL     1     -41.775  14.698   7.156  1.00 20.00    -0.048 C 
HETATM    8  C3  UNL     1     -42.348  15.467   5.951  1.00 20.00     0.015 C 
HETATM    9  C4  UNL     1     -42.762  14.849   8.337  1.00 20.00     0.015 C 
HETATM   10  C5  UNL     1     -40.458  15.384   7.585  1.00 20.00     0.015 C 
ENDBRANCH   2   7
TORSDOF 3
ENDMDL
MODEL 4
REMARK VINA RESULT:      -3.6     11.527     13.036
REMARK  3 active torsions:
REMARK  status: ('A' for Active; 'I' for Inactive)
REMARK    1  A    between atoms: C6_6  and  C7_7 
REMARK    2  A    between atoms: C6_6  and  C8_8 
REMARK    3  A    between atoms: C7_7  and  C9_9 
ROOT
HETATM    1  C1  UNL     1     -35.606  17.762  -4.607  1.00 20.00     0.011 C 
HETATM    2  C7  UNL     1     -34.330  16.925  -4.811  1.00 20.00    -0.010 C 
ENDROOT
BRANCH   2   3
HETATM    3  C6  UNL     1     -33.450  16.964  -3.528  1.00 20.00     0.024 C 
BRANCH   3   4
HETATM    4  C8  UNL     1     -33.760  18.084  -2.517  1.00 20.00     0.078 C 
HETATM    5  C2  UNL     1     -32.736  19.211  -2.626  1.00 20.00     0.026 C 
HETATM    6 CL10 UNL     1     -33.750  17.461  -0.840  1.00 20.00    -0.125 Cl
ENDBRANCH   3   4
ENDBRANCH   2   3
BRANCH   2   7
HETATM    7  C9  UNL     1     -34.633  15.458  -5.312  1.00 20.00    -0.048 C 
HETATM    8  C3  UNL     1     -33.945  15.138  -6.652  1.00 20.00     0.015 C 
HETATM    9  C4  UNL     1     -34.154  14.424  -4.267  1.00 20.00     0.015 C 
HETATM   10  C5  UNL     1     -36.154  15.244  -5.487  1.00 20.00     0.015 C 
ENDBRANCH   2   7
TORSDOF 3
ENDMDL
MODEL 5
REMARK VINA RESULT:      -3.6     11.685     13.162
REMARK  3 active torsions:
REMARK  status: ('A' for Active; 'I' for Inactive)
REMARK    1  A    between atoms: C6_6  and  C7_7 
REMARK    2  A    between atoms: C6_6  and  C8_8 
REMARK    3  A    between atoms: C7_7  and  C9_9 
ROOT
HETATM    1  C1  UNL     1     -33.325  14.573  -4.314  1.00 20.00     0.011 C 
HETATM    2  C7  UNL     1     -34.124  15.879  -4.152  1.00 20.00    -0.010 C 
ENDROOT
BRANCH   2   3
HETATM    3  C6  UNL     1     -33.244  16.965  -3.468  1.00 20.00     0.024 C 
BRANCH   3   4
HETATM    4  C8  UNL     1     -33.636  17.361  -2.032  1.00 20.00     0.078 C 
HETATM    5  C2  UNL     1     -34.743  18.412  -2.042  1.00 20.00     0.026 C 
HETATM    6 CL10 UNL     1     -32.232  18.016  -1.137  1.00 20.00    -0.125 Cl
ENDBRANCH   3   4
ENDBRANCH   2   3
BRANCH   2   7
HETATM    7  C9  UNL     1     -34.776  16.370  -5.505  1.00 20.00    -0.048 C 
HETATM    8  C3  UNL     1     -34.271  15.579  -6.726  1.00 20.00     0.015 C 
HETATM    9  C4  UNL     1     -36.315  16.227  -5.442  1.00 20.00     0.015 C 
HETATM   10  C5  UNL     1     -34.477  17.868  -5.743  1.00 20.00     0.015 C 
ENDBRANCH   2   7
TORSDOF 3
ENDMDL
MODEL 6
REMARK VINA RESULT:      -3.6     11.724     13.194
REMARK  3 active torsions:
REMARK  status: ('A' for Active; 'I' for Inactive)
REMARK    1  A    between atoms: C6_6  and  C7_7 
REMARK    2  A    between atoms: C6_6  and  C8_8 
REMARK    3  A    between atoms: C7_7  and  C9_9 
ROOT
HETATM    1  C1  UNL     1     -33.259  14.619  -4.327  1.00 20.00     0.011 C 
HETATM    2  C7  UNL     1     -34.103  15.893  -4.140  1.00 20.00    -0.010 C 
ENDROOT
BRANCH   2   3
HETATM    3  C6  UNL     1     -33.254  17.006  -3.459  1.00 20.00     0.024 C 
BRANCH   3   4
HETATM    4  C8  UNL     1     -33.643  17.380  -2.016  1.00 20.00     0.078 C 
HETATM    5  C2  UNL     1     -34.755  18.425  -2.009  1.00 20.00     0.026 C 
HETATM    6 CL10 UNL     1     -32.240  18.029  -1.117  1.00 20.00    -0.125 Cl
ENDBRANCH   3   4
ENDBRANCH   2   3
BRANCH   2   7
HETATM    7  C9  UNL     1     -34.795  16.372  -5.477  1.00 20.00    -0.048 C 
HETATM    8  C3  UNL     1     -36.327  16.226  -5.434  1.00 20.00     0.015 C 
HETATM    9  C4  UNL     1     -34.461  17.856  -5.753  1.00 20.00     0.015 C 
HETATM   10  C5  UNL     1     -34.267  15.564  -6.684  1.00 20.00     0.015 C 
ENDBRANCH   2   7
TORSDOF 3
ENDMDL
MODEL 7
REMARK VINA RESULT:      -3.6     11.951     13.286
REMARK  3 active torsions:
REMARK  status: ('A' for Active; 'I' for Inactive)
REMARK    1  A    between atoms: C6_6  and  C7_7 
REMARK    2  A    between atoms: C6_6  and  C8_8 
REMARK    3  A    between atoms: C7_7  and  C9_9 
ROOT
HETATM    1  C1  UNL     1     -33.342  15.958  -3.320  1.00 20.00     0.011 C 
HETATM    2  C7  UNL     1     -33.783  17.283  -2.671  1.00 20.00    -0.010 C 
ENDROOT
BRANCH   2   3
HETATM    3  C6  UNL     1     -32.541  18.079  -2.176  1.00 20.00     0.024 C 
BRANCH   3   4
HETATM    4  C8  UNL     1     -32.640  18.703  -0.772  1.00 20.00     0.078 C 
HETATM    5  C2  UNL     1     -31.299  18.621  -0.046  1.00 20.00     0.026 C 
HETATM    6 CL10 UNL     1     -33.879  17.876   0.217  1.00 20.00    -0.125 Cl
ENDBRANCH   3   4
ENDBRANCH   2   3
BRANCH   2   7
HETATM    7  C9  UNL     1     -34.736  18.134  -3.601  1.00 20.00    -0.048 C 
HETATM    8  C3  UNL     1     -35.420  17.280  -4.684  1.00 20.00     0.015 C 
HETATM    9  C4  UNL     1     -35.838  18.817  -2.759  1.00 20.00     0.015 C 
HETATM   10  C5  UNL     1     -33.947  19.262  -4.303  1.00 20.00     0.015 C 
ENDBRANCH   2   7
TORSDOF 3
ENDMDL
MODEL 8
REMARK VINA RESULT:      -3.5     11.861     13.372
REMARK  3 active torsions:
REMARK  status: ('A' for Active; 'I' for Inactive)
REMARK    1  A    between atoms: C6_6  and  C7_7 
REMARK    2  A    between atoms: C6_6  and  C8_8 
REMARK    3  A    between atoms: C7_7  and  C9_9 
ROOT
HETATM    1  C1  UNL     1     -33.301  14.837  -4.171  1.00 20.00     0.011 C 
HETATM    2  C7  UNL     1     -34.145  16.121  -4.270  1.00 20.00    -0.010 C 
ENDROOT
BRANCH   2   3
HETATM    3  C6  UNL     1     -33.308  17.352  -3.815  1.00 20.00     0.024 C 
BRANCH   3   4
HETATM    4  C8  UNL     1     -33.831  18.123  -2.589  1.00 20.00     0.078 C 
HETATM    5  C2  UNL     1     -33.669  17.294  -1.318  1.00 20.00     0.026 C 
HETATM    6 CL10 UNL     1     -35.558  18.547  -2.781  1.00 20.00    -0.125 Cl
ENDBRANCH   3   4
ENDBRANCH   2   3
BRANCH   2   7
HETATM    7  C9  UNL     1     -34.807  16.312  -5.691  1.00 20.00    -0.048 C 
HETATM    8  C3  UNL     1     -34.618  17.737  -6.244  1.00 20.00     0.015 C 
HETATM    9  C4  UNL     1     -34.196  15.318  -6.706  1.00 20.00     0.015 C 
HETATM   10  C5  UNL     1     -36.322  16.014  -5.632  1.00 20.00     0.015 C 
ENDBRANCH   2   7
TORSDOF 3
ENDMDL
MODEL 9
REMARK VINA RESULT:      -3.5      1.976      4.022
REMARK  3 active torsions:
REMARK  status: ('A' for Active; 'I' for Inactive)
REMARK    1  A    between atoms: C6_6  and  C7_7 
REMARK    2  A    between atoms: C6_6  and  C8_8 
REMARK    3  A    between atoms: C7_7  and  C9_9 
ROOT
HETATM    1  C1  UNL     1     -33.699   8.691   5.546  1.00 20.00     0.011 C 
HETATM    2  C7  UNL     1     -33.400   7.416   4.737  1.00 20.00    -0.010 C 
ENDROOT
BRANCH   2   3
HETATM    3  C6  UNL     1     -34.724   6.668   4.404  1.00 20.00     0.024 C 
BRANCH   3   4
HETATM    4  C8  UNL     1     -34.931   5.303   5.086  1.00 20.00     0.078 C 
HETATM    5  C2  UNL     1     -34.582   5.380   6.570  1.00 20.00     0.026 C 
HETATM    6 CL10 UNL     1     -33.919   4.040   4.325  1.00 20.00    -0.125 Cl
ENDBRANCH   3   4
ENDBRANCH   2   3
BRANCH   2   7
HETATM    7  C9  UNL     1     -32.507   7.693   3.463  1.00 20.00    -0.048 C 
HETATM    8  C3  UNL     1     -32.971   8.933   2.676  1.00 20.00     0.015 C 
HETATM    9  C4  UNL     1     -31.033   7.912   3.879  1.00 20.00     0.015 C 
HETATM   10  C5  UNL     1     -32.526   6.479   2.508  1.00 20.00     0.015 C 
ENDBRANCH   2   7
TORSDOF 3
ENDMDL
