MODEL 1
REMARK VINA RESULT:      -4.9      0.000      0.000
REMARK  4 active torsions:
REMARK  status: ('A' for Active; 'I' for Inactive)
REMARK    1  A    between atoms: C5_5  and  C8_8 
REMARK    2  A    between atoms: C6_6  and  C9_9 
REMARK    3  A    between atoms: C9_9  and  C10_10 
REMARK    4  A    between atoms: C10_10  and  O11_11 
ROOT
HETATM    1  C1  UNL     1     -32.927   8.315   4.904  1.00 20.00     0.005 C 
HETATM    2  C2  UNL     1     -33.463   5.993   4.071  1.00 20.00     0.005 C 
HETATM    3  C3  UNL     1     -32.619   8.757   3.475  1.00 20.00     0.005 C 
HETATM    4  C4  UNL     1     -33.155   6.434   2.642  1.00 20.00     0.005 C 
HETATM    5  C5  UNL     1     -33.942   7.165   4.936  1.00 20.00    -0.015 C 
HETATM    6  C6  UNL     1     -32.140   7.584   2.610  1.00 20.00    -0.013 C 
ENDROOT
BRANCH   6   7
HETATM    7  C9  UNL     1     -31.886   8.040   1.174  1.00 20.00     0.030 C 
BRANCH   7   8
HETATM    8  C10 UNL     1     -32.733   9.247   0.816  1.00 20.00     0.164 C 
BRANCH   8   9
HETATM    9  O11 UNL     1     -33.331   9.018  -0.453  1.00 20.00    -0.401 OA
HETATM   10  H31 UNL     1     -33.331   9.869  -0.919  1.00 20.00     0.209 HD
ENDBRANCH   8   9
ENDBRANCH   7   8
ENDBRANCH   6   7
BRANCH   5  11
HETATM   11  C8  UNL     1     -34.194   6.708   6.372  1.00 20.00     0.000 C 
HETATM   12  C7  UNL     1     -34.530   5.255   6.437  1.00 20.00     0.005 C 
ENDBRANCH   5  11
TORSDOF 4
ENDMDL
MODEL 2
REMARK VINA RESULT:      -4.8      2.268      4.800
REMARK  4 active torsions:
REMARK  status: ('A' for Active; 'I' for Inactive)
REMARK    1  A    between atoms: C5_5  and  C8_8 
REMARK    2  A    between atoms: C6_6  and  C9_9 
REMARK    3  A    between atoms: C9_9  and  C10_10 
REMARK    4  A    between atoms: C10_10  and  O11_11 
ROOT
HETATM    1  C1  UNL     1     -32.669   8.865   3.399  1.00 20.00     0.005 C 
HETATM    2  C2  UNL     1     -32.985   6.503   2.567  1.00 20.00     0.005 C 
HETATM    3  C3  UNL     1     -32.944   8.399   4.828  1.00 20.00     0.005 C 
HETATM    4  C4  UNL     1     -33.260   6.036   3.995  1.00 20.00     0.005 C 
HETATM    5  C5  UNL     1     -32.080   7.740   2.539  1.00 20.00    -0.015 C 
HETATM    6  C6  UNL     1     -33.849   7.161   4.855  1.00 20.00    -0.013 C 
ENDROOT
BRANCH   6   7
HETATM    7  C9  UNL     1     -34.069   6.684   6.290  1.00 20.00     0.030 C 
BRANCH   7   8
HETATM    8  C10 UNL     1     -34.312   5.187   6.348  1.00 20.00     0.164 C 
BRANCH   8   9
HETATM    9  O11 UNL     1     -35.367   4.866   5.452  1.00 20.00    -0.401 OA
HETATM   10  H31 UNL     1     -35.045   5.065   4.558  1.00 20.00     0.209 HD
ENDBRANCH   8   9
ENDBRANCH   7   8
ENDBRANCH   6   7
BRANCH   5  11
HETATM   11  C8  UNL     1     -31.862   8.216   1.104  1.00 20.00     0.000 C 
HETATM   12  C7  UNL     1     -32.757   9.361   0.761  1.00 20.00     0.005 C 
ENDBRANCH   5  11
TORSDOF 4
ENDMDL
MODEL 3
REMARK VINA RESULT:      -4.3     11.153     12.311
REMARK  4 active torsions:
REMARK  status: ('A' for Active; 'I' for Inactive)
REMARK    1  A    between atoms: C5_5  and  C8_8 
REMARK    2  A    between atoms: C6_6  and  C9_9 
REMARK    3  A    between atoms: C9_9  and  C10_10 
REMARK    4  A    between atoms: C10_10  and  O11_11 
ROOT
HETATM    1  C1  UNL     1     -33.299  16.964  -1.901  1.00 20.00     0.005 C 
HETATM    2  C2  UNL     1     -33.405  19.203  -3.061  1.00 20.00     0.005 C 
HETATM    3  C3  UNL     1     -33.543  16.260  -3.235  1.00 20.00     0.005 C 
HETATM    4  C4  UNL     1     -33.648  18.501  -4.396  1.00 20.00     0.005 C 
HETATM    5  C5  UNL     1     -32.609  18.320  -2.092  1.00 20.00    -0.015 C 
HETATM    6  C6  UNL     1     -34.338  17.144  -4.204  1.00 20.00    -0.013 C 
ENDROOT
BRANCH   6   7
HETATM    7  C9  UNL     1     -34.526  16.440  -5.547  1.00 20.00     0.030 C 
BRANCH   7   8
HETATM    8  C10 UNL     1     -34.033  15.005  -5.496  1.00 20.00     0.164 C 
BRANCH   8   9
HETATM    9  O11 UNL     1     -33.306  14.735  -6.687  1.00 20.00    -0.401 OA
HETATM   10  H31 UNL     1     -33.853  14.134  -7.218  1.00 20.00     0.209 HD
ENDBRANCH   8   9
ENDBRANCH   7   8
ENDBRANCH   6   7
BRANCH   5  11
HETATM   11  C8  UNL     1     -32.423  19.025  -0.749  1.00 20.00     0.000 C 
HETATM   12  C7  UNL     1     -31.193  18.557  -0.046  1.00 20.00     0.005 C 
ENDBRANCH   5  11
TORSDOF 4
ENDMDL
MODEL 4
REMARK VINA RESULT:      -4.2     10.835     11.910
REMARK  4 active torsions:
REMARK  status: ('A' for Active; 'I' for Inactive)
REMARK    1  A    between atoms: C5_5  and  C8_8 
REMARK    2  A    between atoms: C6_6  and  C9_9 
REMARK    3  A    between atoms: C9_9  and  C10_10 
REMARK    4  A    between atoms: C10_10  and  O11_11 
ROOT
HETATM    1  C1  UNL     1     -34.532  18.216  -3.976  1.00 20.00     0.005 C 
HETATM    2  C2  UNL     1     -33.022  16.544  -2.839  1.00 20.00     0.005 C 
HETATM    3  C3  UNL     1     -35.180  17.087  -4.777  1.00 20.00     0.005 C 
HETATM    4  C4  UNL     1     -33.669  15.414  -3.638  1.00 20.00     0.005 C 
HETATM    5  C5  UNL     1     -33.986  17.718  -2.632  1.00 20.00    -0.015 C 
HETATM    6  C6  UNL     1     -34.215  15.913  -4.982  1.00 20.00    -0.013 C 
ENDROOT
BRANCH   6   7
HETATM    7  C9  UNL     1     -34.900  14.777  -5.741  1.00 20.00     0.030 C 
BRANCH   7   8
HETATM    8  C10 UNL     1     -36.063  14.203  -4.952  1.00 20.00     0.164 C 
BRANCH   8   9
HETATM    9  O11 UNL     1     -35.710  12.898  -4.514  1.00 20.00    -0.401 OA
HETATM   10  H31 UNL     1     -34.765  12.785  -4.704  1.00 20.00     0.209 HD
ENDBRANCH   8   9
ENDBRANCH   7   8
ENDBRANCH   6   7
BRANCH   5  11
HETATM   11  C8  UNL     1     -33.299  18.853  -1.875  1.00 20.00     0.000 C 
HETATM   12  C7  UNL     1     -32.188  18.349  -1.015  1.00 20.00     0.005 C 
ENDBRANCH   5  11
TORSDOF 4
ENDMDL
MODEL 5
REMARK VINA RESULT:      -4.2     11.252     12.012
REMARK  4 active torsions:
REMARK  status: ('A' for Active; 'I' for Inactive)
REMARK    1  A    between atoms: C5_5  and  C8_8 
REMARK    2  A    between atoms: C6_6  and  C9_9 
REMARK    3  A    between atoms: C9_9  and  C10_10 
REMARK    4  A    between atoms: C10_10  and  O11_11 
ROOT
HETATM    1  C1  UNL     1     -34.683  18.763  -2.504  1.00 20.00     0.005 C 
HETATM    2  C2  UNL     1     -32.971  16.942  -2.155  1.00 20.00     0.005 C 
HETATM    3  C3  UNL     1     -35.198  18.041  -3.748  1.00 20.00     0.005 C 
HETATM    4  C4  UNL     1     -33.485  16.218  -3.398  1.00 20.00     0.005 C 
HETATM    5  C5  UNL     1     -34.067  17.786  -1.495  1.00 20.00    -0.015 C 
HETATM    6  C6  UNL     1     -34.101  17.196  -4.407  1.00 20.00    -0.013 C 
ENDROOT
BRANCH   6   7
HETATM    7  C9  UNL     1     -34.652  16.445  -5.618  1.00 20.00     0.030 C 
BRANCH   7   8
HETATM    8  C10 UNL     1     -34.244  14.984  -5.600  1.00 20.00     0.164 C 
BRANCH   8   9
HETATM    9  O11 UNL     1     -33.352  14.750  -6.681  1.00 20.00    -0.401 OA
HETATM   10  H31 UNL     1     -33.136  15.618  -7.058  1.00 20.00     0.209 HD
ENDBRANCH   8   9
ENDBRANCH   7   8
ENDBRANCH   6   7
BRANCH   5  11
HETATM   11  C8  UNL     1     -33.515  18.537  -0.285  1.00 20.00     0.000 C 
HETATM   12  C7  UNL     1     -32.022  18.515  -0.257  1.00 20.00     0.005 C 
ENDBRANCH   5  11
TORSDOF 4
ENDMDL
MODEL 6
REMARK VINA RESULT:      -4.1     11.097     12.106
REMARK  4 active torsions:
REMARK  status: ('A' for Active; 'I' for Inactive)
REMARK    1  A    between atoms: C5_5  and  C8_8 
REMARK    2  A    between atoms: C6_6  and  C9_9 
REMARK    3  A    between atoms: C9_9  and  C10_10 
REMARK    4  A    between atoms: C10_10  and  O11_11 
ROOT
HETATM    1  C1  UNL     1     -33.308  16.643  -2.385  1.00 20.00     0.005 C 
HETATM    2  C2  UNL     1     -34.900  18.180  -3.600  1.00 20.00     0.005 C 
HETATM    3  C3  UNL     1     -33.120  15.827  -3.662  1.00 20.00     0.005 C 
HETATM    4  C4  UNL     1     -34.713  17.365  -4.878  1.00 20.00     0.005 C 
HETATM    5  C5  UNL     1     -33.667  18.103  -2.692  1.00 20.00    -0.015 C 
HETATM    6  C6  UNL     1     -34.354  15.905  -4.571  1.00 20.00    -0.013 C 
ENDROOT
BRANCH   6   7
HETATM    7  C9  UNL     1     -34.123  15.123  -5.863  1.00 20.00     0.030 C 
BRANCH   7   8
HETATM    8  C10 UNL     1     -35.278  15.296  -6.832  1.00 20.00     0.164 C 
BRANCH   8   9
HETATM    9  O11 UNL     1     -35.950  14.050  -6.961  1.00 20.00    -0.401 OA
HETATM   10  H31 UNL     1     -36.566  13.986  -6.213  1.00 20.00     0.209 HD
ENDBRANCH   8   9
ENDBRANCH   7   8
ENDBRANCH   6   7
BRANCH   5  11
HETATM   11  C8  UNL     1     -33.899  18.884  -1.400  1.00 20.00     0.000 C 
HETATM   12  C7  UNL     1     -33.784  18.008  -0.197  1.00 20.00     0.005 C 
ENDBRANCH   5  11
TORSDOF 4
ENDMDL
MODEL 7
REMARK VINA RESULT:      -4.0     11.314     12.613
REMARK  4 active torsions:
REMARK  status: ('A' for Active; 'I' for Inactive)
REMARK    1  A    between atoms: C5_5  and  C8_8 
REMARK    2  A    between atoms: C6_6  and  C9_9 
REMARK    3  A    between atoms: C9_9  and  C10_10 
REMARK    4  A    between atoms: C10_10  and  O11_11 
ROOT
HETATM    1  C1  UNL     1     -33.443  16.072  -3.398  1.00 20.00     0.005 C 
HETATM    2  C2  UNL     1     -33.983  18.139  -4.743  1.00 20.00     0.005 C 
HETATM    3  C3  UNL     1     -33.283  16.929  -2.144  1.00 20.00     0.005 C 
HETATM    4  C4  UNL     1     -33.823  18.997  -3.489  1.00 20.00     0.005 C 
HETATM    5  C5  UNL     1     -34.415  16.708  -4.400  1.00 20.00    -0.015 C 
HETATM    6  C6  UNL     1     -32.852  18.360  -2.487  1.00 20.00    -0.013 C 
ENDROOT
BRANCH   6   7
HETATM    7  C9  UNL     1     -32.747  19.210  -1.222  1.00 20.00     0.030 C 
BRANCH   7   8
HETATM    8  C10 UNL     1     -31.945  18.507  -0.143  1.00 20.00     0.164 C 
BRANCH   8   9
HETATM    9  O11 UNL     1     -30.563  18.661  -0.436  1.00 20.00    -0.401 OA
HETATM   10  H31 UNL     1     -30.133  18.949   0.386  1.00 20.00     0.209 HD
ENDBRANCH   8   9
ENDBRANCH   7   8
ENDBRANCH   6   7
BRANCH   5  11
HETATM   11  C8  UNL     1     -34.518  15.859  -5.666  1.00 20.00     0.000 C 
HETATM   12  C7  UNL     1     -35.417  14.684  -5.470  1.00 20.00     0.005 C 
ENDBRANCH   5  11
TORSDOF 4
ENDMDL
MODEL 8
REMARK VINA RESULT:      -3.8     11.167     12.271
REMARK  4 active torsions:
REMARK  status: ('A' for Active; 'I' for Inactive)
REMARK    1  A    between atoms: C5_5  and  C8_8 
REMARK    2  A    between atoms: C6_6  and  C9_9 
REMARK    3  A    between atoms: C9_9  and  C10_10 
REMARK    4  A    between atoms: C10_10  and  O11_11 
ROOT
HETATM    1  C1  UNL     1     -35.179  17.143  -4.862  1.00 20.00     0.005 C 
HETATM    2  C2  UNL     1     -33.742  15.357  -3.807  1.00 20.00     0.005 C 
HETATM    3  C3  UNL     1     -34.409  18.217  -4.095  1.00 20.00     0.005 C 
HETATM    4  C4  UNL     1     -32.970  16.429  -3.040  1.00 20.00     0.005 C 
HETATM    5  C5  UNL     1     -34.317  15.901  -5.120  1.00 20.00    -0.015 C 
HETATM    6  C6  UNL     1     -33.833  17.671  -2.783  1.00 20.00    -0.013 C 
ENDROOT
BRANCH   6   7
HETATM    7  C9  UNL     1     -33.025  18.748  -2.059  1.00 20.00     0.030 C 
BRANCH   7   8
HETATM    8  C10 UNL     1     -32.259  18.172  -0.882  1.00 20.00     0.164 C 
BRANCH   8   9
HETATM    9  O11 UNL     1     -30.975  18.779  -0.839  1.00 20.00    -0.401 OA
HETATM   10  H31 UNL     1     -31.120  19.733  -0.734  1.00 20.00     0.209 HD
ENDBRANCH   8   9
ENDBRANCH   7   8
ENDBRANCH   6   7
BRANCH   5  11
HETATM   11  C8  UNL     1     -35.126  14.824  -5.842  1.00 20.00     0.000 C 
HETATM   12  C7  UNL     1     -36.014  14.078  -4.902  1.00 20.00     0.005 C 
ENDBRANCH   5  11
TORSDOF 4
ENDMDL
MODEL 9
REMARK VINA RESULT:      -3.6     10.508     11.442
REMARK  4 active torsions:
REMARK  status: ('A' for Active; 'I' for Inactive)
REMARK    1  A    between atoms: C5_5  and  C8_8 
REMARK    2  A    between atoms: C6_6  and  C9_9 
REMARK    3  A    between atoms: C9_9  and  C10_10 
REMARK    4  A    between atoms: C10_10  and  O11_11 
ROOT
HETATM    1  C1  UNL     1     -42.149  15.538   5.937  1.00 20.00     0.005 C 
HETATM    2  C2  UNL     1     -40.535  15.446   7.876  1.00 20.00     0.005 C 
HETATM    3  C3  UNL     1     -41.929  14.048   5.683  1.00 20.00     0.005 C 
HETATM    4  C4  UNL     1     -40.315  13.956   7.623  1.00 20.00     0.005 C 
HETATM    5  C5  UNL     1     -41.923  15.901   7.410  1.00 20.00    -0.015 C 
HETATM    6  C6  UNL     1     -40.541  13.593   6.150  1.00 20.00    -0.013 C 
ENDROOT
BRANCH   6   7
HETATM    7  C9  UNL     1     -40.363  12.091   5.931  1.00 20.00     0.030 C 
BRANCH   7   8
HETATM    8  C10 UNL     1     -39.207  11.798   4.993  1.00 20.00     0.164 C 
BRANCH   8   9
HETATM    9  O11 UNL     1     -38.015  12.315   5.570  1.00 20.00    -0.401 OA
HETATM   10  H31 UNL     1     -38.246  12.620   6.462  1.00 20.00     0.209 HD
ENDBRANCH   8   9
ENDBRANCH   7   8
ENDBRANCH   6   7
BRANCH   5  11
HETATM   11  C8  UNL     1     -42.099  17.403   7.628  1.00 20.00     0.000 C 
HETATM   12  C7  UNL     1     -40.786  18.112   7.668  1.00 20.00     0.005 C 
ENDBRANCH   5  11
TORSDOF 4
ENDMDL
