MODEL 1
REMARK VINA RESULT:      -4.6      0.000      0.000
REMARK  2 active torsions:
REMARK  status: ('A' for Active; 'I' for Inactive)
REMARK    1  A    between atoms: C1_1  and  C5_5 
REMARK    2  A    between atoms: C1_1  and  C11_11 
ROOT
HETATM    1  C2  UNL     1     -33.980  18.797  -2.924  1.00 20.00     0.012 C 
HETATM    2  C3  UNL     1     -34.231  18.503  -4.399  1.00 20.00     0.005 C 
HETATM    3  C4  UNL     1     -33.351  16.384  -2.551  1.00 20.00     0.016 C 
HETATM    4  C5  UNL     1     -32.945  17.841  -2.337  1.00 20.00     0.056 C 
HETATM    5  C6  UNL     1     -34.649  17.041  -4.634  1.00 20.00    -0.015 C 
HETATM    6  C7  UNL     1     -33.602  16.069  -4.036  1.00 20.00    -0.014 C 
HETATM    7  C8  UNL     1     -34.874  16.813  -6.131  1.00 20.00     0.010 C 
HETATM    8  C9  UNL     1     -34.014  14.602  -4.180  1.00 20.00     0.010 C 
ENDROOT
BRANCH   4   9
HETATM    9  C1  UNL     1     -32.787  18.101  -0.871  1.00 20.00     0.130 C 
HETATM   10  O12 UNL     1     -33.717  17.909  -0.089  1.00 20.00    -0.298 OA
BRANCH   9  11
HETATM   11  C11 UNL     1     -31.427  18.609  -0.424  1.00 20.00     0.074 C 
HETATM   12  C10 UNL     1     -31.213  18.468   1.072  1.00 20.00     0.013 C 
ENDBRANCH   9  11
ENDBRANCH   4   9
TORSDOF 2
ENDMDL
MODEL 2
REMARK VINA RESULT:      -4.3      1.833      5.436
REMARK  2 active torsions:
REMARK  status: ('A' for Active; 'I' for Inactive)
REMARK    1  A    between atoms: C1_1  and  C5_5 
REMARK    2  A    between atoms: C1_1  and  C11_11 
ROOT
HETATM    1  C2  UNL     1     -31.469  18.121  -0.925  1.00 20.00     0.012 C 
HETATM    2  C3  UNL     1     -31.092  18.744   0.415  1.00 20.00     0.005 C 
HETATM    3  C4  UNL     1     -33.903  18.576  -0.452  1.00 20.00     0.016 C 
HETATM    4  C5  UNL     1     -32.768  18.712  -1.465  1.00 20.00     0.056 C 
HETATM    5  C6  UNL     1     -32.221  18.609   1.452  1.00 20.00    -0.015 C 
HETATM    6  C7  UNL     1     -33.542  19.205   0.905  1.00 20.00    -0.014 C 
HETATM    7  C8  UNL     1     -31.782  19.263   2.765  1.00 20.00     0.010 C 
HETATM    8  C9  UNL     1     -34.712  19.026   1.874  1.00 20.00     0.010 C 
ENDROOT
BRANCH   4   9
HETATM    9  C1  UNL     1     -33.152  18.019  -2.736  1.00 20.00     0.130 C 
HETATM   10  O12 UNL     1     -33.223  18.635  -3.799  1.00 20.00    -0.298 OA
BRANCH   9  11
HETATM   11  C11 UNL     1     -33.444  16.533  -2.625  1.00 20.00     0.074 C 
HETATM   12  C10 UNL     1     -33.403  15.827  -3.968  1.00 20.00     0.013 C 
ENDBRANCH   9  11
ENDBRANCH   4   9
TORSDOF 2
ENDMDL
MODEL 3
REMARK VINA RESULT:      -4.3      1.410      2.485
REMARK  2 active torsions:
REMARK  status: ('A' for Active; 'I' for Inactive)
REMARK    1  A    between atoms: C1_1  and  C5_5 
REMARK    2  A    between atoms: C1_1  and  C11_11 
ROOT
HETATM    1  C2  UNL     1     -33.049  16.143  -3.349  1.00 20.00     0.012 C 
HETATM    2  C3  UNL     1     -33.944  15.166  -4.106  1.00 20.00     0.005 C 
HETATM    3  C4  UNL     1     -34.501  18.060  -4.106  1.00 20.00     0.016 C 
HETATM    4  C5  UNL     1     -33.825  17.383  -2.914  1.00 20.00     0.056 C 
HETATM    5  C6  UNL     1     -34.627  15.829  -5.315  1.00 20.00    -0.015 C 
HETATM    6  C7  UNL     1     -35.413  17.090  -4.878  1.00 20.00    -0.014 C 
HETATM    7  C8  UNL     1     -35.515  14.800  -6.020  1.00 20.00     0.010 C 
HETATM    8  C9  UNL     1     -36.049  17.825  -6.060  1.00 20.00     0.010 C 
ENDROOT
BRANCH   4   9
HETATM    9  C1  UNL     1     -32.899  18.356  -2.252  1.00 20.00     0.130 C 
HETATM   10  O12 UNL     1     -32.360  19.256  -2.893  1.00 20.00    -0.298 OA
BRANCH   9  11
HETATM   11  C11 UNL     1     -32.676  18.158  -0.763  1.00 20.00     0.074 C 
HETATM   12  C10 UNL     1     -31.269  18.526  -0.329  1.00 20.00     0.013 C 
ENDBRANCH   9  11
ENDBRANCH   4   9
TORSDOF 2
ENDMDL
MODEL 4
REMARK VINA RESULT:      -4.2     12.552     13.842
REMARK  2 active torsions:
REMARK  status: ('A' for Active; 'I' for Inactive)
REMARK    1  A    between atoms: C1_1  and  C5_5 
REMARK    2  A    between atoms: C1_1  and  C11_11 
ROOT
HETATM    1  C2  UNL     1     -42.558  12.855   6.724  1.00 20.00     0.012 C 
HETATM    2  C3  UNL     1     -43.102  13.088   8.130  1.00 20.00     0.005 C 
HETATM    3  C4  UNL     1     -40.474  14.145   7.315  1.00 20.00     0.016 C 
HETATM    4  C5  UNL     1     -41.032  12.856   6.713  1.00 20.00     0.056 C 
HETATM    5  C6  UNL     1     -42.556  14.386   8.751  1.00 20.00    -0.015 C 
HETATM    6  C7  UNL     1     -41.008  14.392   8.737  1.00 20.00    -0.014 C 
HETATM    7  C8  UNL     1     -43.131  14.553  10.160  1.00 20.00     0.010 C 
HETATM    8  C9  UNL     1     -40.421  15.699   9.278  1.00 20.00     0.010 C 
ENDROOT
BRANCH   4   9
HETATM    9  C1  UNL     1     -40.534  12.711   5.307  1.00 20.00     0.130 C 
HETATM   10  O12 UNL     1     -41.021  13.371   4.391  1.00 20.00    -0.298 OA
BRANCH   9  11
HETATM   11  C11 UNL     1     -39.411  11.711   5.096  1.00 20.00     0.074 C 
HETATM   12  C10 UNL     1     -38.928  11.670   3.658  1.00 20.00     0.013 C 
ENDBRANCH   9  11
ENDBRANCH   4   9
TORSDOF 2
ENDMDL
MODEL 5
REMARK VINA RESULT:      -4.1     11.043     12.694
REMARK  2 active torsions:
REMARK  status: ('A' for Active; 'I' for Inactive)
REMARK    1  A    between atoms: C1_1  and  C5_5 
REMARK    2  A    between atoms: C1_1  and  C11_11 
ROOT
HETATM    1  C2  UNL     1     -33.323   5.922   2.703  1.00 20.00     0.012 C 
HETATM    2  C3  UNL     1     -33.666   5.105   3.945  1.00 20.00     0.005 C 
HETATM    3  C4  UNL     1     -33.058   7.983   4.132  1.00 20.00     0.016 C 
HETATM    4  C5  UNL     1     -32.426   7.108   3.050  1.00 20.00     0.056 C 
HETATM    5  C6  UNL     1     -34.310   5.969   5.044  1.00 20.00    -0.015 C 
HETATM    6  C7  UNL     1     -33.404   7.175   5.395  1.00 20.00    -0.014 C 
HETATM    7  C8  UNL     1     -34.617   5.092   6.261  1.00 20.00     0.010 C 
HETATM    8  C9  UNL     1     -34.040   8.104   6.432  1.00 20.00     0.010 C 
ENDROOT
BRANCH   4   9
HETATM    9  C1  UNL     1     -32.181   7.934   1.825  1.00 20.00     0.130 C 
HETATM   10  O12 UNL     1     -31.521   7.494   0.885  1.00 20.00    -0.298 OA
BRANCH   9  11
HETATM   11  C11 UNL     1     -32.789   9.325   1.824  1.00 20.00     0.074 C 
HETATM   12  C10 UNL     1     -33.031   9.857   0.424  1.00 20.00     0.013 C 
ENDBRANCH   9  11
ENDBRANCH   4   9
TORSDOF 2
ENDMDL
MODEL 6
REMARK VINA RESULT:      -4.1     11.366     12.839
REMARK  2 active torsions:
REMARK  status: ('A' for Active; 'I' for Inactive)
REMARK    1  A    between atoms: C1_1  and  C5_5 
REMARK    2  A    between atoms: C1_1  and  C11_11 
ROOT
HETATM    1  C2  UNL     1     -33.291   8.260   5.407  1.00 20.00     0.012 C 
HETATM    2  C3  UNL     1     -34.178   7.368   6.270  1.00 20.00     0.005 C 
HETATM    3  C4  UNL     1     -33.308   6.517   3.586  1.00 20.00     0.016 C 
HETATM    4  C5  UNL     1     -33.514   7.994   3.922  1.00 20.00     0.056 C 
HETATM    5  C6  UNL     1     -33.978   5.876   5.951  1.00 20.00    -0.015 C 
HETATM    6  C7  UNL     1     -34.201   5.603   4.443  1.00 20.00    -0.014 C 
HETATM    7  C8  UNL     1     -34.903   5.040   6.841  1.00 20.00     0.010 C 
HETATM    8  C9  UNL     1     -33.939   4.142   4.067  1.00 20.00     0.010 C 
ENDROOT
BRANCH   4   9
HETATM    9  C1  UNL     1     -32.569   8.823   3.108  1.00 20.00     0.130 C 
HETATM   10  O12 UNL     1     -32.179   9.918   3.511  1.00 20.00    -0.298 OA
BRANCH   9  11
HETATM   11  C11 UNL     1     -32.134   8.232   1.779  1.00 20.00     0.074 C 
HETATM   12  C10 UNL     1     -32.574   9.071   0.594  1.00 20.00     0.013 C 
ENDBRANCH   9  11
ENDBRANCH   4   9
TORSDOF 2
ENDMDL
MODEL 7
REMARK VINA RESULT:      -4.1     12.005     13.346
REMARK  2 active torsions:
REMARK  status: ('A' for Active; 'I' for Inactive)
REMARK    1  A    between atoms: C1_1  and  C5_5 
REMARK    2  A    between atoms: C1_1  and  C11_11 
ROOT
HETATM    1  C2  UNL     1     -40.328  14.229   8.417  1.00 20.00     0.012 C 
HETATM    2  C3  UNL     1     -40.301  15.688   8.862  1.00 20.00     0.005 C 
HETATM    3  C4  UNL     1     -41.692  14.870   6.396  1.00 20.00     0.016 C 
HETATM    4  C5  UNL     1     -40.464  14.114   6.902  1.00 20.00     0.056 C 
HETATM    5  C6  UNL     1     -41.534  16.465   8.368  1.00 20.00    -0.015 C 
HETATM    6  C7  UNL     1     -41.677  16.346   6.830  1.00 20.00    -0.014 C 
HETATM    7  C8  UNL     1     -41.438  17.919   8.837  1.00 20.00     0.010 C 
HETATM    8  C9  UNL     1     -42.934  17.042   6.303  1.00 20.00     0.010 C 
ENDROOT
BRANCH   4   9
HETATM    9  C1  UNL     1     -40.575  12.672   6.510  1.00 20.00     0.130 C 
HETATM   10  O12 UNL     1     -41.646  12.074   6.589  1.00 20.00    -0.298 OA
BRANCH   9  11
HETATM   11  C11 UNL     1     -39.298  12.013   6.020  1.00 20.00     0.074 C 
HETATM   12  C10 UNL     1     -39.304  11.768   4.523  1.00 20.00     0.013 C 
ENDBRANCH   9  11
ENDBRANCH   4   9
TORSDOF 2
ENDMDL
MODEL 8
REMARK VINA RESULT:      -4.1     11.674     12.788
REMARK  2 active torsions:
REMARK  status: ('A' for Active; 'I' for Inactive)
REMARK    1  A    between atoms: C1_1  and  C5_5 
REMARK    2  A    between atoms: C1_1  and  C11_11 
ROOT
HETATM    1  C2  UNL     1     -41.798  13.973   5.286  1.00 20.00     0.012 C 
HETATM    2  C3  UNL     1     -42.830  15.060   5.572  1.00 20.00     0.005 C 
HETATM    3  C4  UNL     1     -40.434  14.748   7.261  1.00 20.00     0.016 C 
HETATM    4  C5  UNL     1     -41.072  13.549   6.560  1.00 20.00     0.056 C 
HETATM    5  C6  UNL     1     -42.204  16.279   6.271  1.00 20.00    -0.015 C 
HETATM    6  C7  UNL     1     -41.464  15.851   7.563  1.00 20.00    -0.014 C 
HETATM    7  C8  UNL     1     -43.293  17.323   6.538  1.00 20.00     0.010 C 
HETATM    8  C9  UNL     1     -40.762  17.024   8.252  1.00 20.00     0.010 C 
ENDROOT
BRANCH   4   9
HETATM    9  C1  UNL     1     -40.010  12.546   6.230  1.00 20.00     0.130 C 
HETATM   10  O12 UNL     1     -39.260  12.107   7.100  1.00 20.00    -0.298 OA
BRANCH   9  11
HETATM   11  C11 UNL     1     -39.923  12.119   4.776  1.00 20.00     0.074 C 
HETATM   12  C10 UNL     1     -38.532  11.651   4.386  1.00 20.00     0.013 C 
ENDBRANCH   9  11
ENDBRANCH   4   9
TORSDOF 2
ENDMDL
MODEL 9
REMARK VINA RESULT:      -4.0      2.433      5.542
REMARK  2 active torsions:
REMARK  status: ('A' for Active; 'I' for Inactive)
REMARK    1  A    between atoms: C1_1  and  C5_5 
REMARK    2  A    between atoms: C1_1  and  C11_11 
ROOT
HETATM    1  C2  UNL     1     -33.858  15.094  -4.182  1.00 20.00     0.012 C 
HETATM    2  C3  UNL     1     -32.983  15.910  -3.236  1.00 20.00     0.005 C 
HETATM    3  C4  UNL     1     -35.382  17.080  -4.486  1.00 20.00     0.016 C 
HETATM    4  C5  UNL     1     -34.572  15.991  -5.189  1.00 20.00     0.056 C 
HETATM    5  C6  UNL     1     -33.784  17.007  -2.512  1.00 20.00    -0.015 C 
HETATM    6  C7  UNL     1     -34.513  17.917  -3.532  1.00 20.00    -0.014 C 
HETATM    7  C8  UNL     1     -32.847  17.793  -1.590  1.00 20.00     0.010 C 
HETATM    8  C9  UNL     1     -35.383  18.979  -2.854  1.00 20.00     0.010 C 
ENDROOT
BRANCH   4   9
HETATM    9  C1  UNL     1     -35.486  15.168  -6.044  1.00 20.00     0.130 C 
HETATM   10  O12 UNL     1     -36.247  14.341  -5.546  1.00 20.00    -0.298 OA
BRANCH   9  11
HETATM   11  C11 UNL     1     -35.409  15.420  -7.540  1.00 20.00     0.074 C 
HETATM   12  C10 UNL     1     -34.278  16.359  -7.917  1.00 20.00     0.013 C 
ENDBRANCH   9  11
ENDBRANCH   4   9
TORSDOF 2
ENDMDL
