MODEL 1
REMARK VINA RESULT:      -4.3      0.000      0.000
REMARK  4 active torsions:
REMARK  status: ('A' for Active; 'I' for Inactive)
REMARK    1  A    between atoms: C5_5  and  C6_6 
REMARK    2  A    between atoms: C6_6  and  C8_8 
REMARK    3  A    between atoms: C7_7  and  C8_8 
REMARK    4  A    between atoms: C7_7  and  C9_9 
ROOT
HETATM    1  C1  UNL     1     -34.803   4.814   4.924  1.00 20.00     0.012 C 
HETATM    2  C2  UNL     1     -34.517   5.751   5.618  1.00 20.00    -0.117 C 
HETATM    3  C5  UNL     1     -34.167   6.895   6.471  1.00 20.00     0.093 C 
ENDROOT
BRANCH   3   4
HETATM    4  C6  UNL     1     -33.969   8.185   5.669  1.00 20.00     0.016 C 
BRANCH   4   5
HETATM    5  C8  UNL     1     -32.676   8.259   4.820  1.00 20.00    -0.016 C 
HETATM    6  C3  UNL     1     -31.872   9.490   5.257  1.00 20.00     0.010 C 
BRANCH   5   7
HETATM    7  C7  UNL     1     -32.992   8.287   3.306  1.00 20.00     0.024 C 
BRANCH   7   8
HETATM    8  C9  UNL     1     -32.101   7.410   2.411  1.00 20.00     0.078 C 
HETATM    9  C4  UNL     1     -32.066   7.947   0.984  1.00 20.00     0.026 C 
HETATM   10 CL10 UNL     1     -32.691   5.722   2.377  1.00 20.00    -0.125 Cl
ENDBRANCH   7   8
ENDBRANCH   5   7
ENDBRANCH   4   5
ENDBRANCH   3   4
TORSDOF 4
ENDMDL
MODEL 2
REMARK VINA RESULT:      -4.3      1.699      4.150
REMARK  4 active torsions:
REMARK  status: ('A' for Active; 'I' for Inactive)
REMARK    1  A    between atoms: C5_5  and  C6_6 
REMARK    2  A    between atoms: C6_6  and  C8_8 
REMARK    3  A    between atoms: C7_7  and  C8_8 
REMARK    4  A    between atoms: C7_7  and  C9_9 
ROOT
HETATM    1  C1  UNL     1     -32.659   9.530   0.761  1.00 20.00     0.012 C 
HETATM    2  C2  UNL     1     -32.514   8.472   1.309  1.00 20.00    -0.117 C 
HETATM    3  C5  UNL     1     -32.339   7.175   1.977  1.00 20.00     0.093 C 
ENDROOT
BRANCH   3   4
HETATM    4  C6  UNL     1     -32.112   7.318   3.484  1.00 20.00     0.016 C 
BRANCH   4   5
HETATM    5  C8  UNL     1     -32.991   8.370   4.203  1.00 20.00    -0.016 C 
HETATM    6  C3  UNL     1     -32.074   9.359   4.934  1.00 20.00     0.010 C 
BRANCH   5   7
HETATM    7  C7  UNL     1     -34.003   7.705   5.165  1.00 20.00     0.024 C 
BRANCH   7   8
HETATM    8  C9  UNL     1     -34.193   6.188   5.007  1.00 20.00     0.078 C 
HETATM    9  C4  UNL     1     -35.515   5.875   4.313  1.00 20.00     0.026 C 
HETATM   10 CL10 UNL     1     -34.169   5.368   6.597  1.00 20.00    -0.125 Cl
ENDBRANCH   7   8
ENDBRANCH   5   7
ENDBRANCH   4   5
ENDBRANCH   3   4
TORSDOF 4
ENDMDL
MODEL 3
REMARK VINA RESULT:      -4.2      1.567      3.644
REMARK  4 active torsions:
REMARK  status: ('A' for Active; 'I' for Inactive)
REMARK    1  A    between atoms: C5_5  and  C6_6 
REMARK    2  A    between atoms: C6_6  and  C8_8 
REMARK    3  A    between atoms: C7_7  and  C8_8 
REMARK    4  A    between atoms: C7_7  and  C9_9 
ROOT
HETATM    1  C1  UNL     1     -32.841   5.163   2.467  1.00 20.00     0.012 C 
HETATM    2  C2  UNL     1     -32.581   6.307   2.720  1.00 20.00    -0.117 C 
HETATM    3  C5  UNL     1     -32.262   7.708   3.025  1.00 20.00     0.093 C 
ENDROOT
BRANCH   3   4
HETATM    4  C6  UNL     1     -32.265   7.997   4.529  1.00 20.00     0.016 C 
BRANCH   4   5
HETATM    5  C8  UNL     1     -33.647   7.936   5.225  1.00 20.00    -0.016 C 
HETATM    6  C3  UNL     1     -33.897   9.271   5.937  1.00 20.00     0.010 C 
BRANCH   5   7
HETATM    7  C7  UNL     1     -33.741   6.739   6.199  1.00 20.00     0.024 C 
BRANCH   7   8
HETATM    8  C9  UNL     1     -34.749   5.639   5.827  1.00 20.00     0.078 C 
HETATM    9  C4  UNL     1     -34.034   4.327   5.522  1.00 20.00     0.026 C 
HETATM   10 CL10 UNL     1     -35.717   6.113   4.400  1.00 20.00    -0.125 Cl
ENDBRANCH   7   8
ENDBRANCH   5   7
ENDBRANCH   4   5
ENDBRANCH   3   4
TORSDOF 4
ENDMDL
MODEL 4
REMARK VINA RESULT:      -4.2      1.900      4.569
REMARK  4 active torsions:
REMARK  status: ('A' for Active; 'I' for Inactive)
REMARK    1  A    between atoms: C5_5  and  C6_6 
REMARK    2  A    between atoms: C6_6  and  C8_8 
REMARK    3  A    between atoms: C7_7  and  C8_8 
REMARK    4  A    between atoms: C7_7  and  C9_9 
ROOT
HETATM    1  C1  UNL     1     -32.743   9.397   0.444  1.00 20.00     0.012 C 
HETATM    2  C2  UNL     1     -32.743   9.118   1.611  1.00 20.00    -0.117 C 
HETATM    3  C5  UNL     1     -32.745   8.781   3.041  1.00 20.00     0.093 C 
ENDROOT
BRANCH   3   4
HETATM    4  C6  UNL     1     -32.013   7.469   3.335  1.00 20.00     0.016 C 
BRANCH   4   5
HETATM    5  C8  UNL     1     -32.913   6.252   3.663  1.00 20.00    -0.016 C 
HETATM    6  C3  UNL     1     -32.953   5.327   2.441  1.00 20.00     0.010 C 
BRANCH   5   7
HETATM    7  C7  UNL     1     -34.330   6.694   4.096  1.00 20.00     0.024 C 
BRANCH   7   8
HETATM    8  C9  UNL     1     -34.703   6.433   5.565  1.00 20.00     0.078 C 
HETATM    9  C4  UNL     1     -33.884   7.316   6.500  1.00 20.00     0.026 C 
HETATM   10 CL10 UNL     1     -34.428   4.720   6.002  1.00 20.00    -0.125 Cl
ENDBRANCH   7   8
ENDBRANCH   5   7
ENDBRANCH   4   5
ENDBRANCH   3   4
TORSDOF 4
ENDMDL
MODEL 5
REMARK VINA RESULT:      -4.0      1.900      3.155
REMARK  4 active torsions:
REMARK  status: ('A' for Active; 'I' for Inactive)
REMARK    1  A    between atoms: C5_5  and  C6_6 
REMARK    2  A    between atoms: C6_6  and  C8_8 
REMARK    3  A    between atoms: C7_7  and  C8_8 
REMARK    4  A    between atoms: C7_7  and  C9_9 
ROOT
HETATM    1  C1  UNL     1     -34.268   7.091   6.790  1.00 20.00     0.012 C 
HETATM    2  C2  UNL     1     -34.556   6.223   6.013  1.00 20.00    -0.117 C 
HETATM    3  C5  UNL     1     -34.913   5.160   5.063  1.00 20.00     0.093 C 
ENDROOT
BRANCH   3   4
HETATM    4  C6  UNL     1     -33.736   4.749   4.174  1.00 20.00     0.016 C 
BRANCH   4   5
HETATM    5  C8  UNL     1     -33.415   5.702   2.996  1.00 20.00    -0.016 C 
HETATM    6  C3  UNL     1     -32.929   4.866   1.806  1.00 20.00     0.010 C 
BRANCH   5   7
HETATM    7  C7  UNL     1     -32.383   6.780   3.402  1.00 20.00     0.024 C 
BRANCH   7   8
HETATM    8  C9  UNL     1     -32.904   8.224   3.480  1.00 20.00     0.078 C 
HETATM    9  C4  UNL     1     -32.618   8.976   2.184  1.00 20.00     0.026 C 
HETATM   10 CL10 UNL     1     -32.146   9.108   4.838  1.00 20.00    -0.125 Cl
ENDBRANCH   7   8
ENDBRANCH   5   7
ENDBRANCH   4   5
ENDBRANCH   3   4
TORSDOF 4
ENDMDL
MODEL 6
REMARK VINA RESULT:      -4.0      1.666      3.065
REMARK  4 active torsions:
REMARK  status: ('A' for Active; 'I' for Inactive)
REMARK    1  A    between atoms: C5_5  and  C6_6 
REMARK    2  A    between atoms: C6_6  and  C8_8 
REMARK    3  A    between atoms: C7_7  and  C8_8 
REMARK    4  A    between atoms: C7_7  and  C9_9 
ROOT
HETATM    1  C1  UNL     1     -32.862   5.082   2.138  1.00 20.00     0.012 C 
HETATM    2  C2  UNL     1     -33.444   4.765   3.139  1.00 20.00    -0.117 C 
HETATM    3  C5  UNL     1     -34.156   4.372   4.363  1.00 20.00     0.093 C 
ENDROOT
BRANCH   3   4
HETATM    4  C6  UNL     1     -34.864   5.553   5.034  1.00 20.00     0.016 C 
BRANCH   4   5
HETATM    5  C8  UNL     1     -33.940   6.651   5.616  1.00 20.00    -0.016 C 
HETATM    6  C3  UNL     1     -34.405   6.979   7.040  1.00 20.00     0.010 C 
BRANCH   5   7
HETATM    7  C7  UNL     1     -33.914   7.908   4.715  1.00 20.00     0.024 C 
BRANCH   7   8
HETATM    8  C9  UNL     1     -32.547   8.291   4.124  1.00 20.00     0.078 C 
HETATM    9  C4  UNL     1     -31.892   9.399   4.941  1.00 20.00     0.026 C 
HETATM   10 CL10 UNL     1     -32.713   8.845   2.431  1.00 20.00    -0.125 Cl
ENDBRANCH   7   8
ENDBRANCH   5   7
ENDBRANCH   4   5
ENDBRANCH   3   4
TORSDOF 4
ENDMDL
MODEL 7
REMARK VINA RESULT:      -3.9     11.586     12.451
REMARK  4 active torsions:
REMARK  status: ('A' for Active; 'I' for Inactive)
REMARK    1  A    between atoms: C5_5  and  C6_6 
REMARK    2  A    between atoms: C6_6  and  C8_8 
REMARK    3  A    between atoms: C7_7  and  C8_8 
REMARK    4  A    between atoms: C7_7  and  C9_9 
ROOT
HETATM    1  C1  UNL     1     -31.241  18.571  -0.275  1.00 20.00     0.012 C 
HETATM    2  C2  UNL     1     -32.305  18.282  -0.751  1.00 20.00    -0.117 C 
HETATM    3  C5  UNL     1     -33.609  17.933  -1.331  1.00 20.00     0.093 C 
ENDROOT
BRANCH   3   4
HETATM    4  C6  UNL     1     -33.600  16.559  -2.008  1.00 20.00     0.016 C 
BRANCH   4   5
HETATM    5  C8  UNL     1     -33.234  16.550  -3.512  1.00 20.00    -0.016 C 
HETATM    6  C3  UNL     1     -33.865  17.779  -4.178  1.00 20.00     0.010 C 
BRANCH   5   7
HETATM    7  C7  UNL     1     -33.676  15.235  -4.197  1.00 20.00     0.024 C 
BRANCH   7   8
HETATM    8  C9  UNL     1     -34.674  15.377  -5.358  1.00 20.00     0.078 C 
HETATM    9  C4  UNL     1     -35.794  14.348  -5.242  1.00 20.00     0.026 C 
HETATM   10 CL10 UNL     1     -33.857  15.164  -6.935  1.00 20.00    -0.125 Cl
ENDBRANCH   7   8
ENDBRANCH   5   7
ENDBRANCH   4   5
ENDBRANCH   3   4
TORSDOF 4
ENDMDL
MODEL 8
REMARK VINA RESULT:      -3.9     11.287     12.415
REMARK  4 active torsions:
REMARK  status: ('A' for Active; 'I' for Inactive)
REMARK    1  A    between atoms: C5_5  and  C6_6 
REMARK    2  A    between atoms: C6_6  and  C8_8 
REMARK    3  A    between atoms: C7_7  and  C8_8 
REMARK    4  A    between atoms: C7_7  and  C9_9 
ROOT
HETATM    1  C1  UNL     1     -34.306  14.322  -4.166  1.00 20.00     0.012 C 
HETATM    2  C2  UNL     1     -33.833  15.385  -3.873  1.00 20.00    -0.117 C 
HETATM    3  C5  UNL     1     -33.251  16.687  -3.520  1.00 20.00     0.093 C 
ENDROOT
BRANCH   3   4
HETATM    4  C6  UNL     1     -33.316  16.969  -2.016  1.00 20.00     0.016 C 
BRANCH   4   5
HETATM    5  C8  UNL     1     -32.923  18.402  -1.580  1.00 20.00    -0.016 C 
HETATM    6  C3  UNL     1     -32.735  19.263  -2.836  1.00 20.00     0.010 C 
BRANCH   5   7
HETATM    7  C7  UNL     1     -31.657  18.399  -0.691  1.00 20.00     0.024 C 
BRANCH   7   8
HETATM    8  C9  UNL     1     -31.807  19.029   0.704  1.00 20.00     0.078 C 
HETATM    9  C4  UNL     1     -30.993  18.259   1.739  1.00 20.00     0.026 C 
HETATM   10 CL10 UNL     1     -33.520  19.050   1.218  1.00 20.00    -0.125 Cl
ENDBRANCH   7   8
ENDBRANCH   5   7
ENDBRANCH   4   5
ENDBRANCH   3   4
TORSDOF 4
ENDMDL
MODEL 9
REMARK VINA RESULT:      -3.8     11.592     12.285
REMARK  4 active torsions:
REMARK  status: ('A' for Active; 'I' for Inactive)
REMARK    1  A    between atoms: C5_5  and  C6_6 
REMARK    2  A    between atoms: C6_6  and  C8_8 
REMARK    3  A    between atoms: C7_7  and  C8_8 
REMARK    4  A    between atoms: C7_7  and  C9_9 
ROOT
HETATM    1  C1  UNL     1     -29.031  19.060   3.220  1.00 20.00     0.012 C 
HETATM    2  C2  UNL     1     -29.975  18.657   2.597  1.00 20.00    -0.117 C 
HETATM    3  C5  UNL     1     -31.131  18.161   1.838  1.00 20.00     0.093 C 
ENDROOT
BRANCH   3   4
HETATM    4  C6  UNL     1     -31.063  18.535   0.355  1.00 20.00     0.016 C 
BRANCH   4   5
HETATM    5  C8  UNL     1     -32.409  18.919  -0.308  1.00 20.00    -0.016 C 
HETATM    6  C3  UNL     1     -33.554  18.428   0.587  1.00 20.00     0.010 C 
BRANCH   5   7
HETATM    7  C7  UNL     1     -32.518  18.353  -1.743  1.00 20.00     0.024 C 
BRANCH   7   8
HETATM    8  C9  UNL     1     -33.716  17.430  -2.019  1.00 20.00     0.078 C 
HETATM    9  C4  UNL     1     -33.328  16.304  -2.972  1.00 20.00     0.026 C 
HETATM   10 CL10 UNL     1     -35.079  18.343  -2.732  1.00 20.00    -0.125 Cl
ENDBRANCH   7   8
ENDBRANCH   5   7
ENDBRANCH   4   5
ENDBRANCH   3   4
TORSDOF 4
ENDMDL
