MODEL 1
REMARK VINA RESULT:      -5.1      0.000      0.000
REMARK  2 active torsions:
REMARK  status: ('A' for Active; 'I' for Inactive)
REMARK    1  A    between atoms: C5_5  and  C7_7 
REMARK    2  A    between atoms: C6_6  and  S11_11 
ROOT
HETATM    1  C1  UNL     1     -32.910   8.620   5.481  1.00 20.00     0.002 C 
HETATM    2  C2  UNL     1     -33.302   7.182   5.832  1.00 20.00     0.013 C 
HETATM    3  C3  UNL     1     -32.753   8.867   3.977  1.00 20.00     0.015 C 
HETATM    4  C4  UNL     1     -33.338   6.467   3.400  1.00 20.00     0.028 C 
HETATM    5  C5  UNL     1     -34.130   6.533   4.722  1.00 20.00     0.094 C 
HETATM    6  C6  UNL     1     -32.308   7.598   3.252  1.00 20.00     0.045 C 
ENDROOT
BRANCH   5   7
HETATM    7  C7  UNL     1     -34.618   5.146   5.133  1.00 20.00     0.391 C 
HETATM    8  F8  UNL     1     -34.446   4.971   6.451  1.00 20.00    -0.171 F 
HETATM    9  F9  UNL     1     -35.920   5.014   4.843  1.00 20.00    -0.171 F 
HETATM   10  F10 UNL     1     -33.927   4.203   4.475  1.00 20.00    -0.171 F 
ENDBRANCH   5   7
BRANCH   6  11
HETATM   11  S11 UNL     1     -31.995   7.942   1.489  1.00 20.00    -0.177 SA
HETATM   12  H22 UNL     1     -32.079   6.666   1.095  1.00 20.00     0.102 HD
ENDBRANCH   6  11
TORSDOF 2
ENDMDL
MODEL 2
REMARK VINA RESULT:      -4.2     12.045     13.163
REMARK  2 active torsions:
REMARK  status: ('A' for Active; 'I' for Inactive)
REMARK    1  A    between atoms: C5_5  and  C7_7 
REMARK    2  A    between atoms: C6_6  and  S11_11 
ROOT
HETATM    1  C1  UNL     1     -34.615  18.803  -4.016  1.00 20.00     0.002 C 
HETATM    2  C2  UNL     1     -34.586  17.320  -4.396  1.00 20.00     0.013 C 
HETATM    3  C3  UNL     1     -33.999  19.102  -2.646  1.00 20.00     0.015 C 
HETATM    4  C4  UNL     1     -33.446  16.661  -2.228  1.00 20.00     0.028 C 
HETATM    5  C5  UNL     1     -33.391  16.598  -3.769  1.00 20.00     0.094 C 
HETATM    6  C6  UNL     1     -34.159  17.915  -1.697  1.00 20.00     0.045 C 
ENDROOT
BRANCH   5   7
HETATM    7  C7  UNL     1     -33.302  15.152  -4.250  1.00 20.00     0.391 C 
HETATM    8  F8  UNL     1     -33.644  15.079  -5.545  1.00 20.00    -0.171 F 
HETATM    9  F9  UNL     1     -32.050  14.696  -4.104  1.00 20.00    -0.171 F 
HETATM   10  F10 UNL     1     -34.134  14.379  -3.537  1.00 20.00    -0.171 F 
ENDBRANCH   5   7
BRANCH   6  11
HETATM   11  S11 UNL     1     -33.543  18.335  -0.033  1.00 20.00    -0.177 SA
HETATM   12  H22 UNL     1     -34.641  19.002   0.343  1.00 20.00     0.102 HD
ENDBRANCH   6  11
TORSDOF 2
ENDMDL
MODEL 3
REMARK VINA RESULT:      -4.1      1.440      2.501
REMARK  2 active torsions:
REMARK  status: ('A' for Active; 'I' for Inactive)
REMARK    1  A    between atoms: C5_5  and  C7_7 
REMARK    2  A    between atoms: C6_6  and  S11_11 
ROOT
HETATM    1  C1  UNL     1     -32.940   5.511   2.722  1.00 20.00     0.002 C 
HETATM    2  C2  UNL     1     -33.932   5.275   3.864  1.00 20.00     0.013 C 
HETATM    3  C3  UNL     1     -32.271   6.889   2.760  1.00 20.00     0.015 C 
HETATM    4  C4  UNL     1     -33.523   7.572   4.858  1.00 20.00     0.028 C 
HETATM    5  C5  UNL     1     -33.542   6.053   5.123  1.00 20.00     0.094 C 
HETATM    6  C6  UNL     1     -33.186   7.930   3.401  1.00 20.00     0.045 C 
ENDROOT
BRANCH   5   7
HETATM    7  C7  UNL     1     -34.466   5.716   6.291  1.00 20.00     0.391 C 
HETATM    8  F8  UNL     1     -35.596   5.155   5.834  1.00 20.00    -0.171 F 
HETATM    9  F9  UNL     1     -33.859   4.858   7.123  1.00 20.00    -0.171 F 
HETATM   10  F10 UNL     1     -34.777   6.832   6.966  1.00 20.00    -0.171 F 
ENDBRANCH   5   7
BRANCH   6  11
HETATM   11  S11 UNL     1     -32.432   9.588   3.316  1.00 20.00    -0.177 SA
HETATM   12  H22 UNL     1     -33.144  10.102   4.326  1.00 20.00     0.102 HD
ENDBRANCH   6  11
TORSDOF 2
ENDMDL
MODEL 4
REMARK VINA RESULT:      -4.1      1.440      2.259
REMARK  2 active torsions:
REMARK  status: ('A' for Active; 'I' for Inactive)
REMARK    1  A    between atoms: C5_5  and  C7_7 
REMARK    2  A    between atoms: C6_6  and  S11_11 
ROOT
HETATM    1  C1  UNL     1     -32.946   5.531   2.718  1.00 20.00     0.002 C 
HETATM    2  C2  UNL     1     -33.935   5.295   3.863  1.00 20.00     0.013 C 
HETATM    3  C3  UNL     1     -32.274   6.907   2.757  1.00 20.00     0.015 C 
HETATM    4  C4  UNL     1     -33.518   7.590   4.860  1.00 20.00     0.028 C 
HETATM    5  C5  UNL     1     -33.540   6.070   5.123  1.00 20.00     0.094 C 
HETATM    6  C6  UNL     1     -33.185   7.949   3.403  1.00 20.00     0.045 C 
ENDROOT
BRANCH   5   7
HETATM    7  C7  UNL     1     -34.461   5.733   6.293  1.00 20.00     0.391 C 
HETATM    8  F8  UNL     1     -34.766   6.849   6.971  1.00 20.00    -0.171 F 
HETATM    9  F9  UNL     1     -35.592   5.176   5.839  1.00 20.00    -0.171 F 
HETATM   10  F10 UNL     1     -33.853   4.872   7.122  1.00 20.00    -0.171 F 
ENDBRANCH   5   7
BRANCH   6  11
HETATM   11  S11 UNL     1     -32.427   9.605   3.319  1.00 20.00    -0.177 SA
HETATM   12  H22 UNL     1     -31.244   9.180   2.862  1.00 20.00     0.102 HD
ENDBRANCH   6  11
TORSDOF 2
ENDMDL
MODEL 5
REMARK VINA RESULT:      -3.9      9.528     10.214
REMARK  2 active torsions:
REMARK  status: ('A' for Active; 'I' for Inactive)
REMARK    1  A    between atoms: C5_5  and  C7_7 
REMARK    2  A    between atoms: C6_6  and  S11_11 
ROOT
HETATM    1  C1  UNL     1     -42.136  14.640   5.581  1.00 20.00     0.002 C 
HETATM    2  C2  UNL     1     -41.446  13.324   5.213  1.00 20.00     0.013 C 
HETATM    3  C3  UNL     1     -41.650  15.242   6.904  1.00 20.00     0.015 C 
HETATM    4  C4  UNL     1     -40.009  13.349   7.303  1.00 20.00     0.028 C 
HETATM    5  C5  UNL     1     -40.019  13.258   5.763  1.00 20.00     0.094 C 
HETATM    6  C6  UNL     1     -41.190  14.153   7.871  1.00 20.00     0.045 C 
ENDROOT
BRANCH   5   7
HETATM    7  C7  UNL     1     -39.299  11.998   5.288  1.00 20.00     0.391 C 
HETATM    8  F8  UNL     1     -37.981  12.113   5.507  1.00 20.00    -0.171 F 
HETATM    9  F9  UNL     1     -39.760  10.929   5.953  1.00 20.00    -0.171 F 
HETATM   10  F10 UNL     1     -39.508  11.818   3.976  1.00 20.00    -0.171 F 
ENDBRANCH   5   7
BRANCH   6  11
HETATM   11  S11 UNL     1     -40.745  14.874   9.486  1.00 20.00    -0.177 SA
HETATM   12  H22 UNL     1     -39.783  13.985   9.759  1.00 20.00     0.102 HD
ENDBRANCH   6  11
TORSDOF 2
ENDMDL
MODEL 6
REMARK VINA RESULT:      -3.8      9.269     10.318
REMARK  2 active torsions:
REMARK  status: ('A' for Active; 'I' for Inactive)
REMARK    1  A    between atoms: C5_5  and  C7_7 
REMARK    2  A    between atoms: C6_6  and  S11_11 
ROOT
HETATM    1  C1  UNL     1     -43.417   5.378   2.050  1.00 20.00     0.002 C 
HETATM    2  C2  UNL     1     -42.849   6.723   1.588  1.00 20.00     0.013 C 
HETATM    3  C3  UNL     1     -43.323   4.273   0.993  1.00 20.00     0.015 C 
HETATM    4  C4  UNL     1     -42.217   5.813  -0.693  1.00 20.00     0.028 C 
HETATM    5  C5  UNL     1     -41.719   6.542   0.572  1.00 20.00     0.094 C 
HETATM    6  C6  UNL     1     -43.385   4.852  -0.419  1.00 20.00     0.045 C 
ENDROOT
BRANCH   5   7
HETATM    7  C7  UNL     1     -41.079   7.880   0.212  1.00 20.00     0.391 C 
HETATM    8  F8  UNL     1     -42.025   8.755  -0.162  1.00 20.00    -0.171 F 
HETATM    9  F9  UNL     1     -40.423   8.374   1.271  1.00 20.00    -0.171 F 
HETATM   10  F10 UNL     1     -40.214   7.717  -0.800  1.00 20.00    -0.171 F 
ENDBRANCH   5   7
BRANCH   6  11
HETATM   11  S11 UNL     1     -43.409   3.517  -1.661  1.00 20.00    -0.177 SA
HETATM   12  H22 UNL     1     -44.739   3.507  -1.810  1.00 20.00     0.102 HD
ENDBRANCH   6  11
TORSDOF 2
ENDMDL
MODEL 7
REMARK VINA RESULT:      -3.8      9.684     10.231
REMARK  2 active torsions:
REMARK  status: ('A' for Active; 'I' for Inactive)
REMARK    1  A    between atoms: C5_5  and  C7_7 
REMARK    2  A    between atoms: C6_6  and  S11_11 
ROOT
HETATM    1  C1  UNL     1     -41.778  14.471   7.678  1.00 20.00     0.002 C 
HETATM    2  C2  UNL     1     -40.479  13.750   7.309  1.00 20.00     0.013 C 
HETATM    3  C3  UNL     1     -42.780  14.564   6.523  1.00 20.00     0.015 C 
HETATM    4  C4  UNL     1     -41.240  13.335   4.926  1.00 20.00     0.028 C 
HETATM    5  C5  UNL     1     -40.704  12.695   6.223  1.00 20.00     0.094 C 
HETATM    6  C6  UNL     1     -42.067  14.607   5.173  1.00 20.00     0.045 C 
ENDROOT
BRANCH   5   7
HETATM    7  C7  UNL     1     -39.429  11.900   5.950  1.00 20.00     0.391 C 
HETATM    8  F8  UNL     1     -38.681  11.837   7.062  1.00 20.00    -0.171 F 
HETATM    9  F9  UNL     1     -39.741  10.654   5.565  1.00 20.00    -0.171 F 
HETATM   10  F10 UNL     1     -38.718  12.492   4.980  1.00 20.00    -0.171 F 
ENDBRANCH   5   7
BRANCH   6  11
HETATM   11  S11 UNL     1     -43.264  14.856   3.821  1.00 20.00    -0.177 SA
HETATM   12  H22 UNL     1     -42.352  15.220   2.911  1.00 20.00     0.102 HD
ENDBRANCH   6  11
TORSDOF 2
ENDMDL
MODEL 8
REMARK VINA RESULT:      -3.8     12.478     13.558
REMARK  2 active torsions:
REMARK  status: ('A' for Active; 'I' for Inactive)
REMARK    1  A    between atoms: C5_5  and  C7_7 
REMARK    2  A    between atoms: C6_6  and  S11_11 
ROOT
HETATM    1  C1  UNL     1     -33.642  14.707  -4.879  1.00 20.00     0.002 C 
HETATM    2  C2  UNL     1     -33.669  15.378  -3.502  1.00 20.00     0.013 C 
HETATM    3  C3  UNL     1     -34.314  15.533  -5.980  1.00 20.00     0.015 C 
HETATM    4  C4  UNL     1     -34.901  17.413  -4.381  1.00 20.00     0.028 C 
HETATM    5  C5  UNL     1     -33.662  16.904  -3.615  1.00 20.00     0.094 C 
HETATM    6  C6  UNL     1     -35.433  16.406  -5.413  1.00 20.00     0.045 C 
ENDROOT
BRANCH   5   7
HETATM    7  C7  UNL     1     -33.565  17.561  -2.240  1.00 20.00     0.391 C 
HETATM    8  F8  UNL     1     -32.371  18.157  -2.100  1.00 20.00    -0.171 F 
HETATM    9  F9  UNL     1     -34.530  18.482  -2.104  1.00 20.00    -0.171 F 
HETATM   10  F10 UNL     1     -33.706  16.637  -1.279  1.00 20.00    -0.171 F 
ENDBRANCH   5   7
BRANCH   6  11
HETATM   11  S11 UNL     1     -36.310  17.277  -6.753  1.00 20.00    -0.177 SA
HETATM   12  H22 UNL     1     -36.338  18.464  -6.135  1.00 20.00     0.102 HD
ENDBRANCH   6  11
TORSDOF 2
ENDMDL
MODEL 9
REMARK VINA RESULT:      -3.8      1.630      2.136
REMARK  2 active torsions:
REMARK  status: ('A' for Active; 'I' for Inactive)
REMARK    1  A    between atoms: C5_5  and  C7_7 
REMARK    2  A    between atoms: C6_6  and  S11_11 
ROOT
HETATM    1  C1  UNL     1     -32.422   8.423   3.760  1.00 20.00     0.002 C 
HETATM    2  C2  UNL     1     -32.774   7.861   5.140  1.00 20.00     0.013 C 
HETATM    3  C3  UNL     1     -32.752   7.473   2.605  1.00 20.00     0.015 C 
HETATM    4  C4  UNL     1     -33.657   5.691   4.168  1.00 20.00     0.028 C 
HETATM    5  C5  UNL     1     -33.964   6.901   5.075  1.00 20.00     0.094 C 
HETATM    6  C6  UNL     1     -32.658   6.013   3.045  1.00 20.00     0.045 C 
ENDROOT
BRANCH   5   7
HETATM    7  C7  UNL     1     -34.383   6.442   6.469  1.00 20.00     0.391 C 
HETATM    8  F8  UNL     1     -33.407   5.708   7.023  1.00 20.00    -0.171 F 
HETATM    9  F9  UNL     1     -34.624   7.505   7.249  1.00 20.00    -0.171 F 
HETATM   10  F10 UNL     1     -35.496   5.697   6.392  1.00 20.00    -0.171 F 
ENDBRANCH   5   7
BRANCH   6  11
HETATM   11  S11 UNL     1     -32.919   4.896   1.627  1.00 20.00    -0.177 SA
HETATM   12  H22 UNL     1     -32.479   5.760   0.704  1.00 20.00     0.102 HD
ENDBRANCH   6  11
TORSDOF 2
ENDMDL
