MODEL 1
REMARK VINA RESULT:      -4.6      0.000      0.000
REMARK  3 active torsions:
REMARK  status: ('A' for Active; 'I' for Inactive)
REMARK    1  A    between atoms: C1_1  and  C12_12 
REMARK    2  A    between atoms: C5_5  and  C11_11 
REMARK    3  A    between atoms: C11_11  and  C12_12 
ROOT
HETATM    1  C2  UNL     1     -32.169  18.869  -1.886  1.00 20.00     0.005 C 
HETATM    2  C3  UNL     1     -31.537  18.585  -0.526  1.00 20.00     0.005 C 
HETATM    3  C4  UNL     1     -34.464  18.689  -0.858  1.00 20.00     0.009 C 
HETATM    4  C5  UNL     1     -33.569  18.265  -2.031  1.00 20.00    -0.013 C 
HETATM    5  C6  UNL     1     -32.438  19.035   0.637  1.00 20.00    -0.015 C 
HETATM    6  C7  UNL     1     -33.846  18.402   0.524  1.00 20.00    -0.015 C 
HETATM    7  C8  UNL     1     -31.752  18.705   1.966  1.00 20.00     0.010 C 
HETATM    8  C9  UNL     1     -34.800  18.901   1.614  1.00 20.00     0.010 C 
ENDROOT
BRANCH   4   9
HETATM    9  C11 UNL     1     -33.521  16.743  -2.189  1.00 20.00     0.015 C 
BRANCH   9  10
HETATM   10  C12 UNL     1     -33.375  16.313  -3.652  1.00 20.00     0.043 C 
HETATM   11  C10 UNL     1     -33.762  14.845  -3.819  1.00 20.00     0.017 C 
BRANCH  10  12
HETATM   12  C1  UNL     1     -34.237  17.128  -4.600  1.00 20.00     0.235 C 
HETATM   13  O13 UNL     1     -35.346  16.796  -5.004  1.00 20.00    -0.306 OA
ENDBRANCH  10  12
ENDBRANCH   9  10
ENDBRANCH   4   9
TORSDOF 3
ENDMDL
MODEL 2
REMARK VINA RESULT:      -4.5      2.190      5.429
REMARK  3 active torsions:
REMARK  status: ('A' for Active; 'I' for Inactive)
REMARK    1  A    between atoms: C1_1  and  C12_12 
REMARK    2  A    between atoms: C5_5  and  C11_11 
REMARK    3  A    between atoms: C11_11  and  C12_12 
ROOT
HETATM    1  C2  UNL     1     -33.349  18.490  -3.670  1.00 20.00     0.005 C 
HETATM    2  C3  UNL     1     -34.751  18.302  -4.243  1.00 20.00     0.005 C 
HETATM    3  C4  UNL     1     -33.061  15.989  -3.549  1.00 20.00     0.009 C 
HETATM    4  C5  UNL     1     -32.899  17.316  -2.796  1.00 20.00    -0.013 C 
HETATM    5  C6  UNL     1     -34.889  16.977  -5.012  1.00 20.00    -0.015 C 
HETATM    6  C7  UNL     1     -34.473  15.777  -4.128  1.00 20.00    -0.015 C 
HETATM    7  C8  UNL     1     -36.320  16.846  -5.542  1.00 20.00     0.010 C 
HETATM    8  C9  UNL     1     -34.509  14.449  -4.890  1.00 20.00     0.010 C 
ENDROOT
BRANCH   4   9
HETATM    9  C11 UNL     1     -33.624  17.298  -1.447  1.00 20.00     0.015 C 
BRANCH   9  10
HETATM   10  C12 UNL     1     -33.203  18.460  -0.542  1.00 20.00     0.043 C 
HETATM   11  C10 UNL     1     -34.094  18.524   0.696  1.00 20.00     0.017 C 
BRANCH  10  12
HETATM   12  C1  UNL     1     -31.763  18.354  -0.071  1.00 20.00     0.235 C 
HETATM   13  O13 UNL     1     -30.805  18.901  -0.607  1.00 20.00    -0.306 OA
ENDBRANCH  10  12
ENDBRANCH   9  10
ENDBRANCH   4   9
TORSDOF 3
ENDMDL
MODEL 3
REMARK VINA RESULT:      -3.8      2.710      4.831
REMARK  3 active torsions:
REMARK  status: ('A' for Active; 'I' for Inactive)
REMARK    1  A    between atoms: C1_1  and  C12_12 
REMARK    2  A    between atoms: C5_5  and  C11_11 
REMARK    3  A    between atoms: C11_11  and  C12_12 
ROOT
HETATM    1  C2  UNL     1     -33.766  15.067  -5.252  1.00 20.00     0.005 C 
HETATM    2  C3  UNL     1     -33.720  15.297  -3.744  1.00 20.00     0.005 C 
HETATM    3  C4  UNL     1     -34.532  17.445  -5.592  1.00 20.00     0.009 C 
HETATM    4  C5  UNL     1     -34.773  15.975  -5.964  1.00 20.00    -0.013 C 
HETATM    5  C6  UNL     1     -33.457  16.771  -3.391  1.00 20.00    -0.015 C 
HETATM    6  C7  UNL     1     -34.491  17.698  -4.073  1.00 20.00    -0.015 C 
HETATM    7  C8  UNL     1     -33.441  16.931  -1.867  1.00 20.00     0.010 C 
HETATM    8  C9  UNL     1     -34.204  19.181  -3.819  1.00 20.00     0.010 C 
ENDROOT
BRANCH   4   9
HETATM    9  C11 UNL     1     -36.219  15.548  -5.691  1.00 20.00     0.015 C 
BRANCH   9  10
HETATM   10  C12 UNL     1     -37.228  16.642  -6.052  1.00 20.00     0.043 C 
HETATM   11  C10 UNL     1     -37.509  16.635  -7.553  1.00 20.00     0.017 C 
BRANCH  10  12
HETATM   12  C1  UNL     1     -38.557  16.485  -5.333  1.00 20.00     0.235 C 
HETATM   13  O13 UNL     1     -39.018  15.422  -4.931  1.00 20.00    -0.306 OA
ENDBRANCH  10  12
ENDBRANCH   9  10
ENDBRANCH   4   9
TORSDOF 3
ENDMDL
MODEL 4
REMARK VINA RESULT:      -3.8     10.701     11.894
REMARK  3 active torsions:
REMARK  status: ('A' for Active; 'I' for Inactive)
REMARK    1  A    between atoms: C1_1  and  C12_12 
REMARK    2  A    between atoms: C5_5  and  C11_11 
REMARK    3  A    between atoms: C11_11  and  C12_12 
ROOT
HETATM    1  C2  UNL     1     -43.029  13.981   5.428  1.00 20.00     0.005 C 
HETATM    2  C3  UNL     1     -42.892  15.485   5.207  1.00 20.00     0.005 C 
HETATM    3  C4  UNL     1     -41.391  14.112   7.340  1.00 20.00     0.009 C 
HETATM    4  C5  UNL     1     -41.785  13.355   6.064  1.00 20.00    -0.013 C 
HETATM    5  C6  UNL     1     -42.518  16.229   6.499  1.00 20.00    -0.015 C 
HETATM    6  C7  UNL     1     -41.239  15.631   7.134  1.00 20.00    -0.015 C 
HETATM    7  C8  UNL     1     -42.380  17.725   6.201  1.00 20.00     0.010 C 
HETATM    8  C9  UNL     1     -40.889  16.287   8.473  1.00 20.00     0.010 C 
ENDROOT
BRANCH   4   9
HETATM    9  C11 UNL     1     -40.621  13.267   5.072  1.00 20.00     0.015 C 
BRANCH   9  10
HETATM   10  C12 UNL     1     -39.830  11.963   5.216  1.00 20.00     0.043 C 
HETATM   11  C10 UNL     1     -39.237  11.546   3.871  1.00 20.00     0.017 C 
BRANCH  10  12
HETATM   12  C1  UNL     1     -38.688  12.067   6.212  1.00 20.00     0.235 C 
HETATM   13  O13 UNL     1     -38.811  12.010   7.431  1.00 20.00    -0.306 OA
ENDBRANCH  10  12
ENDBRANCH   9  10
ENDBRANCH   4   9
TORSDOF 3
ENDMDL
MODEL 5
REMARK VINA RESULT:      -3.7     10.830     12.774
REMARK  3 active torsions:
REMARK  status: ('A' for Active; 'I' for Inactive)
REMARK    1  A    between atoms: C1_1  and  C12_12 
REMARK    2  A    between atoms: C5_5  and  C11_11 
REMARK    3  A    between atoms: C11_11  and  C12_12 
ROOT
HETATM    1  C2  UNL     1     -40.426  15.559   7.921  1.00 20.00     0.005 C 
HETATM    2  C3  UNL     1     -40.054  15.287   9.376  1.00 20.00     0.005 C 
HETATM    3  C4  UNL     1     -42.420  14.033   8.144  1.00 20.00     0.009 C 
HETATM    4  C5  UNL     1     -41.209  14.410   7.279  1.00 20.00    -0.013 C 
HETATM    5  C6  UNL     1     -41.282  14.931  10.231  1.00 20.00    -0.015 C 
HETATM    6  C7  UNL     1     -42.063  13.745   9.614  1.00 20.00    -0.015 C 
HETATM    7  C8  UNL     1     -40.834  14.654  11.669  1.00 20.00     0.010 C 
HETATM    8  C9  UNL     1     -43.344  13.423  10.389  1.00 20.00     0.010 C 
ENDROOT
BRANCH   4   9
HETATM    9  C11 UNL     1     -40.314  13.200   6.994  1.00 20.00     0.015 C 
BRANCH   9  10
HETATM   10  C12 UNL     1     -40.622  12.553   5.640  1.00 20.00     0.043 C 
HETATM   11  C10 UNL     1     -41.326  13.548   4.719  1.00 20.00     0.017 C 
BRANCH  10  12
HETATM   12  C1  UNL     1     -39.380  12.058   4.921  1.00 20.00     0.235 C 
HETATM   13  O13 UNL     1     -38.229  12.209   5.319  1.00 20.00    -0.306 OA
ENDBRANCH  10  12
ENDBRANCH   9  10
ENDBRANCH   4   9
TORSDOF 3
ENDMDL
MODEL 6
REMARK VINA RESULT:      -3.6     24.502     25.579
REMARK  3 active torsions:
REMARK  status: ('A' for Active; 'I' for Inactive)
REMARK    1  A    between atoms: C1_1  and  C12_12 
REMARK    2  A    between atoms: C5_5  and  C11_11 
REMARK    3  A    between atoms: C11_11  and  C12_12 
ROOT
HETATM    1  C2  UNL     1     -25.898  -4.330  11.292  1.00 20.00     0.005 C 
HETATM    2  C3  UNL     1     -27.252  -3.841  10.784  1.00 20.00     0.005 C 
HETATM    3  C4  UNL     1     -25.183  -1.946  11.687  1.00 20.00     0.009 C 
HETATM    4  C5  UNL     1     -24.780  -3.303  11.095  1.00 20.00    -0.013 C 
HETATM    5  C6  UNL     1     -27.649  -2.491  11.402  1.00 20.00    -0.015 C 
HETATM    6  C7  UNL     1     -26.543  -1.431  11.178  1.00 20.00    -0.015 C 
HETATM    7  C8  UNL     1     -29.004  -2.053  10.836  1.00 20.00     0.010 C 
HETATM    8  C9  UNL     1     -26.864  -0.098  11.861  1.00 20.00     0.010 C 
ENDROOT
BRANCH   4   9
HETATM    9  C11 UNL     1     -24.367  -3.184   9.625  1.00 20.00     0.015 C 
BRANCH   9  10
HETATM   10  C12 UNL     1     -22.866  -3.409   9.420  1.00 20.00     0.043 C 
HETATM   11  C10 UNL     1     -22.277  -4.190  10.593  1.00 20.00     0.017 C 
BRANCH  10  12
HETATM   12  C1  UNL     1     -22.548  -4.175   8.149  1.00 20.00     0.235 C 
HETATM   13  O13 UNL     1     -21.663  -3.880   7.352  1.00 20.00    -0.306 OA
ENDBRANCH  10  12
ENDBRANCH   9  10
ENDBRANCH   4   9
TORSDOF 3
ENDMDL
MODEL 7
REMARK VINA RESULT:      -3.5     11.505     12.741
REMARK  3 active torsions:
REMARK  status: ('A' for Active; 'I' for Inactive)
REMARK    1  A    between atoms: C1_1  and  C12_12 
REMARK    2  A    between atoms: C5_5  and  C11_11 
REMARK    3  A    between atoms: C11_11  and  C12_12 
ROOT
HETATM    1  C2  UNL     1     -40.406  14.425   9.640  1.00 20.00     0.005 C 
HETATM    2  C3  UNL     1     -41.410  15.328  10.354  1.00 20.00     0.005 C 
HETATM    3  C4  UNL     1     -40.317  16.046   7.712  1.00 20.00     0.009 C 
HETATM    4  C5  UNL     1     -40.450  14.572   8.117  1.00 20.00    -0.013 C 
HETATM    5  C6  UNL     1     -41.249  16.803   9.952  1.00 20.00    -0.015 C 
HETATM    6  C7  UNL     1     -41.328  16.971   8.415  1.00 20.00    -0.015 C 
HETATM    7  C8  UNL     1     -42.295  17.646  10.689  1.00 20.00     0.010 C 
HETATM    8  C9  UNL     1     -41.079  18.417   7.972  1.00 20.00     0.010 C 
ENDROOT
BRANCH   4   9
HETATM    9  C11 UNL     1     -41.702  13.926   7.517  1.00 20.00     0.015 C 
BRANCH   9  10
HETATM   10  C12 UNL     1     -41.393  13.113   6.256  1.00 20.00     0.043 C 
HETATM   11  C10 UNL     1     -41.758  13.909   5.004  1.00 20.00     0.017 C 
BRANCH  10  12
HETATM   12  C1  UNL     1     -39.931  12.721   6.145  1.00 20.00     0.235 C 
HETATM   13  O13 UNL     1     -39.472  11.623   6.442  1.00 20.00    -0.306 OA
ENDBRANCH  10  12
ENDBRANCH   9  10
ENDBRANCH   4   9
TORSDOF 3
ENDMDL
MODEL 8
REMARK VINA RESULT:      -3.4     12.324     13.986
REMARK  3 active torsions:
REMARK  status: ('A' for Active; 'I' for Inactive)
REMARK    1  A    between atoms: C1_1  and  C12_12 
REMARK    2  A    between atoms: C5_5  and  C11_11 
REMARK    3  A    between atoms: C11_11  and  C12_12 
ROOT
HETATM    1  C2  UNL     1     -40.898  16.707   7.477  1.00 20.00     0.005 C 
HETATM    2  C3  UNL     1     -42.193  16.297   6.781  1.00 20.00     0.005 C 
HETATM    3  C4  UNL     1     -40.278  14.279   7.754  1.00 20.00     0.009 C 
HETATM    4  C5  UNL     1     -40.381  15.643   8.450  1.00 20.00    -0.013 C 
HETATM    5  C6  UNL     1     -42.066  14.938   6.073  1.00 20.00    -0.015 C 
HETATM    6  C7  UNL     1     -41.580  13.844   7.055  1.00 20.00    -0.015 C 
HETATM    7  C8  UNL     1     -43.403  14.583   5.415  1.00 20.00     0.010 C 
HETATM    8  C9  UNL     1     -41.352  12.497   6.362  1.00 20.00     0.010 C 
ENDROOT
BRANCH   4   9
HETATM    9  C11 UNL     1     -41.231  15.572   9.721  1.00 20.00     0.015 C 
BRANCH   9  10
HETATM   10  C12 UNL     1     -40.857  14.381  10.608  1.00 20.00     0.043 C 
HETATM   11  C10 UNL     1     -40.131  14.857  11.865  1.00 20.00     0.017 C 
BRANCH  10  12
HETATM   12  C1  UNL     1     -42.060  13.567  11.050  1.00 20.00     0.235 C 
HETATM   13  O13 UNL     1     -42.544  12.630  10.423  1.00 20.00    -0.306 OA
ENDBRANCH  10  12
ENDBRANCH   9  10
ENDBRANCH   4   9
TORSDOF 3
ENDMDL
MODEL 9
REMARK VINA RESULT:      -3.3     11.156     12.621
REMARK  3 active torsions:
REMARK  status: ('A' for Active; 'I' for Inactive)
REMARK    1  A    between atoms: C1_1  and  C12_12 
REMARK    2  A    between atoms: C5_5  and  C11_11 
REMARK    3  A    between atoms: C11_11  and  C12_12 
ROOT
HETATM    1  C2  UNL     1     -42.592  15.029   7.330  1.00 20.00     0.005 C 
HETATM    2  C3  UNL     1     -42.071  16.449   7.539  1.00 20.00     0.005 C 
HETATM    3  C4  UNL     1     -41.476  14.304   9.471  1.00 20.00     0.009 C 
HETATM    4  C5  UNL     1     -41.710  13.967   7.993  1.00 20.00    -0.013 C 
HETATM    5  C6  UNL     1     -41.862  16.776   9.027  1.00 20.00    -0.015 C 
HETATM    6  C7  UNL     1     -40.941  15.730   9.701  1.00 20.00    -0.015 C 
HETATM    7  C8  UNL     1     -41.323  18.204   9.161  1.00 20.00     0.010 C 
HETATM    8  C9  UNL     1     -40.785  15.972  11.206  1.00 20.00     0.010 C 
ENDROOT
BRANCH   4   9
HETATM    9  C11 UNL     1     -40.392  13.768   7.238  1.00 20.00     0.015 C 
BRANCH   9  10
HETATM   10  C12 UNL     1     -40.469  12.624   6.222  1.00 20.00     0.043 C 
HETATM   11  C10 UNL     1     -40.884  13.153   4.851  1.00 20.00     0.017 C 
BRANCH  10  12
HETATM   12  C1  UNL     1     -39.150  11.889   6.055  1.00 20.00     0.235 C 
HETATM   13  O13 UNL     1     -38.250  12.224   5.292  1.00 20.00    -0.306 OA
ENDBRANCH  10  12
ENDBRANCH   9  10
ENDBRANCH   4   9
TORSDOF 3
ENDMDL
