MODEL 1
REMARK VINA RESULT:      -5.0      0.000      0.000
REMARK  1 active torsions:
REMARK  status: ('A' for Active; 'I' for Inactive)
REMARK    1  A    between atoms: C6_6  and  C8_8 
ROOT
HETATM    1  C1  UNL     1     -33.131   7.909   5.057  1.00 20.00     0.016 C 
HETATM    2  C2  UNL     1     -33.745   5.863   3.694  1.00 20.00     0.016 C 
HETATM    3  C3  UNL     1     -32.050   8.268   4.037  1.00 20.00     0.041 C 
HETATM    4  C4  UNL     1     -32.665   6.215   2.671  1.00 20.00     0.041 C 
HETATM    5  C5  UNL     1     -32.919   8.580   1.595  1.00 20.00     0.207 A 
HETATM    6  C6  UNL     1     -33.391   6.392   5.095  1.00 20.00     0.093 C 
HETATM    7  C7  UNL     1     -32.394   7.690   2.698  1.00 20.00     0.082 A 
HETATM    8  O9  UNL     1     -31.551   8.147   1.631  1.00 20.00    -0.375 OA
ENDROOT
BRANCH   6   9
HETATM    9  C8  UNL     1     -34.501   6.063   6.091  1.00 20.00     0.391 C 
HETATM   10  F10 UNL     1     -34.164   4.984   6.815  1.00 20.00    -0.171 F 
HETATM   11  F11 UNL     1     -34.698   7.098   6.920  1.00 20.00    -0.171 F 
HETATM   12  F12 UNL     1     -35.644   5.805   5.436  1.00 20.00    -0.171 F 
ENDBRANCH   6   9
TORSDOF 1
ENDMDL
MODEL 2
REMARK VINA RESULT:      -4.7     11.815     13.014
REMARK  1 active torsions:
REMARK  status: ('A' for Active; 'I' for Inactive)
REMARK    1  A    between atoms: C6_6  and  C8_8 
ROOT
HETATM    1  C1  UNL     1     -34.531  17.582  -4.452  1.00 20.00     0.016 C 
HETATM    2  C2  UNL     1     -33.546  15.434  -3.538  1.00 20.00     0.016 C 
HETATM    3  C3  UNL     1     -34.523  16.990  -5.863  1.00 20.00     0.041 C 
HETATM    4  C4  UNL     1     -33.533  14.836  -4.946  1.00 20.00     0.041 C 
HETATM    5  C5  UNL     1     -35.866  14.766  -6.116  1.00 20.00     0.207 A 
HETATM    6  C6  UNL     1     -33.426  16.967  -3.575  1.00 20.00     0.093 C 
HETATM    7  C7  UNL     1     -34.582  15.494  -5.792  1.00 20.00     0.082 A 
HETATM    8  O9  UNL     1     -34.791  14.859  -7.061  1.00 20.00    -0.375 OA
ENDROOT
BRANCH   6   9
HETATM    9  C8  UNL     1     -33.478  17.544  -2.162  1.00 20.00     0.391 C 
HETATM   10  F10 UNL     1     -32.293  18.087  -1.842  1.00 20.00    -0.171 F 
HETATM   11  F11 UNL     1     -34.425  18.492  -2.087  1.00 20.00    -0.171 F 
HETATM   12  F12 UNL     1     -33.763  16.574  -1.280  1.00 20.00    -0.171 F 
ENDBRANCH   6   9
TORSDOF 1
ENDMDL
MODEL 3
REMARK VINA RESULT:      -4.4      3.423      4.506
REMARK  1 active torsions:
REMARK  status: ('A' for Active; 'I' for Inactive)
REMARK    1  A    between atoms: C6_6  and  C8_8 
ROOT
HETATM    1  C1  UNL     1     -33.046   7.901   5.242  1.00 20.00     0.016 C 
HETATM    2  C2  UNL     1     -33.601   6.119   3.529  1.00 20.00     0.016 C 
HETATM    3  C3  UNL     1     -34.143   7.364   6.162  1.00 20.00     0.041 C 
HETATM    4  C4  UNL     1     -34.701   5.577   4.443  1.00 20.00     0.041 C 
HETATM    5  C5  UNL     1     -33.880   4.849   6.813  1.00 20.00     0.207 A 
HETATM    6  C6  UNL     1     -33.362   7.621   3.762  1.00 20.00     0.093 C 
HETATM    7  C7  UNL     1     -34.392   5.915   5.872  1.00 20.00     0.082 A 
HETATM    8  O9  UNL     1     -35.252   5.270   6.821  1.00 20.00    -0.375 OA
ENDROOT
BRANCH   6   9
HETATM    9  C8  UNL     1     -32.236   8.131   2.866  1.00 20.00     0.391 C 
HETATM   10  F10 UNL     1     -32.466   9.407   2.518  1.00 20.00    -0.171 F 
HETATM   11  F11 UNL     1     -31.064   8.063   3.515  1.00 20.00    -0.171 F 
HETATM   12  F12 UNL     1     -32.161   7.385   1.753  1.00 20.00    -0.171 F 
ENDBRANCH   6   9
TORSDOF 1
ENDMDL
MODEL 4
REMARK VINA RESULT:      -4.4      3.422      4.506
REMARK  1 active torsions:
REMARK  status: ('A' for Active; 'I' for Inactive)
REMARK    1  A    between atoms: C6_6  and  C8_8 
ROOT
HETATM    1  C1  UNL     1     -33.045   7.900   5.243  1.00 20.00     0.016 C 
HETATM    2  C2  UNL     1     -33.603   6.120   3.529  1.00 20.00     0.016 C 
HETATM    3  C3  UNL     1     -34.141   7.363   6.163  1.00 20.00     0.041 C 
HETATM    4  C4  UNL     1     -34.702   5.578   4.444  1.00 20.00     0.041 C 
HETATM    5  C5  UNL     1     -33.880   4.848   6.812  1.00 20.00     0.207 A 
HETATM    6  C6  UNL     1     -33.363   7.621   3.763  1.00 20.00     0.093 C 
HETATM    7  C7  UNL     1     -34.392   5.914   5.872  1.00 20.00     0.082 A 
HETATM    8  O9  UNL     1     -35.251   5.269   6.822  1.00 20.00    -0.375 OA
ENDROOT
BRANCH   6   9
HETATM    9  C8  UNL     1     -32.237   8.132   2.866  1.00 20.00     0.391 C 
HETATM   10  F10 UNL     1     -32.161   7.386   1.753  1.00 20.00    -0.171 F 
HETATM   11  F11 UNL     1     -32.466   9.407   2.520  1.00 20.00    -0.171 F 
HETATM   12  F12 UNL     1     -31.064   8.061   3.516  1.00 20.00    -0.171 F 
ENDBRANCH   6   9
TORSDOF 1
ENDMDL
MODEL 5
REMARK VINA RESULT:      -4.3     12.215     13.292
REMARK  1 active torsions:
REMARK  status: ('A' for Active; 'I' for Inactive)
REMARK    1  A    between atoms: C6_6  and  C8_8 
ROOT
HETATM    1  C1  UNL     1     -33.144  15.824  -3.641  1.00 20.00     0.016 C 
HETATM    2  C2  UNL     1     -34.693  17.672  -4.417  1.00 20.00     0.016 C 
HETATM    3  C3  UNL     1     -33.923  14.812  -4.484  1.00 20.00     0.041 C 
HETATM    4  C4  UNL     1     -35.476  16.667  -5.262  1.00 20.00     0.041 C 
HETATM    5  C5  UNL     1     -34.044  15.384  -7.028  1.00 20.00     0.207 A 
HETATM    6  C6  UNL     1     -34.037  16.998  -3.200  1.00 20.00     0.093 C 
HETATM    7  C7  UNL     1     -34.597  15.508  -5.627  1.00 20.00     0.082 A 
HETATM    8  O9  UNL     1     -35.176  14.618  -6.591  1.00 20.00    -0.375 OA
ENDROOT
BRANCH   6   9
HETATM    9  C8  UNL     1     -33.229  18.012  -2.394  1.00 20.00     0.391 C 
HETATM   10  F10 UNL     1     -34.050  18.756  -1.636  1.00 20.00    -0.171 F 
HETATM   11  F11 UNL     1     -32.357  17.378  -1.596  1.00 20.00    -0.171 F 
HETATM   12  F12 UNL     1     -32.551  18.823  -3.222  1.00 20.00    -0.171 F 
ENDBRANCH   6   9
TORSDOF 1
ENDMDL
MODEL 6
REMARK VINA RESULT:      -4.3      9.902     10.675
REMARK  1 active torsions:
REMARK  status: ('A' for Active; 'I' for Inactive)
REMARK    1  A    between atoms: C6_6  and  C8_8 
ROOT
HETATM    1  C1  UNL     1     -41.321  13.583   4.728  1.00 20.00     0.016 C 
HETATM    2  C2  UNL     1     -39.963  13.252   6.840  1.00 20.00     0.016 C 
HETATM    3  C3  UNL     1     -42.420  14.272   5.538  1.00 20.00     0.041 C 
HETATM    4  C4  UNL     1     -41.058  13.939   7.657  1.00 20.00     0.041 C 
HETATM    5  C5  UNL     1     -41.628  16.366   6.881  1.00 20.00     0.207 A 
HETATM    6  C6  UNL     1     -40.537  12.573   5.584  1.00 20.00     0.093 C 
HETATM    7  C7  UNL     1     -41.840  14.873   6.782  1.00 20.00     0.082 A 
HETATM    8  O9  UNL     1     -42.750  15.719   7.499  1.00 20.00    -0.375 OA
ENDROOT
BRANCH   6   9
HETATM    9  C8  UNL     1     -39.422  11.927   4.766  1.00 20.00     0.391 C 
HETATM   10  F10 UNL     1     -39.555  10.591   4.780  1.00 20.00    -0.171 F 
HETATM   11  F11 UNL     1     -39.475  12.355   3.496  1.00 20.00    -0.171 F 
HETATM   12  F12 UNL     1     -38.226  12.249   5.284  1.00 20.00    -0.171 F 
ENDBRANCH   6   9
TORSDOF 1
ENDMDL
MODEL 7
REMARK VINA RESULT:      -4.1      9.926     10.723
REMARK  1 active torsions:
REMARK  status: ('A' for Active; 'I' for Inactive)
REMARK    1  A    between atoms: C6_6  and  C8_8 
ROOT
HETATM    1  C1  UNL     1     -40.046  13.275   7.307  1.00 20.00     0.016 C 
HETATM    2  C2  UNL     1     -41.357  13.416   5.143  1.00 20.00     0.016 C 
HETATM    3  C3  UNL     1     -40.768  14.518   7.829  1.00 20.00     0.041 C 
HETATM    4  C4  UNL     1     -42.082  14.660   5.658  1.00 20.00     0.041 C 
HETATM    5  C5  UNL     1     -43.369  14.313   7.903  1.00 20.00     0.207 A 
HETATM    6  C6  UNL     1     -39.959  13.277   5.770  1.00 20.00     0.093 C 
HETATM    7  C7  UNL     1     -42.101  14.658   7.158  1.00 20.00     0.082 A 
HETATM    8  O9  UNL     1     -42.939  15.671   7.731  1.00 20.00    -0.375 OA
ENDROOT
BRANCH   6   9
HETATM    9  C8  UNL     1     -39.269  12.010   5.270  1.00 20.00     0.391 C 
HETATM   10  F10 UNL     1     -39.485  11.856   3.954  1.00 20.00    -0.171 F 
HETATM   11  F11 UNL     1     -37.948  12.088   5.487  1.00 20.00    -0.171 F 
HETATM   12  F12 UNL     1     -39.754  10.938   5.917  1.00 20.00    -0.171 F 
ENDBRANCH   6   9
TORSDOF 1
ENDMDL
MODEL 8
REMARK VINA RESULT:      -4.0     12.505     13.583
REMARK  1 active torsions:
REMARK  status: ('A' for Active; 'I' for Inactive)
REMARK    1  A    between atoms: C6_6  and  C8_8 
ROOT
HETATM    1  C1  UNL     1     -34.908  17.557  -4.802  1.00 20.00     0.016 C 
HETATM    2  C2  UNL     1     -33.355  15.812  -3.821  1.00 20.00     0.016 C 
HETATM    3  C3  UNL     1     -34.983  18.258  -3.445  1.00 20.00     0.041 C 
HETATM    4  C4  UNL     1     -33.427  16.507  -2.461  1.00 20.00     0.041 C 
HETATM    5  C5  UNL     1     -32.677  19.008  -2.480  1.00 20.00     0.207 A 
HETATM    6  C6  UNL     1     -34.632  16.051  -4.645  1.00 20.00     0.093 C 
HETATM    7  C7  UNL     1     -33.753  17.959  -2.644  1.00 20.00     0.082 A 
HETATM    8  O9  UNL     1     -33.635  18.739  -1.446  1.00 20.00    -0.375 OA
ENDROOT
BRANCH   6   9
HETATM    9  C8  UNL     1     -34.522  15.380  -6.012  1.00 20.00     0.391 C 
HETATM   10  F10 UNL     1     -35.503  14.476  -6.162  1.00 20.00    -0.171 F 
HETATM   11  F11 UNL     1     -34.625  16.297  -6.985  1.00 20.00    -0.171 F 
HETATM   12  F12 UNL     1     -33.338  14.757  -6.125  1.00 20.00    -0.171 F 
ENDBRANCH   6   9
TORSDOF 1
ENDMDL
MODEL 9
REMARK VINA RESULT:      -4.0     11.992     13.646
REMARK  1 active torsions:
REMARK  status: ('A' for Active; 'I' for Inactive)
REMARK    1  A    between atoms: C6_6  and  C8_8 
ROOT
HETATM    1  C1  UNL     1     -34.823  17.086  -4.809  1.00 20.00     0.016 C 
HETATM    2  C2  UNL     1     -35.264  14.802  -5.813  1.00 20.00     0.016 C 
HETATM    3  C3  UNL     1     -35.475  17.750  -6.023  1.00 20.00     0.041 C 
HETATM    4  C4  UNL     1     -35.917  15.459  -7.030  1.00 20.00     0.041 C 
HETATM    5  C5  UNL     1     -37.939  17.013  -6.471  1.00 20.00     0.207 A 
HETATM    6  C6  UNL     1     -34.210  15.722  -5.172  1.00 20.00     0.093 C 
HETATM    7  C7  UNL     1     -36.454  16.809  -6.658  1.00 20.00     0.082 A 
HETATM    8  O9  UNL     1     -37.267  17.412  -7.674  1.00 20.00    -0.375 OA
ENDROOT
BRANCH   6   9
HETATM    9  C8  UNL     1     -33.600  15.062  -3.938  1.00 20.00     0.391 C 
HETATM   10  F10 UNL     1     -33.668  15.896  -2.888  1.00 20.00    -0.171 F 
HETATM   11  F11 UNL     1     -34.266  13.936  -3.641  1.00 20.00    -0.171 F 
HETATM   12  F12 UNL     1     -32.313  14.758  -4.168  1.00 20.00    -0.171 F 
ENDBRANCH   6   9
TORSDOF 1
ENDMDL
