MODEL 1
REMARK VINA RESULT:      -3.8      0.000      0.000
REMARK  3 active torsions:
REMARK  status: ('A' for Active; 'I' for Inactive)
REMARK    1  A    between atoms: C6_6  and  C7_7 
REMARK    2  A    between atoms: C6_6  and  C8_8 
REMARK    3  A    between atoms: C7_7  and  C9_9 
ROOT
HETATM    1  C1  UNL     1     -33.073   7.719   5.699  1.00 20.00     0.011 C 
HETATM    2  C7  UNL     1     -33.683   7.089   4.435  1.00 20.00    -0.010 C 
ENDROOT
BRANCH   2   3
HETATM    3  C6  UNL     1     -32.575   6.833   3.373  1.00 20.00     0.024 C 
BRANCH   3   4
HETATM    4  C8  UNL     1     -32.026   8.072   2.641  1.00 20.00     0.078 C 
HETATM    5  C2  UNL     1     -32.075   7.875   1.129  1.00 20.00     0.026 C 
HETATM    6 CL10 UNL     1     -32.963   9.538   3.059  1.00 20.00    -0.125 Cl
ENDBRANCH   3   4
ENDBRANCH   2   3
BRANCH   2   7
HETATM    7  C9  UNL     1     -34.551   5.805   4.748  1.00 20.00    -0.048 C 
HETATM    8  C3  UNL     1     -33.953   4.525   4.136  1.00 20.00     0.015 C 
HETATM    9  C4  UNL     1     -34.672   5.598   6.275  1.00 20.00     0.015 C 
HETATM   10  C5  UNL     1     -35.988   5.974   4.205  1.00 20.00     0.015 C 
ENDBRANCH   2   7
TORSDOF 3
ENDMDL
MODEL 2
REMARK VINA RESULT:      -3.8      0.069      1.356
REMARK  3 active torsions:
REMARK  status: ('A' for Active; 'I' for Inactive)
REMARK    1  A    between atoms: C6_6  and  C7_7 
REMARK    2  A    between atoms: C6_6  and  C8_8 
REMARK    3  A    between atoms: C7_7  and  C9_9 
ROOT
HETATM    1  C1  UNL     1     -33.023   7.777   5.662  1.00 20.00     0.011 C 
HETATM    2  C7  UNL     1     -33.654   7.123   4.421  1.00 20.00    -0.010 C 
ENDROOT
BRANCH   2   3
HETATM    3  C6  UNL     1     -32.565   6.854   3.342  1.00 20.00     0.024 C 
BRANCH   3   4
HETATM    4  C8  UNL     1     -32.027   8.085   2.588  1.00 20.00     0.078 C 
HETATM    5  C2  UNL     1     -32.060   7.854   1.080  1.00 20.00     0.026 C 
HETATM    6 CL10 UNL     1     -32.990   9.546   2.965  1.00 20.00    -0.125 Cl
ENDBRANCH   3   4
ENDBRANCH   2   3
BRANCH   2   7
HETATM    7  C9  UNL     1     -34.509   5.841   4.772  1.00 20.00    -0.048 C 
HETATM    8  C3  UNL     1     -34.588   5.580   6.287  1.00 20.00     0.015 C 
HETATM    9  C4  UNL     1     -35.951   5.993   4.234  1.00 20.00     0.015 C 
HETATM   10  C5  UNL     1     -33.911   4.586   4.097  1.00 20.00     0.015 C 
ENDBRANCH   2   7
TORSDOF 3
ENDMDL
MODEL 3
REMARK VINA RESULT:      -3.8      0.037      1.371
REMARK  3 active torsions:
REMARK  status: ('A' for Active; 'I' for Inactive)
REMARK    1  A    between atoms: C6_6  and  C7_7 
REMARK    2  A    between atoms: C6_6  and  C8_8 
REMARK    3  A    between atoms: C7_7  and  C9_9 
ROOT
HETATM    1  C1  UNL     1     -33.064   7.730   5.703  1.00 20.00     0.011 C 
HETATM    2  C7  UNL     1     -33.677   7.117   4.432  1.00 20.00    -0.010 C 
ENDROOT
BRANCH   2   3
HETATM    3  C6  UNL     1     -32.567   6.848   3.375  1.00 20.00     0.024 C 
BRANCH   3   4
HETATM    4  C8  UNL     1     -32.024   8.078   2.621  1.00 20.00     0.078 C 
HETATM    5  C2  UNL     1     -32.077   7.856   1.112  1.00 20.00     0.026 C 
HETATM    6 CL10 UNL     1     -32.966   9.546   3.017  1.00 20.00    -0.125 Cl
ENDBRANCH   3   4
ENDBRANCH   2   3
BRANCH   2   7
HETATM    7  C9  UNL     1     -34.567   5.846   4.732  1.00 20.00    -0.048 C 
HETATM    8  C3  UNL     1     -36.001   5.989   4.190  1.00 20.00     0.015 C 
HETATM    9  C4  UNL     1     -33.937   4.586   4.096  1.00 20.00     0.015 C 
HETATM   10  C5  UNL     1     -34.649   5.585   6.253  1.00 20.00     0.015 C 
ENDBRANCH   2   7
TORSDOF 3
ENDMDL
MODEL 4
REMARK VINA RESULT:      -3.6      9.533     10.693
REMARK  3 active torsions:
REMARK  status: ('A' for Active; 'I' for Inactive)
REMARK    1  A    between atoms: C6_6  and  C7_7 
REMARK    2  A    between atoms: C6_6  and  C8_8 
REMARK    3  A    between atoms: C7_7  and  C9_9 
ROOT
HETATM    1  C1  UNL     1     -42.923  12.310   6.966  1.00 20.00     0.011 C 
HETATM    2  C7  UNL     1     -41.611  13.100   6.826  1.00 20.00    -0.010 C 
ENDROOT
BRANCH   2   3
HETATM    3  C6  UNL     1     -40.955  12.814   5.444  1.00 20.00     0.024 C 
BRANCH   3   4
HETATM    4  C8  UNL     1     -39.846  11.746   5.418  1.00 20.00     0.078 C 
HETATM    5  C2  UNL     1     -39.123  11.748   4.075  1.00 20.00     0.026 C 
HETATM    6 CL10 UNL     1     -38.646  12.029   6.715  1.00 20.00    -0.125 Cl
ENDBRANCH   3   4
ENDBRANCH   2   3
BRANCH   2   7
HETATM    7  C9  UNL     1     -41.790  14.643   7.121  1.00 20.00    -0.048 C 
HETATM    8  C3  UNL     1     -42.235  15.433   5.877  1.00 20.00     0.015 C 
HETATM    9  C4  UNL     1     -42.845  14.859   8.230  1.00 20.00     0.015 C 
HETATM   10  C5  UNL     1     -40.468  15.256   7.636  1.00 20.00     0.015 C 
ENDBRANCH   2   7
TORSDOF 3
ENDMDL
MODEL 5
REMARK VINA RESULT:      -3.5     11.636     13.180
REMARK  3 active torsions:
REMARK  status: ('A' for Active; 'I' for Inactive)
REMARK    1  A    between atoms: C6_6  and  C7_7 
REMARK    2  A    between atoms: C6_6  and  C8_8 
REMARK    3  A    between atoms: C7_7  and  C9_9 
ROOT
HETATM    1  C1  UNL     1     -33.551  14.478  -4.369  1.00 20.00     0.011 C 
HETATM    2  C7  UNL     1     -34.208  15.849  -4.131  1.00 20.00    -0.010 C 
ENDROOT
BRANCH   2   3
HETATM    3  C6  UNL     1     -33.221  16.797  -3.390  1.00 20.00     0.024 C 
BRANCH   3   4
HETATM    4  C8  UNL     1     -33.661  17.294  -2.000  1.00 20.00     0.078 C 
HETATM    5  C2  UNL     1     -32.502  17.972  -1.275  1.00 20.00     0.026 C 
HETATM    6 CL10 UNL     1     -35.016  18.456  -2.127  1.00 20.00    -0.125 Cl
ENDBRANCH   3   4
ENDBRANCH   2   3
BRANCH   2   7
HETATM    7  C9  UNL     1     -34.802  16.482  -5.452  1.00 20.00    -0.048 C 
HETATM    8  C3  UNL     1     -34.352  17.939  -5.662  1.00 20.00     0.015 C 
HETATM    9  C4  UNL     1     -34.362  15.661  -6.686  1.00 20.00     0.015 C 
HETATM   10  C5  UNL     1     -36.346  16.453  -5.424  1.00 20.00     0.015 C 
ENDBRANCH   2   7
TORSDOF 3
ENDMDL
MODEL 6
REMARK VINA RESULT:      -3.5     11.807     13.299
REMARK  3 active torsions:
REMARK  status: ('A' for Active; 'I' for Inactive)
REMARK    1  A    between atoms: C6_6  and  C7_7 
REMARK    2  A    between atoms: C6_6  and  C8_8 
REMARK    3  A    between atoms: C7_7  and  C9_9 
ROOT
HETATM    1  C1  UNL     1     -33.362  15.975  -3.339  1.00 20.00     0.011 C 
HETATM    2  C7  UNL     1     -33.821  17.290  -2.687  1.00 20.00    -0.010 C 
ENDROOT
BRANCH   2   3
HETATM    3  C6  UNL     1     -32.592  18.093  -2.171  1.00 20.00     0.024 C 
BRANCH   3   4
HETATM    4  C8  UNL     1     -32.689  18.652  -0.739  1.00 20.00     0.078 C 
HETATM    5  C2  UNL     1     -33.776  17.930   0.052  1.00 20.00     0.026 C 
HETATM    6 CL10 UNL     1     -31.135  18.475   0.130  1.00 20.00    -0.125 Cl
ENDBRANCH   3   4
ENDBRANCH   2   3
BRANCH   2   7
HETATM    7  C9  UNL     1     -34.770  18.140  -3.623  1.00 20.00    -0.048 C 
HETATM    8  C3  UNL     1     -35.932  18.791  -2.850  1.00 20.00     0.015 C 
HETATM    9  C4  UNL     1     -33.968  19.263  -4.321  1.00 20.00     0.015 C 
HETATM   10  C5  UNL     1     -35.368  17.256  -4.740  1.00 20.00     0.015 C 
ENDBRANCH   2   7
TORSDOF 3
ENDMDL
MODEL 7
REMARK VINA RESULT:      -3.5      9.199     10.266
REMARK  3 active torsions:
REMARK  status: ('A' for Active; 'I' for Inactive)
REMARK    1  A    between atoms: C6_6  and  C7_7 
REMARK    2  A    between atoms: C6_6  and  C8_8 
REMARK    3  A    between atoms: C7_7  and  C9_9 
ROOT
HETATM    1  C1  UNL     1     -40.427  13.966   7.736  1.00 20.00     0.011 C 
HETATM    2  C7  UNL     1     -40.699  13.659   6.254  1.00 20.00    -0.010 C 
ENDROOT
BRANCH   2   3
HETATM    3  C6  UNL     1     -40.665  12.123   6.007  1.00 20.00     0.024 C 
BRANCH   3   4
HETATM    4  C8  UNL     1     -39.395  11.562   5.340  1.00 20.00     0.078 C 
HETATM    5  C2  UNL     1     -39.357  11.923   3.858  1.00 20.00     0.026 C 
HETATM    6 CL10 UNL     1     -37.918  12.199   6.123  1.00 20.00    -0.125 Cl
ENDBRANCH   3   4
ENDBRANCH   2   3
BRANCH   2   7
HETATM    7  C9  UNL     1     -42.018  14.344   5.717  1.00 20.00    -0.048 C 
HETATM    8  C3  UNL     1     -42.062  14.415   4.179  1.00 20.00     0.015 C 
HETATM    9  C4  UNL     1     -43.263  13.564   6.198  1.00 20.00     0.015 C 
HETATM   10  C5  UNL     1     -42.149  15.781   6.270  1.00 20.00     0.015 C 
ENDBRANCH   2   7
TORSDOF 3
ENDMDL
MODEL 8
REMARK VINA RESULT:      -3.4     11.748     13.088
REMARK  3 active torsions:
REMARK  status: ('A' for Active; 'I' for Inactive)
REMARK    1  A    between atoms: C6_6  and  C7_7 
REMARK    2  A    between atoms: C6_6  and  C8_8 
REMARK    3  A    between atoms: C7_7  and  C9_9 
ROOT
HETATM    1  C1  UNL     1     -32.873  15.042  -4.181  1.00 20.00     0.011 C 
HETATM    2  C7  UNL     1     -34.119  15.937  -4.285  1.00 20.00    -0.010 C 
ENDROOT
BRANCH   2   3
HETATM    3  C6  UNL     1     -33.715  17.437  -4.186  1.00 20.00     0.024 C 
BRANCH   3   4
HETATM    4  C8  UNL     1     -33.992  18.136  -2.842  1.00 20.00     0.078 C 
HETATM    5  C2  UNL     1     -35.441  18.608  -2.766  1.00 20.00     0.026 C 
HETATM    6 CL10 UNL     1     -33.673  17.039  -1.465  1.00 20.00    -0.125 Cl
ENDBRANCH   3   4
ENDBRANCH   2   3
BRANCH   2   7
HETATM    7  C9  UNL     1     -35.002  15.616  -5.556  1.00 20.00    -0.048 C 
HETATM    8  C3  UNL     1     -35.945  14.419  -5.333  1.00 20.00     0.015 C 
HETATM    9  C4  UNL     1     -35.864  16.842  -5.935  1.00 20.00     0.015 C 
HETATM   10  C5  UNL     1     -34.107  15.304  -6.776  1.00 20.00     0.015 C 
ENDBRANCH   2   7
TORSDOF 3
ENDMDL
MODEL 9
REMARK VINA RESULT:      -3.4     11.594     12.961
REMARK  3 active torsions:
REMARK  status: ('A' for Active; 'I' for Inactive)
REMARK    1  A    between atoms: C6_6  and  C7_7 
REMARK    2  A    between atoms: C6_6  and  C8_8 
REMARK    3  A    between atoms: C7_7  and  C9_9 
ROOT
HETATM    1  C1  UNL     1     -35.655  17.540  -4.563  1.00 20.00     0.011 C 
HETATM    2  C7  UNL     1     -34.324  16.772  -4.620  1.00 20.00    -0.010 C 
ENDROOT
BRANCH   2   3
HETATM    3  C6  UNL     1     -33.659  16.741  -3.213  1.00 20.00     0.024 C 
BRANCH   3   4
HETATM    4  C8  UNL     1     -33.854  17.992  -2.335  1.00 20.00     0.078 C 
HETATM    5  C2  UNL     1     -33.714  17.642  -0.856  1.00 20.00     0.026 C 
HETATM    6 CL10 UNL     1     -32.659  19.259  -2.740  1.00 20.00    -0.125 Cl
ENDBRANCH   3   4
ENDBRANCH   2   3
BRANCH   2   7
HETATM    7  C9  UNL     1     -34.470  15.338  -5.268  1.00 20.00    -0.048 C 
HETATM    8  C3  UNL     1     -33.788  14.240  -4.432  1.00 20.00     0.015 C 
HETATM    9  C4  UNL     1     -35.963  14.968  -5.422  1.00 20.00     0.015 C 
HETATM   10  C5  UNL     1     -33.856  15.316  -6.686  1.00 20.00     0.015 C 
ENDBRANCH   2   7
TORSDOF 3
ENDMDL
