MODEL 1
REMARK VINA RESULT:      -4.4      0.000      0.000
REMARK  2 active torsions:
REMARK  status: ('A' for Active; 'I' for Inactive)
REMARK    1  A    between atoms: C1_1  and  C10_10 
REMARK    2  A    between atoms: C5_5  and  C10_10 
ROOT
HETATM    1  C2  UNL     1     -32.907   5.850   2.736  1.00 20.00     0.005 C 
HETATM    2  C3  UNL     1     -33.503   5.125   3.941  1.00 20.00     0.005 C 
HETATM    3  C4  UNL     1     -33.491   8.072   3.786  1.00 20.00     0.009 C 
HETATM    4  C5  UNL     1     -32.391   7.246   3.103  1.00 20.00    -0.008 C 
HETATM    5  C6  UNL     1     -34.601   5.956   4.620  1.00 20.00    -0.015 C 
HETATM    6  C7  UNL     1     -34.102   7.368   5.011  1.00 20.00    -0.015 C 
HETATM    7  C8  UNL     1     -35.202   5.189   5.798  1.00 20.00     0.010 C 
HETATM    8  C9  UNL     1     -33.121   7.378   6.191  1.00 20.00     0.010 C 
ENDROOT
BRANCH   4   9
HETATM    9  C10 UNL     1     -31.870   7.969   1.862  1.00 20.00     0.074 C 
BRANCH   9  10
HETATM   10  C1  UNL     1     -32.720   9.153   1.490  1.00 20.00     0.231 C 
HETATM   11  O11 UNL     1     -32.859   9.594   0.355  1.00 20.00    -0.307 OA
ENDBRANCH   9  10
ENDBRANCH   4   9
TORSDOF 2
ENDMDL
MODEL 2
REMARK VINA RESULT:      -4.4      0.978      2.065
REMARK  2 active torsions:
REMARK  status: ('A' for Active; 'I' for Inactive)
REMARK    1  A    between atoms: C1_1  and  C10_10 
REMARK    2  A    between atoms: C5_5  and  C10_10 
ROOT
HETATM    1  C2  UNL     1     -32.473   8.406   4.133  1.00 20.00     0.005 C 
HETATM    2  C3  UNL     1     -33.415   8.220   5.321  1.00 20.00     0.005 C 
HETATM    3  C4  UNL     1     -33.077   6.101   3.294  1.00 20.00     0.009 C 
HETATM    4  C5  UNL     1     -32.912   7.580   2.918  1.00 20.00    -0.008 C 
HETATM    5  C6  UNL     1     -33.578   6.739   5.692  1.00 20.00    -0.015 C 
HETATM    6  C7  UNL     1     -34.032   5.885   4.484  1.00 20.00    -0.015 C 
HETATM    7  C8  UNL     1     -34.496   6.588   6.905  1.00 20.00     0.010 C 
HETATM    8  C9  UNL     1     -35.488   6.120   4.065  1.00 20.00     0.010 C 
ENDROOT
BRANCH   4   9
HETATM    9  C10 UNL     1     -31.909   7.734   1.775  1.00 20.00     0.074 C 
BRANCH   9  10
HETATM   10  C1  UNL     1     -32.400   8.672   0.706  1.00 20.00     0.231 C 
HETATM   11  O11 UNL     1     -32.830   9.803   0.903  1.00 20.00    -0.307 OA
ENDBRANCH   9  10
ENDBRANCH   4   9
TORSDOF 2
ENDMDL
MODEL 3
REMARK VINA RESULT:      -4.0     11.428     12.700
REMARK  2 active torsions:
REMARK  status: ('A' for Active; 'I' for Inactive)
REMARK    1  A    between atoms: C1_1  and  C10_10 
REMARK    2  A    between atoms: C5_5  and  C10_10 
ROOT
HETATM    1  C2  UNL     1     -33.907  18.647  -4.042  1.00 20.00     0.005 C 
HETATM    2  C3  UNL     1     -34.302  17.659  -5.138  1.00 20.00     0.005 C 
HETATM    3  C4  UNL     1     -33.492  16.723  -2.459  1.00 20.00     0.009 C 
HETATM    4  C5  UNL     1     -32.928  18.029  -3.038  1.00 20.00    -0.008 C 
HETATM    5  C6  UNL     1     -34.863  16.354  -4.554  1.00 20.00    -0.015 C 
HETATM    6  C7  UNL     1     -33.888  15.704  -3.544  1.00 20.00    -0.015 C 
HETATM    7  C8  UNL     1     -35.283  15.402  -5.675  1.00 20.00     0.010 C 
HETATM    8  C9  UNL     1     -32.643  15.083  -4.190  1.00 20.00     0.010 C 
ENDROOT
BRANCH   4   9
HETATM    9  C10 UNL     1     -32.613  19.020  -1.918  1.00 20.00     0.074 C 
BRANCH   9  10
HETATM   10  C1  UNL     1     -31.817  18.391  -0.806  1.00 20.00     0.231 C 
HETATM   11  O11 UNL     1     -30.668  18.692  -0.504  1.00 20.00    -0.307 OA
ENDBRANCH   9  10
ENDBRANCH   4   9
TORSDOF 2
ENDMDL
MODEL 4
REMARK VINA RESULT:      -4.0     11.635     13.061
REMARK  2 active torsions:
REMARK  status: ('A' for Active; 'I' for Inactive)
REMARK    1  A    between atoms: C1_1  and  C10_10 
REMARK    2  A    between atoms: C5_5  and  C10_10 
ROOT
HETATM    1  C2  UNL     1     -33.166  16.725  -2.452  1.00 20.00     0.005 C 
HETATM    2  C3  UNL     1     -33.917  16.454  -3.754  1.00 20.00     0.005 C 
HETATM    3  C4  UNL     1     -34.045  19.093  -2.439  1.00 20.00     0.009 C 
HETATM    4  C5  UNL     1     -33.845  17.814  -1.613  1.00 20.00    -0.008 C 
HETATM    5  C6  UNL     1     -34.116  17.737  -4.575  1.00 20.00    -0.015 C 
HETATM    6  C7  UNL     1     -34.810  18.849  -3.753  1.00 20.00    -0.015 C 
HETATM    7  C8  UNL     1     -34.836  17.427  -5.887  1.00 20.00     0.010 C 
HETATM    8  C9  UNL     1     -36.296  18.586  -3.479  1.00 20.00     0.010 C 
ENDROOT
BRANCH   4   9
HETATM    9  C10 UNL     1     -33.029  18.109  -0.356  1.00 20.00     0.074 C 
BRANCH   9  10
HETATM   10  C1  UNL     1     -31.835  18.980  -0.641  1.00 20.00     0.231 C 
HETATM   11  O11 UNL     1     -30.666  18.652  -0.469  1.00 20.00    -0.307 OA
ENDBRANCH   9  10
ENDBRANCH   4   9
TORSDOF 2
ENDMDL
MODEL 5
REMARK VINA RESULT:      -3.7     11.349     12.759
REMARK  2 active torsions:
REMARK  status: ('A' for Active; 'I' for Inactive)
REMARK    1  A    between atoms: C1_1  and  C10_10 
REMARK    2  A    between atoms: C5_5  and  C10_10 
ROOT
HETATM    1  C2  UNL     1     -33.363  15.414  -3.793  1.00 20.00     0.005 C 
HETATM    2  C3  UNL     1     -34.222  14.895  -4.945  1.00 20.00     0.005 C 
HETATM    3  C4  UNL     1     -34.058  17.780  -4.340  1.00 20.00     0.009 C 
HETATM    4  C5  UNL     1     -33.898  16.734  -3.227  1.00 20.00    -0.008 C 
HETATM    5  C6  UNL     1     -34.381  15.946  -6.054  1.00 20.00    -0.015 C 
HETATM    6  C7  UNL     1     -34.930  17.287  -5.510  1.00 20.00    -0.015 C 
HETATM    7  C8  UNL     1     -35.213  15.386  -7.208  1.00 20.00     0.010 C 
HETATM    8  C9  UNL     1     -36.409  17.236  -5.105  1.00 20.00     0.010 C 
ENDROOT
BRANCH   4   9
HETATM    9  C10 UNL     1     -32.975  17.258  -2.128  1.00 20.00     0.074 C 
BRANCH   9  10
HETATM   10  C1  UNL     1     -33.732  17.674  -0.896  1.00 20.00     0.231 C 
HETATM   11  O11 UNL     1     -33.230  18.162   0.110  1.00 20.00    -0.307 OA
ENDBRANCH   9  10
ENDBRANCH   4   9
TORSDOF 2
ENDMDL
MODEL 6
REMARK VINA RESULT:      -3.6      9.890     10.960
REMARK  2 active torsions:
REMARK  status: ('A' for Active; 'I' for Inactive)
REMARK    1  A    between atoms: C1_1  and  C10_10 
REMARK    2  A    between atoms: C5_5  and  C10_10 
ROOT
HETATM    1  C2  UNL     1     -41.298  13.537   5.033  1.00 20.00     0.005 C 
HETATM    2  C3  UNL     1     -42.410  14.550   5.300  1.00 20.00     0.005 C 
HETATM    3  C4  UNL     1     -40.446  13.853   7.390  1.00 20.00     0.009 C 
HETATM    4  C5  UNL     1     -40.845  12.831   6.316  1.00 20.00    -0.008 C 
HETATM    5  C6  UNL     1     -42.006  15.569   6.376  1.00 20.00    -0.015 C 
HETATM    6  C7  UNL     1     -41.554  14.880   7.687  1.00 20.00    -0.015 C 
HETATM    7  C8  UNL     1     -43.123  16.590   6.594  1.00 20.00     0.010 C 
HETATM    8  C9  UNL     1     -42.698  14.235   8.479  1.00 20.00     0.010 C 
ENDROOT
BRANCH   4   9
HETATM    9  C10 UNL     1     -39.685  11.880   6.023  1.00 20.00     0.074 C 
BRANCH   9  10
HETATM   10  C1  UNL     1     -39.423  11.737   4.548  1.00 20.00     0.231 C 
HETATM   11  O11 UNL     1     -38.314  11.627   4.036  1.00 20.00    -0.307 OA
ENDBRANCH   9  10
ENDBRANCH   4   9
TORSDOF 2
ENDMDL
MODEL 7
REMARK VINA RESULT:      -3.6     10.001     11.002
REMARK  2 active torsions:
REMARK  status: ('A' for Active; 'I' for Inactive)
REMARK    1  A    between atoms: C1_1  and  C10_10 
REMARK    2  A    between atoms: C5_5  and  C10_10 
ROOT
HETATM    1  C2  UNL     1     -42.387  12.647   6.754  1.00 20.00     0.005 C 
HETATM    2  C3  UNL     1     -42.907  13.042   8.135  1.00 20.00     0.005 C 
HETATM    3  C4  UNL     1     -40.728  14.550   6.835  1.00 20.00     0.009 C 
HETATM    4  C5  UNL     1     -40.923  13.053   6.554  1.00 20.00    -0.008 C 
HETATM    5  C6  UNL     1     -42.708  14.540   8.412  1.00 20.00    -0.015 C 
HETATM    6  C7  UNL     1     -41.234  14.973   8.227  1.00 20.00    -0.015 C 
HETATM    7  C8  UNL     1     -43.270  14.910   9.784  1.00 20.00     0.010 C 
HETATM    8  C9  UNL     1     -40.292  14.467   9.327  1.00 20.00     0.010 C 
ENDROOT
BRANCH   4   9
HETATM    9  C10 UNL     1     -40.460  12.708   5.139  1.00 20.00     0.074 C 
BRANCH   9  10
HETATM   10  C1  UNL     1     -39.250  11.813   5.136  1.00 20.00     0.231 C 
HETATM   11  O11 UNL     1     -38.096  12.186   5.312  1.00 20.00    -0.307 OA
ENDBRANCH   9  10
ENDBRANCH   4   9
TORSDOF 2
ENDMDL
MODEL 8
REMARK VINA RESULT:      -3.6     11.525     12.974
REMARK  2 active torsions:
REMARK  status: ('A' for Active; 'I' for Inactive)
REMARK    1  A    between atoms: C1_1  and  C10_10 
REMARK    2  A    between atoms: C5_5  and  C10_10 
ROOT
HETATM    1  C2  UNL     1     -34.853  17.753  -3.928  1.00 20.00     0.005 C 
HETATM    2  C3  UNL     1     -35.526  17.571  -5.287  1.00 20.00     0.005 C 
HETATM    3  C4  UNL     1     -34.107  15.340  -3.974  1.00 20.00     0.009 C 
HETATM    4  C5  UNL     1     -33.672  16.794  -3.738  1.00 20.00    -0.008 C 
HETATM    5  C6  UNL     1     -35.957  16.115  -5.518  1.00 20.00    -0.015 C 
HETATM    6  C7  UNL     1     -34.779  15.126  -5.343  1.00 20.00    -0.015 C 
HETATM    7  C8  UNL     1     -36.659  15.972  -6.868  1.00 20.00     0.010 C 
HETATM    8  C9  UNL     1     -33.744  15.182  -6.473  1.00 20.00     0.010 C 
ENDROOT
BRANCH   4   9
HETATM    9  C10 UNL     1     -33.070  16.955  -2.343  1.00 20.00     0.074 C 
BRANCH   9  10
HETATM   10  C1  UNL     1     -32.860  18.399  -1.974  1.00 20.00     0.231 C 
HETATM   11  O11 UNL     1     -31.805  18.878  -1.573  1.00 20.00    -0.307 OA
ENDBRANCH   9  10
ENDBRANCH   4   9
TORSDOF 2
ENDMDL
MODEL 9
REMARK VINA RESULT:      -3.5      9.814     10.938
REMARK  2 active torsions:
REMARK  status: ('A' for Active; 'I' for Inactive)
REMARK    1  A    between atoms: C1_1  and  C10_10 
REMARK    2  A    between atoms: C5_5  and  C10_10 
ROOT
HETATM    1  C2  UNL     1     -40.078  13.890   7.164  1.00 20.00     0.005 C 
HETATM    2  C3  UNL     1     -41.055  15.038   7.413  1.00 20.00     0.005 C 
HETATM    3  C4  UNL     1     -42.002  12.399   6.489  1.00 20.00     0.009 C 
HETATM    4  C5  UNL     1     -40.603  12.907   6.112  1.00 20.00    -0.008 C 
HETATM    5  C6  UNL     1     -42.453  14.524   7.788  1.00 20.00    -0.015 C 
HETATM    6  C7  UNL     1     -43.010  13.537   6.734  1.00 20.00    -0.015 C 
HETATM    7  C8  UNL     1     -43.397  15.695   8.066  1.00 20.00     0.010 C 
HETATM    8  C9  UNL     1     -43.417  14.200   5.412  1.00 20.00     0.010 C 
ENDROOT
BRANCH   4   9
HETATM    9  C10 UNL     1     -39.635  11.736   5.942  1.00 20.00     0.074 C 
BRANCH   9  10
HETATM   10  C1  UNL     1     -38.886  11.798   4.638  1.00 20.00     0.231 C 
HETATM   11  O11 UNL     1     -39.395  12.004   3.542  1.00 20.00    -0.307 OA
ENDBRANCH   9  10
ENDBRANCH   4   9
TORSDOF 2
ENDMDL
