MODEL 1
REMARK VINA RESULT:      -4.0      0.000      0.000
REMARK  5 active torsions:
REMARK  status: ('A' for Active; 'I' for Inactive)
REMARK    1  A    between atoms: C6_6  and  C7_7 
REMARK    2  A    between atoms: C6_6  and  C9_9 
REMARK    3  A    between atoms: C7_7  and  C11_11 
REMARK    4  A    between atoms: C8_8  and  C9_9 
REMARK    5  A    between atoms: C8_8  and  C10_10 
ROOT
HETATM    1  C6  UNL     1     -33.357  16.353  -3.122  1.00 20.00     0.005 C 
ENDROOT
BRANCH   1   2
HETATM    2  C7  UNL     1     -34.051  16.662  -4.460  1.00 20.00     0.008 C 
BRANCH   2   3
HETATM    3  C11 UNL     1     -34.688  15.445  -5.184  1.00 20.00    -0.051 C 
HETATM    4  C3  UNL     1     -33.964  15.139  -6.506  1.00 20.00     0.014 C 
HETATM    5  C4  UNL     1     -36.180  15.683  -5.467  1.00 20.00     0.014 C 
HETATM    6  C5  UNL     1     -34.555  14.215  -4.263  1.00 20.00     0.014 C 
ENDBRANCH   2   3
ENDBRANCH   1   2
BRANCH   1   7
HETATM    7  C9  UNL     1     -33.679  17.375  -2.009  1.00 20.00    -0.017 C 
HETATM    8  C1  UNL     1     -34.746  18.386  -2.450  1.00 20.00     0.010 C 
BRANCH   7   9
HETATM    9  C8  UNL     1     -32.417  18.153  -1.559  1.00 20.00     0.024 C 
BRANCH   9  10
HETATM   10  C10 UNL     1     -32.461  18.776  -0.154  1.00 20.00     0.078 C 
HETATM   11  C2  UNL     1     -31.144  18.549   0.582  1.00 20.00     0.026 C 
HETATM   12 CL12 UNL     1     -33.791  18.081   0.819  1.00 20.00    -0.125 Cl
ENDBRANCH   9  10
ENDBRANCH   7   9
ENDBRANCH   1   7
TORSDOF 5
ENDMDL
MODEL 2
REMARK VINA RESULT:      -3.9      2.398      5.745
REMARK  5 active torsions:
REMARK  status: ('A' for Active; 'I' for Inactive)
REMARK    1  A    between atoms: C6_6  and  C7_7 
REMARK    2  A    between atoms: C6_6  and  C9_9 
REMARK    3  A    between atoms: C7_7  and  C11_11 
REMARK    4  A    between atoms: C8_8  and  C9_9 
REMARK    5  A    between atoms: C8_8  and  C10_10 
ROOT
HETATM    1  C6  UNL     1     -33.484  16.917  -3.388  1.00 20.00     0.005 C 
ENDROOT
BRANCH   1   2
HETATM    2  C7  UNL     1     -33.564  16.856  -1.854  1.00 20.00     0.008 C 
BRANCH   2   3
HETATM    3  C11 UNL     1     -33.550  18.227  -1.124  1.00 20.00    -0.051 C 
HETATM    4  C3  UNL     1     -34.649  19.159  -1.661  1.00 20.00     0.014 C 
HETATM    5  C4  UNL     1     -32.184  18.920  -1.268  1.00 20.00     0.014 C 
HETATM    6  C5  UNL     1     -33.815  17.976   0.374  1.00 20.00     0.014 C 
ENDBRANCH   2   3
ENDBRANCH   1   2
BRANCH   1   7
HETATM    7  C9  UNL     1     -33.817  15.576  -4.079  1.00 20.00    -0.017 C 
HETATM    8  C1  UNL     1     -32.565  14.710  -4.281  1.00 20.00     0.010 C 
BRANCH   7   9
HETATM    9  C8  UNL     1     -34.497  15.789  -5.454  1.00 20.00     0.024 C 
BRANCH   9  10
HETATM   10  C10 UNL     1     -35.799  15.010  -5.702  1.00 20.00     0.078 C 
HETATM   11  C2  UNL     1     -37.016  15.911  -5.513  1.00 20.00     0.026 C 
HETATM   12 CL12 UNL     1     -35.938  13.614  -4.592  1.00 20.00    -0.125 Cl
ENDBRANCH   9  10
ENDBRANCH   7   9
ENDBRANCH   1   7
TORSDOF 5
ENDMDL
MODEL 3
REMARK VINA RESULT:      -3.8      2.093      5.173
REMARK  5 active torsions:
REMARK  status: ('A' for Active; 'I' for Inactive)
REMARK    1  A    between atoms: C6_6  and  C7_7 
REMARK    2  A    between atoms: C6_6  and  C9_9 
REMARK    3  A    between atoms: C7_7  and  C11_11 
REMARK    4  A    between atoms: C8_8  and  C9_9 
REMARK    5  A    between atoms: C8_8  and  C10_10 
ROOT
HETATM    1  C6  UNL     1     -33.074  16.455  -3.385  1.00 20.00     0.005 C 
ENDROOT
BRANCH   1   2
HETATM    2  C7  UNL     1     -33.408  16.903  -1.953  1.00 20.00     0.008 C 
BRANCH   2   3
HETATM    3  C11 UNL     1     -33.032  18.368  -1.601  1.00 20.00    -0.051 C 
HETATM    4  C3  UNL     1     -32.767  19.197  -2.869  1.00 20.00     0.014 C 
HETATM    5  C4  UNL     1     -31.794  18.423  -0.692  1.00 20.00     0.014 C 
HETATM    6  C5  UNL     1     -34.221  19.000  -0.848  1.00 20.00     0.014 C 
ENDBRANCH   2   3
ENDBRANCH   1   2
BRANCH   1   7
HETATM    7  C9  UNL     1     -34.297  15.930  -4.170  1.00 20.00    -0.017 C 
HETATM    8  C1  UNL     1     -34.238  14.410  -4.373  1.00 20.00     0.010 C 
BRANCH   7   9
HETATM    9  C8  UNL     1     -34.426  16.609  -5.557  1.00 20.00     0.024 C 
BRANCH   9  10
HETATM   10  C10 UNL     1     -35.365  17.824  -5.640  1.00 20.00     0.078 C 
HETATM   11  C2  UNL     1     -34.604  19.068  -6.090  1.00 20.00     0.026 C 
HETATM   12 CL12 UNL     1     -36.130  18.159  -4.058  1.00 20.00    -0.125 Cl
ENDBRANCH   9  10
ENDBRANCH   7   9
ENDBRANCH   1   7
TORSDOF 5
ENDMDL
MODEL 4
REMARK VINA RESULT:      -3.7      1.346      2.374
REMARK  5 active torsions:
REMARK  status: ('A' for Active; 'I' for Inactive)
REMARK    1  A    between atoms: C6_6  and  C7_7 
REMARK    2  A    between atoms: C6_6  and  C9_9 
REMARK    3  A    between atoms: C7_7  and  C11_11 
REMARK    4  A    between atoms: C8_8  and  C9_9 
REMARK    5  A    between atoms: C8_8  and  C10_10 
ROOT
HETATM    1  C6  UNL     1     -34.564  17.432  -4.180  1.00 20.00     0.005 C 
ENDROOT
BRANCH   1   2
HETATM    2  C7  UNL     1     -34.736  16.836  -5.588  1.00 20.00     0.008 C 
BRANCH   2   3
HETATM    3  C11 UNL     1     -36.121  16.200  -5.885  1.00 20.00    -0.051 C 
HETATM    4  C3  UNL     1     -37.246  16.938  -5.141  1.00 20.00     0.014 C 
HETATM    5  C4  UNL     1     -36.146  14.713  -5.494  1.00 20.00     0.014 C 
HETATM    6  C5  UNL     1     -36.385  16.312  -7.400  1.00 20.00     0.014 C 
ENDBRANCH   2   3
ENDBRANCH   1   2
BRANCH   1   7
HETATM    7  C9  UNL     1     -33.338  16.879  -3.420  1.00 20.00    -0.017 C 
HETATM    8  C1  UNL     1     -32.956  15.470  -3.896  1.00 20.00     0.010 C 
BRANCH   7   9
HETATM    9  C8  UNL     1     -33.580  16.834  -1.891  1.00 20.00     0.024 C 
BRANCH   9  10
HETATM   10  C10 UNL     1     -33.326  18.139  -1.119  1.00 20.00     0.078 C 
HETATM   11  C2  UNL     1     -31.831  18.424  -1.012  1.00 20.00     0.026 C 
HETATM   12 CL12 UNL     1     -34.016  18.059   0.529  1.00 20.00    -0.125 Cl
ENDBRANCH   9  10
ENDBRANCH   7   9
ENDBRANCH   1   7
TORSDOF 5
ENDMDL
MODEL 5
REMARK VINA RESULT:      -3.6     12.171     13.566
REMARK  5 active torsions:
REMARK  status: ('A' for Active; 'I' for Inactive)
REMARK    1  A    between atoms: C6_6  and  C7_7 
REMARK    2  A    between atoms: C6_6  and  C9_9 
REMARK    3  A    between atoms: C7_7  and  C11_11 
REMARK    4  A    between atoms: C8_8  and  C9_9 
REMARK    5  A    between atoms: C8_8  and  C10_10 
ROOT
HETATM    1  C6  UNL     1     -42.498  14.871   6.453  1.00 20.00     0.005 C 
ENDROOT
BRANCH   1   2
HETATM    2  C7  UNL     1     -42.493  14.899   7.990  1.00 20.00     0.008 C 
BRANCH   2   3
HETATM    3  C11 UNL     1     -41.294  15.635   8.647  1.00 20.00    -0.051 C 
HETATM    4  C3  UNL     1     -40.238  14.640   9.157  1.00 20.00     0.014 C 
HETATM    5  C4  UNL     1     -41.757  16.525   9.812  1.00 20.00     0.014 C 
HETATM    6  C5  UNL     1     -40.638  16.531   7.577  1.00 20.00     0.014 C 
ENDBRANCH   2   3
ENDBRANCH   1   2
BRANCH   1   7
HETATM    7  C9  UNL     1     -42.220  13.472   5.858  1.00 20.00    -0.017 C 
HETATM    8  C1  UNL     1     -42.452  12.357   6.887  1.00 20.00     0.010 C 
BRANCH   7   9
HETATM    9  C8  UNL     1     -40.773  13.353   5.318  1.00 20.00     0.024 C 
BRANCH   9  10
HETATM   10  C10 UNL     1     -40.068  12.006   5.542  1.00 20.00     0.078 C 
HETATM   11  C2  UNL     1     -39.013  12.122   6.639  1.00 20.00     0.026 C 
HETATM   12 CL12 UNL     1     -39.280  11.431   4.044  1.00 20.00    -0.125 Cl
ENDBRANCH   9  10
ENDBRANCH   7   9
ENDBRANCH   1   7
TORSDOF 5
ENDMDL
MODEL 6
REMARK VINA RESULT:      -3.5      2.756      5.844
REMARK  5 active torsions:
REMARK  status: ('A' for Active; 'I' for Inactive)
REMARK    1  A    between atoms: C6_6  and  C7_7 
REMARK    2  A    between atoms: C6_6  and  C9_9 
REMARK    3  A    between atoms: C7_7  and  C11_11 
REMARK    4  A    between atoms: C8_8  and  C9_9 
REMARK    5  A    between atoms: C8_8  and  C10_10 
ROOT
HETATM    1  C6  UNL     1     -32.908  16.761  -2.785  1.00 20.00     0.005 C 
ENDROOT
BRANCH   1   2
HETATM    2  C7  UNL     1     -33.775  17.096  -1.561  1.00 20.00     0.008 C 
BRANCH   2   3
HETATM    3  C11 UNL     1     -33.419  18.416  -0.824  1.00 20.00    -0.051 C 
HETATM    4  C3  UNL     1     -32.373  19.228  -1.606  1.00 20.00     0.014 C 
HETATM    5  C4  UNL     1     -32.890  18.137   0.592  1.00 20.00     0.014 C 
HETATM    6  C5  UNL     1     -34.703  19.262  -0.709  1.00 20.00     0.014 C 
ENDBRANCH   2   3
ENDBRANCH   1   2
BRANCH   1   7
HETATM    7  C9  UNL     1     -33.650  16.918  -4.131  1.00 20.00    -0.017 C 
HETATM    8  C1  UNL     1     -34.910  17.783  -3.992  1.00 20.00     0.010 C 
BRANCH   7   9
HETATM    9  C8  UNL     1     -34.056  15.547  -4.729  1.00 20.00     0.024 C 
BRANCH   9  10
HETATM   10  C10 UNL     1     -34.911  15.583  -6.005  1.00 20.00     0.078 C 
HETATM   11  C2  UNL     1     -35.929  14.445  -6.008  1.00 20.00     0.026 C 
HETATM   12 CL12 UNL     1     -33.894  15.449  -7.469  1.00 20.00    -0.125 Cl
ENDBRANCH   9  10
ENDBRANCH   7   9
ENDBRANCH   1   7
TORSDOF 5
ENDMDL
MODEL 7
REMARK VINA RESULT:      -3.5      2.659      5.275
REMARK  5 active torsions:
REMARK  status: ('A' for Active; 'I' for Inactive)
REMARK    1  A    between atoms: C6_6  and  C7_7 
REMARK    2  A    between atoms: C6_6  and  C9_9 
REMARK    3  A    between atoms: C7_7  and  C11_11 
REMARK    4  A    between atoms: C8_8  and  C9_9 
REMARK    5  A    between atoms: C8_8  and  C10_10 
ROOT
HETATM    1  C6  UNL     1     -33.324  18.432  -4.073  1.00 20.00     0.005 C 
ENDROOT
BRANCH   1   2
HETATM    2  C7  UNL     1     -33.653  19.193  -2.777  1.00 20.00     0.008 C 
BRANCH   2   3
HETATM    3  C11 UNL     1     -33.346  18.436  -1.457  1.00 20.00    -0.051 C 
HETATM    4  C3  UNL     1     -31.922  18.736  -0.958  1.00 20.00     0.014 C 
HETATM    5  C4  UNL     1     -33.511  16.917  -1.634  1.00 20.00     0.014 C 
HETATM    6  C5  UNL     1     -34.346  18.915  -0.386  1.00 20.00     0.014 C 
ENDBRANCH   2   3
ENDBRANCH   1   2
BRANCH   1   7
HETATM    7  C9  UNL     1     -34.553  18.197  -4.981  1.00 20.00    -0.017 C 
HETATM    8  C1  UNL     1     -35.863  18.198  -4.181  1.00 20.00     0.010 C 
BRANCH   7   9
HETATM    9  C8  UNL     1     -34.448  16.860  -5.756  1.00 20.00     0.024 C 
BRANCH   9  10
HETATM   10  C10 UNL     1     -34.812  15.586  -4.976  1.00 20.00     0.078 C 
HETATM   11  C2  UNL     1     -33.558  14.798  -4.608  1.00 20.00     0.026 C 
HETATM   12 CL12 UNL     1     -35.894  14.531  -5.931  1.00 20.00    -0.125 Cl
ENDBRANCH   9  10
ENDBRANCH   7   9
ENDBRANCH   1   7
TORSDOF 5
ENDMDL
MODEL 8
REMARK VINA RESULT:      -3.4      2.805      5.488
REMARK  5 active torsions:
REMARK  status: ('A' for Active; 'I' for Inactive)
REMARK    1  A    between atoms: C6_6  and  C7_7 
REMARK    2  A    between atoms: C6_6  and  C9_9 
REMARK    3  A    between atoms: C7_7  and  C11_11 
REMARK    4  A    between atoms: C8_8  and  C9_9 
REMARK    5  A    between atoms: C8_8  and  C10_10 
ROOT
HETATM    1  C6  UNL     1     -35.119  18.434  -5.023  1.00 20.00     0.005 C 
ENDROOT
BRANCH   1   2
HETATM    2  C7  UNL     1     -35.204  17.838  -3.608  1.00 20.00     0.008 C 
BRANCH   2   3
HETATM    3  C11 UNL     1     -33.847  17.628  -2.883  1.00 20.00    -0.051 C 
HETATM    4  C3  UNL     1     -33.268  16.233  -3.174  1.00 20.00     0.014 C 
HETATM    5  C4  UNL     1     -33.993  17.810  -1.364  1.00 20.00     0.014 C 
HETATM    6  C5  UNL     1     -32.854  18.684  -3.409  1.00 20.00     0.014 C 
ENDBRANCH   2   3
ENDBRANCH   1   2
BRANCH   1   7
HETATM    7  C9  UNL     1     -35.608  17.473  -6.130  1.00 20.00    -0.017 C 
HETATM    8  C1  UNL     1     -36.585  18.159  -7.093  1.00 20.00     0.010 C 
BRANCH   7   9
HETATM    9  C8  UNL     1     -36.296  16.217  -5.539  1.00 20.00     0.024 C 
BRANCH   9  10
HETATM   10  C10 UNL     1     -35.698  14.858  -5.936  1.00 20.00     0.078 C 
HETATM   11  C2  UNL     1     -35.755  13.877  -4.768  1.00 20.00     0.026 C 
HETATM   12 CL12 UNL     1     -33.998  15.029  -6.462  1.00 20.00    -0.125 Cl
ENDBRANCH   9  10
ENDBRANCH   7   9
ENDBRANCH   1   7
TORSDOF 5
ENDMDL
MODEL 9
REMARK VINA RESULT:      -3.4     12.255     13.262
REMARK  5 active torsions:
REMARK  status: ('A' for Active; 'I' for Inactive)
REMARK    1  A    between atoms: C6_6  and  C7_7 
REMARK    2  A    between atoms: C6_6  and  C9_9 
REMARK    3  A    between atoms: C7_7  and  C11_11 
REMARK    4  A    between atoms: C8_8  and  C9_9 
REMARK    5  A    between atoms: C8_8  and  C10_10 
ROOT
HETATM    1  C6  UNL     1     -40.433  14.115   8.469  1.00 20.00     0.005 C 
ENDROOT
BRANCH   1   2
HETATM    2  C7  UNL     1     -40.304  14.213   6.940  1.00 20.00     0.008 C 
BRANCH   2   3
HETATM    3  C11 UNL     1     -41.083  13.142   6.128  1.00 20.00    -0.051 C 
HETATM    4  C3  UNL     1     -42.313  12.640   6.902  1.00 20.00     0.014 C 
HETATM    5  C4  UNL     1     -40.183  11.947   5.776  1.00 20.00     0.014 C 
HETATM    6  C5  UNL     1     -41.567  13.793   4.817  1.00 20.00     0.014 C 
ENDBRANCH   2   3
ENDBRANCH   1   2
BRANCH   1   7
HETATM    7  C9  UNL     1     -40.548  15.487   9.170  1.00 20.00    -0.017 C 
HETATM    8  C1  UNL     1     -40.193  15.400  10.660  1.00 20.00     0.010 C 
BRANCH   7   9
HETATM    9  C8  UNL     1     -41.970  16.086   9.035  1.00 20.00     0.024 C 
BRANCH   9  10
HETATM   10  C10 UNL     1     -42.139  17.226   8.018  1.00 20.00     0.078 C 
HETATM   11  C2  UNL     1     -42.957  16.764   6.815  1.00 20.00     0.026 C 
HETATM   12 CL12 UNL     1     -40.553  17.819   7.442  1.00 20.00    -0.125 Cl
ENDBRANCH   9  10
ENDBRANCH   7   9
ENDBRANCH   1   7
TORSDOF 5
ENDMDL
