MODEL 1
REMARK VINA RESULT:      -5.6      0.000      0.000
REMARK  1 active torsions:
REMARK  status: ('A' for Active; 'I' for Inactive)
REMARK    1  A    between atoms: C5_5  and  C7_7 
ROOT
HETATM    1  C1  UNL     1     -33.052   8.622   5.561  1.00 20.00     0.002 C 
HETATM    2  C2  UNL     1     -33.492   7.211   5.945  1.00 20.00     0.013 C 
HETATM    3  C3  UNL     1     -32.196   8.620   4.296  1.00 20.00     0.020 C 
HETATM    4  C4  UNL     1     -33.351   6.507   3.521  1.00 20.00     0.033 C 
HETATM    5  C5  UNL     1     -34.216   6.507   4.790  1.00 20.00     0.095 C 
HETATM    6  C6  UNL     1     -32.920   7.925   3.143  1.00 20.00     0.083 C 
HETATM    7 CL11 UNL     1     -31.860   7.875   1.705  1.00 20.00    -0.125 Cl
ENDROOT
BRANCH   5   8
HETATM    8  C7  UNL     1     -34.598   5.082   5.182  1.00 20.00     0.391 C 
HETATM    9  F8  UNL     1     -33.888   4.200   4.461  1.00 20.00    -0.171 F 
HETATM   10  F9  UNL     1     -34.348   4.880   6.484  1.00 20.00    -0.171 F 
HETATM   11  F10 UNL     1     -35.904   4.877   4.953  1.00 20.00    -0.171 F 
ENDBRANCH   5   8
TORSDOF 1
ENDMDL
MODEL 2
REMARK VINA RESULT:      -5.5      1.684      2.128
REMARK  1 active torsions:
REMARK  status: ('A' for Active; 'I' for Inactive)
REMARK    1  A    between atoms: C5_5  and  C7_7 
ROOT
HETATM    1  C1  UNL     1     -32.563   8.240   3.602  1.00 20.00     0.002 C 
HETATM    2  C2  UNL     1     -32.949   7.826   5.020  1.00 20.00     0.013 C 
HETATM    3  C3  UNL     1     -32.162   7.035   2.753  1.00 20.00     0.020 C 
HETATM    4  C4  UNL     1     -33.643   5.549   4.166  1.00 20.00     0.033 C 
HETATM    5  C5  UNL     1     -34.051   6.759   5.020  1.00 20.00     0.095 C 
HETATM    6  C6  UNL     1     -33.263   5.975   2.747  1.00 20.00     0.083 C 
HETATM    7 CL11 UNL     1     -32.728   4.552   1.808  1.00 20.00    -0.125 Cl
ENDROOT
BRANCH   5   8
HETATM    8  C7  UNL     1     -34.381   6.324   6.446  1.00 20.00     0.391 C 
HETATM    9  F8  UNL     1     -33.345   5.654   6.975  1.00 20.00    -0.171 F 
HETATM   10  F9  UNL     1     -34.636   7.399   7.207  1.00 20.00    -0.171 F 
HETATM   11  F10 UNL     1     -35.459   5.526   6.446  1.00 20.00    -0.171 F 
ENDBRANCH   5   8
TORSDOF 1
ENDMDL
MODEL 3
REMARK VINA RESULT:      -5.4      3.438      4.487
REMARK  1 active torsions:
REMARK  status: ('A' for Active; 'I' for Inactive)
REMARK    1  A    between atoms: C5_5  and  C7_7 
ROOT
HETATM    1  C1  UNL     1     -33.561   5.051   3.018  1.00 20.00     0.002 C 
HETATM    2  C2  UNL     1     -32.644   6.269   3.102  1.00 20.00     0.013 C 
HETATM    3  C3  UNL     1     -34.000   4.579   4.403  1.00 20.00     0.020 C 
HETATM    4  C4  UNL     1     -33.726   6.932   5.289  1.00 20.00     0.033 C 
HETATM    5  C5  UNL     1     -33.289   7.411   3.897  1.00 20.00     0.095 C 
HETATM    6  C6  UNL     1     -34.649   5.716   5.192  1.00 20.00     0.083 C 
HETATM    7 CL11 UNL     1     -35.079   5.147   6.830  1.00 20.00    -0.125 Cl
ENDROOT
BRANCH   5   8
HETATM    8  C7  UNL     1     -32.330   8.595   4.012  1.00 20.00     0.391 C 
HETATM    9  F8  UNL     1     -32.547   9.253   5.162  1.00 20.00    -0.171 F 
HETATM   10  F9  UNL     1     -31.061   8.163   3.990  1.00 20.00    -0.171 F 
HETATM   11  F10 UNL     1     -32.520   9.440   2.987  1.00 20.00    -0.171 F 
ENDBRANCH   5   8
TORSDOF 1
ENDMDL
MODEL 4
REMARK VINA RESULT:      -5.2      1.378      2.446
REMARK  1 active torsions:
REMARK  status: ('A' for Active; 'I' for Inactive)
REMARK    1  A    between atoms: C5_5  and  C7_7 
ROOT
HETATM    1  C1  UNL     1     -32.593   5.789   2.672  1.00 20.00     0.002 C 
HETATM    2  C2  UNL     1     -33.680   5.431   3.682  1.00 20.00     0.013 C 
HETATM    3  C3  UNL     1     -32.526   7.295   2.427  1.00 20.00     0.020 C 
HETATM    4  C4  UNL     1     -33.441   7.711   4.748  1.00 20.00     0.033 C 
HETATM    5  C5  UNL     1     -33.507   6.198   4.999  1.00 20.00     0.095 C 
HETATM    6  C6  UNL     1     -32.345   8.059   3.739  1.00 20.00     0.083 C 
HETATM    7 CL11 UNL     1     -32.347   9.817   3.421  1.00 20.00    -0.125 Cl
ENDROOT
BRANCH   5   8
HETATM    8  C7  UNL     1     -34.636   5.861   5.972  1.00 20.00     0.391 C 
HETATM    9  F8  UNL     1     -34.803   6.865   6.847  1.00 20.00    -0.171 F 
HETATM   10  F9  UNL     1     -35.781   5.675   5.299  1.00 20.00    -0.171 F 
HETATM   11  F10 UNL     1     -34.341   4.741   6.648  1.00 20.00    -0.171 F 
ENDBRANCH   5   8
TORSDOF 1
ENDMDL
MODEL 5
REMARK VINA RESULT:      -5.2      1.358      2.177
REMARK  1 active torsions:
REMARK  status: ('A' for Active; 'I' for Inactive)
REMARK    1  A    between atoms: C5_5  and  C7_7 
ROOT
HETATM    1  C1  UNL     1     -32.562   5.773   2.659  1.00 20.00     0.002 C 
HETATM    2  C2  UNL     1     -33.687   5.403   3.622  1.00 20.00     0.013 C 
HETATM    3  C3  UNL     1     -32.483   7.283   2.438  1.00 20.00     0.020 C 
HETATM    4  C4  UNL     1     -33.486   7.668   4.728  1.00 20.00     0.033 C 
HETATM    5  C5  UNL     1     -33.563   6.151   4.956  1.00 20.00     0.095 C 
HETATM    6  C6  UNL     1     -32.352   8.027   3.766  1.00 20.00     0.083 C 
HETATM    7 CL11 UNL     1     -32.340   9.790   3.474  1.00 20.00    -0.125 Cl
ENDROOT
BRANCH   5   8
HETATM    8  C7  UNL     1     -34.728   5.803   5.879  1.00 20.00     0.391 C 
HETATM    9  F8  UNL     1     -34.523   4.605   6.448  1.00 20.00    -0.171 F 
HETATM   10  F9  UNL     1     -34.843   6.728   6.844  1.00 20.00    -0.171 F 
HETATM   11  F10 UNL     1     -35.872   5.760   5.180  1.00 20.00    -0.171 F 
ENDBRANCH   5   8
TORSDOF 1
ENDMDL
MODEL 6
REMARK VINA RESULT:      -4.9      2.901      3.787
REMARK  1 active torsions:
REMARK  status: ('A' for Active; 'I' for Inactive)
REMARK    1  A    between atoms: C5_5  and  C7_7 
ROOT
HETATM    1  C1  UNL     1     -34.479   5.352   5.936  1.00 20.00     0.002 C 
HETATM    2  C2  UNL     1     -34.337   6.871   5.884  1.00 20.00     0.013 C 
HETATM    3  C3  UNL     1     -34.474   4.737   4.537  1.00 20.00     0.020 C 
HETATM    4  C4  UNL     1     -33.094   6.680   3.691  1.00 20.00     0.033 C 
HETATM    5  C5  UNL     1     -33.093   7.299   5.096  1.00 20.00     0.095 C 
HETATM    6  C6  UNL     1     -33.230   5.158   3.755  1.00 20.00     0.083 C 
HETATM    7 CL11 UNL     1     -33.298   4.484   2.102  1.00 20.00    -0.125 Cl
ENDROOT
BRANCH   5   8
HETATM    8  C7  UNL     1     -33.004   8.822   5.014  1.00 20.00     0.391 C 
HETATM    9  F8  UNL     1     -33.081   9.219   3.734  1.00 20.00    -0.171 F 
HETATM   10  F9  UNL     1     -34.012   9.378   5.703  1.00 20.00    -0.171 F 
HETATM   11  F10 UNL     1     -31.840   9.243   5.530  1.00 20.00    -0.171 F 
ENDBRANCH   5   8
TORSDOF 1
ENDMDL
MODEL 7
REMARK VINA RESULT:      -4.9      3.447      4.498
REMARK  1 active torsions:
REMARK  status: ('A' for Active; 'I' for Inactive)
REMARK    1  A    between atoms: C5_5  and  C7_7 
ROOT
HETATM    1  C1  UNL     1     -33.916   4.487   3.453  1.00 20.00     0.002 C 
HETATM    2  C2  UNL     1     -32.880   5.492   2.957  1.00 20.00     0.013 C 
HETATM    3  C3  UNL     1     -34.226   4.684   4.936  1.00 20.00     0.020 C 
HETATM    4  C4  UNL     1     -33.613   7.130   4.738  1.00 20.00     0.033 C 
HETATM    5  C5  UNL     1     -33.305   6.937   3.246  1.00 20.00     0.095 C 
HETATM    6  C6  UNL     1     -34.657   6.122   5.223  1.00 20.00     0.083 C 
HETATM    7 CL11 UNL     1     -34.936   6.333   6.975  1.00 20.00    -0.125 Cl
ENDROOT
BRANCH   5   8
HETATM    8  C7  UNL     1     -32.227   7.918   2.787  1.00 20.00     0.391 C 
HETATM    9  F8  UNL     1     -31.150   7.823   3.583  1.00 20.00    -0.171 F 
HETATM   10  F9  UNL     1     -31.861   7.643   1.526  1.00 20.00    -0.171 F 
HETATM   11  F10 UNL     1     -32.696   9.174   2.840  1.00 20.00    -0.171 F 
ENDBRANCH   5   8
TORSDOF 1
ENDMDL
MODEL 8
REMARK VINA RESULT:      -4.6      2.009      2.905
REMARK  1 active torsions:
REMARK  status: ('A' for Active; 'I' for Inactive)
REMARK    1  A    between atoms: C5_5  and  C7_7 
ROOT
HETATM    1  C1  UNL     1     -34.737   6.244   6.330  1.00 20.00     0.002 C 
HETATM    2  C2  UNL     1     -34.267   5.214   5.306  1.00 20.00     0.013 C 
HETATM    3  C3  UNL     1     -33.754   7.407   6.452  1.00 20.00     0.020 C 
HETATM    4  C4  UNL     1     -33.007   7.022   4.067  1.00 20.00     0.033 C 
HETATM    5  C5  UNL     1     -33.997   5.855   3.939  1.00 20.00     0.095 C 
HETATM    6  C6  UNL     1     -33.490   8.050   5.091  1.00 20.00     0.083 C 
HETATM    7 CL11 UNL     1     -32.280   9.353   5.261  1.00 20.00    -0.125 Cl
ENDROOT
BRANCH   5   8
HETATM    8  C7  UNL     1     -33.478   4.813   2.949  1.00 20.00     0.391 C 
HETATM    9  F8  UNL     1     -33.839   3.582   3.345  1.00 20.00    -0.171 F 
HETATM   10  F9  UNL     1     -33.986   5.044   1.730  1.00 20.00    -0.171 F 
HETATM   11  F10 UNL     1     -32.139   4.871   2.881  1.00 20.00    -0.171 F 
ENDBRANCH   5   8
TORSDOF 1
ENDMDL
MODEL 9
REMARK VINA RESULT:      -4.5     12.059     13.128
REMARK  1 active torsions:
REMARK  status: ('A' for Active; 'I' for Inactive)
REMARK    1  A    between atoms: C5_5  and  C7_7 
ROOT
HETATM    1  C1  UNL     1     -34.930  18.616  -3.809  1.00 20.00     0.002 C 
HETATM    2  C2  UNL     1     -34.718  17.206  -4.355  1.00 20.00     0.013 C 
HETATM    3  C3  UNL     1     -34.966  18.628  -2.281  1.00 20.00     0.020 C 
HETATM    4  C4  UNL     1     -33.504  16.565  -2.232  1.00 20.00     0.033 C 
HETATM    5  C5  UNL     1     -33.462  16.551  -3.767  1.00 20.00     0.095 C 
HETATM    6  C6  UNL     1     -33.711  17.982  -1.695  1.00 20.00     0.083 C 
HETATM    7 CL11 UNL     1     -33.825  17.946   0.087  1.00 20.00    -0.125 Cl
ENDROOT
BRANCH   5   8
HETATM    8  C7  UNL     1     -33.303  15.125  -4.289  1.00 20.00     0.391 C 
HETATM    9  F8  UNL     1     -34.130  14.299  -3.630  1.00 20.00    -0.171 F 
HETATM   10  F9  UNL     1     -33.595  15.079  -5.597  1.00 20.00    -0.171 F 
HETATM   11  F10 UNL     1     -32.040  14.708  -4.110  1.00 20.00    -0.171 F 
ENDBRANCH   5   8
TORSDOF 1
ENDMDL
