MODEL 1
REMARK VINA RESULT:      -4.8      0.000      0.000
REMARK  0 active torsions:
REMARK  status: ('A' for Active; 'I' for Inactive)
ROOT
HETATM    1  C1  UNL     1     -32.615   9.024   1.146  1.00 20.00     0.088 C 
HETATM    2  C2  UNL     1     -32.895   8.094   3.351  1.00 20.00    -0.070 C 
HETATM    3  C3  UNL     1     -33.006   9.128   2.504  1.00 20.00     0.096 C 
HETATM    4  C4  UNL     1     -32.352   6.760   2.923  1.00 20.00     0.035 C 
HETATM    5  C5  UNL     1     -33.351   8.193   4.784  1.00 20.00     0.039 C 
HETATM    6  C6  UNL     1     -33.366   5.641   3.183  1.00 20.00     0.009 C 
HETATM    7  C7  UNL     1     -33.486   6.812   5.455  1.00 20.00    -0.011 C 
HETATM    8  C8  UNL     1     -34.145   5.772   4.515  1.00 20.00    -0.014 C 
HETATM    9  C9  UNL     1     -34.189   6.938   6.807  1.00 20.00     0.010 C 
HETATM   10  C10 UNL     1     -35.626   6.058   4.234  1.00 20.00     0.010 C 
HETATM   11  N11 UNL     1     -32.298   8.946   0.033  1.00 20.00    -0.192 NA
ENDROOT
TORSDOF 0
ENDMDL
MODEL 2
REMARK VINA RESULT:      -3.9     11.502     12.965
REMARK  0 active torsions:
REMARK  status: ('A' for Active; 'I' for Inactive)
ROOT
HETATM    1  C1  UNL     1     -31.720  18.819  -0.713  1.00 20.00     0.088 C 
HETATM    2  C2  UNL     1     -33.811  18.444  -1.847  1.00 20.00    -0.070 C 
HETATM    3  C3  UNL     1     -32.978  19.263  -1.189  1.00 20.00     0.096 C 
HETATM    4  C4  UNL     1     -33.473  17.007  -2.125  1.00 20.00     0.035 C 
HETATM    5  C5  UNL     1     -35.131  18.930  -2.390  1.00 20.00     0.039 C 
HETATM    6  C6  UNL     1     -33.512  16.711  -3.628  1.00 20.00     0.009 C 
HETATM    7  C7  UNL     1     -35.738  17.954  -3.418  1.00 20.00    -0.011 C 
HETATM    8  C8  UNL     1     -34.670  17.398  -4.392  1.00 20.00    -0.014 C 
HETATM    9  C9  UNL     1     -36.931  18.595  -4.128  1.00 20.00     0.010 C 
HETATM   10  C10 UNL     1     -34.114  18.457  -5.353  1.00 20.00     0.010 C 
HETATM   11  N11 UNL     1     -30.687  18.462  -0.321  1.00 20.00    -0.192 NA
ENDROOT
TORSDOF 0
ENDMDL
MODEL 3
REMARK VINA RESULT:      -3.9     11.188     12.635
REMARK  0 active torsions:
REMARK  status: ('A' for Active; 'I' for Inactive)
ROOT
HETATM    1  C1  UNL     1     -30.977  18.712   2.089  1.00 20.00     0.088 C 
HETATM    2  C2  UNL     1     -31.936  19.129  -0.081  1.00 20.00    -0.070 C 
HETATM    3  C3  UNL     1     -30.866  18.874   0.686  1.00 20.00     0.096 C 
HETATM    4  C4  UNL     1     -33.320  19.262   0.489  1.00 20.00     0.035 C 
HETATM    5  C5  UNL     1     -31.822  19.259  -1.578  1.00 20.00     0.039 C 
HETATM    6  C6  UNL     1     -34.281  18.257  -0.155  1.00 20.00     0.009 C 
HETATM    7  C7  UNL     1     -33.191  19.170  -2.282  1.00 20.00    -0.011 C 
HETATM    8  C8  UNL     1     -34.083  18.058  -1.677  1.00 20.00    -0.014 C 
HETATM    9  C9  UNL     1     -33.010  19.047  -3.795  1.00 20.00     0.010 C 
HETATM   10  C10 UNL     1     -33.566  16.641  -1.962  1.00 20.00     0.010 C 
HETATM   11  N11 UNL     1     -31.062  18.578   3.239  1.00 20.00    -0.192 NA
ENDROOT
TORSDOF 0
ENDMDL
MODEL 4
REMARK VINA RESULT:      -3.9     11.198     12.684
REMARK  0 active torsions:
REMARK  status: ('A' for Active; 'I' for Inactive)
ROOT
HETATM    1  C1  UNL     1     -33.474  18.306  -0.408  1.00 20.00     0.088 C 
HETATM    2  C2  UNL     1     -33.435  17.109  -2.497  1.00 20.00    -0.070 C 
HETATM    3  C3  UNL     1     -33.674  17.135  -1.179  1.00 20.00     0.096 C 
HETATM    4  C4  UNL     1     -32.939  18.313  -3.248  1.00 20.00     0.035 C 
HETATM    5  C5  UNL     1     -33.690  15.874  -3.324  1.00 20.00     0.039 C 
HETATM    6  C6  UNL     1     -33.893  18.686  -4.387  1.00 20.00     0.009 C 
HETATM    7  C7  UNL     1     -33.713  16.173  -4.836  1.00 20.00    -0.011 C 
HETATM    8  C8  UNL     1     -34.483  17.479  -5.157  1.00 20.00    -0.014 C 
HETATM    9  C9  UNL     1     -34.225  14.961  -5.615  1.00 20.00     0.010 C 
HETATM   10  C10 UNL     1     -35.992  17.374  -4.901  1.00 20.00     0.010 C 
HETATM   11  N11 UNL     1     -33.312  19.263   0.230  1.00 20.00    -0.192 NA
ENDROOT
TORSDOF 0
ENDMDL
MODEL 5
REMARK VINA RESULT:      -3.6     11.244     13.114
REMARK  0 active torsions:
REMARK  status: ('A' for Active; 'I' for Inactive)
ROOT
HETATM    1  C1  UNL     1     -33.293  17.019  -1.992  1.00 20.00     0.088 C 
HETATM    2  C2  UNL     1     -33.953  16.519  -4.254  1.00 20.00    -0.070 C 
HETATM    3  C3  UNL     1     -33.561  16.105  -3.040  1.00 20.00     0.096 C 
HETATM    4  C4  UNL     1     -34.134  17.973  -4.587  1.00 20.00     0.035 C 
HETATM    5  C5  UNL     1     -34.280  15.543  -5.355  1.00 20.00     0.039 C 
HETATM    6  C6  UNL     1     -35.560  18.256  -5.072  1.00 20.00     0.009 C 
HETATM    7  C7  UNL     1     -35.058  16.201  -6.512  1.00 20.00    -0.011 C 
HETATM    8  C8  UNL     1     -36.155  17.167  -5.998  1.00 20.00    -0.014 C 
HETATM    9  C9  UNL     1     -35.589  15.138  -7.475  1.00 20.00     0.010 C 
HETATM   10  C10 UNL     1     -37.315  16.450  -5.293  1.00 20.00     0.010 C 
HETATM   11  N11 UNL     1     -33.072  17.763  -1.128  1.00 20.00    -0.192 NA
ENDROOT
TORSDOF 0
ENDMDL
MODEL 6
REMARK VINA RESULT:      -3.5     10.883     11.825
REMARK  0 active torsions:
REMARK  status: ('A' for Active; 'I' for Inactive)
ROOT
HETATM    1  C1  UNL     1     -41.167  16.661   9.418  1.00 20.00     0.088 C 
HETATM    2  C2  UNL     1     -40.690  15.017   7.724  1.00 20.00    -0.070 C 
HETATM    3  C3  UNL     1     -40.495  15.502   8.958  1.00 20.00     0.096 C 
HETATM    4  C4  UNL     1     -41.629  15.663   6.745  1.00 20.00     0.035 C 
HETATM    5  C5  UNL     1     -40.006  13.759   7.251  1.00 20.00     0.039 C 
HETATM    6  C6  UNL     1     -42.705  14.678   6.278  1.00 20.00     0.009 C 
HETATM    7  C7  UNL     1     -40.651  13.184   5.974  1.00 20.00    -0.011 C 
HETATM    8  C8  UNL     1     -42.198  13.237   6.031  1.00 20.00    -0.014 C 
HETATM    9  C9  UNL     1     -40.103  11.787   5.678  1.00 20.00     0.010 C 
HETATM   10  C10 UNL     1     -42.802  12.279   7.068  1.00 20.00     0.010 C 
HETATM   11  N11 UNL     1     -41.714  17.610   9.801  1.00 20.00    -0.192 NA
ENDROOT
TORSDOF 0
ENDMDL
MODEL 7
REMARK VINA RESULT:      -3.5     10.869     12.940
REMARK  0 active torsions:
REMARK  status: ('A' for Active; 'I' for Inactive)
ROOT
HETATM    1  C1  UNL     1     -37.770  16.728  -6.912  1.00 20.00     0.088 C 
HETATM    2  C2  UNL     1     -35.809  16.913  -5.526  1.00 20.00    -0.070 C 
HETATM    3  C3  UNL     1     -37.135  17.030  -5.682  1.00 20.00     0.096 C 
HETATM    4  C4  UNL     1     -34.906  16.456  -6.637  1.00 20.00     0.035 C 
HETATM    5  C5  UNL     1     -35.141  17.193  -4.204  1.00 20.00     0.039 C 
HETATM    6  C6  UNL     1     -34.111  15.212  -6.227  1.00 20.00     0.009 C 
HETATM    7  C7  UNL     1     -33.703  16.639  -4.143  1.00 20.00    -0.011 C 
HETATM    8  C8  UNL     1     -33.600  15.224  -4.766  1.00 20.00    -0.014 C 
HETATM    9  C9  UNL     1     -33.159  16.714  -2.716  1.00 20.00     0.010 C 
HETATM   10  C10 UNL     1     -34.318  14.144  -3.946  1.00 20.00     0.010 C 
HETATM   11  N11 UNL     1     -38.297  16.482  -7.917  1.00 20.00    -0.192 NA
ENDROOT
TORSDOF 0
ENDMDL
MODEL 8
REMARK VINA RESULT:      -3.5      9.965     10.827
REMARK  0 active torsions:
REMARK  status: ('A' for Active; 'I' for Inactive)
ROOT
HETATM    1  C1  UNL     1     -39.327  11.953   5.024  1.00 20.00     0.088 C 
HETATM    2  C2  UNL     1     -40.458  13.157   6.778  1.00 20.00    -0.070 C 
HETATM    3  C3  UNL     1     -39.330  12.847   6.123  1.00 20.00     0.096 C 
HETATM    4  C4  UNL     1     -41.792  12.581   6.396  1.00 20.00     0.035 C 
HETATM    5  C5  UNL     1     -40.465  14.142   7.919  1.00 20.00     0.039 C 
HETATM    6  C6  UNL     1     -42.799  13.688   6.068  1.00 20.00     0.009 C 
HETATM    7  C7  UNL     1     -41.886  14.629   8.265  1.00 20.00    -0.011 C 
HETATM    8  C8  UNL     1     -42.724  14.925   6.997  1.00 20.00    -0.014 C 
HETATM    9  C9  UNL     1     -41.827  15.805   9.241  1.00 20.00     0.010 C 
HETATM   10  C10 UNL     1     -42.227  16.146   6.211  1.00 20.00     0.010 C 
HETATM   11  N11 UNL     1     -39.318  11.221   4.123  1.00 20.00    -0.192 NA
ENDROOT
TORSDOF 0
ENDMDL
MODEL 9
REMARK VINA RESULT:      -3.4     11.473     12.771
REMARK  0 active torsions:
REMARK  status: ('A' for Active; 'I' for Inactive)
ROOT
HETATM    1  C1  UNL     1     -32.909  18.965  -2.947  1.00 20.00     0.088 C 
HETATM    2  C2  UNL     1     -34.389  17.372  -3.983  1.00 20.00    -0.070 C 
HETATM    3  C3  UNL     1     -33.979  18.637  -3.815  1.00 20.00     0.096 C 
HETATM    4  C4  UNL     1     -33.747  16.217  -3.267  1.00 20.00     0.035 C 
HETATM    5  C5  UNL     1     -35.500  17.021  -4.939  1.00 20.00     0.039 C 
HETATM    6  C6  UNL     1     -33.215  15.178  -4.259  1.00 20.00     0.009 C 
HETATM    7  C7  UNL     1     -35.548  15.512  -5.256  1.00 20.00    -0.011 C 
HETATM    8  C8  UNL     1     -34.133  14.921  -5.479  1.00 20.00    -0.014 C 
HETATM    9  C9  UNL     1     -36.509  15.237  -6.413  1.00 20.00     0.010 C 
HETATM   10  C10 UNL     1     -33.459  15.424  -6.763  1.00 20.00     0.010 C 
HETATM   11  N11 UNL     1     -32.032  19.240  -2.238  1.00 20.00    -0.192 NA
ENDROOT
TORSDOF 0
ENDMDL
