MODEL 1
REMARK VINA RESULT:      -5.2      0.000      0.000
REMARK  0 active torsions:
REMARK  status: ('A' for Active; 'I' for Inactive)
ROOT
HETATM    1  C1  UNL     1     -32.699   9.397   1.134  1.00 20.00     0.088 C 
HETATM    2  C2  UNL     1     -32.735   8.278   3.268  1.00 20.00    -0.070 C 
HETATM    3  C3  UNL     1     -32.895   9.393   2.538  1.00 20.00     0.096 C 
HETATM    4  C4  UNL     1     -32.340   6.963   2.657  1.00 20.00     0.035 C 
HETATM    5  C5  UNL     1     -32.957   8.247   4.755  1.00 20.00     0.039 C 
HETATM    6  C6  UNL     1     -33.347   5.876   3.034  1.00 20.00     0.009 C 
HETATM    7  C7  UNL     1     -33.973   7.154   5.145  1.00 20.00    -0.011 C 
HETATM    8  C8  UNL     1     -33.557   5.778   4.559  1.00 20.00    -0.014 C 
HETATM    9  C9  UNL     1     -34.120   7.122   6.669  1.00 20.00     0.010 C 
HETATM   10  C10 UNL     1     -34.582   4.680   4.858  1.00 20.00     0.010 C 
HETATM   11  N11 UNL     1     -32.541   9.408  -0.015  1.00 20.00    -0.192 NA
ENDROOT
TORSDOF 0
ENDMDL
MODEL 2
REMARK VINA RESULT:      -4.6     11.240     12.664
REMARK  0 active torsions:
REMARK  status: ('A' for Active; 'I' for Inactive)
ROOT
HETATM    1  C1  UNL     1     -31.802  18.824  -1.187  1.00 20.00     0.088 C 
HETATM    2  C2  UNL     1     -33.605  18.111  -2.616  1.00 20.00    -0.070 C 
HETATM    3  C3  UNL     1     -32.857  19.094  -2.094  1.00 20.00     0.096 C 
HETATM    4  C4  UNL     1     -33.382  16.662  -2.282  1.00 20.00     0.035 C 
HETATM    5  C5  UNL     1     -34.716  18.373  -3.596  1.00 20.00     0.039 C 
HETATM    6  C6  UNL     1     -33.187  15.844  -3.558  1.00 20.00     0.009 C 
HETATM    7  C7  UNL     1     -34.527  17.553  -4.887  1.00 20.00    -0.011 C 
HETATM    8  C8  UNL     1     -34.339  16.046  -4.564  1.00 20.00    -0.014 C 
HETATM    9  C9  UNL     1     -35.710  17.808  -5.826  1.00 20.00     0.010 C 
HETATM   10  C10 UNL     1     -34.069  15.206  -5.816  1.00 20.00     0.010 C 
HETATM   11  N11 UNL     1     -30.936  18.611  -0.444  1.00 20.00    -0.192 NA
ENDROOT
TORSDOF 0
ENDMDL
MODEL 3
REMARK VINA RESULT:      -4.0     11.202     12.905
REMARK  0 active torsions:
REMARK  status: ('A' for Active; 'I' for Inactive)
ROOT
HETATM    1  C1  UNL     1     -33.643  18.159  -0.586  1.00 20.00     0.088 C 
HETATM    2  C2  UNL     1     -33.452  17.197  -2.786  1.00 20.00    -0.070 C 
HETATM    3  C3  UNL     1     -33.565  17.045  -1.459  1.00 20.00     0.096 C 
HETATM    4  C4  UNL     1     -33.401  18.548  -3.443  1.00 20.00     0.035 C 
HETATM    5  C5  UNL     1     -33.387  16.029  -3.732  1.00 20.00     0.039 C 
HETATM    6  C6  UNL     1     -34.480  18.660  -4.519  1.00 20.00     0.009 C 
HETATM    7  C7  UNL     1     -34.474  16.132  -4.821  1.00 20.00    -0.011 C 
HETATM    8  C8  UNL     1     -34.408  17.506  -5.541  1.00 20.00    -0.014 C 
HETATM    9  C9  UNL     1     -34.331  14.955  -5.791  1.00 20.00     0.010 C 
HETATM   10  C10 UNL     1     -35.522  17.679  -6.578  1.00 20.00     0.010 C 
HETATM   11  N11 UNL     1     -33.708  19.066   0.134  1.00 20.00    -0.192 NA
ENDROOT
TORSDOF 0
ENDMDL
MODEL 4
REMARK VINA RESULT:      -3.9      9.968     10.937
REMARK  0 active torsions:
REMARK  status: ('A' for Active; 'I' for Inactive)
ROOT
HETATM    1  C1  UNL     1     -39.338  11.900   4.734  1.00 20.00     0.088 C 
HETATM    2  C2  UNL     1     -40.350  13.219   6.477  1.00 20.00    -0.070 C 
HETATM    3  C3  UNL     1     -39.304  12.524   6.006  1.00 20.00     0.096 C 
HETATM    4  C4  UNL     1     -41.625  13.386   5.699  1.00 20.00     0.035 C 
HETATM    5  C5  UNL     1     -40.328  13.906   7.816  1.00 20.00     0.039 C 
HETATM    6  C6  UNL     1     -41.972  14.868   5.556  1.00 20.00     0.009 C 
HETATM    7  C7  UNL     1     -40.676  15.402   7.681  1.00 20.00    -0.011 C 
HETATM    8  C8  UNL     1     -42.014  15.592   6.917  1.00 20.00    -0.014 C 
HETATM    9  C9  UNL     1     -40.698  16.043   9.072  1.00 20.00     0.010 C 
HETATM   10  C10 UNL     1     -42.356  17.068   6.693  1.00 20.00     0.010 C 
HETATM   11  N11 UNL     1     -39.358  11.387   3.693  1.00 20.00    -0.192 NA
ENDROOT
TORSDOF 0
ENDMDL
MODEL 5
REMARK VINA RESULT:      -3.7     11.258     12.890
REMARK  0 active torsions:
REMARK  status: ('A' for Active; 'I' for Inactive)
ROOT
HETATM    1  C1  UNL     1     -33.283  17.397  -1.546  1.00 20.00     0.088 C 
HETATM    2  C2  UNL     1     -33.997  16.821  -3.773  1.00 20.00    -0.070 C 
HETATM    3  C3  UNL     1     -33.381  16.489  -2.629  1.00 20.00     0.096 C 
HETATM    4  C4  UNL     1     -34.626  18.169  -3.990  1.00 20.00     0.035 C 
HETATM    5  C5  UNL     1     -34.130  15.866  -4.928  1.00 20.00     0.039 C 
HETATM    6  C6  UNL     1     -36.089  18.016  -4.404  1.00 20.00     0.009 C 
HETATM    7  C7  UNL     1     -35.603  15.704  -5.351  1.00 20.00    -0.011 C 
HETATM    8  C8  UNL     1     -36.257  17.086  -5.623  1.00 20.00    -0.014 C 
HETATM    9  C9  UNL     1     -35.681  14.771  -6.564  1.00 20.00     0.010 C 
HETATM   10  C10 UNL     1     -37.744  16.972  -5.971  1.00 20.00     0.010 C 
HETATM   11  N11 UNL     1     -33.200  18.136  -0.655  1.00 20.00    -0.192 NA
ENDROOT
TORSDOF 0
ENDMDL
MODEL 6
REMARK VINA RESULT:      -3.4     10.266     11.259
REMARK  0 active torsions:
REMARK  status: ('A' for Active; 'I' for Inactive)
ROOT
HETATM    1  C1  UNL     1     -39.574  11.877   4.855  1.00 20.00     0.088 C 
HETATM    2  C2  UNL     1     -41.431  12.742   6.123  1.00 20.00    -0.070 C 
HETATM    3  C3  UNL     1     -40.397  11.896   6.009  1.00 20.00     0.096 C 
HETATM    4  C4  UNL     1     -41.793  13.725   5.045  1.00 20.00     0.035 C 
HETATM    5  C5  UNL     1     -42.305  12.792   7.347  1.00 20.00     0.039 C 
HETATM    6  C6  UNL     1     -41.852  15.142   5.613  1.00 20.00     0.009 C 
HETATM    7  C7  UNL     1     -42.369  14.218   7.928  1.00 20.00    -0.011 C 
HETATM    8  C8  UNL     1     -42.784  15.242   6.838  1.00 20.00    -0.014 C 
HETATM    9  C9  UNL     1     -43.313  14.230   9.134  1.00 20.00     0.010 C 
HETATM   10  C10 UNL     1     -42.784  16.683   7.357  1.00 20.00     0.010 C 
HETATM   11  N11 UNL     1     -38.896  11.857   3.914  1.00 20.00    -0.192 NA
ENDROOT
TORSDOF 0
ENDMDL
MODEL 7
REMARK VINA RESULT:      -3.3     11.297     13.080
REMARK  0 active torsions:
REMARK  status: ('A' for Active; 'I' for Inactive)
ROOT
HETATM    1  C1  UNL     1     -39.101  16.530  -5.341  1.00 20.00     0.088 C 
HETATM    2  C2  UNL     1     -36.741  17.014  -5.304  1.00 20.00    -0.070 C 
HETATM    3  C3  UNL     1     -37.999  17.338  -4.967  1.00 20.00     0.096 C 
HETATM    4  C4  UNL     1     -36.410  15.781  -6.097  1.00 20.00     0.035 C 
HETATM    5  C5  UNL     1     -35.555  17.846  -4.900  1.00 20.00     0.039 C 
HETATM    6  C6  UNL     1     -35.377  14.932  -5.358  1.00 20.00     0.009 C 
HETATM    7  C7  UNL     1     -34.508  16.998  -4.151  1.00 20.00    -0.011 C 
HETATM    8  C8  UNL     1     -34.121  15.741  -4.976  1.00 20.00    -0.014 C 
HETATM    9  C9  UNL     1     -33.297  17.873  -3.813  1.00 20.00     0.010 C 
HETATM   10  C10 UNL     1     -33.140  14.830  -4.232  1.00 20.00     0.010 C 
HETATM   11  N11 UNL     1     -40.008  15.874  -5.644  1.00 20.00    -0.192 NA
ENDROOT
TORSDOF 0
ENDMDL
MODEL 8
REMARK VINA RESULT:      -3.3     10.322     11.577
REMARK  0 active torsions:
REMARK  status: ('A' for Active; 'I' for Inactive)
ROOT
HETATM    1  C1  UNL     1     -40.397  12.429   5.460  1.00 20.00     0.088 C 
HETATM    2  C2  UNL     1     -41.596  13.605   7.187  1.00 20.00    -0.070 C 
HETATM    3  C3  UNL     1     -41.490  12.561   6.352  1.00 20.00     0.096 C 
HETATM    4  C4  UNL     1     -40.573  14.705   7.238  1.00 20.00     0.035 C 
HETATM    5  C5  UNL     1     -42.737  13.754   8.156  1.00 20.00     0.039 C 
HETATM    6  C6  UNL     1     -40.055  14.885   8.665  1.00 20.00     0.009 C 
HETATM    7  C7  UNL     1     -42.224  13.936   9.598  1.00 20.00    -0.011 C 
HETATM    8  C8  UNL     1     -41.198  15.097   9.679  1.00 20.00    -0.014 C 
HETATM    9  C9  UNL     1     -43.417  14.142  10.536  1.00 20.00     0.010 C 
HETATM   10  C10 UNL     1     -40.605  15.260  11.081  1.00 20.00     0.010 C 
HETATM   11  N11 UNL     1     -39.505  12.315   4.727  1.00 20.00    -0.192 NA
ENDROOT
TORSDOF 0
ENDMDL
MODEL 9
REMARK VINA RESULT:      -3.2     11.589     13.045
REMARK  0 active torsions:
REMARK  status: ('A' for Active; 'I' for Inactive)
ROOT
HETATM    1  C1  UNL     1     -38.406  18.761  -3.830  1.00 20.00     0.088 C 
HETATM    2  C2  UNL     1     -36.042  18.610  -3.391  1.00 20.00    -0.070 C 
HETATM    3  C3  UNL     1     -37.284  18.900  -2.975  1.00 20.00     0.096 C 
HETATM    4  C4  UNL     1     -35.750  18.118  -4.781  1.00 20.00     0.035 C 
HETATM    5  C5  UNL     1     -34.840  18.732  -2.495  1.00 20.00     0.039 C 
HETATM    6  C6  UNL     1     -34.974  16.803  -4.730  1.00 20.00     0.009 C 
HETATM    7  C7  UNL     1     -34.051  17.408  -2.436  1.00 20.00    -0.011 C 
HETATM    8  C8  UNL     1     -33.702  16.908  -3.863  1.00 20.00    -0.014 C 
HETATM    9  C9  UNL     1     -32.808  17.599  -1.561  1.00 20.00     0.010 C 
HETATM   10  C10 UNL     1     -32.986  15.554  -3.851  1.00 20.00     0.010 C 
HETATM   11  N11 UNL     1     -39.329  18.648  -4.524  1.00 20.00    -0.192 NA
ENDROOT
TORSDOF 0
ENDMDL
