MODEL 1
REMARK VINA RESULT:      -4.0      0.000      0.000
REMARK  4 active torsions:
REMARK  status: ('A' for Active; 'I' for Inactive)
REMARK    1  A    between atoms: C2_2  and  C6_6 
REMARK    2  A    between atoms: C6_6  and  C8_8 
REMARK    3  A    between atoms: C7_7  and  C8_8 
REMARK    4  A    between atoms: C7_7  and  C9_9 
ROOT
HETATM    1  C1  UNL     1     -32.542   8.693   1.039  1.00 20.00    -0.111 C 
HETATM    2  C2  UNL     1     -32.261   8.036   2.005  1.00 20.00    -0.107 C 
HETATM    3  C3  UNL     1     -32.884   9.490  -0.139  1.00 20.00     0.112 C 
ENDROOT
BRANCH   2   4
HETATM    4  C6  UNL     1     -31.913   7.230   3.184  1.00 20.00     0.098 C 
BRANCH   4   5
HETATM    5  C8  UNL     1     -32.680   7.633   4.457  1.00 20.00    -0.006 C 
HETATM    6  C4  UNL     1     -32.372   9.084   4.851  1.00 20.00     0.011 C 
BRANCH   5   7
HETATM    7  C7  UNL     1     -34.214   7.433   4.379  1.00 20.00     0.020 C 
BRANCH   7   8
HETATM    8  C9  UNL     1     -34.772   6.223   5.137  1.00 20.00     0.054 C 
HETATM    9  C5  UNL     1     -34.334   6.230   6.595  1.00 20.00     0.022 C 
HETATM   10 BR10 UNL     1     -34.131   4.557   4.326  1.00 20.00    -0.092 Br
ENDBRANCH   7   8
ENDBRANCH   5   7
ENDBRANCH   4   5
ENDBRANCH   2   4
TORSDOF 4
ENDMDL
MODEL 2
REMARK VINA RESULT:      -4.0      1.295      1.742
REMARK  4 active torsions:
REMARK  status: ('A' for Active; 'I' for Inactive)
REMARK    1  A    between atoms: C2_2  and  C6_6 
REMARK    2  A    between atoms: C6_6  and  C8_8 
REMARK    3  A    between atoms: C7_7  and  C8_8 
REMARK    4  A    between atoms: C7_7  and  C9_9 
ROOT
HETATM    1  C1  UNL     1     -32.569   8.895   2.190  1.00 20.00    -0.111 C 
HETATM    2  C2  UNL     1     -32.544   8.765   3.384  1.00 20.00    -0.107 C 
HETATM    3  C3  UNL     1     -32.603   9.051   0.736  1.00 20.00     0.112 C 
ENDROOT
BRANCH   2   4
HETATM    4  C6  UNL     1     -32.511   8.601   4.845  1.00 20.00     0.098 C 
BRANCH   4   5
HETATM    5  C8  UNL     1     -33.322   7.392   5.350  1.00 20.00    -0.006 C 
HETATM    6  C4  UNL     1     -33.911   7.666   6.741  1.00 20.00     0.011 C 
BRANCH   5   7
HETATM    7  C7  UNL     1     -34.447   6.923   4.395  1.00 20.00     0.020 C 
BRANCH   7   8
HETATM    8  C9  UNL     1     -34.423   5.440   4.007  1.00 20.00     0.054 C 
HETATM    9  C5  UNL     1     -34.199   4.551   5.223  1.00 20.00     0.022 C 
HETATM   10 BR10 UNL     1     -32.972   5.093   2.736  1.00 20.00    -0.092 Br
ENDBRANCH   7   8
ENDBRANCH   5   7
ENDBRANCH   4   5
ENDBRANCH   2   4
TORSDOF 4
ENDMDL
MODEL 3
REMARK VINA RESULT:      -3.8     11.374     12.331
REMARK  4 active torsions:
REMARK  status: ('A' for Active; 'I' for Inactive)
REMARK    1  A    between atoms: C2_2  and  C6_6 
REMARK    2  A    between atoms: C6_6  and  C8_8 
REMARK    3  A    between atoms: C7_7  and  C8_8 
REMARK    4  A    between atoms: C7_7  and  C9_9 
ROOT
HETATM    1  C1  UNL     1     -30.649  18.650   1.467  1.00 20.00    -0.111 C 
HETATM    2  C2  UNL     1     -31.200  18.577   0.401  1.00 20.00    -0.107 C 
HETATM    3  C3  UNL     1     -29.981  18.740   2.764  1.00 20.00     0.112 C 
ENDROOT
BRANCH   2   4
HETATM    4  C6  UNL     1     -31.870  18.493  -0.905  1.00 20.00     0.098 C 
BRANCH   4   5
HETATM    5  C8  UNL     1     -33.232  17.775  -0.856  1.00 20.00    -0.006 C 
HETATM    6  C4  UNL     1     -34.039  18.208   0.376  1.00 20.00     0.011 C 
BRANCH   5   7
HETATM    7  C7  UNL     1     -34.097  17.945  -2.129  1.00 20.00     0.020 C 
BRANCH   7   8
HETATM    8  C9  UNL     1     -33.408  17.617  -3.458  1.00 20.00     0.054 C 
HETATM    9  C5  UNL     1     -34.120  18.278  -4.631  1.00 20.00     0.022 C 
HETATM   10 BR10 UNL     1     -33.415  15.681  -3.767  1.00 20.00    -0.092 Br
ENDBRANCH   7   8
ENDBRANCH   5   7
ENDBRANCH   4   5
ENDBRANCH   2   4
TORSDOF 4
ENDMDL
MODEL 4
REMARK VINA RESULT:      -3.7     11.140     12.126
REMARK  4 active torsions:
REMARK  status: ('A' for Active; 'I' for Inactive)
REMARK    1  A    between atoms: C2_2  and  C6_6 
REMARK    2  A    between atoms: C6_6  and  C8_8 
REMARK    3  A    between atoms: C7_7  and  C8_8 
REMARK    4  A    between atoms: C7_7  and  C9_9 
ROOT
HETATM    1  C1  UNL     1     -31.605  18.464   1.346  1.00 20.00    -0.111 C 
HETATM    2  C2  UNL     1     -32.622  18.334   0.720  1.00 20.00    -0.107 C 
HETATM    3  C3  UNL     1     -30.366  18.625   2.106  1.00 20.00     0.112 C 
ENDROOT
BRANCH   2   4
HETATM    4  C6  UNL     1     -33.864  18.172  -0.049  1.00 20.00     0.098 C 
BRANCH   4   5
HETATM    5  C8  UNL     1     -33.651  18.168  -1.575  1.00 20.00    -0.006 C 
HETATM    6  C4  UNL     1     -32.503  19.107  -1.973  1.00 20.00     0.011 C 
BRANCH   5   7
HETATM    7  C7  UNL     1     -33.411  16.767  -2.190  1.00 20.00     0.020 C 
BRANCH   7   8
HETATM    8  C9  UNL     1     -33.519  16.678  -3.717  1.00 20.00     0.054 C 
HETATM    9  C5  UNL     1     -34.752  17.411  -4.230  1.00 20.00     0.022 C 
HETATM   10 BR10 UNL     1     -33.658  14.805  -4.280  1.00 20.00    -0.092 Br
ENDBRANCH   7   8
ENDBRANCH   5   7
ENDBRANCH   4   5
ENDBRANCH   2   4
TORSDOF 4
ENDMDL
MODEL 5
REMARK VINA RESULT:      -3.6     11.529     12.795
REMARK  4 active torsions:
REMARK  status: ('A' for Active; 'I' for Inactive)
REMARK    1  A    between atoms: C2_2  and  C6_6 
REMARK    2  A    between atoms: C6_6  and  C8_8 
REMARK    3  A    between atoms: C7_7  and  C8_8 
REMARK    4  A    between atoms: C7_7  and  C9_9 
ROOT
HETATM    1  C1  UNL     1     -33.455  16.586  -2.517  1.00 20.00    -0.111 C 
HETATM    2  C2  UNL     1     -33.410  15.818  -3.440  1.00 20.00    -0.107 C 
HETATM    3  C3  UNL     1     -33.507  17.520  -1.393  1.00 20.00     0.112 C 
ENDROOT
BRANCH   2   4
HETATM    4  C6  UNL     1     -33.355  14.874  -4.566  1.00 20.00     0.098 C 
BRANCH   4   5
HETATM    5  C8  UNL     1     -34.546  14.997  -5.535  1.00 20.00    -0.006 C 
HETATM    6  C4  UNL     1     -35.760  14.213  -5.018  1.00 20.00     0.011 C 
BRANCH   5   7
HETATM    7  C7  UNL     1     -34.968  16.451  -5.860  1.00 20.00     0.020 C 
BRANCH   7   8
HETATM    8  C9  UNL     1     -36.408  16.829  -5.495  1.00 20.00     0.054 C 
HETATM    9  C5  UNL     1     -37.198  17.256  -6.724  1.00 20.00     0.022 C 
HETATM   10 BR10 UNL     1     -36.417  18.324  -4.227  1.00 20.00    -0.092 Br
ENDBRANCH   7   8
ENDBRANCH   5   7
ENDBRANCH   4   5
ENDBRANCH   2   4
TORSDOF 4
ENDMDL
MODEL 6
REMARK VINA RESULT:      -3.5     11.352     12.728
REMARK  4 active torsions:
REMARK  status: ('A' for Active; 'I' for Inactive)
REMARK    1  A    between atoms: C2_2  and  C6_6 
REMARK    2  A    between atoms: C6_6  and  C8_8 
REMARK    3  A    between atoms: C7_7  and  C8_8 
REMARK    4  A    between atoms: C7_7  and  C9_9 
ROOT
HETATM    1  C1  UNL     1     -32.088  18.218  -0.813  1.00 20.00    -0.111 C 
HETATM    2  C2  UNL     1     -32.832  17.539  -1.467  1.00 20.00    -0.107 C 
HETATM    3  C3  UNL     1     -31.180  19.044  -0.018  1.00 20.00     0.112 C 
ENDROOT
BRANCH   2   4
HETATM    4  C6  UNL     1     -33.740  16.703  -2.266  1.00 20.00     0.098 C 
BRANCH   4   5
HETATM    5  C8  UNL     1     -33.322  16.570  -3.742  1.00 20.00    -0.006 C 
HETATM    6  C4  UNL     1     -33.063  15.102  -4.111  1.00 20.00     0.011 C 
BRANCH   5   7
HETATM    7  C7  UNL     1     -34.315  17.191  -4.754  1.00 20.00     0.020 C 
BRANCH   7   8
HETATM    8  C9  UNL     1     -34.910  16.227  -5.788  1.00 20.00     0.054 C 
HETATM    9  C5  UNL     1     -34.497  16.607  -7.204  1.00 20.00     0.022 C 
HETATM   10 BR10 UNL     1     -36.868  16.265  -5.705  1.00 20.00    -0.092 Br
ENDBRANCH   7   8
ENDBRANCH   5   7
ENDBRANCH   4   5
ENDBRANCH   2   4
TORSDOF 4
ENDMDL
MODEL 7
REMARK VINA RESULT:      -3.5      1.766      2.492
REMARK  4 active torsions:
REMARK  status: ('A' for Active; 'I' for Inactive)
REMARK    1  A    between atoms: C2_2  and  C6_6 
REMARK    2  A    between atoms: C6_6  and  C8_8 
REMARK    3  A    between atoms: C7_7  and  C8_8 
REMARK    4  A    between atoms: C7_7  and  C9_9 
ROOT
HETATM    1  C1  UNL     1     -32.533   8.522   1.306  1.00 20.00    -0.111 C 
HETATM    2  C2  UNL     1     -32.464   7.695   2.174  1.00 20.00    -0.107 C 
HETATM    3  C3  UNL     1     -32.615   9.528   0.247  1.00 20.00     0.112 C 
ENDROOT
BRANCH   2   4
HETATM    4  C6  UNL     1     -32.375   6.686   3.240  1.00 20.00     0.098 C 
BRANCH   4   5
HETATM    5  C8  UNL     1     -33.331   5.494   3.045  1.00 20.00    -0.006 C 
HETATM    6  C4  UNL     1     -32.762   4.492   2.031  1.00 20.00     0.011 C 
BRANCH   5   7
HETATM    7  C7  UNL     1     -33.711   4.751   4.349  1.00 20.00     0.020 C 
BRANCH   7   8
HETATM    8  C9  UNL     1     -34.854   5.368   5.164  1.00 20.00     0.054 C 
HETATM    9  C5  UNL     1     -35.853   6.085   4.265  1.00 20.00     0.022 C 
HETATM   10 BR10 UNL     1     -34.149   6.678   6.441  1.00 20.00    -0.092 Br
ENDBRANCH   7   8
ENDBRANCH   5   7
ENDBRANCH   4   5
ENDBRANCH   2   4
TORSDOF 4
ENDMDL
MODEL 8
REMARK VINA RESULT:      -3.4     11.382     12.766
REMARK  4 active torsions:
REMARK  status: ('A' for Active; 'I' for Inactive)
REMARK    1  A    between atoms: C2_2  and  C6_6 
REMARK    2  A    between atoms: C6_6  and  C8_8 
REMARK    3  A    between atoms: C7_7  and  C8_8 
REMARK    4  A    between atoms: C7_7  and  C9_9 
ROOT
HETATM    1  C1  UNL     1     -33.597  17.361  -1.237  1.00 20.00    -0.111 C 
HETATM    2  C2  UNL     1     -33.510  16.724  -2.252  1.00 20.00    -0.107 C 
HETATM    3  C3  UNL     1     -33.704  18.138  -0.003  1.00 20.00     0.112 C 
ENDROOT
BRANCH   2   4
HETATM    4  C6  UNL     1     -33.396  15.946  -3.494  1.00 20.00     0.098 C 
BRANCH   4   5
HETATM    5  C8  UNL     1     -34.357  16.411  -4.605  1.00 20.00    -0.006 C 
HETATM    6  C4  UNL     1     -34.123  17.887  -4.955  1.00 20.00     0.011 C 
BRANCH   5   7
HETATM    7  C7  UNL     1     -34.310  15.560  -5.898  1.00 20.00     0.020 C 
BRANCH   7   8
HETATM    8  C9  UNL     1     -35.664  15.076  -6.433  1.00 20.00     0.054 C 
HETATM    9  C5  UNL     1     -35.822  15.397  -7.913  1.00 20.00     0.022 C 
HETATM   10 BR10 UNL     1     -37.128  15.953  -5.469  1.00 20.00    -0.092 Br
ENDBRANCH   7   8
ENDBRANCH   5   7
ENDBRANCH   4   5
ENDBRANCH   2   4
TORSDOF 4
ENDMDL
MODEL 9
REMARK VINA RESULT:      -3.4     11.160     12.023
REMARK  4 active torsions:
REMARK  status: ('A' for Active; 'I' for Inactive)
REMARK    1  A    between atoms: C2_2  and  C6_6 
REMARK    2  A    between atoms: C6_6  and  C8_8 
REMARK    3  A    between atoms: C7_7  and  C8_8 
REMARK    4  A    between atoms: C7_7  and  C9_9 
ROOT
HETATM    1  C1  UNL     1     -34.956  15.220  -5.832  1.00 20.00    -0.111 C 
HETATM    2  C2  UNL     1     -34.250  15.297  -4.863  1.00 20.00    -0.107 C 
HETATM    3  C3  UNL     1     -35.814  15.126  -7.013  1.00 20.00     0.112 C 
ENDROOT
BRANCH   2   4
HETATM    4  C6  UNL     1     -33.385  15.398  -3.679  1.00 20.00     0.098 C 
BRANCH   4   5
HETATM    5  C8  UNL     1     -33.204  16.839  -3.165  1.00 20.00    -0.006 C 
HETATM    6  C4  UNL     1     -33.974  17.837  -4.042  1.00 20.00     0.011 C 
BRANCH   5   7
HETATM    7  C7  UNL     1     -33.590  17.049  -1.680  1.00 20.00     0.020 C 
BRANCH   7   8
HETATM    8  C9  UNL     1     -33.162  18.384  -1.058  1.00 20.00     0.054 C 
HETATM    9  C5  UNL     1     -31.663  18.417  -0.792  1.00 20.00     0.022 C 
HETATM   10 BR10 UNL     1     -34.081  18.663   0.650  1.00 20.00    -0.092 Br
ENDBRANCH   7   8
ENDBRANCH   5   7
ENDBRANCH   4   5
ENDBRANCH   2   4
TORSDOF 4
ENDMDL
