MODEL 1
REMARK VINA RESULT:      -5.5      0.000      0.000
REMARK  0 active torsions:
REMARK  status: ('A' for Active; 'I' for Inactive)
ROOT
HETATM    1  C1  UNL     1     -32.692   9.178   1.010  1.00 20.00     0.088 C 
HETATM    2  C2  UNL     1     -32.618   8.117   3.171  1.00 20.00    -0.070 C 
HETATM    3  C3  UNL     1     -32.714   9.227   2.426  1.00 20.00     0.096 C 
HETATM    4  C4  UNL     1     -32.480   6.748   2.555  1.00 20.00     0.035 C 
HETATM    5  C5  UNL     1     -32.685   8.140   4.671  1.00 20.00     0.039 C 
HETATM    6  C6  UNL     1     -33.024   5.640   3.468  1.00 20.00     0.009 C 
HETATM    7  C7  UNL     1     -33.873   7.308   5.209  1.00 20.00    -0.011 C 
HETATM    8  C8  UNL     1     -34.243   6.118   4.271  1.00 20.00    -0.014 C 
HETATM    9  C9  UNL     1     -33.575   6.910   6.659  1.00 20.00     0.010 C 
HETATM   10  C10 UNL     1     -34.926   4.944   4.972  1.00 20.00     0.010 C 
HETATM   11  N11 UNL     1     -32.674   9.145  -0.149  1.00 20.00    -0.192 NA
ENDROOT
TORSDOF 0
ENDMDL
MODEL 2
REMARK VINA RESULT:      -4.3     11.425     12.821
REMARK  0 active torsions:
REMARK  status: ('A' for Active; 'I' for Inactive)
ROOT
HETATM    1  C1  UNL     1     -31.770  18.799  -0.742  1.00 20.00     0.088 C 
HETATM    2  C2  UNL     1     -33.791  18.179  -1.896  1.00 20.00    -0.070 C 
HETATM    3  C3  UNL     1     -33.087  19.073  -1.187  1.00 20.00     0.096 C 
HETATM    4  C4  UNL     1     -33.232  16.829  -2.264  1.00 20.00     0.035 C 
HETATM    5  C5  UNL     1     -35.170  18.466  -2.417  1.00 20.00     0.039 C 
HETATM    6  C6  UNL     1     -33.866  16.264  -3.542  1.00 20.00     0.009 C 
HETATM    7  C7  UNL     1     -35.232  18.384  -3.961  1.00 20.00    -0.011 C 
HETATM    8  C8  UNL     1     -34.196  17.377  -4.549  1.00 20.00    -0.014 C 
HETATM    9  C9  UNL     1     -36.684  18.125  -4.380  1.00 20.00     0.010 C 
HETATM   10  C10 UNL     1     -34.581  16.787  -5.905  1.00 20.00     0.010 C 
HETATM   11  N11 UNL     1     -30.692  18.580  -0.373  1.00 20.00    -0.192 NA
ENDROOT
TORSDOF 0
ENDMDL
MODEL 3
REMARK VINA RESULT:      -4.1     11.250     12.866
REMARK  0 active torsions:
REMARK  status: ('A' for Active; 'I' for Inactive)
ROOT
HETATM    1  C1  UNL     1     -33.740  18.140  -0.672  1.00 20.00     0.088 C 
HETATM    2  C2  UNL     1     -33.448  17.133  -2.840  1.00 20.00    -0.070 C 
HETATM    3  C3  UNL     1     -33.570  17.011  -1.510  1.00 20.00     0.096 C 
HETATM    4  C4  UNL     1     -33.483  18.473  -3.528  1.00 20.00     0.035 C 
HETATM    5  C5  UNL     1     -33.311  15.947  -3.752  1.00 20.00     0.039 C 
HETATM    6  C6  UNL     1     -33.971  18.371  -4.979  1.00 20.00     0.009 C 
HETATM    7  C7  UNL     1     -34.469  15.872  -4.775  1.00 20.00    -0.011 C 
HETATM    8  C8  UNL     1     -35.038  17.277  -5.140  1.00 20.00    -0.014 C 
HETATM    9  C9  UNL     1     -34.006  15.038  -5.976  1.00 20.00     0.010 C 
HETATM   10  C10 UNL     1     -35.696  17.358  -6.518  1.00 20.00     0.010 C 
HETATM   11  N11 UNL     1     -33.880  19.061   0.020  1.00 20.00    -0.192 NA
ENDROOT
TORSDOF 0
ENDMDL
MODEL 4
REMARK VINA RESULT:      -3.8     10.379     11.244
REMARK  0 active torsions:
REMARK  status: ('A' for Active; 'I' for Inactive)
ROOT
HETATM    1  C1  UNL     1     -39.529  11.858   4.779  1.00 20.00     0.088 C 
HETATM    2  C2  UNL     1     -41.297  12.895   6.044  1.00 20.00    -0.070 C 
HETATM    3  C3  UNL     1     -40.300  12.002   5.959  1.00 20.00     0.096 C 
HETATM    4  C4  UNL     1     -41.662  13.800   4.896  1.00 20.00     0.035 C 
HETATM    5  C5  UNL     1     -42.097  13.096   7.299  1.00 20.00     0.039 C 
HETATM    6  C6  UNL     1     -42.316  15.106   5.368  1.00 20.00     0.009 C 
HETATM    7  C7  UNL     1     -41.971  14.541   7.838  1.00 20.00    -0.011 C 
HETATM    8  C8  UNL     1     -41.724  15.583   6.704  1.00 20.00    -0.014 C 
HETATM    9  C9  UNL     1     -43.184  14.839   8.727  1.00 20.00     0.010 C 
HETATM   10  C10 UNL     1     -42.192  17.001   7.030  1.00 20.00     0.010 C 
HETATM   11  N11 UNL     1     -38.895  11.735   3.815  1.00 20.00    -0.192 NA
ENDROOT
TORSDOF 0
ENDMDL
MODEL 5
REMARK VINA RESULT:      -3.8     10.031     10.906
REMARK  0 active torsions:
REMARK  status: ('A' for Active; 'I' for Inactive)
ROOT
HETATM    1  C1  UNL     1     -39.298  12.029   4.694  1.00 20.00     0.088 C 
HETATM    2  C2  UNL     1     -40.337  13.169   6.544  1.00 20.00    -0.070 C 
HETATM    3  C3  UNL     1     -39.329  12.435   6.051  1.00 20.00     0.096 C 
HETATM    4  C4  UNL     1     -41.498  13.610   5.690  1.00 20.00     0.035 C 
HETATM    5  C5  UNL     1     -40.368  13.649   7.966  1.00 20.00     0.039 C 
HETATM    6  C6  UNL     1     -42.148  14.900   6.210  1.00 20.00     0.009 C 
HETATM    7  C7  UNL     1     -40.402  15.194   8.053  1.00 20.00    -0.011 C 
HETATM    8  C8  UNL     1     -41.107  15.847   6.826  1.00 20.00    -0.014 C 
HETATM    9  C9  UNL     1     -40.984  15.594   9.414  1.00 20.00     0.010 C 
HETATM   10  C10 UNL     1     -41.718  17.221   7.101  1.00 20.00     0.010 C 
HETATM   11  N11 UNL     1     -39.267  11.692   3.584  1.00 20.00    -0.192 NA
ENDROOT
TORSDOF 0
ENDMDL
MODEL 6
REMARK VINA RESULT:      -3.7     11.285     12.925
REMARK  0 active torsions:
REMARK  status: ('A' for Active; 'I' for Inactive)
ROOT
HETATM    1  C1  UNL     1     -33.072  17.768  -1.462  1.00 20.00     0.088 C 
HETATM    2  C2  UNL     1     -33.574  16.763  -3.592  1.00 20.00    -0.070 C 
HETATM    3  C3  UNL     1     -33.293  16.638  -2.287  1.00 20.00     0.096 C 
HETATM    4  C4  UNL     1     -33.673  18.108  -4.264  1.00 20.00     0.035 C 
HETATM    5  C5  UNL     1     -33.856  15.582  -4.476  1.00 20.00     0.039 C 
HETATM    6  C6  UNL     1     -34.593  18.080  -5.493  1.00 20.00     0.009 C 
HETATM    7  C7  UNL     1     -35.274  15.649  -5.092  1.00 20.00    -0.011 C 
HETATM    8  C8  UNL     1     -35.771  17.113  -5.294  1.00 20.00    -0.014 C 
HETATM    9  C9  UNL     1     -35.298  14.785  -6.359  1.00 20.00     0.010 C 
HETATM   10  C10 UNL     1     -36.808  17.286  -6.403  1.00 20.00     0.010 C 
HETATM   11  N11 UNL     1     -32.889  18.689  -0.780  1.00 20.00    -0.192 NA
ENDROOT
TORSDOF 0
ENDMDL
MODEL 7
REMARK VINA RESULT:      -3.6     10.554     11.556
REMARK  0 active torsions:
REMARK  status: ('A' for Active; 'I' for Inactive)
ROOT
HETATM    1  C1  UNL     1     -40.331  12.242   5.598  1.00 20.00     0.088 C 
HETATM    2  C2  UNL     1     -41.471  13.586   7.241  1.00 20.00    -0.070 C 
HETATM    3  C3  UNL     1     -41.419  12.488   6.472  1.00 20.00     0.096 C 
HETATM    4  C4  UNL     1     -40.380  14.625   7.227  1.00 20.00     0.035 C 
HETATM    5  C5  UNL     1     -42.591  13.845   8.207  1.00 20.00     0.039 C 
HETATM    6  C6  UNL     1     -40.290  15.394   8.553  1.00 20.00     0.009 C 
HETATM    7  C7  UNL     1     -42.082  13.950   9.665  1.00 20.00    -0.011 C 
HETATM    8  C8  UNL     1     -40.623  14.493   9.752  1.00 20.00    -0.014 C 
HETATM    9  C9  UNL     1     -43.108  14.741  10.485  1.00 20.00     0.010 C 
HETATM   10  C10 UNL     1     -40.281  15.191  11.068  1.00 20.00     0.010 C 
HETATM   11  N11 UNL     1     -39.444  12.035   4.880  1.00 20.00    -0.192 NA
ENDROOT
TORSDOF 0
ENDMDL
MODEL 8
REMARK VINA RESULT:      -3.5     13.656     14.805
REMARK  0 active torsions:
REMARK  status: ('A' for Active; 'I' for Inactive)
ROOT
HETATM    1  C1  UNL     1     -22.865  -3.634   9.736  1.00 20.00     0.088 C 
HETATM    2  C2  UNL     1     -24.579  -2.614  11.087  1.00 20.00    -0.070 C 
HETATM    3  C3  UNL     1     -23.376  -2.554  10.498  1.00 20.00     0.096 C 
HETATM    4  C4  UNL     1     -25.463  -3.830  10.980  1.00 20.00     0.035 C 
HETATM    5  C5  UNL     1     -25.160  -1.465  11.861  1.00 20.00     0.039 C 
HETATM    6  C6  UNL     1     -26.951  -3.484  11.132  1.00 20.00     0.009 C 
HETATM    7  C7  UNL     1     -26.492  -0.972  11.247  1.00 20.00    -0.011 C 
HETATM    8  C8  UNL     1     -27.276  -2.110  10.525  1.00 20.00    -0.014 C 
HETATM    9  C9  UNL     1     -27.287  -0.236  12.332  1.00 20.00     0.010 C 
HETATM   10  C10 UNL     1     -28.787  -1.893  10.451  1.00 20.00     0.010 C 
HETATM   11  N11 UNL     1     -22.441  -4.515   9.112  1.00 20.00    -0.192 NA
ENDROOT
TORSDOF 0
ENDMDL
MODEL 9
REMARK VINA RESULT:      -3.3     11.270     12.005
REMARK  0 active torsions:
REMARK  status: ('A' for Active; 'I' for Inactive)
ROOT
HETATM    1  C1  UNL     1     -41.313  18.046   6.810  1.00 20.00     0.088 C 
HETATM    2  C2  UNL     1     -41.853  15.763   7.353  1.00 20.00    -0.070 C 
HETATM    3  C3  UNL     1     -42.238  16.982   6.949  1.00 20.00     0.096 C 
HETATM    4  C4  UNL     1     -40.418  15.445   7.685  1.00 20.00     0.035 C 
HETATM    5  C5  UNL     1     -42.808  14.608   7.464  1.00 20.00     0.039 C 
HETATM    6  C6  UNL     1     -40.088  13.959   7.487  1.00 20.00     0.009 C 
HETATM    7  C7  UNL     1     -42.404  13.436   6.538  1.00 20.00    -0.011 C 
HETATM    8  C8  UNL     1     -40.864  13.362   6.303  1.00 20.00    -0.014 C 
HETATM    9  C9  UNL     1     -43.030  12.146   7.082  1.00 20.00     0.010 C 
HETATM   10  C10 UNL     1     -40.340  11.969   5.956  1.00 20.00     0.010 C 
HETATM   11  N11 UNL     1     -40.561  18.922   6.695  1.00 20.00    -0.192 NA
ENDROOT
TORSDOF 0
ENDMDL
