MODEL 1
REMARK VINA RESULT:      -5.1      0.000      0.000
REMARK  1 active torsions:
REMARK  status: ('A' for Active; 'I' for Inactive)
REMARK    1  A    between atoms: C7_7  and  C8_8 
ROOT
HETATM    1  C1  UNL     1     -32.712   9.109   2.340  1.00 20.00     0.064 C 
HETATM    2  C2  UNL     1     -32.362   8.558   4.732  1.00 20.00     0.020 C 
HETATM    3  C3  UNL     1     -31.902   6.841   2.931  1.00 20.00     0.020 C 
HETATM    4  C4  UNL     1     -33.692   7.870   5.046  1.00 20.00     0.015 C 
HETATM    5  C5  UNL     1     -33.233   6.156   3.248  1.00 20.00     0.015 C 
HETATM    6  C6  UNL     1     -31.894   8.331   3.290  1.00 20.00     0.093 C 
HETATM    7  C7  UNL     1     -33.650   6.374   4.707  1.00 20.00     0.093 C 
HETATM    8  N9  UNL     1     -33.355   9.721   1.593  1.00 20.00    -0.197 NA
ENDROOT
BRANCH   7   9
HETATM    9  C8  UNL     1     -35.003   5.721   4.984  1.00 20.00     0.391 C 
HETATM   10  F10 UNL     1     -35.321   5.854   6.281  1.00 20.00    -0.171 F 
HETATM   11  F11 UNL     1     -35.956   6.305   4.241  1.00 20.00    -0.171 F 
HETATM   12  F12 UNL     1     -34.954   4.416   4.681  1.00 20.00    -0.171 F 
ENDBRANCH   7   9
TORSDOF 1
ENDMDL
MODEL 2
REMARK VINA RESULT:      -4.7      3.399      4.441
REMARK  1 active torsions:
REMARK  status: ('A' for Active; 'I' for Inactive)
REMARK    1  A    between atoms: C7_7  and  C8_8 
ROOT
HETATM    1  C1  UNL     1     -34.293   4.406   4.871  1.00 20.00     0.064 C 
HETATM    2  C2  UNL     1     -34.415   6.242   6.533  1.00 20.00     0.020 C 
HETATM    3  C3  UNL     1     -35.431   6.513   4.230  1.00 20.00     0.020 C 
HETATM    4  C4  UNL     1     -33.209   7.078   6.097  1.00 20.00     0.015 C 
HETATM    5  C5  UNL     1     -34.224   7.349   3.799  1.00 20.00     0.015 C 
HETATM    6  C6  UNL     1     -35.108   5.533   5.363  1.00 20.00     0.093 C 
HETATM    7  C7  UNL     1     -33.580   8.072   4.989  1.00 20.00     0.093 C 
HETATM    8  N9  UNL     1     -33.652   3.520   4.483  1.00 20.00    -0.197 NA
ENDROOT
BRANCH   7   9
HETATM    9  C8  UNL     1     -32.351   8.860   4.539  1.00 20.00     0.391 C 
HETATM   10  F10 UNL     1     -31.325   8.024   4.319  1.00 20.00    -0.171 F 
HETATM   11  F11 UNL     1     -32.620   9.525   3.406  1.00 20.00    -0.171 F 
HETATM   12  F12 UNL     1     -31.997   9.740   5.487  1.00 20.00    -0.171 F 
ENDBRANCH   7   9
TORSDOF 1
ENDMDL
MODEL 3
REMARK VINA RESULT:      -4.6     11.482     12.761
REMARK  1 active torsions:
REMARK  status: ('A' for Active; 'I' for Inactive)
REMARK    1  A    between atoms: C7_7  and  C8_8 
ROOT
HETATM    1  C1  UNL     1     -36.016  15.085  -5.592  1.00 20.00     0.064 C 
HETATM    2  C2  UNL     1     -34.541  17.055  -5.892  1.00 20.00     0.020 C 
HETATM    3  C3  UNL     1     -33.607  14.858  -5.052  1.00 20.00     0.020 C 
HETATM    4  C4  UNL     1     -34.532  17.603  -4.464  1.00 20.00     0.015 C 
HETATM    5  C5  UNL     1     -33.599  15.411  -3.625  1.00 20.00     0.015 C 
HETATM    6  C6  UNL     1     -34.655  15.527  -5.949  1.00 20.00     0.093 C 
HETATM    7  C7  UNL     1     -33.448  16.936  -3.608  1.00 20.00     0.093 C 
HETATM    8  N9  UNL     1     -37.086  14.736  -5.311  1.00 20.00    -0.197 NA
ENDROOT
BRANCH   7   9
HETATM    9  C8  UNL     1     -33.491  17.466  -2.176  1.00 20.00     0.391 C 
HETATM   10  F10 UNL     1     -34.441  18.407  -2.062  1.00 20.00    -0.171 F 
HETATM   11  F11 UNL     1     -33.765  16.467  -1.324  1.00 20.00    -0.171 F 
HETATM   12  F12 UNL     1     -32.306  18.004  -1.849  1.00 20.00    -0.171 F 
ENDBRANCH   7   9
TORSDOF 1
ENDMDL
MODEL 4
REMARK VINA RESULT:      -4.6     11.501     12.778
REMARK  1 active torsions:
REMARK  status: ('A' for Active; 'I' for Inactive)
REMARK    1  A    between atoms: C7_7  and  C8_8 
ROOT
HETATM    1  C1  UNL     1     -36.016  15.084  -5.589  1.00 20.00     0.064 C 
HETATM    2  C2  UNL     1     -34.557  17.065  -5.899  1.00 20.00     0.020 C 
HETATM    3  C3  UNL     1     -33.602  14.875  -5.061  1.00 20.00     0.020 C 
HETATM    4  C4  UNL     1     -34.545  17.615  -4.472  1.00 20.00     0.015 C 
HETATM    5  C5  UNL     1     -33.591  15.430  -3.635  1.00 20.00     0.015 C 
HETATM    6  C6  UNL     1     -34.660  15.535  -5.953  1.00 20.00     0.093 C 
HETATM    7  C7  UNL     1     -33.451  16.957  -3.620  1.00 20.00     0.093 C 
HETATM    8  N9  UNL     1     -37.082  14.728  -5.302  1.00 20.00    -0.197 NA
ENDROOT
BRANCH   7   9
HETATM    9  C8  UNL     1     -33.490  17.488  -2.189  1.00 20.00     0.391 C 
HETATM   10  F10 UNL     1     -33.745  16.485  -1.334  1.00 20.00    -0.171 F 
HETATM   11  F11 UNL     1     -32.311  18.041  -1.870  1.00 20.00    -0.171 F 
HETATM   12  F12 UNL     1     -34.453  18.415  -2.069  1.00 20.00    -0.171 F 
ENDBRANCH   7   9
TORSDOF 1
ENDMDL
MODEL 5
REMARK VINA RESULT:      -4.3      9.553     10.610
REMARK  1 active torsions:
REMARK  status: ('A' for Active; 'I' for Inactive)
REMARK    1  A    between atoms: C7_7  and  C8_8 
ROOT
HETATM    1  C1  UNL     1     -42.230  13.822   9.202  1.00 20.00     0.064 C 
HETATM    2  C2  UNL     1     -41.304  15.109   7.295  1.00 20.00     0.020 C 
HETATM    3  C3  UNL     1     -43.053  13.319   6.917  1.00 20.00     0.020 C 
HETATM    4  C4  UNL     1     -40.216  14.142   6.823  1.00 20.00     0.015 C 
HETATM    5  C5  UNL     1     -41.962  12.356   6.445  1.00 20.00     0.015 C 
HETATM    6  C6  UNL     1     -42.531  14.395   7.876  1.00 20.00     0.093 C 
HETATM    7  C7  UNL     1     -40.769  13.104   5.838  1.00 20.00     0.093 C 
HETATM    8  N9  UNL     1     -41.994  13.371  10.244  1.00 20.00    -0.197 NA
ENDROOT
BRANCH   7   9
HETATM    9  C8  UNL     1     -39.675  12.123   5.419  1.00 20.00     0.391 C 
HETATM   10  F10 UNL     1     -38.466  12.654   5.657  1.00 20.00    -0.171 F 
HETATM   11  F11 UNL     1     -39.792  10.981   6.113  1.00 20.00    -0.171 F 
HETATM   12  F12 UNL     1     -39.779  11.850   4.110  1.00 20.00    -0.171 F 
ENDBRANCH   7   9
TORSDOF 1
ENDMDL
MODEL 6
REMARK VINA RESULT:      -4.3      9.557     10.623
REMARK  1 active torsions:
REMARK  status: ('A' for Active; 'I' for Inactive)
REMARK    1  A    between atoms: C7_7  and  C8_8 
ROOT
HETATM    1  C1  UNL     1     -42.223  13.832   9.204  1.00 20.00     0.064 C 
HETATM    2  C2  UNL     1     -41.317  15.111   7.283  1.00 20.00     0.020 C 
HETATM    3  C3  UNL     1     -43.060  13.311   6.929  1.00 20.00     0.020 C 
HETATM    4  C4  UNL     1     -40.227  14.147   6.809  1.00 20.00     0.015 C 
HETATM    5  C5  UNL     1     -41.967  12.350   6.455  1.00 20.00     0.015 C 
HETATM    6  C6  UNL     1     -42.536  14.395   7.877  1.00 20.00     0.093 C 
HETATM    7  C7  UNL     1     -40.782  13.100   5.835  1.00 20.00     0.093 C 
HETATM    8  N9  UNL     1     -41.978  13.389  10.247  1.00 20.00    -0.197 NA
ENDROOT
BRANCH   7   9
HETATM    9  C8  UNL     1     -39.686  12.122   5.415  1.00 20.00     0.391 C 
HETATM   10  F10 UNL     1     -39.802  11.836   4.109  1.00 20.00    -0.171 F 
HETATM   11  F11 UNL     1     -38.479  12.661   5.636  1.00 20.00    -0.171 F 
HETATM   12  F12 UNL     1     -39.791  10.984   6.118  1.00 20.00    -0.171 F 
ENDBRANCH   7   9
TORSDOF 1
ENDMDL
MODEL 7
REMARK VINA RESULT:      -4.2     11.499     12.701
REMARK  1 active torsions:
REMARK  status: ('A' for Active; 'I' for Inactive)
REMARK    1  A    between atoms: C7_7  and  C8_8 
ROOT
HETATM    1  C1  UNL     1     -35.474  19.219  -2.066  1.00 20.00     0.064 C 
HETATM    2  C2  UNL     1     -33.430  18.064  -1.268  1.00 20.00     0.020 C 
HETATM    3  C3  UNL     1     -33.468  19.214  -3.522  1.00 20.00     0.020 C 
HETATM    4  C4  UNL     1     -33.602  16.709  -1.958  1.00 20.00     0.015 C 
HETATM    5  C5  UNL     1     -33.639  17.856  -4.209  1.00 20.00     0.015 C 
HETATM    6  C6  UNL     1     -33.999  19.231  -2.085  1.00 20.00     0.093 C 
HETATM    7  C7  UNL     1     -33.026  16.720  -3.380  1.00 20.00     0.093 C 
HETATM    8  N9  UNL     1     -36.634  19.211  -2.051  1.00 20.00    -0.197 NA
ENDROOT
BRANCH   7   9
HETATM    9  C8  UNL     1     -33.253  15.373  -4.063  1.00 20.00     0.391 C 
HETATM   10  F10 UNL     1     -34.112  14.633  -3.346  1.00 20.00    -0.171 F 
HETATM   11  F11 UNL     1     -33.759  15.559  -5.291  1.00 20.00    -0.171 F 
HETATM   12  F12 UNL     1     -32.091  14.710  -4.167  1.00 20.00    -0.171 F 
ENDBRANCH   7   9
TORSDOF 1
ENDMDL
MODEL 8
REMARK VINA RESULT:      -4.2     11.504     13.230
REMARK  1 active torsions:
REMARK  status: ('A' for Active; 'I' for Inactive)
REMARK    1  A    between atoms: C7_7  and  C8_8 
ROOT
HETATM    1  C1  UNL     1     -37.659  16.550  -6.195  1.00 20.00     0.064 C 
HETATM    2  C2  UNL     1     -35.570  17.852  -5.900  1.00 20.00     0.020 C 
HETATM    3  C3  UNL     1     -35.571  15.693  -7.221  1.00 20.00     0.020 C 
HETATM    4  C4  UNL     1     -34.963  17.117  -4.703  1.00 20.00     0.015 C 
HETATM    5  C5  UNL     1     -34.964  14.962  -6.021  1.00 20.00     0.015 C 
HETATM    6  C6  UNL     1     -36.380  16.932  -6.822  1.00 20.00     0.093 C 
HETATM    7  C7  UNL     1     -34.132  15.905  -5.143  1.00 20.00     0.093 C 
HETATM    8  N9  UNL     1     -38.666  16.249  -5.703  1.00 20.00    -0.197 NA
ENDROOT
BRANCH   7   9
HETATM    9  C8  UNL     1     -33.578  15.162  -3.929  1.00 20.00     0.391 C 
HETATM   10  F10 UNL     1     -34.278  14.036  -3.720  1.00 20.00    -0.171 F 
HETATM   11  F11 UNL     1     -32.292  14.842  -4.134  1.00 20.00    -0.171 F 
HETATM   12  F12 UNL     1     -33.666  15.936  -2.837  1.00 20.00    -0.171 F 
ENDBRANCH   7   9
TORSDOF 1
ENDMDL
MODEL 9
REMARK VINA RESULT:      -4.2     11.486     13.202
REMARK  1 active torsions:
REMARK  status: ('A' for Active; 'I' for Inactive)
REMARK    1  A    between atoms: C7_7  and  C8_8 
ROOT
HETATM    1  C1  UNL     1     -37.562  16.563  -6.320  1.00 20.00     0.064 C 
HETATM    2  C2  UNL     1     -35.488  17.856  -5.905  1.00 20.00     0.020 C 
HETATM    3  C3  UNL     1     -35.433  15.733  -7.282  1.00 20.00     0.020 C 
HETATM    4  C4  UNL     1     -34.930  17.089  -4.703  1.00 20.00     0.015 C 
HETATM    5  C5  UNL     1     -34.875  14.970  -6.078  1.00 20.00     0.015 C 
HETATM    6  C6  UNL     1     -36.258  16.961  -6.883  1.00 20.00     0.093 C 
HETATM    7  C7  UNL     1     -34.081  15.889  -5.142  1.00 20.00     0.093 C 
HETATM    8  N9  UNL     1     -38.588  16.249  -5.878  1.00 20.00    -0.197 NA
ENDROOT
BRANCH   7   9
HETATM    9  C8  UNL     1     -33.577  15.114  -3.926  1.00 20.00     0.391 C 
HETATM   10  F10 UNL     1     -33.645  15.884  -2.829  1.00 20.00    -0.171 F 
HETATM   11  F11 UNL     1     -34.327  14.018  -3.736  1.00 20.00    -0.171 F 
HETATM   12  F12 UNL     1     -32.302  14.741  -4.115  1.00 20.00    -0.171 F 
ENDBRANCH   7   9
TORSDOF 1
ENDMDL
