MODEL 1
REMARK VINA RESULT:      -4.5      0.000      0.000
REMARK  3 active torsions:
REMARK  status: ('A' for Active; 'I' for Inactive)
REMARK    1  A    between atoms: C5_5  and  C7_7 
REMARK    2  A    between atoms: C6_6  and  C7_7 
REMARK    3  A    between atoms: C6_6  and  C8_8 
ROOT
HETATM    1  C1  UNL     1     -32.998   4.872   2.495  1.00 20.00     0.012 C 
HETATM    2  C2  UNL     1     -32.668   5.979   2.823  1.00 20.00    -0.117 C 
HETATM    3  C5  UNL     1     -32.256   7.334   3.221  1.00 20.00     0.097 C 
ENDROOT
BRANCH   3   4
HETATM    4  C7  UNL     1     -33.094   7.924   4.372  1.00 20.00    -0.006 C 
HETATM    5  C3  UNL     1     -32.566   9.301   4.796  1.00 20.00     0.011 C 
BRANCH   4   6
HETATM    6  C6  UNL     1     -33.211   7.007   5.611  1.00 20.00     0.025 C 
BRANCH   6   7
HETATM    7  C8  UNL     1     -34.602   6.408   5.877  1.00 20.00     0.078 C 
HETATM    8  C4  UNL     1     -34.487   4.992   6.432  1.00 20.00     0.026 C 
HETATM    9 CL9  UNL     1     -35.582   6.364   4.382  1.00 20.00    -0.125 Cl
ENDBRANCH   6   7
ENDBRANCH   4   6
ENDBRANCH   3   4
TORSDOF 3
ENDMDL
MODEL 2
REMARK VINA RESULT:      -4.3      1.538      3.478
REMARK  3 active torsions:
REMARK  status: ('A' for Active; 'I' for Inactive)
REMARK    1  A    between atoms: C5_5  and  C7_7 
REMARK    2  A    between atoms: C6_6  and  C7_7 
REMARK    3  A    between atoms: C6_6  and  C8_8 
ROOT
HETATM    1  C1  UNL     1     -34.801   5.021   5.813  1.00 20.00     0.012 C 
HETATM    2  C2  UNL     1     -34.360   6.119   6.018  1.00 20.00    -0.117 C 
HETATM    3  C5  UNL     1     -33.825   7.465   6.275  1.00 20.00     0.097 C 
ENDROOT
BRANCH   3   4
HETATM    4  C7  UNL     1     -32.799   7.935   5.226  1.00 20.00    -0.006 C 
HETATM    5  C3  UNL     1     -32.386   9.394   5.466  1.00 20.00     0.011 C 
BRANCH   4   6
HETATM    6  C6  UNL     1     -33.259   7.759   3.760  1.00 20.00     0.025 C 
BRANCH   6   7
HETATM    7  C8  UNL     1     -32.285   7.014   2.834  1.00 20.00     0.078 C 
HETATM    8  C4  UNL     1     -32.133   7.745   1.504  1.00 20.00     0.026 C 
HETATM    9 CL9  UNL     1     -32.845   5.347   2.514  1.00 20.00    -0.125 Cl
ENDBRANCH   6   7
ENDBRANCH   4   6
ENDBRANCH   3   4
TORSDOF 3
ENDMDL
MODEL 3
REMARK VINA RESULT:      -4.3      1.317      1.780
REMARK  3 active torsions:
REMARK  status: ('A' for Active; 'I' for Inactive)
REMARK    1  A    between atoms: C5_5  and  C7_7 
REMARK    2  A    between atoms: C6_6  and  C7_7 
REMARK    3  A    between atoms: C6_6  and  C8_8 
ROOT
HETATM    1  C1  UNL     1     -32.269   8.628   0.784  1.00 20.00     0.012 C 
HETATM    2  C2  UNL     1     -32.250   8.036   1.828  1.00 20.00    -0.117 C 
HETATM    3  C5  UNL     1     -32.224   7.303   3.103  1.00 20.00     0.097 C 
ENDROOT
BRANCH   3   4
HETATM    4  C7  UNL     1     -32.985   8.010   4.241  1.00 20.00    -0.006 C 
HETATM    5  C3  UNL     1     -32.223   9.249   4.733  1.00 20.00     0.011 C 
BRANCH   4   6
HETATM    6  C6  UNL     1     -33.328   7.099   5.442  1.00 20.00     0.025 C 
BRANCH   6   7
HETATM    7  C8  UNL     1     -34.501   6.128   5.236  1.00 20.00     0.078 C 
HETATM    8  C4  UNL     1     -34.862   5.427   6.542  1.00 20.00     0.026 C 
HETATM    9 CL9  UNL     1     -34.106   4.889   4.008  1.00 20.00    -0.125 Cl
ENDBRANCH   6   7
ENDBRANCH   4   6
ENDBRANCH   3   4
TORSDOF 3
ENDMDL
MODEL 4
REMARK VINA RESULT:      -4.2      1.678      3.191
REMARK  3 active torsions:
REMARK  status: ('A' for Active; 'I' for Inactive)
REMARK    1  A    between atoms: C5_5  and  C7_7 
REMARK    2  A    between atoms: C6_6  and  C7_7 
REMARK    3  A    between atoms: C6_6  and  C8_8 
ROOT
HETATM    1  C1  UNL     1     -32.918   4.769   2.328  1.00 20.00     0.012 C 
HETATM    2  C2  UNL     1     -33.613   4.935   3.293  1.00 20.00    -0.117 C 
HETATM    3  C5  UNL     1     -34.470   5.135   4.471  1.00 20.00     0.097 C 
ENDROOT
BRANCH   3   4
HETATM    4  C7  UNL     1     -33.954   6.219   5.437  1.00 20.00    -0.006 C 
HETATM    5  C3  UNL     1     -34.805   6.277   6.714  1.00 20.00     0.011 C 
BRANCH   4   6
HETATM    6  C6  UNL     1     -33.851   7.631   4.815  1.00 20.00     0.025 C 
BRANCH   6   7
HETATM    7  C8  UNL     1     -32.447   8.070   4.371  1.00 20.00     0.078 C 
HETATM    8  C4  UNL     1     -32.053   9.385   5.037  1.00 20.00     0.026 C 
HETATM    9 CL9  UNL     1     -32.367   8.276   2.597  1.00 20.00    -0.125 Cl
ENDBRANCH   6   7
ENDBRANCH   4   6
ENDBRANCH   3   4
TORSDOF 3
ENDMDL
MODEL 5
REMARK VINA RESULT:      -4.1      1.341      2.977
REMARK  3 active torsions:
REMARK  status: ('A' for Active; 'I' for Inactive)
REMARK    1  A    between atoms: C5_5  and  C7_7 
REMARK    2  A    between atoms: C6_6  and  C7_7 
REMARK    3  A    between atoms: C6_6  and  C8_8 
ROOT
HETATM    1  C1  UNL     1     -32.246   9.204   4.986  1.00 20.00     0.012 C 
HETATM    2  C2  UNL     1     -32.250   8.364   4.129  1.00 20.00    -0.117 C 
HETATM    3  C5  UNL     1     -32.253   7.339   3.074  1.00 20.00     0.097 C 
ENDROOT
BRANCH   3   4
HETATM    4  C7  UNL     1     -32.995   6.047   3.465  1.00 20.00    -0.006 C 
HETATM    5  C3  UNL     1     -33.015   5.043   2.304  1.00 20.00     0.011 C 
BRANCH   4   6
HETATM    6  C6  UNL     1     -34.434   6.270   3.985  1.00 20.00     0.025 C 
BRANCH   6   7
HETATM    7  C8  UNL     1     -34.760   5.648   5.352  1.00 20.00     0.078 C 
HETATM    8  C4  UNL     1     -34.450   6.625   6.482  1.00 20.00     0.026 C 
HETATM    9 CL9  UNL     1     -33.827   4.146   5.617  1.00 20.00    -0.125 Cl
ENDBRANCH   6   7
ENDBRANCH   4   6
ENDBRANCH   3   4
TORSDOF 3
ENDMDL
MODEL 6
REMARK VINA RESULT:      -4.0      1.902      2.664
REMARK  3 active torsions:
REMARK  status: ('A' for Active; 'I' for Inactive)
REMARK    1  A    between atoms: C5_5  and  C7_7 
REMARK    2  A    between atoms: C6_6  and  C7_7 
REMARK    3  A    between atoms: C6_6  and  C8_8 
ROOT
HETATM    1  C1  UNL     1     -32.673   9.100   0.574  1.00 20.00     0.012 C 
HETATM    2  C2  UNL     1     -32.650   9.136   1.774  1.00 20.00    -0.117 C 
HETATM    3  C5  UNL     1     -32.621   9.189   3.243  1.00 20.00     0.097 C 
ENDROOT
BRANCH   3   4
HETATM    4  C7  UNL     1     -32.547   7.803   3.913  1.00 20.00    -0.006 C 
HETATM    5  C3  UNL     1     -32.439   6.685   2.866  1.00 20.00     0.011 C 
BRANCH   4   6
HETATM    6  C6  UNL     1     -33.714   7.500   4.881  1.00 20.00     0.025 C 
BRANCH   6   7
HETATM    7  C8  UNL     1     -34.217   6.048   4.894  1.00 20.00     0.078 C 
HETATM    8  C4  UNL     1     -35.631   5.956   4.330  1.00 20.00     0.026 C 
HETATM    9 CL9  UNL     1     -34.215   5.380   6.553  1.00 20.00    -0.125 Cl
ENDBRANCH   6   7
ENDBRANCH   4   6
ENDBRANCH   3   4
TORSDOF 3
ENDMDL
MODEL 7
REMARK VINA RESULT:      -4.0      1.836      4.043
REMARK  3 active torsions:
REMARK  status: ('A' for Active; 'I' for Inactive)
REMARK    1  A    between atoms: C5_5  and  C7_7 
REMARK    2  A    between atoms: C6_6  and  C7_7 
REMARK    3  A    between atoms: C6_6  and  C8_8 
ROOT
HETATM    1  C1  UNL     1     -34.475   6.529   6.646  1.00 20.00     0.012 C 
HETATM    2  C2  UNL     1     -34.435   5.893   5.629  1.00 20.00    -0.117 C 
HETATM    3  C5  UNL     1     -34.390   5.106   4.387  1.00 20.00     0.097 C 
ENDROOT
BRANCH   3   4
HETATM    4  C7  UNL     1     -33.598   5.784   3.252  1.00 20.00    -0.006 C 
HETATM    5  C3  UNL     1     -32.926   4.744   2.345  1.00 20.00     0.011 C 
BRANCH   4   6
HETATM    6  C6  UNL     1     -32.548   6.812   3.733  1.00 20.00     0.025 C 
BRANCH   6   7
HETATM    7  C8  UNL     1     -32.985   8.285   3.703  1.00 20.00     0.078 C 
HETATM    8  C4  UNL     1     -32.596   8.941   2.382  1.00 20.00     0.026 C 
HETATM    9 CL9  UNL     1     -32.243   9.206   5.043  1.00 20.00    -0.125 Cl
ENDBRANCH   6   7
ENDBRANCH   4   6
ENDBRANCH   3   4
TORSDOF 3
ENDMDL
MODEL 8
REMARK VINA RESULT:      -3.9      1.237      1.628
REMARK  3 active torsions:
REMARK  status: ('A' for Active; 'I' for Inactive)
REMARK    1  A    between atoms: C5_5  and  C7_7 
REMARK    2  A    between atoms: C6_6  and  C7_7 
REMARK    3  A    between atoms: C6_6  and  C8_8 
ROOT
HETATM    1  C1  UNL     1     -32.185   7.173   2.127  1.00 20.00     0.012 C 
HETATM    2  C2  UNL     1     -32.263   7.581   3.253  1.00 20.00    -0.117 C 
HETATM    3  C5  UNL     1     -32.351   8.081   4.633  1.00 20.00     0.097 C 
ENDROOT
BRANCH   3   4
HETATM    4  C7  UNL     1     -33.720   7.836   5.296  1.00 20.00    -0.006 C 
HETATM    5  C3  UNL     1     -34.080   8.970   6.266  1.00 20.00     0.011 C 
BRANCH   4   6
HETATM    6  C6  UNL     1     -33.844   6.474   6.018  1.00 20.00     0.025 C 
BRANCH   6   7
HETATM    7  C8  UNL     1     -34.738   5.428   5.334  1.00 20.00     0.078 C 
HETATM    8  C4  UNL     1     -33.899   4.420   4.556  1.00 20.00     0.026 C 
HETATM    9 CL9  UNL     1     -35.895   6.203   4.212  1.00 20.00    -0.125 Cl
ENDBRANCH   6   7
ENDBRANCH   4   6
ENDBRANCH   3   4
TORSDOF 3
ENDMDL
MODEL 9
REMARK VINA RESULT:      -3.8     12.191     12.833
REMARK  3 active torsions:
REMARK  status: ('A' for Active; 'I' for Inactive)
REMARK    1  A    between atoms: C5_5  and  C7_7 
REMARK    2  A    between atoms: C6_6  and  C7_7 
REMARK    3  A    between atoms: C6_6  and  C8_8 
ROOT
HETATM    1  C1  UNL     1     -33.173  15.845  -3.717  1.00 20.00     0.012 C 
HETATM    2  C2  UNL     1     -33.407  16.464  -2.716  1.00 20.00    -0.117 C 
HETATM    3  C5  UNL     1     -33.700  17.218  -1.487  1.00 20.00     0.097 C 
ENDROOT
BRANCH   3   4
HETATM    4  C7  UNL     1     -32.921  18.543  -1.372  1.00 20.00    -0.006 C 
HETATM    5  C3  UNL     1     -32.728  19.196  -2.747  1.00 20.00     0.011 C 
BRANCH   4   6
HETATM    6  C6  UNL     1     -31.555  18.420  -0.657  1.00 20.00     0.025 C 
BRANCH   6   7
HETATM    7  C8  UNL     1     -31.473  19.036   0.748  1.00 20.00     0.078 C 
HETATM    8  C4  UNL     1     -30.652  18.152   1.682  1.00 20.00     0.026 C 
HETATM    9 CL9  UNL     1     -33.101  19.260   1.451  1.00 20.00    -0.125 Cl
ENDBRANCH   6   7
ENDBRANCH   4   6
ENDBRANCH   3   4
TORSDOF 3
ENDMDL
