MODEL 1
REMARK VINA RESULT:      -4.1      0.000      0.000
REMARK  5 active torsions:
REMARK  status: ('A' for Active; 'I' for Inactive)
REMARK    1  A    between atoms: C6_6  and  C7_7 
REMARK    2  A    between atoms: C7_7  and  C10_10 
REMARK    3  A    between atoms: C8_8  and  C9_9 
REMARK    4  A    between atoms: C8_8  and  C10_10 
REMARK    5  A    between atoms: C9_9  and  O11_11 
ROOT
HETATM    1  C1  UNL     1     -31.429  19.014   0.108  1.00 20.00     0.012 C 
HETATM    2  C2  UNL     1     -32.424  18.413  -0.194  1.00 20.00    -0.117 C 
HETATM    3  C6  UNL     1     -33.642  17.673  -0.563  1.00 20.00     0.093 C 
ENDROOT
BRANCH   3   4
HETATM    4  C7  UNL     1     -34.352  18.346  -1.744  1.00 20.00     0.021 C 
BRANCH   4   5
HETATM    5  C10 UNL     1     -34.013  17.781  -3.153  1.00 20.00    -0.045 C 
HETATM    6  C4  UNL     1     -32.918  18.638  -3.827  1.00 20.00     0.015 C 
HETATM    7  C5  UNL     1     -35.258  17.805  -4.058  1.00 20.00     0.015 C 
BRANCH   5   8
HETATM    8  C8  UNL     1     -33.436  16.333  -3.021  1.00 20.00     0.040 C 
BRANCH   8   9
HETATM    9  C9  UNL     1     -33.409  15.460  -4.287  1.00 20.00     0.114 C 
HETATM   10  C3  UNL     1     -34.381  14.292  -4.156  1.00 20.00     0.039 C 
BRANCH   9  11
HETATM   11  O11 UNL     1     -32.103  14.927  -4.479  1.00 20.00    -0.396 OA
HETATM   12  H29 UNL     1     -31.597  15.597  -4.964  1.00 20.00     0.210 HD
ENDBRANCH   9  11
ENDBRANCH   8   9
ENDBRANCH   5   8
ENDBRANCH   4   5
ENDBRANCH   3   4
TORSDOF 5
ENDMDL
MODEL 2
REMARK VINA RESULT:      -4.0     11.446     13.000
REMARK  5 active torsions:
REMARK  status: ('A' for Active; 'I' for Inactive)
REMARK    1  A    between atoms: C6_6  and  C7_7 
REMARK    2  A    between atoms: C7_7  and  C10_10 
REMARK    3  A    between atoms: C8_8  and  C9_9 
REMARK    4  A    between atoms: C8_8  and  C10_10 
REMARK    5  A    between atoms: C9_9  and  O11_11 
ROOT
HETATM    1  C1  UNL     1     -38.891  11.663   3.453  1.00 20.00     0.012 C 
HETATM    2  C2  UNL     1     -39.317  11.693   4.575  1.00 20.00    -0.117 C 
HETATM    3  C6  UNL     1     -39.840  11.726   5.951  1.00 20.00     0.093 C 
ENDROOT
BRANCH   3   4
HETATM    4  C7  UNL     1     -40.056  13.171   6.417  1.00 20.00     0.021 C 
BRANCH   4   5
HETATM    5  C10 UNL     1     -41.532  13.660   6.454  1.00 20.00    -0.045 C 
HETATM    6  C4  UNL     1     -42.471  12.508   6.876  1.00 20.00     0.015 C 
HETATM    7  C5  UNL     1     -41.975  14.147   5.062  1.00 20.00     0.015 C 
BRANCH   5   8
HETATM    8  C8  UNL     1     -41.693  14.789   7.525  1.00 20.00     0.040 C 
BRANCH   8   9
HETATM    9  C9  UNL     1     -40.417  15.500   8.007  1.00 20.00     0.114 C 
HETATM   10  C3  UNL     1     -40.170  15.219   9.486  1.00 20.00     0.039 C 
BRANCH   9  11
HETATM   11  O11 UNL     1     -40.556  16.907   7.843  1.00 20.00    -0.396 OA
HETATM   12  H29 UNL     1     -40.909  17.050   6.952  1.00 20.00     0.210 HD
ENDBRANCH   9  11
ENDBRANCH   8   9
ENDBRANCH   5   8
ENDBRANCH   4   5
ENDBRANCH   3   4
TORSDOF 5
ENDMDL
MODEL 3
REMARK VINA RESULT:      -3.9     11.629     13.147
REMARK  5 active torsions:
REMARK  status: ('A' for Active; 'I' for Inactive)
REMARK    1  A    between atoms: C6_6  and  C7_7 
REMARK    2  A    between atoms: C7_7  and  C10_10 
REMARK    3  A    between atoms: C8_8  and  C9_9 
REMARK    4  A    between atoms: C8_8  and  C10_10 
REMARK    5  A    between atoms: C9_9  and  O11_11 
ROOT
HETATM    1  C1  UNL     1     -38.875  11.612   3.664  1.00 20.00     0.012 C 
HETATM    2  C2  UNL     1     -39.234  11.861   4.782  1.00 20.00    -0.117 C 
HETATM    3  C6  UNL     1     -39.671  12.166   6.155  1.00 20.00     0.093 C 
ENDROOT
BRANCH   3   4
HETATM    4  C7  UNL     1     -41.199  12.265   6.231  1.00 20.00     0.021 C 
BRANCH   4   5
HETATM    5  C10 UNL     1     -41.787  13.704   6.260  1.00 20.00    -0.045 C 
HETATM    6  C4  UNL     1     -43.137  13.720   7.013  1.00 20.00     0.015 C 
HETATM    7  C5  UNL     1     -42.036  14.216   4.829  1.00 20.00     0.015 C 
BRANCH   5   8
HETATM    8  C8  UNL     1     -40.823  14.657   7.042  1.00 20.00     0.040 C 
BRANCH   8   9
HETATM    9  C9  UNL     1     -41.049  14.813   8.555  1.00 20.00     0.114 C 
HETATM   10  C3  UNL     1     -40.609  16.195   9.026  1.00 20.00     0.039 C 
BRANCH   9  11
HETATM   11  O11 UNL     1     -40.283  13.843   9.261  1.00 20.00    -0.396 OA
HETATM   12  H29 UNL     1     -40.891  13.401   9.875  1.00 20.00     0.210 HD
ENDBRANCH   9  11
ENDBRANCH   8   9
ENDBRANCH   5   8
ENDBRANCH   4   5
ENDBRANCH   3   4
TORSDOF 5
ENDMDL
MODEL 4
REMARK VINA RESULT:      -3.9      2.066      2.845
REMARK  5 active torsions:
REMARK  status: ('A' for Active; 'I' for Inactive)
REMARK    1  A    between atoms: C6_6  and  C7_7 
REMARK    2  A    between atoms: C7_7  and  C10_10 
REMARK    3  A    between atoms: C8_8  and  C9_9 
REMARK    4  A    between atoms: C8_8  and  C10_10 
REMARK    5  A    between atoms: C9_9  and  O11_11 
ROOT
HETATM    1  C1  UNL     1     -33.680  17.591  -0.733  1.00 20.00     0.012 C 
HETATM    2  C2  UNL     1     -33.558  17.126  -1.833  1.00 20.00    -0.117 C 
HETATM    3  C6  UNL     1     -33.406  16.553  -3.181  1.00 20.00     0.093 C 
ENDROOT
BRANCH   3   4
HETATM    4  C7  UNL     1     -33.767  17.585  -4.256  1.00 20.00     0.021 C 
BRANCH   4   5
HETATM    5  C10 UNL     1     -34.777  17.114  -5.340  1.00 20.00    -0.045 C 
HETATM    6  C4  UNL     1     -34.510  17.840  -6.678  1.00 20.00     0.015 C 
HETATM    7  C5  UNL     1     -36.221  17.431  -4.909  1.00 20.00     0.015 C 
BRANCH   5   8
HETATM    8  C8  UNL     1     -34.591  15.584  -5.612  1.00 20.00     0.040 C 
BRANCH   8   9
HETATM    9  C9  UNL     1     -35.856  14.713  -5.678  1.00 20.00     0.114 C 
HETATM   10  C3  UNL     1     -35.828  13.639  -4.596  1.00 20.00     0.039 C 
BRANCH   9  11
HETATM   11  O11 UNL     1     -35.932  14.063  -6.943  1.00 20.00    -0.396 OA
HETATM   12  H29 UNL     1     -36.143  13.133  -6.765  1.00 20.00     0.210 HD
ENDBRANCH   9  11
ENDBRANCH   8   9
ENDBRANCH   5   8
ENDBRANCH   4   5
ENDBRANCH   3   4
TORSDOF 5
ENDMDL
MODEL 5
REMARK VINA RESULT:      -3.9     11.629     12.694
REMARK  5 active torsions:
REMARK  status: ('A' for Active; 'I' for Inactive)
REMARK    1  A    between atoms: C6_6  and  C7_7 
REMARK    2  A    between atoms: C7_7  and  C10_10 
REMARK    3  A    between atoms: C8_8  and  C9_9 
REMARK    4  A    between atoms: C8_8  and  C10_10 
REMARK    5  A    between atoms: C9_9  and  O11_11 
ROOT
HETATM    1  C1  UNL     1     -40.041  15.067  10.831  1.00 20.00     0.012 C 
HETATM    2  C2  UNL     1     -40.696  14.809   9.858  1.00 20.00    -0.117 C 
HETATM    3  C6  UNL     1     -41.501  14.493   8.667  1.00 20.00     0.093 C 
ENDROOT
BRANCH   3   4
HETATM    4  C7  UNL     1     -40.616  13.952   7.538  1.00 20.00     0.021 C 
BRANCH   4   5
HETATM    5  C10 UNL     1     -41.327  13.055   6.486  1.00 20.00    -0.045 C 
HETATM    6  C4  UNL     1     -41.729  13.890   5.250  1.00 20.00     0.015 C 
HETATM    7  C5  UNL     1     -42.607  12.438   7.079  1.00 20.00     0.015 C 
BRANCH   5   8
HETATM    8  C8  UNL     1     -40.346  11.946   5.982  1.00 20.00     0.040 C 
BRANCH   8   9
HETATM    9  C9  UNL     1     -39.084  12.400   5.229  1.00 20.00     0.114 C 
HETATM   10  C3  UNL     1     -38.919  11.617   3.931  1.00 20.00     0.039 C 
BRANCH   9  11
HETATM   11  O11 UNL     1     -37.931  12.168   6.032  1.00 20.00    -0.396 OA
HETATM   12  H29 UNL     1     -38.233  11.694   6.822  1.00 20.00     0.210 HD
ENDBRANCH   9  11
ENDBRANCH   8   9
ENDBRANCH   5   8
ENDBRANCH   4   5
ENDBRANCH   3   4
TORSDOF 5
ENDMDL
MODEL 6
REMARK VINA RESULT:      -3.8      1.467      1.706
REMARK  5 active torsions:
REMARK  status: ('A' for Active; 'I' for Inactive)
REMARK    1  A    between atoms: C6_6  and  C7_7 
REMARK    2  A    between atoms: C7_7  and  C10_10 
REMARK    3  A    between atoms: C8_8  and  C9_9 
REMARK    4  A    between atoms: C8_8  and  C10_10 
REMARK    5  A    between atoms: C9_9  and  O11_11 
ROOT
HETATM    1  C1  UNL     1     -31.434  18.698  -0.464  1.00 20.00     0.012 C 
HETATM    2  C2  UNL     1     -32.404  18.082  -0.813  1.00 20.00    -0.117 C 
HETATM    3  C6  UNL     1     -33.593  17.325  -1.239  1.00 20.00     0.093 C 
ENDROOT
BRANCH   3   4
HETATM    4  C7  UNL     1     -33.492  16.937  -2.718  1.00 20.00     0.021 C 
BRANCH   4   5
HETATM    5  C10 UNL     1     -34.284  17.832  -3.713  1.00 20.00    -0.045 C 
HETATM    6  C4  UNL     1     -33.358  18.904  -4.328  1.00 20.00     0.015 C 
HETATM    7  C5  UNL     1     -35.434  18.557  -2.989  1.00 20.00     0.015 C 
BRANCH   5   8
HETATM    8  C8  UNL     1     -34.821  16.964  -4.899  1.00 20.00     0.040 C 
BRANCH   8   9
HETATM    9  C9  UNL     1     -34.371  15.495  -4.967  1.00 20.00     0.114 C 
HETATM   10  C3  UNL     1     -34.006  15.108  -6.396  1.00 20.00     0.039 C 
BRANCH   9  11
HETATM   11  O11 UNL     1     -35.429  14.644  -4.537  1.00 20.00    -0.396 OA
HETATM   12  H29 UNL     1     -36.006  14.508  -5.305  1.00 20.00     0.210 HD
ENDBRANCH   9  11
ENDBRANCH   8   9
ENDBRANCH   5   8
ENDBRANCH   4   5
ENDBRANCH   3   4
TORSDOF 5
ENDMDL
MODEL 7
REMARK VINA RESULT:      -3.8     11.093     12.328
REMARK  5 active torsions:
REMARK  status: ('A' for Active; 'I' for Inactive)
REMARK    1  A    between atoms: C6_6  and  C7_7 
REMARK    2  A    between atoms: C7_7  and  C10_10 
REMARK    3  A    between atoms: C8_8  and  C9_9 
REMARK    4  A    between atoms: C8_8  and  C10_10 
REMARK    5  A    between atoms: C9_9  and  O11_11 
ROOT
HETATM    1  C1  UNL     1     -42.347  17.387   5.954  1.00 20.00     0.012 C 
HETATM    2  C2  UNL     1     -42.621  16.246   5.701  1.00 20.00    -0.117 C 
HETATM    3  C6  UNL     1     -42.960  14.847   5.393  1.00 20.00     0.093 C 
ENDROOT
BRANCH   3   4
HETATM    4  C7  UNL     1     -41.691  14.002   5.228  1.00 20.00     0.021 C 
BRANCH   4   5
HETATM    5  C10 UNL     1     -41.316  13.096   6.435  1.00 20.00    -0.045 C 
HETATM    6  C4  UNL     1     -42.575  12.399   6.997  1.00 20.00     0.015 C 
HETATM    7  C5  UNL     1     -40.692  13.934   7.567  1.00 20.00     0.015 C 
BRANCH   5   8
HETATM    8  C8  UNL     1     -40.343  11.963   5.968  1.00 20.00     0.040 C 
BRANCH   8   9
HETATM    9  C9  UNL     1     -39.071  12.382   5.213  1.00 20.00     0.114 C 
HETATM   10  C3  UNL     1     -38.929  11.593   3.916  1.00 20.00     0.039 C 
BRANCH   9  11
HETATM   11  O11 UNL     1     -37.924  12.121   6.015  1.00 20.00    -0.396 OA
HETATM   12  H29 UNL     1     -37.300  12.845   5.852  1.00 20.00     0.210 HD
ENDBRANCH   9  11
ENDBRANCH   8   9
ENDBRANCH   5   8
ENDBRANCH   4   5
ENDBRANCH   3   4
TORSDOF 5
ENDMDL
MODEL 8
REMARK VINA RESULT:      -3.7     12.287     13.912
REMARK  5 active torsions:
REMARK  status: ('A' for Active; 'I' for Inactive)
REMARK    1  A    between atoms: C6_6  and  C7_7 
REMARK    2  A    between atoms: C7_7  and  C10_10 
REMARK    3  A    between atoms: C8_8  and  C9_9 
REMARK    4  A    between atoms: C8_8  and  C10_10 
REMARK    5  A    between atoms: C9_9  and  O11_11 
ROOT
HETATM    1  C1  UNL     1     -38.925  11.539   3.858  1.00 20.00     0.012 C 
HETATM    2  C2  UNL     1     -39.585  11.839   4.815  1.00 20.00    -0.117 C 
HETATM    3  C6  UNL     1     -40.398  12.204   5.987  1.00 20.00     0.093 C 
ENDROOT
BRANCH   3   4
HETATM    4  C7  UNL     1     -40.130  13.655   6.405  1.00 20.00     0.021 C 
BRANCH   4   5
HETATM    5  C10 UNL     1     -41.107  14.251   7.458  1.00 20.00    -0.045 C 
HETATM    6  C4  UNL     1     -42.285  13.283   7.707  1.00 20.00     0.015 C 
HETATM    7  C5  UNL     1     -41.688  15.587   6.961  1.00 20.00     0.015 C 
BRANCH   5   8
HETATM    8  C8  UNL     1     -40.370  14.428   8.827  1.00 20.00     0.040 C 
BRANCH   8   9
HETATM    9  C9  UNL     1     -41.228  14.418  10.103  1.00 20.00     0.114 C 
HETATM   10  C3  UNL     1     -41.045  15.714  10.885  1.00 20.00     0.039 C 
BRANCH   9  11
HETATM   11  O11 UNL     1     -40.833  13.337  10.943  1.00 20.00    -0.396 OA
HETATM   12  H29 UNL     1     -41.582  13.156  11.532  1.00 20.00     0.210 HD
ENDBRANCH   9  11
ENDBRANCH   8   9
ENDBRANCH   5   8
ENDBRANCH   4   5
ENDBRANCH   3   4
TORSDOF 5
ENDMDL
MODEL 9
REMARK VINA RESULT:      -3.7      2.357      4.079
REMARK  5 active torsions:
REMARK  status: ('A' for Active; 'I' for Inactive)
REMARK    1  A    between atoms: C6_6  and  C7_7 
REMARK    2  A    between atoms: C7_7  and  C10_10 
REMARK    3  A    between atoms: C8_8  and  C9_9 
REMARK    4  A    between atoms: C8_8  and  C10_10 
REMARK    5  A    between atoms: C9_9  and  O11_11 
ROOT
HETATM    1  C1  UNL     1     -33.658  17.287  -1.436  1.00 20.00     0.012 C 
HETATM    2  C2  UNL     1     -33.352  16.660  -2.413  1.00 20.00    -0.117 C 
HETATM    3  C6  UNL     1     -32.975  15.894  -3.612  1.00 20.00     0.093 C 
ENDROOT
BRANCH   3   4
HETATM    4  C7  UNL     1     -34.089  14.918  -4.009  1.00 20.00     0.021 C 
BRANCH   4   5
HETATM    5  C10 UNL     1     -34.880  15.277  -5.299  1.00 20.00    -0.045 C 
HETATM    6  C4  UNL     1     -36.074  14.314  -5.483  1.00 20.00     0.015 C 
HETATM    7  C5  UNL     1     -33.976  15.153  -6.539  1.00 20.00     0.015 C 
BRANCH   5   8
HETATM    8  C8  UNL     1     -35.477  16.718  -5.174  1.00 20.00     0.040 C 
BRANCH   8   9
HETATM    9  C9  UNL     1     -34.955  17.791  -6.144  1.00 20.00     0.114 C 
HETATM   10  C3  UNL     1     -34.257  18.912  -5.381  1.00 20.00     0.039 C 
BRANCH   9  11
HETATM   11  O11 UNL     1     -36.041  18.360  -6.867  1.00 20.00    -0.396 OA
HETATM   12  H29 UNL     1     -36.410  19.061  -6.309  1.00 20.00     0.210 HD
ENDBRANCH   9  11
ENDBRANCH   8   9
ENDBRANCH   5   8
ENDBRANCH   4   5
ENDBRANCH   3   4
TORSDOF 5
ENDMDL
