MODEL 1
REMARK VINA RESULT:      -4.8      0.000      0.000
REMARK  4 active torsions:
REMARK  status: ('A' for Active; 'I' for Inactive)
REMARK    1  A    between atoms: C2_2  and  C7_7 
REMARK    2  A    between atoms: C3_3  and  C8_8 
REMARK    3  A    between atoms: C7_7  and  C9_9 
REMARK    4  A    between atoms: C8_8  and  C9_9 
ROOT
HETATM    1  C1  UNL     1     -32.680   8.892   2.121  1.00 20.00    -0.111 C 
HETATM    2  C2  UNL     1     -32.654   8.508   3.259  1.00 20.00    -0.107 C 
HETATM    3  C4  UNL     1     -32.711   9.361   0.736  1.00 20.00     0.112 C 
ENDROOT
BRANCH   2   4
HETATM    4  C7  UNL     1     -32.620   8.036   4.651  1.00 20.00     0.098 C 
BRANCH   4   5
HETATM    5  C9  UNL     1     -33.969   7.483   5.153  1.00 20.00    -0.001 C 
HETATM    6  C6  UNL     1     -33.811   6.750   6.492  1.00 20.00     0.011 C 
BRANCH   5   7
HETATM    7  C8  UNL     1     -34.647   6.588   4.099  1.00 20.00     0.083 C 
BRANCH   7   8
HETATM    8  C3  UNL     1     -34.002   5.218   3.949  1.00 20.00     0.123 C 
HETATM    9  C5  UNL     1     -33.036   5.063   2.803  1.00 20.00     0.091 C 
HETATM   10  O10 UNL     1     -34.262   4.270   4.689  1.00 20.00    -0.298 OA
ENDBRANCH   7   8
ENDBRANCH   5   7
ENDBRANCH   4   5
ENDBRANCH   2   4
TORSDOF 4
ENDMDL
MODEL 2
REMARK VINA RESULT:      -4.4      1.300      1.881
REMARK  4 active torsions:
REMARK  status: ('A' for Active; 'I' for Inactive)
REMARK    1  A    between atoms: C2_2  and  C7_7 
REMARK    2  A    between atoms: C3_3  and  C8_8 
REMARK    3  A    between atoms: C7_7  and  C9_9 
REMARK    4  A    between atoms: C8_8  and  C9_9 
ROOT
HETATM    1  C1  UNL     1     -32.417   8.352   1.350  1.00 20.00    -0.111 C 
HETATM    2  C2  UNL     1     -32.469   7.802   2.417  1.00 20.00    -0.107 C 
HETATM    3  C4  UNL     1     -32.355   9.020   0.051  1.00 20.00     0.112 C 
ENDROOT
BRANCH   2   4
HETATM    4  C7  UNL     1     -32.531   7.132   3.724  1.00 20.00     0.098 C 
BRANCH   4   5
HETATM    5  C9  UNL     1     -33.293   7.934   4.798  1.00 20.00    -0.001 C 
HETATM    6  C6  UNL     1     -32.512   9.184   5.223  1.00 20.00     0.011 C 
BRANCH   5   7
HETATM    7  C8  UNL     1     -33.659   7.060   6.011  1.00 20.00     0.083 C 
BRANCH   7   8
HETATM    8  C3  UNL     1     -34.460   5.816   5.654  1.00 20.00     0.123 C 
HETATM    9  C5  UNL     1     -35.471   5.976   4.549  1.00 20.00     0.091 C 
HETATM   10  O10 UNL     1     -34.328   4.744   6.241  1.00 20.00    -0.298 OA
ENDBRANCH   7   8
ENDBRANCH   5   7
ENDBRANCH   4   5
ENDBRANCH   2   4
TORSDOF 4
ENDMDL
MODEL 3
REMARK VINA RESULT:      -4.2      1.547      2.478
REMARK  4 active torsions:
REMARK  status: ('A' for Active; 'I' for Inactive)
REMARK    1  A    between atoms: C2_2  and  C7_7 
REMARK    2  A    between atoms: C3_3  and  C8_8 
REMARK    3  A    between atoms: C7_7  and  C9_9 
REMARK    4  A    between atoms: C8_8  and  C9_9 
ROOT
HETATM    1  C1  UNL     1     -32.541   8.784   1.249  1.00 20.00    -0.111 C 
HETATM    2  C2  UNL     1     -32.362   8.273   2.322  1.00 20.00    -0.107 C 
HETATM    3  C4  UNL     1     -32.762   9.404  -0.057  1.00 20.00     0.112 C 
ENDROOT
BRANCH   2   4
HETATM    4  C7  UNL     1     -32.140   7.651   3.635  1.00 20.00     0.098 C 
BRANCH   4   5
HETATM    5  C9  UNL     1     -32.910   6.331   3.837  1.00 20.00    -0.001 C 
HETATM    6  C6  UNL     1     -32.986   5.522   2.535  1.00 20.00     0.011 C 
BRANCH   5   7
HETATM    7  C8  UNL     1     -34.310   6.572   4.430  1.00 20.00     0.083 C 
BRANCH   7   8
HETATM    8  C3  UNL     1     -34.368   6.437   5.944  1.00 20.00     0.123 C 
HETATM    9  C5  UNL     1     -34.571   5.043   6.477  1.00 20.00     0.091 C 
HETATM   10  O10 UNL     1     -34.288   7.399   6.706  1.00 20.00    -0.298 OA
ENDBRANCH   7   8
ENDBRANCH   5   7
ENDBRANCH   4   5
ENDBRANCH   2   4
TORSDOF 4
ENDMDL
MODEL 4
REMARK VINA RESULT:      -4.2     11.779     12.316
REMARK  4 active torsions:
REMARK  status: ('A' for Active; 'I' for Inactive)
REMARK    1  A    between atoms: C2_2  and  C7_7 
REMARK    2  A    between atoms: C3_3  and  C8_8 
REMARK    3  A    between atoms: C7_7  and  C9_9 
REMARK    4  A    between atoms: C8_8  and  C9_9 
ROOT
HETATM    1  C1  UNL     1     -30.650  18.586   1.595  1.00 20.00    -0.111 C 
HETATM    2  C2  UNL     1     -31.092  18.505   0.481  1.00 20.00    -0.107 C 
HETATM    3  C4  UNL     1     -30.110  18.686   2.951  1.00 20.00     0.112 C 
ENDROOT
BRANCH   2   4
HETATM    4  C7  UNL     1     -31.636  18.405  -0.881  1.00 20.00     0.098 C 
BRANCH   4   5
HETATM    5  C9  UNL     1     -33.166  18.222  -0.927  1.00 20.00    -0.001 C 
HETATM    6  C6  UNL     1     -33.781  18.292   0.477  1.00 20.00     0.011 C 
BRANCH   5   7
HETATM    7  C8  UNL     1     -33.564  16.922  -1.650  1.00 20.00     0.083 C 
BRANCH   7   8
HETATM    8  C3  UNL     1     -33.371  16.973  -3.158  1.00 20.00     0.123 C 
HETATM    9  C5  UNL     1     -33.167  15.647  -3.844  1.00 20.00     0.091 C 
HETATM   10  O10 UNL     1     -33.348  18.024  -3.795  1.00 20.00    -0.298 OA
ENDBRANCH   7   8
ENDBRANCH   5   7
ENDBRANCH   4   5
ENDBRANCH   2   4
TORSDOF 4
ENDMDL
MODEL 5
REMARK VINA RESULT:      -4.2     11.452     12.765
REMARK  4 active torsions:
REMARK  status: ('A' for Active; 'I' for Inactive)
REMARK    1  A    between atoms: C2_2  and  C7_7 
REMARK    2  A    between atoms: C3_3  and  C8_8 
REMARK    3  A    between atoms: C7_7  and  C9_9 
REMARK    4  A    between atoms: C8_8  and  C9_9 
ROOT
HETATM    1  C1  UNL     1     -33.524  16.941  -1.924  1.00 20.00    -0.111 C 
HETATM    2  C2  UNL     1     -33.399  16.260  -2.906  1.00 20.00    -0.107 C 
HETATM    3  C4  UNL     1     -33.673  17.769  -0.728  1.00 20.00     0.112 C 
ENDROOT
BRANCH   2   4
HETATM    4  C7  UNL     1     -33.249  15.429  -4.109  1.00 20.00     0.098 C 
BRANCH   4   5
HETATM    5  C9  UNL     1     -34.577  15.152  -4.843  1.00 20.00    -0.001 C 
HETATM    6  C6  UNL     1     -35.216  13.840  -4.367  1.00 20.00     0.011 C 
BRANCH   5   7
HETATM    7  C8  UNL     1     -34.399  15.168  -6.372  1.00 20.00     0.083 C 
BRANCH   7   8
HETATM    8  C3  UNL     1     -35.704  15.299  -7.142  1.00 20.00     0.123 C 
HETATM    9  C5  UNL     1     -36.505  16.547  -6.880  1.00 20.00     0.091 C 
HETATM   10  O10 UNL     1     -36.116  14.434  -7.914  1.00 20.00    -0.298 OA
ENDBRANCH   7   8
ENDBRANCH   5   7
ENDBRANCH   4   5
ENDBRANCH   2   4
TORSDOF 4
ENDMDL
MODEL 6
REMARK VINA RESULT:      -4.1     11.808     12.821
REMARK  4 active torsions:
REMARK  status: ('A' for Active; 'I' for Inactive)
REMARK    1  A    between atoms: C2_2  and  C7_7 
REMARK    2  A    between atoms: C3_3  and  C8_8 
REMARK    3  A    between atoms: C7_7  and  C9_9 
REMARK    4  A    between atoms: C8_8  and  C9_9 
ROOT
HETATM    1  C1  UNL     1     -33.576  17.304  -1.348  1.00 20.00    -0.111 C 
HETATM    2  C2  UNL     1     -33.467  16.656  -2.353  1.00 20.00    -0.107 C 
HETATM    3  C4  UNL     1     -33.708  18.091  -0.122  1.00 20.00     0.112 C 
ENDROOT
BRANCH   2   4
HETATM    4  C7  UNL     1     -33.332  15.866  -3.586  1.00 20.00     0.098 C 
BRANCH   4   5
HETATM    5  C9  UNL     1     -34.205  16.376  -4.750  1.00 20.00    -0.001 C 
HETATM    6  C6  UNL     1     -34.869  17.716  -4.407  1.00 20.00     0.011 C 
BRANCH   5   7
HETATM    7  C8  UNL     1     -35.246  15.328  -5.183  1.00 20.00     0.083 C 
BRANCH   7   8
HETATM    8  C3  UNL     1     -35.214  15.007  -6.670  1.00 20.00     0.123 C 
HETATM    9  C5  UNL     1     -34.066  15.594  -7.449  1.00 20.00     0.091 C 
HETATM   10  O10 UNL     1     -36.080  14.336  -7.229  1.00 20.00    -0.298 OA
ENDBRANCH   7   8
ENDBRANCH   5   7
ENDBRANCH   4   5
ENDBRANCH   2   4
TORSDOF 4
ENDMDL
MODEL 7
REMARK VINA RESULT:      -3.8     11.877     13.165
REMARK  4 active torsions:
REMARK  status: ('A' for Active; 'I' for Inactive)
REMARK    1  A    between atoms: C2_2  and  C7_7 
REMARK    2  A    between atoms: C3_3  and  C8_8 
REMARK    3  A    between atoms: C7_7  and  C9_9 
REMARK    4  A    between atoms: C8_8  and  C9_9 
ROOT
HETATM    1  C1  UNL     1     -33.530  17.021  -1.822  1.00 20.00    -0.111 C 
HETATM    2  C2  UNL     1     -33.435  16.318  -2.791  1.00 20.00    -0.107 C 
HETATM    3  C4  UNL     1     -33.647  17.878  -0.643  1.00 20.00     0.112 C 
ENDROOT
BRANCH   2   4
HETATM    4  C7  UNL     1     -33.317  15.454  -3.975  1.00 20.00     0.098 C 
BRANCH   4   5
HETATM    5  C9  UNL     1     -34.401  15.710  -5.041  1.00 20.00    -0.001 C 
HETATM    6  C6  UNL     1     -34.006  15.110  -6.397  1.00 20.00     0.011 C 
BRANCH   5   7
HETATM    7  C8  UNL     1     -34.737  17.207  -5.166  1.00 20.00     0.083 C 
BRANCH   7   8
HETATM    8  C3  UNL     1     -36.175  17.548  -4.804  1.00 20.00     0.123 C 
HETATM    9  C5  UNL     1     -36.359  18.623  -3.765  1.00 20.00     0.091 C 
HETATM   10  O10 UNL     1     -37.144  16.971  -5.295  1.00 20.00    -0.298 OA
ENDBRANCH   7   8
ENDBRANCH   5   7
ENDBRANCH   4   5
ENDBRANCH   2   4
TORSDOF 4
ENDMDL
MODEL 8
REMARK VINA RESULT:      -3.8      9.642     10.422
REMARK  4 active torsions:
REMARK  status: ('A' for Active; 'I' for Inactive)
REMARK    1  A    between atoms: C2_2  and  C7_7 
REMARK    2  A    between atoms: C3_3  and  C8_8 
REMARK    3  A    between atoms: C7_7  and  C9_9 
REMARK    4  A    between atoms: C8_8  and  C9_9 
ROOT
HETATM    1  C1  UNL     1     -40.677  16.696   7.809  1.00 20.00    -0.111 C 
HETATM    2  C2  UNL     1     -40.564  15.505   7.700  1.00 20.00    -0.107 C 
HETATM    3  C4  UNL     1     -40.818  18.146   7.943  1.00 20.00     0.112 C 
ENDROOT
BRANCH   2   4
HETATM    4  C7  UNL     1     -40.420  14.048   7.567  1.00 20.00     0.098 C 
BRANCH   4   5
HETATM    5  C9  UNL     1     -40.794  13.512   6.171  1.00 20.00    -0.001 C 
HETATM    6  C6  UNL     1     -42.301  13.635   5.908  1.00 20.00     0.011 C 
BRANCH   5   7
HETATM    7  C8  UNL     1     -40.304  12.067   5.964  1.00 20.00     0.083 C 
BRANCH   7   8
HETATM    8  C3  UNL     1     -38.969  11.967   5.241  1.00 20.00     0.123 C 
HETATM    9  C5  UNL     1     -39.037  11.675   3.765  1.00 20.00     0.091 C 
HETATM   10  O10 UNL     1     -37.887  12.084   5.814  1.00 20.00    -0.298 OA
ENDBRANCH   7   8
ENDBRANCH   5   7
ENDBRANCH   4   5
ENDBRANCH   2   4
TORSDOF 4
ENDMDL
MODEL 9
REMARK VINA RESULT:      -3.7     11.659     13.020
REMARK  4 active torsions:
REMARK  status: ('A' for Active; 'I' for Inactive)
REMARK    1  A    between atoms: C2_2  and  C7_7 
REMARK    2  A    between atoms: C3_3  and  C8_8 
REMARK    3  A    between atoms: C7_7  and  C9_9 
REMARK    4  A    between atoms: C8_8  and  C9_9 
ROOT
HETATM    1  C1  UNL     1     -33.280  16.596  -2.651  1.00 20.00    -0.111 C 
HETATM    2  C2  UNL     1     -33.582  15.725  -3.422  1.00 20.00    -0.107 C 
HETATM    3  C4  UNL     1     -32.910  17.656  -1.714  1.00 20.00     0.112 C 
ENDROOT
BRANCH   2   4
HETATM    4  C7  UNL     1     -33.955  14.662  -4.365  1.00 20.00     0.098 C 
BRANCH   4   5
HETATM    5  C9  UNL     1     -34.759  15.163  -5.582  1.00 20.00    -0.001 C 
HETATM    6  C6  UNL     1     -33.884  15.234  -6.840  1.00 20.00     0.011 C 
BRANCH   5   7
HETATM    7  C8  UNL     1     -35.444  16.512  -5.296  1.00 20.00     0.083 C 
BRANCH   7   8
HETATM    8  C3  UNL     1     -36.963  16.443  -5.298  1.00 20.00     0.123 C 
HETATM    9  C5  UNL     1     -37.681  17.659  -4.773  1.00 20.00     0.091 C 
HETATM   10  O10 UNL     1     -37.589  15.453  -5.672  1.00 20.00    -0.298 OA
ENDBRANCH   7   8
ENDBRANCH   5   7
ENDBRANCH   4   5
ENDBRANCH   2   4
TORSDOF 4
ENDMDL
