MODEL 1
REMARK VINA RESULT:      -4.9      0.000      0.000
REMARK  2 active torsions:
REMARK  status: ('A' for Active; 'I' for Inactive)
REMARK    1  A    between atoms: C8_8  and  C11_11 
REMARK    2  A    between atoms: C8_8  and  O12_12 
ROOT
HETATM    1  C1  UNL     1     -32.801   9.296   0.532  1.00 20.00     0.012 C 
HETATM    2  C2  UNL     1     -32.709   9.404   1.725  1.00 20.00    -0.115 C 
HETATM    3  C11 UNL     1     -32.594   9.550   3.177  1.00 20.00     0.131 C 
ENDROOT
BRANCH   3   4
HETATM    4  C8  UNL     1     -32.791   8.204   3.878  1.00 20.00     0.069 C 
HETATM    5  C4  UNL     1     -34.160   8.161   4.579  1.00 20.00     0.043 C 
HETATM    6  C6  UNL     1     -34.540   6.789   5.165  1.00 20.00    -0.015 C 
HETATM    7  C3  UNL     1     -34.344   5.672   4.131  1.00 20.00     0.008 C 
HETATM    8  C9  UNL     1     -33.817   6.482   6.478  1.00 20.00     0.010 C 
HETATM    9  C7  UNL     1     -32.950   5.683   3.488  1.00 20.00    -0.015 C 
HETATM   10  C5  UNL     1     -32.649   7.056   2.867  1.00 20.00     0.043 C 
HETATM   11  C10 UNL     1     -32.842   4.583   2.430  1.00 20.00     0.010 C 
BRANCH   4  12
HETATM   12  O12 UNL     1     -31.747   8.075   4.845  1.00 20.00    -0.389 OA
HETATM   13  H30 UNL     1     -31.823   7.181   5.210  1.00 20.00     0.210 HD
ENDBRANCH   4  12
ENDBRANCH   3   4
TORSDOF 2
ENDMDL
MODEL 2
REMARK VINA RESULT:      -4.8      9.428     10.825
REMARK  2 active torsions:
REMARK  status: ('A' for Active; 'I' for Inactive)
REMARK    1  A    between atoms: C8_8  and  C11_11 
REMARK    2  A    between atoms: C8_8  and  O12_12 
ROOT
HETATM    1  C1  UNL     1     -38.949  11.668   3.702  1.00 20.00     0.012 C 
HETATM    2  C2  UNL     1     -39.220  11.827   4.862  1.00 20.00    -0.115 C 
HETATM    3  C11 UNL     1     -39.538  12.010   6.278  1.00 20.00     0.131 C 
ENDROOT
BRANCH   3   4
HETATM    4  C8  UNL     1     -40.794  12.869   6.448  1.00 20.00     0.069 C 
HETATM    5  C4  UNL     1     -40.545  13.981   7.482  1.00 20.00     0.043 C 
HETATM    6  C6  UNL     1     -41.680  15.015   7.601  1.00 20.00    -0.015 C 
HETATM    7  C3  UNL     1     -42.097  15.541   6.221  1.00 20.00     0.008 C 
HETATM    8  C9  UNL     1     -42.878  14.493   8.397  1.00 20.00     0.010 C 
HETATM    9  C7  UNL     1     -42.409  14.422   5.218  1.00 20.00    -0.015 C 
HETATM   10  C5  UNL     1     -41.220  13.456   5.094  1.00 20.00     0.043 C 
HETATM   11  C10 UNL     1     -42.761  15.013   3.852  1.00 20.00     0.010 C 
BRANCH   4  12
HETATM   12  O12 UNL     1     -41.836  12.007   6.906  1.00 20.00    -0.389 OA
HETATM   13  H30 UNL     1     -41.562  11.685   7.778  1.00 20.00     0.210 HD
ENDBRANCH   4  12
ENDBRANCH   3   4
TORSDOF 2
ENDMDL
MODEL 3
REMARK VINA RESULT:      -4.1     11.315     13.437
REMARK  2 active torsions:
REMARK  status: ('A' for Active; 'I' for Inactive)
REMARK    1  A    between atoms: C8_8  and  C11_11 
REMARK    2  A    between atoms: C8_8  and  O12_12 
ROOT
HETATM    1  C1  UNL     1     -33.297  16.998  -2.189  1.00 20.00     0.012 C 
HETATM    2  C2  UNL     1     -33.312  16.162  -3.052  1.00 20.00    -0.115 C 
HETATM    3  C11 UNL     1     -33.322  15.134  -4.093  1.00 20.00     0.131 C 
ENDROOT
BRANCH   3   4
HETATM    4  C8  UNL     1     -34.048  15.634  -5.345  1.00 20.00     0.069 C 
HETATM    5  C4  UNL     1     -35.479  15.070  -5.394  1.00 20.00     0.043 C 
HETATM    6  C6  UNL     1     -36.360  15.650  -6.516  1.00 20.00    -0.015 C 
HETATM    7  C3  UNL     1     -36.302  17.183  -6.529  1.00 20.00     0.008 C 
HETATM    8  C9  UNL     1     -36.041  15.057  -7.889  1.00 20.00     0.010 C 
HETATM    9  C7  UNL     1     -34.869  17.733  -6.549  1.00 20.00    -0.015 C 
HETATM   10  C5  UNL     1     -34.054  17.169  -5.374  1.00 20.00     0.043 C 
HETATM   11  C10 UNL     1     -34.884  19.262  -6.504  1.00 20.00     0.010 C 
BRANCH   4  12
HETATM   12  O12 UNL     1     -33.307  15.171  -6.475  1.00 20.00    -0.389 OA
HETATM   13  H30 UNL     1     -32.612  15.828  -6.633  1.00 20.00     0.210 HD
ENDBRANCH   4  12
ENDBRANCH   3   4
TORSDOF 2
ENDMDL
MODEL 4
REMARK VINA RESULT:      -4.1     10.204     11.777
REMARK  2 active torsions:
REMARK  status: ('A' for Active; 'I' for Inactive)
REMARK    1  A    between atoms: C8_8  and  C11_11 
REMARK    2  A    between atoms: C8_8  and  O12_12 
ROOT
HETATM    1  C1  UNL     1     -38.956  12.144   5.392  1.00 20.00     0.012 C 
HETATM    2  C2  UNL     1     -40.060  12.253   5.853  1.00 20.00    -0.115 C 
HETATM    3  C11 UNL     1     -41.408  12.373   6.408  1.00 20.00     0.131 C 
ENDROOT
BRANCH   3   4
HETATM    4  C8  UNL     1     -41.580  13.706   7.142  1.00 20.00     0.069 C 
HETATM    5  C4  UNL     1     -40.314  14.037   7.952  1.00 20.00     0.043 C 
HETATM    6  C6  UNL     1     -40.305  15.440   8.586  1.00 20.00    -0.015 C 
HETATM    7  C3  UNL     1     -40.674  16.516   7.556  1.00 20.00     0.008 C 
HETATM    8  C9  UNL     1     -41.175  15.531   9.841  1.00 20.00     0.010 C 
HETATM    9  C7  UNL     1     -41.976  16.208   6.802  1.00 20.00    -0.015 C 
HETATM   10  C5  UNL     1     -41.905  14.823   6.139  1.00 20.00     0.043 C 
HETATM   11  C10 UNL     1     -42.254  17.288   5.755  1.00 20.00     0.010 C 
BRANCH   4  12
HETATM   12  O12 UNL     1     -42.695  13.562   8.024  1.00 20.00    -0.389 OA
HETATM   13  H30 UNL     1     -42.330  13.318   8.888  1.00 20.00     0.210 HD
ENDBRANCH   4  12
ENDBRANCH   3   4
TORSDOF 2
ENDMDL
MODEL 5
REMARK VINA RESULT:      -4.1     10.987     12.782
REMARK  2 active torsions:
REMARK  status: ('A' for Active; 'I' for Inactive)
REMARK    1  A    between atoms: C8_8  and  C11_11 
REMARK    2  A    between atoms: C8_8  and  O12_12 
ROOT
HETATM    1  C1  UNL     1     -31.872  18.366  -0.425  1.00 20.00     0.012 C 
HETATM    2  C2  UNL     1     -32.348  18.754  -1.458  1.00 20.00    -0.115 C 
HETATM    3  C11 UNL     1     -32.920  19.240  -2.714  1.00 20.00     0.131 C 
ENDROOT
BRANCH   3   4
HETATM    4  C8  UNL     1     -33.885  18.212  -3.308  1.00 20.00     0.069 C 
HETATM    5  C4  UNL     1     -34.414  18.698  -4.669  1.00 20.00     0.043 C 
HETATM    6  C6  UNL     1     -35.252  17.663  -5.441  1.00 20.00    -0.015 C 
HETATM    7  C3  UNL     1     -34.533  16.309  -5.510  1.00 20.00     0.008 C 
HETATM    8  C9  UNL     1     -36.675  17.524  -4.897  1.00 20.00     0.010 C 
HETATM    9  C7  UNL     1     -34.070  15.801  -4.137  1.00 20.00    -0.015 C 
HETATM   10  C5  UNL     1     -33.189  16.849  -3.439  1.00 20.00     0.043 C 
HETATM   11  C10 UNL     1     -33.314  14.479  -4.285  1.00 20.00     0.010 C 
BRANCH   4  12
HETATM   12  O12 UNL     1     -34.970  18.070  -2.390  1.00 20.00    -0.389 OA
HETATM   13  H30 UNL     1     -35.781  18.207  -2.902  1.00 20.00     0.210 HD
ENDBRANCH   4  12
ENDBRANCH   3   4
TORSDOF 2
ENDMDL
MODEL 6
REMARK VINA RESULT:      -3.9      9.799     11.356
REMARK  2 active torsions:
REMARK  status: ('A' for Active; 'I' for Inactive)
REMARK    1  A    between atoms: C8_8  and  C11_11 
REMARK    2  A    between atoms: C8_8  and  O12_12 
ROOT
HETATM    1  C1  UNL     1     -41.195  14.113  11.371  1.00 20.00     0.012 C 
HETATM    2  C2  UNL     1     -40.761  14.454  10.304  1.00 20.00    -0.115 C 
HETATM    3  C11 UNL     1     -40.222  14.880   9.012  1.00 20.00     0.131 C 
ENDROOT
BRANCH   3   4
HETATM    4  C8  UNL     1     -40.883  14.110   7.865  1.00 20.00     0.069 C 
HETATM    5  C4  UNL     1     -41.561  15.086   6.887  1.00 20.00     0.043 C 
HETATM    6  C6  UNL     1     -42.102  14.435   5.601  1.00 20.00    -0.015 C 
HETATM    7  C3  UNL     1     -41.041  13.543   4.943  1.00 20.00     0.008 C 
HETATM    8  C9  UNL     1     -43.417  13.685   5.822  1.00 20.00     0.010 C 
HETATM    9  C7  UNL     1     -40.420  12.528   5.912  1.00 20.00    -0.015 C 
HETATM   10  C5  UNL     1     -39.842  13.238   7.147  1.00 20.00     0.043 C 
HETATM   11  C10 UNL     1     -39.334  11.713   5.208  1.00 20.00     0.010 C 
BRANCH   4  12
HETATM   12  O12 UNL     1     -41.862  13.247   8.445  1.00 20.00    -0.389 OA
HETATM   13  H30 UNL     1     -41.373  12.527   8.870  1.00 20.00     0.210 HD
ENDBRANCH   4  12
ENDBRANCH   3   4
TORSDOF 2
ENDMDL
MODEL 7
REMARK VINA RESULT:      -3.9     11.144     12.895
REMARK  2 active torsions:
REMARK  status: ('A' for Active; 'I' for Inactive)
REMARK    1  A    between atoms: C8_8  and  C11_11 
REMARK    2  A    between atoms: C8_8  and  O12_12 
ROOT
HETATM    1  C1  UNL     1     -37.888  17.870  -4.719  1.00 20.00     0.012 C 
HETATM    2  C2  UNL     1     -36.821  18.381  -4.932  1.00 20.00    -0.115 C 
HETATM    3  C11 UNL     1     -35.529  19.011  -5.202  1.00 20.00     0.131 C 
ENDROOT
BRANCH   3   4
HETATM    4  C8  UNL     1     -34.420  18.363  -4.368  1.00 20.00     0.069 C 
HETATM    5  C4  UNL     1     -34.692  18.567  -2.867  1.00 20.00     0.043 C 
HETATM    6  C6  UNL     1     -33.738  17.802  -1.932  1.00 20.00    -0.015 C 
HETATM    7  C3  UNL     1     -33.624  16.328  -2.341  1.00 20.00     0.008 C 
HETATM    8  C9  UNL     1     -32.365  18.466  -1.810  1.00 20.00     0.010 C 
HETATM    9  C7  UNL     1     -33.285  16.138  -3.826  1.00 20.00    -0.015 C 
HETATM   10  C5  UNL     1     -34.304  16.871  -4.713  1.00 20.00     0.043 C 
HETATM   11  C10 UNL     1     -33.244  14.650  -4.178  1.00 20.00     0.010 C 
BRANCH   4  12
HETATM   12  O12 UNL     1     -33.193  18.999  -4.729  1.00 20.00    -0.389 OA
HETATM   13  H30 UNL     1     -33.369  19.952  -4.727  1.00 20.00     0.210 HD
ENDBRANCH   4  12
ENDBRANCH   3   4
TORSDOF 2
ENDMDL
MODEL 8
REMARK VINA RESULT:      -3.9     11.572     13.107
REMARK  2 active torsions:
REMARK  status: ('A' for Active; 'I' for Inactive)
REMARK    1  A    between atoms: C8_8  and  C11_11 
REMARK    2  A    between atoms: C8_8  and  O12_12 
ROOT
HETATM    1  C1  UNL     1     -33.736  17.288  -1.155  1.00 20.00     0.012 C 
HETATM    2  C2  UNL     1     -33.595  17.773  -2.246  1.00 20.00    -0.115 C 
HETATM    3  C11 UNL     1     -33.415  18.375  -3.567  1.00 20.00     0.131 C 
ENDROOT
BRANCH   3   4
HETATM    4  C8  UNL     1     -34.124  17.549  -4.644  1.00 20.00     0.069 C 
HETATM    5  C4  UNL     1     -33.706  16.071  -4.547  1.00 20.00     0.043 C 
HETATM    6  C6  UNL     1     -34.494  15.119  -5.464  1.00 20.00    -0.015 C 
HETATM    7  C3  UNL     1     -36.006  15.340  -5.326  1.00 20.00     0.008 C 
HETATM    8  C9  UNL     1     -34.040  15.189  -6.924  1.00 20.00     0.010 C 
HETATM    9  C7  UNL     1     -36.418  16.810  -5.493  1.00 20.00    -0.015 C 
HETATM   10  C5  UNL     1     -35.646  17.706  -4.511  1.00 20.00     0.043 C 
HETATM   11  C10 UNL     1     -37.926  16.967  -5.287  1.00 20.00     0.010 C 
BRANCH   4  12
HETATM   12  O12 UNL     1     -33.731  18.081  -5.910  1.00 20.00    -0.389 OA
HETATM   13  H30 UNL     1     -33.058  17.479  -6.262  1.00 20.00     0.210 HD
ENDBRANCH   4  12
ENDBRANCH   3   4
TORSDOF 2
ENDMDL
MODEL 9
REMARK VINA RESULT:      -3.9     10.983     13.036
REMARK  2 active torsions:
REMARK  status: ('A' for Active; 'I' for Inactive)
REMARK    1  A    between atoms: C8_8  and  C11_11 
REMARK    2  A    between atoms: C8_8  and  O12_12 
ROOT
HETATM    1  C1  UNL     1     -37.339  17.442  -7.880  1.00 20.00     0.012 C 
HETATM    2  C2  UNL     1     -36.547  17.840  -7.068  1.00 20.00    -0.115 C 
HETATM    3  C11 UNL     1     -35.582  18.337  -6.087  1.00 20.00     0.131 C 
ENDROOT
BRANCH   3   4
HETATM    4  C8  UNL     1     -35.198  17.238  -5.094  1.00 20.00     0.069 C 
HETATM    5  C4  UNL     1     -34.441  16.108  -5.813  1.00 20.00     0.043 C 
HETATM    6  C6  UNL     1     -33.848  15.036  -4.880  1.00 20.00    -0.015 C 
HETATM    7  C3  UNL     1     -33.053  15.676  -3.735  1.00 20.00     0.008 C 
HETATM    8  C9  UNL     1     -34.899  14.051  -4.363  1.00 20.00     0.010 C 
HETATM    9  C7  UNL     1     -33.843  16.754  -2.981  1.00 20.00    -0.015 C 
HETATM   10  C5  UNL     1     -34.358  17.829  -3.952  1.00 20.00     0.043 C 
HETATM   11  C10 UNL     1     -32.975  17.389  -1.892  1.00 20.00     0.010 C 
BRANCH   4  12
HETATM   12  O12 UNL     1     -36.411  16.730  -4.536  1.00 20.00    -0.389 OA
HETATM   13  H30 UNL     1     -36.545  17.201  -3.701  1.00 20.00     0.210 HD
ENDBRANCH   4  12
ENDBRANCH   3   4
TORSDOF 2
ENDMDL
