MODEL 1
REMARK VINA RESULT:      -5.2      0.000      0.000
REMARK  1 active torsions:
REMARK  status: ('A' for Active; 'I' for Inactive)
REMARK    1  A    between atoms: C7_7  and  C8_8 
ROOT
HETATM    1  C1  UNL     1     -32.298   8.166   1.860  1.00 20.00     0.064 C 
HETATM    2  C2  UNL     1     -32.870   8.674   5.614  1.00 20.00     0.002 C 
HETATM    3  C3  UNL     1     -32.120   8.626   4.280  1.00 20.00     0.019 C 
HETATM    4  C4  UNL     1     -33.952   7.600   5.749  1.00 20.00     0.013 C 
HETATM    5  C5  UNL     1     -33.516   6.687   3.428  1.00 20.00     0.032 C 
HETATM    6  C6  UNL     1     -33.011   8.114   3.148  1.00 20.00     0.093 C 
HETATM    7  C7  UNL     1     -33.619   6.353   4.929  1.00 20.00     0.095 C 
HETATM    8  N9  UNL     1     -31.737   8.207   0.845  1.00 20.00    -0.197 NA
ENDROOT
BRANCH   7   9
HETATM    9  C8  UNL     1     -34.640   5.243   5.168  1.00 20.00     0.391 C 
HETATM   10  F10 UNL     1     -34.860   5.101   6.482  1.00 20.00    -0.171 F 
HETATM   11  F11 UNL     1     -35.796   5.548   4.562  1.00 20.00    -0.171 F 
HETATM   12  F12 UNL     1     -34.179   4.085   4.674  1.00 20.00    -0.171 F 
ENDBRANCH   7   9
TORSDOF 1
ENDMDL
MODEL 2
REMARK VINA RESULT:      -4.7      9.191     10.144
REMARK  1 active torsions:
REMARK  status: ('A' for Active; 'I' for Inactive)
REMARK    1  A    between atoms: C7_7  and  C8_8 
ROOT
HETATM    1  C1  UNL     1     -40.561  14.122   8.804  1.00 20.00     0.064 C 
HETATM    2  C2  UNL     1     -42.333  14.087   5.407  1.00 20.00     0.002 C 
HETATM    3  C3  UNL     1     -42.161  13.999   6.926  1.00 20.00     0.019 C 
HETATM    4  C4  UNL     1     -41.143  13.531   4.622  1.00 20.00     0.013 C 
HETATM    5  C5  UNL     1     -39.846  12.982   6.725  1.00 20.00     0.032 C 
HETATM    6  C6  UNL     1     -40.693  14.113   7.337  1.00 20.00     0.093 C 
HETATM    7  C7  UNL     1     -40.411  12.436   5.400  1.00 20.00     0.095 C 
HETATM    8  N9  UNL     1     -40.457  14.128   9.960  1.00 20.00    -0.197 NA
ENDROOT
BRANCH   7   9
HETATM    9  C8  UNL     1     -39.305  11.803   4.559  1.00 20.00     0.391 C 
HETATM   10  F10 UNL     1     -39.483  10.476   4.496  1.00 20.00    -0.171 F 
HETATM   11  F11 UNL     1     -39.332  12.306   3.317  1.00 20.00    -0.171 F 
HETATM   12  F12 UNL     1     -38.110  12.059   5.109  1.00 20.00    -0.171 F 
ENDBRANCH   7   9
TORSDOF 1
ENDMDL
MODEL 3
REMARK VINA RESULT:      -4.5     12.163     12.901
REMARK  1 active torsions:
REMARK  status: ('A' for Active; 'I' for Inactive)
REMARK    1  A    between atoms: C7_7  and  C8_8 
ROOT
HETATM    1  C1  UNL     1     -30.946  19.260   0.820  1.00 20.00     0.064 C 
HETATM    2  C2  UNL     1     -34.741  19.224   0.299  1.00 20.00     0.002 C 
HETATM    3  C3  UNL     1     -33.402  19.125   1.035  1.00 20.00     0.019 C 
HETATM    4  C4  UNL     1     -34.692  18.698  -1.137  1.00 20.00     0.013 C 
HETATM    5  C5  UNL     1     -32.224  18.154  -0.990  1.00 20.00     0.032 C 
HETATM    6  C6  UNL     1     -32.218  19.263   0.078  1.00 20.00     0.093 C 
HETATM    7  C7  UNL     1     -33.630  17.610  -1.308  1.00 20.00     0.095 C 
HETATM    8  N9  UNL     1     -29.943  19.257   1.403  1.00 20.00    -0.197 NA
ENDROOT
BRANCH   7   9
HETATM    9  C8  UNL     1     -33.674  17.007  -2.709  1.00 20.00     0.391 C 
HETATM   10  F10 UNL     1     -32.588  17.378  -3.400  1.00 20.00    -0.171 F 
HETATM   11  F11 UNL     1     -33.705  15.669  -2.629  1.00 20.00    -0.171 F 
HETATM   12  F12 UNL     1     -34.770  17.432  -3.355  1.00 20.00    -0.171 F 
ENDBRANCH   7   9
TORSDOF 1
ENDMDL
MODEL 4
REMARK VINA RESULT:      -4.5     11.752     12.803
REMARK  1 active torsions:
REMARK  status: ('A' for Active; 'I' for Inactive)
REMARK    1  A    between atoms: C7_7  and  C8_8 
ROOT
HETATM    1  C1  UNL     1     -33.371  18.145  -0.530  1.00 20.00     0.064 C 
HETATM    2  C2  UNL     1     -34.948  18.566  -3.996  1.00 20.00     0.002 C 
HETATM    3  C3  UNL     1     -34.833  18.594  -2.469  1.00 20.00     0.019 C 
HETATM    4  C4  UNL     1     -34.197  17.404  -4.647  1.00 20.00     0.013 C 
HETATM    5  C5  UNL     1     -33.328  16.553  -2.426  1.00 20.00     0.032 C 
HETATM    6  C6  UNL     1     -33.498  18.020  -1.992  1.00 20.00     0.093 C 
HETATM    7  C7  UNL     1     -34.098  16.197  -3.713  1.00 20.00     0.095 C 
HETATM    8  N9  UNL     1     -33.269  18.242   0.622  1.00 20.00    -0.197 NA
ENDROOT
BRANCH   7   9
HETATM    9  C8  UNL     1     -33.457  15.002  -4.415  1.00 20.00     0.391 C 
HETATM   10  F10 UNL     1     -34.044  13.867  -4.013  1.00 20.00    -0.171 F 
HETATM   11  F11 UNL     1     -33.601  15.122  -5.743  1.00 20.00    -0.171 F 
HETATM   12  F12 UNL     1     -32.150  14.947  -4.121  1.00 20.00    -0.171 F 
ENDBRANCH   7   9
TORSDOF 1
ENDMDL
MODEL 5
REMARK VINA RESULT:      -4.5     11.760     12.841
REMARK  1 active torsions:
REMARK  status: ('A' for Active; 'I' for Inactive)
REMARK    1  A    between atoms: C7_7  and  C8_8 
ROOT
HETATM    1  C1  UNL     1     -33.308  18.188  -0.486  1.00 20.00     0.064 C 
HETATM    2  C2  UNL     1     -34.737  18.718  -4.001  1.00 20.00     0.002 C 
HETATM    3  C3  UNL     1     -34.669  18.741  -2.472  1.00 20.00     0.019 C 
HETATM    4  C4  UNL     1     -34.052  17.503  -4.628  1.00 20.00     0.013 C 
HETATM    5  C5  UNL     1     -33.321  16.594  -2.381  1.00 20.00     0.032 C 
HETATM    6  C6  UNL     1     -33.397  18.071  -1.952  1.00 20.00     0.093 C 
HETATM    7  C7  UNL     1     -34.073  16.293  -3.692  1.00 20.00     0.095 C 
HETATM    8  N9  UNL     1     -33.237  18.280   0.668  1.00 20.00    -0.197 NA
ENDROOT
BRANCH   7   9
HETATM    9  C8  UNL     1     -33.499  15.054  -4.374  1.00 20.00     0.391 C 
HETATM   10  F10 UNL     1     -32.194  14.939  -4.090  1.00 20.00    -0.171 F 
HETATM   11  F11 UNL     1     -34.138  13.957  -3.941  1.00 20.00    -0.171 F 
HETATM   12  F12 UNL     1     -33.650  15.152  -5.702  1.00 20.00    -0.171 F 
ENDBRANCH   7   9
TORSDOF 1
ENDMDL
MODEL 6
REMARK VINA RESULT:      -4.4      1.640      2.775
REMARK  1 active torsions:
REMARK  status: ('A' for Active; 'I' for Inactive)
REMARK    1  A    between atoms: C7_7  and  C8_8 
ROOT
HETATM    1  C1  UNL     1     -32.167   7.641   1.794  1.00 20.00     0.064 C 
HETATM    2  C2  UNL     1     -33.721   4.539   3.421  1.00 20.00     0.002 C 
HETATM    3  C3  UNL     1     -33.443   5.601   2.353  1.00 20.00     0.019 C 
HETATM    4  C4  UNL     1     -33.679   5.082   4.851  1.00 20.00     0.013 C 
HETATM    5  C5  UNL     1     -33.082   7.419   4.085  1.00 20.00     0.032 C 
HETATM    6  C6  UNL     1     -32.494   6.685   2.866  1.00 20.00     0.093 C 
HETATM    7  C7  UNL     1     -34.061   6.562   4.909  1.00 20.00     0.095 C 
HETATM    8  N9  UNL     1     -31.910   8.394   0.951  1.00 20.00    -0.197 NA
ENDROOT
BRANCH   7   9
HETATM    9  C8  UNL     1     -34.137   7.059   6.350  1.00 20.00     0.391 C 
HETATM   10  F10 UNL     1     -35.122   6.424   7.001  1.00 20.00    -0.171 F 
HETATM   11  F11 UNL     1     -32.975   6.822   6.977  1.00 20.00    -0.171 F 
HETATM   12  F12 UNL     1     -34.381   8.377   6.366  1.00 20.00    -0.171 F 
ENDBRANCH   7   9
TORSDOF 1
ENDMDL
MODEL 7
REMARK VINA RESULT:      -4.4      9.549     10.228
REMARK  1 active torsions:
REMARK  status: ('A' for Active; 'I' for Inactive)
REMARK    1  A    between atoms: C7_7  and  C8_8 
ROOT
HETATM    1  C1  UNL     1     -42.854  14.497   3.890  1.00 20.00     0.064 C 
HETATM    2  C2  UNL     1     -41.428  14.906   7.422  1.00 20.00     0.002 C 
HETATM    3  C3  UNL     1     -41.948  15.309   6.039  1.00 20.00     0.019 C 
HETATM    4  C4  UNL     1     -40.652  13.587   7.426  1.00 20.00     0.013 C 
HETATM    5  C5  UNL     1     -41.019  13.215   4.949  1.00 20.00     0.032 C 
HETATM    6  C6  UNL     1     -42.267  14.087   5.177  1.00 20.00     0.093 C 
HETATM    7  C7  UNL     1     -39.977  13.321   6.080  1.00 20.00     0.095 C 
HETATM    8  N9  UNL     1     -43.316  14.819   2.876  1.00 20.00    -0.197 NA
ENDROOT
BRANCH   7   9
HETATM    9  C8  UNL     1     -39.107  12.068   6.133  1.00 20.00     0.391 C 
HETATM   10  F10 UNL     1     -38.572  11.936   7.355  1.00 20.00    -0.171 F 
HETATM   11  F11 UNL     1     -39.849  10.985   5.862  1.00 20.00    -0.171 F 
HETATM   12  F12 UNL     1     -38.120  12.159   5.231  1.00 20.00    -0.171 F 
ENDBRANCH   7   9
TORSDOF 1
ENDMDL
MODEL 8
REMARK VINA RESULT:      -4.2      9.830     10.712
REMARK  1 active torsions:
REMARK  status: ('A' for Active; 'I' for Inactive)
REMARK    1  A    between atoms: C7_7  and  C8_8 
ROOT
HETATM    1  C1  UNL     1     -41.149  15.928   8.492  1.00 20.00     0.064 C 
HETATM    2  C2  UNL     1     -42.394  14.291   5.260  1.00 20.00     0.002 C 
HETATM    3  C3  UNL     1     -42.455  14.916   6.656  1.00 20.00     0.019 C 
HETATM    4  C4  UNL     1     -41.130  13.465   5.012  1.00 20.00     0.013 C 
HETATM    5  C5  UNL     1     -40.189  13.978   7.305  1.00 20.00     0.032 C 
HETATM    6  C6  UNL     1     -41.061  15.243   7.191  1.00 20.00     0.093 C 
HETATM    7  C7  UNL     1     -40.577  12.870   6.307  1.00 20.00     0.095 C 
HETATM    8  N9  UNL     1     -41.218  16.468   9.517  1.00 20.00    -0.197 NA
ENDROOT
BRANCH   7   9
HETATM    9  C8  UNL     1     -39.391  11.949   6.033  1.00 20.00     0.391 C 
HETATM   10  F10 UNL     1     -38.644  11.825   7.138  1.00 20.00    -0.171 F 
HETATM   11  F11 UNL     1     -39.830  10.737   5.665  1.00 20.00    -0.171 F 
HETATM   12  F12 UNL     1     -38.636  12.457   5.049  1.00 20.00    -0.171 F 
ENDBRANCH   7   9
TORSDOF 1
ENDMDL
MODEL 9
REMARK VINA RESULT:      -4.2      1.667      2.688
REMARK  1 active torsions:
REMARK  status: ('A' for Active; 'I' for Inactive)
REMARK    1  A    between atoms: C7_7  and  C8_8 
ROOT
HETATM    1  C1  UNL     1     -31.974   9.279   4.921  1.00 20.00     0.064 C 
HETATM    2  C2  UNL     1     -32.430   6.598   2.222  1.00 20.00     0.002 C 
HETATM    3  C3  UNL     1     -32.337   7.995   2.842  1.00 20.00     0.019 C 
HETATM    4  C4  UNL     1     -33.060   5.556   3.148  1.00 20.00     0.013 C 
HETATM    5  C5  UNL     1     -33.341   7.218   5.038  1.00 20.00     0.032 C 
HETATM    6  C6  UNL     1     -32.157   7.930   4.359  1.00 20.00     0.093 C 
HETATM    7  C7  UNL     1     -34.047   6.191   4.130  1.00 20.00     0.095 C 
HETATM    8  N9  UNL     1     -31.831  10.341   5.364  1.00 20.00    -0.197 NA
ENDROOT
BRANCH   7   9
HETATM    9  C8  UNL     1     -34.760   5.130   4.964  1.00 20.00     0.391 C 
HETATM   10  F10 UNL     1     -36.054   5.071   4.617  1.00 20.00    -0.171 F 
HETATM   11  F11 UNL     1     -34.197   3.931   4.755  1.00 20.00    -0.171 F 
HETATM   12  F12 UNL     1     -34.670   5.435   6.266  1.00 20.00    -0.171 F 
ENDBRANCH   7   9
TORSDOF 1
ENDMDL
