MODEL 1
REMARK VINA RESULT:      -3.8      0.000      0.000
REMARK  3 active torsions:
REMARK  status: ('A' for Active; 'I' for Inactive)
REMARK    1  A    between atoms: C2_2  and  C3_3 
REMARK    2  A    between atoms: C2_2  and  S8_8 
REMARK    3  A    between atoms: C3_3  and  C4_4 
ROOT
HETATM    1  C3  UNL     1     -33.612   6.234   4.691  1.00 20.00     0.174 C 
HETATM    2 BR9  UNL     1     -33.006   5.617   2.917  1.00 20.00    -0.081 Br
ENDROOT
BRANCH   1   3
HETATM    3  C2  UNL     1     -33.808   7.748   4.608  1.00 20.00     0.098 C 
BRANCH   3   4
HETATM    4  S8  UNL     1     -32.257   8.641   4.282  1.00 20.00    -0.172 SA
HETATM    5  C1  UNL     1     -32.634   9.211   2.609  1.00 20.00     0.089 C 
ENDBRANCH   3   4
ENDBRANCH   1   3
BRANCH   1   6
HETATM    6  C4  UNL     1     -34.860   5.445   5.050  1.00 20.00     0.401 C 
HETATM    7  F5  UNL     1     -35.109   5.470   6.377  1.00 20.00    -0.170 F 
HETATM    8  F6  UNL     1     -34.746   4.150   4.675  1.00 20.00    -0.170 F 
HETATM    9  F7  UNL     1     -35.952   5.936   4.423  1.00 20.00    -0.170 F 
ENDBRANCH   1   6
TORSDOF 3
ENDMDL
MODEL 2
REMARK VINA RESULT:      -3.8      0.011      1.258
REMARK  3 active torsions:
REMARK  status: ('A' for Active; 'I' for Inactive)
REMARK    1  A    between atoms: C2_2  and  C3_3 
REMARK    2  A    between atoms: C2_2  and  S8_8 
REMARK    3  A    between atoms: C3_3  and  C4_4 
ROOT
HETATM    1  C3  UNL     1     -33.617   6.234   4.687  1.00 20.00     0.174 C 
HETATM    2 BR9  UNL     1     -33.002   5.619   2.915  1.00 20.00    -0.081 Br
ENDROOT
BRANCH   1   3
HETATM    3  C2  UNL     1     -33.806   7.750   4.606  1.00 20.00     0.098 C 
BRANCH   3   4
HETATM    4  S8  UNL     1     -32.252   8.636   4.275  1.00 20.00    -0.172 SA
HETATM    5  C1  UNL     1     -32.634   9.211   2.605  1.00 20.00     0.089 C 
ENDBRANCH   3   4
ENDBRANCH   1   3
BRANCH   1   6
HETATM    6  C4  UNL     1     -34.870   5.450   5.036  1.00 20.00     0.401 C 
HETATM    7  F5  UNL     1     -35.963   5.942   4.413  1.00 20.00    -0.170 F 
HETATM    8  F6  UNL     1     -35.108   5.473   6.367  1.00 20.00    -0.170 F 
HETATM    9  F7  UNL     1     -34.754   4.150   4.685  1.00 20.00    -0.170 F 
ENDBRANCH   1   6
TORSDOF 3
ENDMDL
MODEL 3
REMARK VINA RESULT:      -3.7      1.552      2.025
REMARK  3 active torsions:
REMARK  status: ('A' for Active; 'I' for Inactive)
REMARK    1  A    between atoms: C2_2  and  C3_3 
REMARK    2  A    between atoms: C2_2  and  S8_8 
REMARK    3  A    between atoms: C3_3  and  C4_4 
ROOT
HETATM    1  C3  UNL     1     -34.172   6.571   4.588  1.00 20.00     0.174 C 
HETATM    2 BR9  UNL     1     -33.614   7.406   6.288  1.00 20.00    -0.081 Br
ENDROOT
BRANCH   1   3
HETATM    3  C2  UNL     1     -32.939   6.499   3.686  1.00 20.00     0.098 C 
BRANCH   3   4
HETATM    4  S8  UNL     1     -32.156   8.121   3.434  1.00 20.00    -0.172 SA
HETATM    5  C1  UNL     1     -32.171   8.137   1.627  1.00 20.00     0.089 C 
ENDBRANCH   3   4
ENDBRANCH   1   3
BRANCH   1   6
HETATM    6  C4  UNL     1     -34.803   5.230   4.921  1.00 20.00     0.401 C 
HETATM    7  F5  UNL     1     -34.131   4.203   4.357  1.00 20.00    -0.170 F 
HETATM    8  F6  UNL     1     -36.084   5.171   4.491  1.00 20.00    -0.170 F 
HETATM    9  F7  UNL     1     -34.830   5.014   6.254  1.00 20.00    -0.170 F 
ENDBRANCH   1   6
TORSDOF 3
ENDMDL
MODEL 4
REMARK VINA RESULT:      -3.5      1.867      2.336
REMARK  3 active torsions:
REMARK  status: ('A' for Active; 'I' for Inactive)
REMARK    1  A    between atoms: C2_2  and  C3_3 
REMARK    2  A    between atoms: C2_2  and  S8_8 
REMARK    3  A    between atoms: C3_3  and  C4_4 
ROOT
HETATM    1  C3  UNL     1     -33.947   6.576   5.005  1.00 20.00     0.174 C 
HETATM    2 BR9  UNL     1     -35.636   5.928   4.214  1.00 20.00    -0.081 Br
ENDROOT
BRANCH   1   3
HETATM    3  C2  UNL     1     -33.851   8.075   4.715  1.00 20.00     0.098 C 
BRANCH   3   4
HETATM    4  S8  UNL     1     -32.279   8.540   3.926  1.00 20.00    -0.172 SA
HETATM    5  C1  UNL     1     -32.141   7.145   2.784  1.00 20.00     0.089 C 
ENDBRANCH   3   4
ENDBRANCH   1   3
BRANCH   1   6
HETATM    6  C4  UNL     1     -33.959   6.208   6.478  1.00 20.00     0.401 C 
HETATM    7  F5  UNL     1     -34.028   4.872   6.663  1.00 20.00    -0.170 F 
HETATM    8  F6  UNL     1     -35.013   6.768   7.115  1.00 20.00    -0.170 F 
HETATM    9  F7  UNL     1     -32.847   6.648   7.107  1.00 20.00    -0.170 F 
ENDBRANCH   1   6
TORSDOF 3
ENDMDL
MODEL 5
REMARK VINA RESULT:      -3.4     12.396     13.260
REMARK  3 active torsions:
REMARK  status: ('A' for Active; 'I' for Inactive)
REMARK    1  A    between atoms: C2_2  and  C3_3 
REMARK    2  A    between atoms: C2_2  and  S8_8 
REMARK    3  A    between atoms: C3_3  and  C4_4 
ROOT
HETATM    1  C3  UNL     1     -34.250  16.047  -4.984  1.00 20.00     0.174 C 
HETATM    2 BR9  UNL     1     -35.604  14.914  -5.865  1.00 20.00    -0.081 Br
ENDROOT
BRANCH   1   3
HETATM    3  C2  UNL     1     -34.956  17.315  -4.502  1.00 20.00     0.098 C 
BRANCH   3   4
HETATM    4  S8  UNL     1     -34.136  18.836  -5.068  1.00 20.00    -0.172 SA
HETATM    5  C1  UNL     1     -33.002  19.051  -3.677  1.00 20.00     0.089 C 
ENDBRANCH   3   4
ENDBRANCH   1   3
BRANCH   1   6
HETATM    6  C4  UNL     1     -33.600  15.219  -3.889  1.00 20.00     0.401 C 
HETATM    7  F5  UNL     1     -34.223  14.033  -3.717  1.00 20.00    -0.170 F 
HETATM    8  F6  UNL     1     -33.620  15.871  -2.704  1.00 20.00    -0.170 F 
HETATM    9  F7  UNL     1     -32.304  14.960  -4.167  1.00 20.00    -0.170 F 
ENDBRANCH   1   6
TORSDOF 3
ENDMDL
MODEL 6
REMARK VINA RESULT:      -3.4      3.337      4.052
REMARK  3 active torsions:
REMARK  status: ('A' for Active; 'I' for Inactive)
REMARK    1  A    between atoms: C2_2  and  C3_3 
REMARK    2  A    between atoms: C2_2  and  S8_8 
REMARK    3  A    between atoms: C3_3  and  C4_4 
ROOT
HETATM    1  C3  UNL     1     -33.391   7.369   4.344  1.00 20.00     0.174 C 
HETATM    2 BR9  UNL     1     -32.859   5.828   3.231  1.00 20.00    -0.081 Br
ENDROOT
BRANCH   1   3
HETATM    3  C2  UNL     1     -33.470   6.884   5.792  1.00 20.00     0.098 C 
BRANCH   3   4
HETATM    4  S8  UNL     1     -34.599   5.473   6.001  1.00 20.00    -0.172 SA
HETATM    5  C1  UNL     1     -35.656   5.774   4.567  1.00 20.00     0.089 C 
ENDBRANCH   3   4
ENDBRANCH   1   3
BRANCH   1   6
HETATM    6  C4  UNL     1     -32.389   8.483   4.094  1.00 20.00     0.401 C 
HETATM    7  F5  UNL     1     -32.349   9.364   5.117  1.00 20.00    -0.170 F 
HETATM    8  F6  UNL     1     -32.691   9.170   2.969  1.00 20.00    -0.170 F 
HETATM    9  F7  UNL     1     -31.140   7.996   3.929  1.00 20.00    -0.170 F 
ENDBRANCH   1   6
TORSDOF 3
ENDMDL
MODEL 7
REMARK VINA RESULT:      -3.4      2.950      3.855
REMARK  3 active torsions:
REMARK  status: ('A' for Active; 'I' for Inactive)
REMARK    1  A    between atoms: C2_2  and  C3_3 
REMARK    2  A    between atoms: C2_2  and  S8_8 
REMARK    3  A    between atoms: C3_3  and  C4_4 
ROOT
HETATM    1  C3  UNL     1     -33.463   7.626   3.897  1.00 20.00     0.174 C 
HETATM    2 BR9  UNL     1     -32.041   7.978   2.573  1.00 20.00    -0.081 Br
ENDROOT
BRANCH   1   3
HETATM    3  C2  UNL     1     -33.597   6.109   4.033  1.00 20.00     0.098 C 
BRANCH   3   4
HETATM    4  S8  UNL     1     -35.189   5.604   4.753  1.00 20.00    -0.172 SA
HETATM    5  C1  UNL     1     -34.603   5.193   6.413  1.00 20.00     0.089 C 
ENDBRANCH   3   4
ENDBRANCH   1   3
BRANCH   1   6
HETATM    6  C4  UNL     1     -33.089   8.354   5.176  1.00 20.00     0.401 C 
HETATM    7  F5  UNL     1     -32.156   9.306   4.960  1.00 20.00    -0.170 F 
HETATM    8  F6  UNL     1     -32.599   7.498   6.102  1.00 20.00    -0.170 F 
HETATM    9  F7  UNL     1     -34.163   8.956   5.734  1.00 20.00    -0.170 F 
ENDBRANCH   1   6
TORSDOF 3
ENDMDL
MODEL 8
REMARK VINA RESULT:      -3.3     12.312     12.822
REMARK  3 active torsions:
REMARK  status: ('A' for Active; 'I' for Inactive)
REMARK    1  A    between atoms: C2_2  and  C3_3 
REMARK    2  A    between atoms: C2_2  and  S8_8 
REMARK    3  A    between atoms: C3_3  and  C4_4 
ROOT
HETATM    1  C3  UNL     1     -33.382  16.584  -3.717  1.00 20.00     0.174 C 
HETATM    2 BR9  UNL     1     -34.970  17.469  -4.489  1.00 20.00    -0.081 Br
ENDROOT
BRANCH   1   3
HETATM    3  C2  UNL     1     -33.488  16.698  -2.196  1.00 20.00     0.098 C 
BRANCH   3   4
HETATM    4  S8  UNL     1     -34.181  18.291  -1.656  1.00 20.00    -0.172 SA
HETATM    5  C1  UNL     1     -33.831  18.138   0.111  1.00 20.00     0.089 C 
ENDBRANCH   3   4
ENDBRANCH   1   3
BRANCH   1   6
HETATM    6  C4  UNL     1     -33.343  15.163  -4.253  1.00 20.00     0.401 C 
HETATM    7  F5  UNL     1     -33.694  15.105  -5.556  1.00 20.00    -0.170 F 
HETATM    8  F6  UNL     1     -34.181  14.356  -3.563  1.00 20.00    -0.170 F 
HETATM    9  F7  UNL     1     -32.108  14.627  -4.141  1.00 20.00    -0.170 F 
ENDBRANCH   1   6
TORSDOF 3
ENDMDL
MODEL 9
REMARK VINA RESULT:      -3.3     12.328     13.199
REMARK  3 active torsions:
REMARK  status: ('A' for Active; 'I' for Inactive)
REMARK    1  A    between atoms: C2_2  and  C3_3 
REMARK    2  A    between atoms: C2_2  and  S8_8 
REMARK    3  A    between atoms: C3_3  and  C4_4 
ROOT
HETATM    1  C3  UNL     1     -34.188  15.891  -5.153  1.00 20.00     0.174 C 
HETATM    2 BR9  UNL     1     -35.898  15.020  -5.617  1.00 20.00    -0.081 Br
ENDROOT
BRANCH   1   3
HETATM    3  C2  UNL     1     -34.476  17.376  -4.929  1.00 20.00     0.098 C 
BRANCH   3   4
HETATM    4  S8  UNL     1     -36.255  17.742  -4.835  1.00 20.00    -0.172 SA
HETATM    5  C1  UNL     1     -36.249  18.655  -3.275  1.00 20.00     0.089 C 
ENDBRANCH   3   4
ENDBRANCH   1   3
BRANCH   1   6
HETATM    6  C4  UNL     1     -33.612  15.161  -3.952  1.00 20.00     0.401 C 
HETATM    7  F5  UNL     1     -33.670  15.912  -2.830  1.00 20.00    -0.170 F 
HETATM    8  F6  UNL     1     -32.318  14.825  -4.157  1.00 20.00    -0.170 F 
HETATM    9  F7  UNL     1     -34.278  14.011  -3.706  1.00 20.00    -0.170 F 
ENDBRANCH   1   6
TORSDOF 3
ENDMDL
