MODEL 1
REMARK VINA RESULT:      -4.0      0.000      0.000
REMARK  4 active torsions:
REMARK  status: ('A' for Active; 'I' for Inactive)
REMARK    1  A    between atoms: C4_4  and  C5_5 
REMARK    2  A    between atoms: C5_5  and  C7_7 
REMARK    3  A    between atoms: C6_6  and  C7_7 
REMARK    4  A    between atoms: C6_6  and  C8_8 
ROOT
HETATM    1  C2  UNL     1     -34.751   6.296   6.713  1.00 20.00     0.010 C 
HETATM    2  C7  UNL     1     -33.999   6.396   5.381  1.00 20.00    -0.017 C 
ENDROOT
BRANCH   2   3
HETATM    3  C5  UNL     1     -34.708   5.500   4.339  1.00 20.00     0.004 C 
BRANCH   3   4
HETATM    4  C4  UNL     1     -33.786   4.470   3.681  1.00 20.00    -0.004 C 
HETATM    5  C1  UNL     1     -32.939   5.104   2.587  1.00 20.00     0.005 C 
ENDBRANCH   3   4
ENDBRANCH   2   3
BRANCH   2   6
HETATM    6  C6  UNL     1     -33.891   7.860   4.892  1.00 20.00     0.024 C 
BRANCH   6   7
HETATM    7  C8  UNL     1     -32.534   8.280   4.304  1.00 20.00     0.078 C 
HETATM    8  C3  UNL     1     -31.923   9.425   5.106  1.00 20.00     0.026 C 
HETATM    9 CL9  UNL     1     -32.703   8.798   2.600  1.00 20.00    -0.125 Cl
ENDBRANCH   6   7
ENDBRANCH   2   6
TORSDOF 4
ENDMDL
MODEL 2
REMARK VINA RESULT:      -4.0      2.115      3.935
REMARK  4 active torsions:
REMARK  status: ('A' for Active; 'I' for Inactive)
REMARK    1  A    between atoms: C4_4  and  C5_5 
REMARK    2  A    between atoms: C5_5  and  C7_7 
REMARK    3  A    between atoms: C6_6  and  C7_7 
REMARK    4  A    between atoms: C6_6  and  C8_8 
ROOT
HETATM    1  C2  UNL     1     -32.999   5.118   2.450  1.00 20.00     0.010 C 
HETATM    2  C7  UNL     1     -32.968   6.157   3.577  1.00 20.00    -0.017 C 
ENDROOT
BRANCH   2   3
HETATM    3  C5  UNL     1     -32.184   7.397   3.088  1.00 20.00     0.004 C 
BRANCH   3   4
HETATM    4  C4  UNL     1     -32.742   8.725   3.609  1.00 20.00    -0.004 C 
HETATM    5  C1  UNL     1     -32.071   9.134   4.913  1.00 20.00     0.005 C 
ENDBRANCH   3   4
ENDBRANCH   2   3
BRANCH   2   6
HETATM    6  C6  UNL     1     -34.391   6.534   4.050  1.00 20.00     0.024 C 
BRANCH   6   7
HETATM    7  C8  UNL     1     -34.796   6.033   5.446  1.00 20.00     0.078 C 
HETATM    8  C3  UNL     1     -34.298   6.982   6.532  1.00 20.00     0.026 C 
HETATM    9 CL9  UNL     1     -34.133   4.401   5.761  1.00 20.00    -0.125 Cl
ENDBRANCH   6   7
ENDBRANCH   2   6
TORSDOF 4
ENDMDL
MODEL 3
REMARK VINA RESULT:      -4.0      1.408      2.945
REMARK  4 active torsions:
REMARK  status: ('A' for Active; 'I' for Inactive)
REMARK    1  A    between atoms: C4_4  and  C5_5 
REMARK    2  A    between atoms: C5_5  and  C7_7 
REMARK    3  A    between atoms: C6_6  and  C7_7 
REMARK    4  A    between atoms: C6_6  and  C8_8 
ROOT
HETATM    1  C2  UNL     1     -32.926   4.701   2.109  1.00 20.00     0.010 C 
HETATM    2  C7  UNL     1     -33.487   5.717   3.111  1.00 20.00    -0.017 C 
ENDROOT
BRANCH   2   3
HETATM    3  C5  UNL     1     -33.978   4.960   4.366  1.00 20.00     0.004 C 
BRANCH   3   4
HETATM    4  C4  UNL     1     -35.038   5.719   5.170  1.00 20.00    -0.004 C 
HETATM    5  C1  UNL     1     -34.460   6.275   6.463  1.00 20.00     0.005 C 
ENDBRANCH   3   4
ENDBRANCH   2   3
BRANCH   2   6
HETATM    6  C6  UNL     1     -32.444   6.801   3.473  1.00 20.00     0.024 C 
BRANCH   6   7
HETATM    7  C8  UNL     1     -32.976   8.239   3.595  1.00 20.00     0.078 C 
HETATM    8  C3  UNL     1     -32.617   9.060   2.360  1.00 20.00     0.026 C 
HETATM    9 CL9  UNL     1     -32.305   9.052   5.041  1.00 20.00    -0.125 Cl
ENDBRANCH   6   7
ENDBRANCH   2   6
TORSDOF 4
ENDMDL
MODEL 4
REMARK VINA RESULT:      -3.9      1.806      3.151
REMARK  4 active torsions:
REMARK  status: ('A' for Active; 'I' for Inactive)
REMARK    1  A    between atoms: C4_4  and  C5_5 
REMARK    2  A    between atoms: C5_5  and  C7_7 
REMARK    3  A    between atoms: C6_6  and  C7_7 
REMARK    4  A    between atoms: C6_6  and  C8_8 
ROOT
HETATM    1  C2  UNL     1     -32.189   9.362   5.564  1.00 20.00     0.010 C 
HETATM    2  C7  UNL     1     -32.746   8.100   4.894  1.00 20.00    -0.017 C 
ENDROOT
BRANCH   2   3
HETATM    3  C5  UNL     1     -34.085   7.727   5.572  1.00 20.00     0.004 C 
BRANCH   3   4
HETATM    4  C4  UNL     1     -34.028   6.426   6.377  1.00 20.00    -0.004 C 
HETATM    5  C1  UNL     1     -34.721   5.288   5.642  1.00 20.00     0.005 C 
ENDBRANCH   3   4
ENDBRANCH   2   3
BRANCH   2   6
HETATM    6  C6  UNL     1     -32.915   8.287   3.368  1.00 20.00     0.024 C 
BRANCH   6   7
HETATM    7  C8  UNL     1     -32.104   7.334   2.475  1.00 20.00     0.078 C 
HETATM    8  C3  UNL     1     -32.086   7.824   1.030  1.00 20.00     0.026 C 
HETATM    9 CL9  UNL     1     -32.786   5.681   2.513  1.00 20.00    -0.125 Cl
ENDBRANCH   6   7
ENDBRANCH   2   6
TORSDOF 4
ENDMDL
MODEL 5
REMARK VINA RESULT:      -3.9      1.697      3.274
REMARK  4 active torsions:
REMARK  status: ('A' for Active; 'I' for Inactive)
REMARK    1  A    between atoms: C4_4  and  C5_5 
REMARK    2  A    between atoms: C5_5  and  C7_7 
REMARK    3  A    between atoms: C6_6  and  C7_7 
REMARK    4  A    between atoms: C6_6  and  C8_8 
ROOT
HETATM    1  C2  UNL     1     -32.591   9.341   4.765  1.00 20.00     0.010 C 
HETATM    2  C7  UNL     1     -33.084   7.918   4.479  1.00 20.00    -0.017 C 
ENDROOT
BRANCH   2   3
HETATM    3  C5  UNL     1     -32.084   7.228   3.523  1.00 20.00     0.004 C 
BRANCH   3   4
HETATM    4  C4  UNL     1     -32.752   6.474   2.370  1.00 20.00    -0.004 C 
HETATM    5  C1  UNL     1     -32.877   4.989   2.677  1.00 20.00     0.005 C 
ENDBRANCH   3   4
ENDBRANCH   2   3
BRANCH   2   6
HETATM    6  C6  UNL     1     -33.279   7.106   5.781  1.00 20.00     0.024 C 
BRANCH   6   7
HETATM    7  C8  UNL     1     -34.625   6.376   5.930  1.00 20.00     0.078 C 
HETATM    8  C3  UNL     1     -34.415   4.929   6.366  1.00 20.00     0.026 C 
HETATM    9 CL9  UNL     1     -35.536   6.387   4.391  1.00 20.00    -0.125 Cl
ENDBRANCH   6   7
ENDBRANCH   2   6
TORSDOF 4
ENDMDL
MODEL 6
REMARK VINA RESULT:      -3.9      2.364      3.918
REMARK  4 active torsions:
REMARK  status: ('A' for Active; 'I' for Inactive)
REMARK    1  A    between atoms: C4_4  and  C5_5 
REMARK    2  A    between atoms: C5_5  and  C7_7 
REMARK    3  A    between atoms: C6_6  and  C7_7 
REMARK    4  A    between atoms: C6_6  and  C8_8 
ROOT
HETATM    1  C2  UNL     1     -32.147   8.889   4.888  1.00 20.00     0.010 C 
HETATM    2  C7  UNL     1     -33.028   8.389   3.736  1.00 20.00    -0.017 C 
ENDROOT
BRANCH   2   3
HETATM    3  C5  UNL     1     -32.157   7.552   2.771  1.00 20.00     0.004 C 
BRANCH   3   4
HETATM    4  C4  UNL     1     -32.126   8.094   1.339  1.00 20.00    -0.004 C 
HETATM    5  C1  UNL     1     -32.804   9.453   1.247  1.00 20.00     0.005 C 
ENDBRANCH   3   4
ENDBRANCH   2   3
BRANCH   2   6
HETATM    6  C6  UNL     1     -34.242   7.581   4.252  1.00 20.00     0.024 C 
BRANCH   6   7
HETATM    7  C8  UNL     1     -33.922   6.375   5.151  1.00 20.00     0.078 C 
HETATM    8  C3  UNL     1     -34.589   5.109   4.622  1.00 20.00     0.026 C 
HETATM    9 CL9  UNL     1     -34.475   6.658   6.828  1.00 20.00    -0.125 Cl
ENDBRANCH   6   7
ENDBRANCH   2   6
TORSDOF 4
ENDMDL
MODEL 7
REMARK VINA RESULT:      -3.8      0.975      2.565
REMARK  4 active torsions:
REMARK  status: ('A' for Active; 'I' for Inactive)
REMARK    1  A    between atoms: C4_4  and  C5_5 
REMARK    2  A    between atoms: C5_5  and  C7_7 
REMARK    3  A    between atoms: C6_6  and  C7_7 
REMARK    4  A    between atoms: C6_6  and  C8_8 
ROOT
HETATM    1  C2  UNL     1     -32.856   4.957   2.722  1.00 20.00     0.010 C 
HETATM    2  C7  UNL     1     -34.005   5.520   3.567  1.00 20.00    -0.017 C 
ENDROOT
BRANCH   2   3
HETATM    3  C5  UNL     1     -34.075   4.736   4.898  1.00 20.00     0.004 C 
BRANCH   3   4
HETATM    4  C4  UNL     1     -34.965   5.393   5.956  1.00 20.00    -0.004 C 
HETATM    5  C1  UNL     1     -34.211   6.468   6.725  1.00 20.00     0.005 C 
ENDBRANCH   3   4
ENDBRANCH   2   3
BRANCH   2   6
HETATM    6  C6  UNL     1     -33.848   7.039   3.810  1.00 20.00     0.024 C 
BRANCH   6   7
HETATM    7  C8  UNL     1     -32.430   7.609   3.641  1.00 20.00     0.078 C 
HETATM    8  C3  UNL     1     -32.184   8.756   4.617  1.00 20.00     0.026 C 
HETATM    9 CL9  UNL     1     -32.170   8.207   1.975  1.00 20.00    -0.125 Cl
ENDBRANCH   6   7
ENDBRANCH   2   6
TORSDOF 4
ENDMDL
MODEL 8
REMARK VINA RESULT:      -3.6     11.924     12.847
REMARK  4 active torsions:
REMARK  status: ('A' for Active; 'I' for Inactive)
REMARK    1  A    between atoms: C4_4  and  C5_5 
REMARK    2  A    between atoms: C5_5  and  C7_7 
REMARK    3  A    between atoms: C6_6  and  C7_7 
REMARK    4  A    between atoms: C6_6  and  C8_8 
ROOT
HETATM    1  C2  UNL     1     -34.023  18.343   0.235  1.00 20.00     0.010 C 
HETATM    2  C7  UNL     1     -33.201  18.231  -1.055  1.00 20.00    -0.017 C 
ENDROOT
BRANCH   2   3
HETATM    3  C5  UNL     1     -31.702  18.372  -0.704  1.00 20.00     0.004 C 
BRANCH   3   4
HETATM    4  C4  UNL     1     -31.442  19.147   0.591  1.00 20.00    -0.004 C 
HETATM    5  C1  UNL     1     -30.637  18.317   1.581  1.00 20.00     0.005 C 
ENDBRANCH   3   4
ENDBRANCH   2   3
BRANCH   2   6
HETATM    6  C6  UNL     1     -33.487  16.908  -1.804  1.00 20.00     0.024 C 
BRANCH   6   7
HETATM    7  C8  UNL     1     -33.264  16.930  -3.326  1.00 20.00     0.078 C 
HETATM    8  C3  UNL     1     -34.373  17.707  -4.028  1.00 20.00     0.026 C 
HETATM    9 CL9  UNL     1     -33.214  15.270  -3.992  1.00 20.00    -0.125 Cl
ENDBRANCH   6   7
ENDBRANCH   2   6
TORSDOF 4
ENDMDL
MODEL 9
REMARK VINA RESULT:      -3.5     12.034     12.789
REMARK  4 active torsions:
REMARK  status: ('A' for Active; 'I' for Inactive)
REMARK    1  A    between atoms: C4_4  and  C5_5 
REMARK    2  A    between atoms: C5_5  and  C7_7 
REMARK    3  A    between atoms: C6_6  and  C7_7 
REMARK    4  A    between atoms: C6_6  and  C8_8 
ROOT
HETATM    1  C2  UNL     1     -33.526  18.240   0.683  1.00 20.00     0.010 C 
HETATM    2  C7  UNL     1     -32.382  18.766  -0.192  1.00 20.00    -0.017 C 
ENDROOT
BRANCH   2   3
HETATM    3  C5  UNL     1     -31.039  18.479   0.520  1.00 20.00     0.004 C 
BRANCH   3   4
HETATM    4  C4  UNL     1     -31.153  18.399   2.044  1.00 20.00    -0.004 C 
HETATM    5  C1  UNL     1     -29.818  18.688   2.715  1.00 20.00     0.005 C 
ENDBRANCH   3   4
ENDBRANCH   2   3
BRANCH   2   6
HETATM    6  C6  UNL     1     -32.415  18.153  -1.611  1.00 20.00     0.024 C 
BRANCH   6   7
HETATM    7  C8  UNL     1     -33.660  17.319  -1.960  1.00 20.00     0.078 C 
HETATM    8  C3  UNL     1     -33.329  16.258  -3.006  1.00 20.00     0.026 C 
HETATM    9 CL9  UNL     1     -34.974  18.356  -2.589  1.00 20.00    -0.125 Cl
ENDBRANCH   6   7
ENDBRANCH   2   6
TORSDOF 4
ENDMDL
