MODEL 1
REMARK VINA RESULT:      -3.9      0.000      0.000
REMARK  5 active torsions:
REMARK  status: ('A' for Active; 'I' for Inactive)
REMARK    1  A    between atoms: C6_6  and  C7_7 
REMARK    2  A    between atoms: C6_6  and  C9_9 
REMARK    3  A    between atoms: C7_7  and  C11_11 
REMARK    4  A    between atoms: C8_8  and  C10_10 
REMARK    5  A    between atoms: C8_8  and  C11_11 
ROOT
HETATM    1  C4  UNL     1     -35.230  18.620  -2.734  1.00 20.00     0.015 C 
HETATM    2  C5  UNL     1     -32.980  19.252  -3.568  1.00 20.00     0.015 C 
HETATM    3  C11 UNL     1     -33.817  18.069  -3.042  1.00 20.00    -0.046 C 
ENDROOT
BRANCH   3   4
HETATM    4  C7  UNL     1     -33.904  17.006  -4.176  1.00 20.00     0.009 C 
BRANCH   4   5
HETATM    5  C6  UNL     1     -33.554  15.567  -3.768  1.00 20.00     0.004 C 
BRANCH   5   6
HETATM    6  C9  UNL     1     -33.955  14.520  -4.828  1.00 20.00    -0.023 C 
HETATM    7  C1  UNL     1     -33.984  15.101  -6.243  1.00 20.00     0.009 C 
HETATM    8  C2  UNL     1     -35.327  13.934  -4.484  1.00 20.00     0.009 C 
ENDBRANCH   5   6
ENDBRANCH   4   5
ENDBRANCH   3   4
BRANCH   3   9
HETATM    9  C8  UNL     1     -33.237  17.505  -1.707  1.00 20.00     0.028 C 
BRANCH   9  10
HETATM   10  C10 UNL     1     -32.814  18.502  -0.612  1.00 20.00     0.079 C 
HETATM   11  C3  UNL     1     -33.613  18.264   0.668  1.00 20.00     0.026 C 
HETATM   12 CL12 UNL     1     -31.078  18.354  -0.212  1.00 20.00    -0.125 Cl
ENDBRANCH   9  10
ENDBRANCH   3   9
TORSDOF 5
ENDMDL
MODEL 2
REMARK VINA RESULT:      -3.8      1.781      5.041
REMARK  5 active torsions:
REMARK  status: ('A' for Active; 'I' for Inactive)
REMARK    1  A    between atoms: C6_6  and  C7_7 
REMARK    2  A    between atoms: C6_6  and  C9_9 
REMARK    3  A    between atoms: C7_7  and  C11_11 
REMARK    4  A    between atoms: C8_8  and  C10_10 
REMARK    5  A    between atoms: C8_8  and  C11_11 
ROOT
HETATM    1  C4  UNL     1     -33.033  19.070  -3.575  1.00 20.00     0.015 C 
HETATM    2  C5  UNL     1     -35.321  18.504  -2.801  1.00 20.00     0.015 C 
HETATM    3  C11 UNL     1     -33.932  17.905  -3.100  1.00 20.00    -0.046 C 
ENDROOT
BRANCH   3   4
HETATM    4  C7  UNL     1     -33.371  17.319  -1.770  1.00 20.00     0.009 C 
BRANCH   4   5
HETATM    5  C6  UNL     1     -32.199  18.089  -1.146  1.00 20.00     0.004 C 
BRANCH   5   6
HETATM    6  C9  UNL     1     -32.563  18.779   0.184  1.00 20.00    -0.023 C 
HETATM    7  C1  UNL     1     -31.526  18.526   1.279  1.00 20.00     0.009 C 
HETATM    8  C2  UNL     1     -33.938  18.300   0.657  1.00 20.00     0.009 C 
ENDBRANCH   5   6
ENDBRANCH   4   5
ENDBRANCH   3   4
BRANCH   3   9
HETATM    9  C8  UNL     1     -33.994  16.861  -4.259  1.00 20.00     0.028 C 
BRANCH   9  10
HETATM   10  C10 UNL     1     -33.854  15.368  -3.908  1.00 20.00     0.079 C 
HETATM   11  C3  UNL     1     -34.846  14.532  -4.715  1.00 20.00     0.026 C 
HETATM   12 CL12 UNL     1     -32.211  14.755  -4.253  1.00 20.00    -0.125 Cl
ENDBRANCH   9  10
ENDBRANCH   3   9
TORSDOF 5
ENDMDL
MODEL 3
REMARK VINA RESULT:      -3.8     10.976     13.457
REMARK  5 active torsions:
REMARK  status: ('A' for Active; 'I' for Inactive)
REMARK    1  A    between atoms: C6_6  and  C7_7 
REMARK    2  A    between atoms: C6_6  and  C9_9 
REMARK    3  A    between atoms: C7_7  and  C11_11 
REMARK    4  A    between atoms: C8_8  and  C10_10 
REMARK    5  A    between atoms: C8_8  and  C11_11 
ROOT
HETATM    1  C4  UNL     1     -43.071  14.402   5.897  1.00 20.00     0.015 C 
HETATM    2  C5  UNL     1     -42.646  12.199   6.956  1.00 20.00     0.015 C 
HETATM    3  C11 UNL     1     -41.976  13.528   6.553  1.00 20.00    -0.046 C 
ENDROOT
BRANCH   3   4
HETATM    4  C7  UNL     1     -41.465  14.216   7.853  1.00 20.00     0.009 C 
BRANCH   4   5
HETATM    5  C6  UNL     1     -40.358  15.263   7.661  1.00 20.00     0.004 C 
BRANCH   5   6
HETATM    6  C9  UNL     1     -40.703  16.633   8.280  1.00 20.00    -0.023 C 
HETATM    7  C1  UNL     1     -42.028  16.614   9.044  1.00 20.00     0.009 C 
HETATM    8  C2  UNL     1     -40.756  17.699   7.182  1.00 20.00     0.009 C 
ENDBRANCH   5   6
ENDBRANCH   4   5
ENDBRANCH   3   4
BRANCH   3   9
HETATM    9  C8  UNL     1     -40.857  13.306   5.488  1.00 20.00     0.028 C 
BRANCH   9  10
HETATM   10  C10 UNL     1     -40.044  11.998   5.541  1.00 20.00     0.079 C 
HETATM   11  C3  UNL     1     -39.304  11.774   4.224  1.00 20.00     0.026 C 
HETATM   12 CL12 UNL     1     -38.834  12.021   6.856  1.00 20.00    -0.125 Cl
ENDBRANCH   9  10
ENDBRANCH   3   9
TORSDOF 5
ENDMDL
MODEL 4
REMARK VINA RESULT:      -3.7     11.373     13.071
REMARK  5 active torsions:
REMARK  status: ('A' for Active; 'I' for Inactive)
REMARK    1  A    between atoms: C6_6  and  C7_7 
REMARK    2  A    between atoms: C6_6  and  C9_9 
REMARK    3  A    between atoms: C7_7  and  C11_11 
REMARK    4  A    between atoms: C8_8  and  C10_10 
REMARK    5  A    between atoms: C8_8  and  C11_11 
ROOT
HETATM    1  C4  UNL     1     -42.817  12.345   7.057  1.00 20.00     0.015 C 
HETATM    2  C5  UNL     1     -43.138  14.702   6.353  1.00 20.00     0.015 C 
HETATM    3  C11 UNL     1     -42.195  13.760   7.127  1.00 20.00    -0.046 C 
ENDROOT
BRANCH   3   4
HETATM    4  C7  UNL     1     -40.818  13.762   6.399  1.00 20.00     0.009 C 
BRANCH   4   5
HETATM    5  C6  UNL     1     -40.748  12.941   5.103  1.00 20.00     0.004 C 
BRANCH   5   6
HETATM    6  C9  UNL     1     -39.690  11.819   5.150  1.00 20.00    -0.023 C 
HETATM    7  C1  UNL     1     -38.630  12.059   6.227  1.00 20.00     0.009 C 
HETATM    8  C2  UNL     1     -39.016  11.685   3.783  1.00 20.00     0.009 C 
ENDBRANCH   5   6
ENDBRANCH   4   5
ENDBRANCH   3   4
BRANCH   3   9
HETATM    9  C8  UNL     1     -42.099  14.153   8.634  1.00 20.00     0.028 C 
BRANCH   9  10
HETATM   10  C10 UNL     1     -40.775  14.744   9.155  1.00 20.00     0.079 C 
HETATM   11  C3  UNL     1     -40.772  16.264   9.008  1.00 20.00     0.026 C 
HETATM   12 CL12 UNL     1     -40.509  14.358  10.880  1.00 20.00    -0.125 Cl
ENDBRANCH   9  10
ENDBRANCH   3   9
TORSDOF 5
ENDMDL
MODEL 5
REMARK VINA RESULT:      -3.7      2.303      5.414
REMARK  5 active torsions:
REMARK  status: ('A' for Active; 'I' for Inactive)
REMARK    1  A    between atoms: C6_6  and  C7_7 
REMARK    2  A    between atoms: C6_6  and  C9_9 
REMARK    3  A    between atoms: C7_7  and  C11_11 
REMARK    4  A    between atoms: C8_8  and  C10_10 
REMARK    5  A    between atoms: C8_8  and  C11_11 
ROOT
HETATM    1  C4  UNL     1     -32.920  18.619  -3.711  1.00 20.00     0.015 C 
HETATM    2  C5  UNL     1     -35.268  17.955  -3.263  1.00 20.00     0.015 C 
HETATM    3  C11 UNL     1     -33.805  17.487  -3.136  1.00 20.00    -0.046 C 
ENDROOT
BRANCH   3   4
HETATM    4  C7  UNL     1     -33.495  17.298  -1.622  1.00 20.00     0.009 C 
BRANCH   4   5
HETATM    5  C6  UNL     1     -32.304  18.102  -1.080  1.00 20.00     0.004 C 
BRANCH   5   6
HETATM    6  C9  UNL     1     -32.615  18.834   0.242  1.00 20.00    -0.023 C 
HETATM    7  C1  UNL     1     -31.616  18.494   1.348  1.00 20.00     0.009 C 
HETATM    8  C2  UNL     1     -34.033  18.489   0.704  1.00 20.00     0.009 C 
ENDBRANCH   5   6
ENDBRANCH   4   5
ENDBRANCH   3   4
BRANCH   3   9
HETATM    9  C8  UNL     1     -33.535  16.208  -3.988  1.00 20.00     0.028 C 
BRANCH   9  10
HETATM   10  C10 UNL     1     -34.676  15.656  -4.864  1.00 20.00     0.079 C 
HETATM   11  C3  UNL     1     -34.279  15.676  -6.338  1.00 20.00     0.026 C 
HETATM   12 CL12 UNL     1     -35.093  13.973  -4.429  1.00 20.00    -0.125 Cl
ENDBRANCH   9  10
ENDBRANCH   3   9
TORSDOF 5
ENDMDL
MODEL 6
REMARK VINA RESULT:      -3.6      2.870      5.371
REMARK  5 active torsions:
REMARK  status: ('A' for Active; 'I' for Inactive)
REMARK    1  A    between atoms: C6_6  and  C7_7 
REMARK    2  A    between atoms: C6_6  and  C9_9 
REMARK    3  A    between atoms: C7_7  and  C11_11 
REMARK    4  A    between atoms: C8_8  and  C10_10 
REMARK    5  A    between atoms: C8_8  and  C11_11 
ROOT
HETATM    1  C4  UNL     1     -34.473  14.193  -4.220  1.00 20.00     0.015 C 
HETATM    2  C5  UNL     1     -33.872  15.246  -6.385  1.00 20.00     0.015 C 
HETATM    3  C11 UNL     1     -34.663  15.466  -5.080  1.00 20.00    -0.046 C 
ENDROOT
BRANCH   3   4
HETATM    4  C7  UNL     1     -34.040  16.690  -4.347  1.00 20.00     0.009 C 
BRANCH   4   5
HETATM    5  C6  UNL     1     -33.330  16.382  -3.020  1.00 20.00     0.004 C 
BRANCH   5   6
HETATM    6  C9  UNL     1     -33.722  17.347  -1.882  1.00 20.00    -0.023 C 
HETATM    7  C1  UNL     1     -34.749  18.390  -2.327  1.00 20.00     0.009 C 
HETATM    8  C2  UNL     1     -32.472  18.050  -1.347  1.00 20.00     0.009 C 
ENDBRANCH   5   6
ENDBRANCH   4   5
ENDBRANCH   3   4
BRANCH   3   9
HETATM    9  C8  UNL     1     -36.192  15.619  -5.354  1.00 20.00     0.028 C 
BRANCH   9  10
HETATM   10  C10 UNL     1     -36.730  17.009  -5.743  1.00 20.00     0.079 C 
HETATM   11  C3  UNL     1     -37.631  16.910  -6.972  1.00 20.00     0.026 C 
HETATM   12 CL12 UNL     1     -37.682  17.747  -4.422  1.00 20.00    -0.125 Cl
ENDBRANCH   9  10
ENDBRANCH   3   9
TORSDOF 5
ENDMDL
MODEL 7
REMARK VINA RESULT:      -3.5     10.878     12.733
REMARK  5 active torsions:
REMARK  status: ('A' for Active; 'I' for Inactive)
REMARK    1  A    between atoms: C6_6  and  C7_7 
REMARK    2  A    between atoms: C6_6  and  C9_9 
REMARK    3  A    between atoms: C7_7  and  C11_11 
REMARK    4  A    between atoms: C8_8  and  C10_10 
REMARK    5  A    between atoms: C8_8  and  C11_11 
ROOT
HETATM    1  C4  UNL     1     -41.371  14.142   8.858  1.00 20.00     0.015 C 
HETATM    2  C5  UNL     1     -42.764  12.938   7.194  1.00 20.00     0.015 C 
HETATM    3  C11 UNL     1     -41.850  14.165   7.387  1.00 20.00    -0.046 C 
ENDROOT
BRANCH   3   4
HETATM    4  C7  UNL     1     -40.629  14.002   6.435  1.00 20.00     0.009 C 
BRANCH   4   5
HETATM    5  C6  UNL     1     -40.816  13.013   5.275  1.00 20.00     0.004 C 
BRANCH   5   6
HETATM    6  C9  UNL     1     -39.812  11.842   5.306  1.00 20.00    -0.023 C 
HETATM    7  C1  UNL     1     -38.818  11.954   6.464  1.00 20.00     0.009 C 
HETATM    8  C2  UNL     1     -39.052  11.775   3.979  1.00 20.00     0.009 C 
ENDBRANCH   5   6
ENDBRANCH   4   5
ENDBRANCH   3   4
BRANCH   3   9
HETATM    9  C8  UNL     1     -42.629  15.500   7.172  1.00 20.00     0.028 C 
BRANCH   9  10
HETATM   10  C10 UNL     1     -41.910  16.661   6.458  1.00 20.00     0.079 C 
HETATM   11  C3  UNL     1     -42.920  17.697   5.968  1.00 20.00     0.026 C 
HETATM   12 CL12 UNL     1     -40.752  17.490   7.538  1.00 20.00    -0.125 Cl
ENDBRANCH   9  10
ENDBRANCH   3   9
TORSDOF 5
ENDMDL
MODEL 8
REMARK VINA RESULT:      -3.5     10.547     12.306
REMARK  5 active torsions:
REMARK  status: ('A' for Active; 'I' for Inactive)
REMARK    1  A    between atoms: C6_6  and  C7_7 
REMARK    2  A    between atoms: C6_6  and  C9_9 
REMARK    3  A    between atoms: C7_7  and  C11_11 
REMARK    4  A    between atoms: C8_8  and  C10_10 
REMARK    5  A    between atoms: C8_8  and  C11_11 
ROOT
HETATM    1  C4  UNL     1     -42.336  12.349   6.781  1.00 20.00     0.015 C 
HETATM    2  C5  UNL     1     -41.344  14.579   7.226  1.00 20.00     0.015 C 
HETATM    3  C11 UNL     1     -41.853  13.653   6.103  1.00 20.00    -0.046 C 
ENDROOT
BRANCH   3   4
HETATM    4  C7  UNL     1     -43.055  14.361   5.412  1.00 20.00     0.009 C 
BRANCH   4   5
HETATM    5  C6  UNL     1     -42.907  14.603   3.902  1.00 20.00     0.004 C 
BRANCH   5   6
HETATM    6  C9  UNL     1     -43.074  16.084   3.505  1.00 20.00    -0.023 C 
HETATM    7  C1  UNL     1     -42.215  16.467   2.298  1.00 20.00     0.009 C 
HETATM    8  C2  UNL     1     -42.722  16.982   4.693  1.00 20.00     0.009 C 
ENDBRANCH   5   6
ENDBRANCH   4   5
ENDBRANCH   3   4
BRANCH   3   9
HETATM    9  C8  UNL     1     -40.708  13.268   5.114  1.00 20.00     0.028 C 
BRANCH   9  10
HETATM   10  C10 UNL     1     -39.962  11.939   5.338  1.00 20.00     0.079 C 
HETATM   11  C3  UNL     1     -39.167  11.553   4.093  1.00 20.00     0.026 C 
HETATM   12 CL12 UNL     1     -38.820  12.042   6.709  1.00 20.00    -0.125 Cl
ENDBRANCH   9  10
ENDBRANCH   3   9
TORSDOF 5
ENDMDL
MODEL 9
REMARK VINA RESULT:      -3.5     11.679     13.345
REMARK  5 active torsions:
REMARK  status: ('A' for Active; 'I' for Inactive)
REMARK    1  A    between atoms: C6_6  and  C7_7 
REMARK    2  A    between atoms: C6_6  and  C9_9 
REMARK    3  A    between atoms: C7_7  and  C11_11 
REMARK    4  A    between atoms: C8_8  and  C10_10 
REMARK    5  A    between atoms: C8_8  and  C11_11 
ROOT
HETATM    1  C4  UNL     1     -43.114  14.927   6.378  1.00 20.00     0.015 C 
HETATM    2  C5  UNL     1     -40.762  14.996   7.166  1.00 20.00     0.015 C 
HETATM    3  C11 UNL     1     -42.045  14.140   7.173  1.00 20.00    -0.046 C 
ENDROOT
BRANCH   3   4
HETATM    4  C7  UNL     1     -41.728  12.802   6.442  1.00 20.00     0.009 C 
BRANCH   4   5
HETATM    5  C6  UNL     1     -40.766  12.906   5.250  1.00 20.00     0.004 C 
BRANCH   5   6
HETATM    6  C9  UNL     1     -39.681  11.809   5.246  1.00 20.00    -0.023 C 
HETATM    7  C1  UNL     1     -38.615  12.036   6.320  1.00 20.00     0.009 C 
HETATM    8  C2  UNL     1     -39.017  11.742   3.868  1.00 20.00     0.009 C 
ENDBRANCH   5   6
ENDBRANCH   4   5
ENDBRANCH   3   4
BRANCH   3   9
HETATM    9  C8  UNL     1     -42.594  13.941   8.620  1.00 20.00     0.028 C 
BRANCH   9  10
HETATM   10  C10 UNL     1     -42.079  14.872   9.734  1.00 20.00     0.079 C 
HETATM   11  C3  UNL     1     -43.216  15.261  10.676  1.00 20.00     0.026 C 
HETATM   12 CL12 UNL     1     -40.798  14.095  10.710  1.00 20.00    -0.125 Cl
ENDBRANCH   9  10
ENDBRANCH   3   9
TORSDOF 5
ENDMDL
