MODEL 1
REMARK VINA RESULT:      -4.8      0.000      0.000
REMARK  4 active torsions:
REMARK  status: ('A' for Active; 'I' for Inactive)
REMARK    1  A    between atoms: C5_5  and  C7_7 
REMARK    2  A    between atoms: C6_6  and  C8_8 
REMARK    3  A    between atoms: C7_7  and  C8_8 
REMARK    4  A    between atoms: C8_8  and  O9_9 
ROOT
HETATM    1  C8  UNL     1     -32.987   8.140   4.535  1.00 20.00     0.122 C 
ENDROOT
BRANCH   1   2
HETATM    2  C6  UNL     1     -32.067   7.479   3.518  1.00 20.00     0.014 A 
HETATM    3  C3  UNL     1     -32.605   6.446   2.566  1.00 20.00     0.007 A 
HETATM    4  C4  UNL     1     -32.200   7.801   2.055  1.00 20.00     0.007 A 
ENDBRANCH   1   2
BRANCH   1   5
HETATM    5  C7  UNL     1     -33.225   7.228   5.740  1.00 20.00     0.036 C 
BRANCH   5   6
HETATM    6  C5  UNL     1     -34.542   6.469   5.638  1.00 20.00    -0.012 A 
HETATM    7  C1  UNL     1     -34.568   5.064   5.102  1.00 20.00     0.005 A 
HETATM    8  C2  UNL     1     -34.824   5.316   6.562  1.00 20.00     0.005 A 
ENDBRANCH   5   6
ENDBRANCH   1   5
BRANCH   1   9
HETATM    9  O9  UNL     1     -32.386   9.353   4.979  1.00 20.00    -0.395 OA
HETATM   10  H23 UNL     1     -31.460   9.324   4.694  1.00 20.00     0.210 HD
ENDBRANCH   1   9
TORSDOF 4
ENDMDL
MODEL 2
REMARK VINA RESULT:      -4.3      1.686      2.231
REMARK  4 active torsions:
REMARK  status: ('A' for Active; 'I' for Inactive)
REMARK    1  A    between atoms: C5_5  and  C7_7 
REMARK    2  A    between atoms: C6_6  and  C8_8 
REMARK    3  A    between atoms: C7_7  and  C8_8 
REMARK    4  A    between atoms: C8_8  and  O9_9 
ROOT
HETATM    1  C8  UNL     1     -32.869   6.563   3.734  1.00 20.00     0.122 C 
ENDROOT
BRANCH   1   2
HETATM    2  C6  UNL     1     -33.238   8.018   3.989  1.00 20.00     0.014 A 
HETATM    3  C3  UNL     1     -32.301   8.917   4.747  1.00 20.00     0.007 A 
HETATM    4  C4  UNL     1     -32.511   9.121   3.272  1.00 20.00     0.007 A 
ENDBRANCH   1   2
BRANCH   1   5
HETATM    5  C7  UNL     1     -34.070   5.641   3.950  1.00 20.00     0.036 C 
BRANCH   5   6
HETATM    6  C5  UNL     1     -34.855   6.001   5.205  1.00 20.00    -0.012 A 
HETATM    7  C1  UNL     1     -34.874   5.064   6.382  1.00 20.00     0.005 A 
HETATM    8  C2  UNL     1     -34.131   6.368   6.471  1.00 20.00     0.005 A 
ENDBRANCH   5   6
ENDBRANCH   1   5
BRANCH   1   9
HETATM    9  O9  UNL     1     -32.416   6.433   2.389  1.00 20.00    -0.395 OA
HETATM   10  H23 UNL     1     -32.562   7.291   1.964  1.00 20.00     0.210 HD
ENDBRANCH   1   9
TORSDOF 4
ENDMDL
MODEL 3
REMARK VINA RESULT:      -4.3      0.999      3.768
REMARK  4 active torsions:
REMARK  status: ('A' for Active; 'I' for Inactive)
REMARK    1  A    between atoms: C5_5  and  C7_7 
REMARK    2  A    between atoms: C6_6  and  C8_8 
REMARK    3  A    between atoms: C7_7  and  C8_8 
REMARK    4  A    between atoms: C8_8  and  O9_9 
ROOT
HETATM    1  C8  UNL     1     -33.635   7.179   5.606  1.00 20.00     0.122 C 
ENDROOT
BRANCH   1   2
HETATM    2  C6  UNL     1     -34.739   6.165   5.344  1.00 20.00     0.014 A 
HETATM    3  C3  UNL     1     -34.407   4.810   4.783  1.00 20.00     0.007 A 
HETATM    4  C4  UNL     1     -34.864   4.941   6.209  1.00 20.00     0.007 A 
ENDBRANCH   1   2
BRANCH   1   5
HETATM    5  C7  UNL     1     -33.441   8.109   4.407  1.00 20.00     0.036 C 
BRANCH   5   6
HETATM    6  C5  UNL     1     -32.229   7.724   3.568  1.00 20.00    -0.012 A 
HETATM    7  C1  UNL     1     -32.330   6.621   2.551  1.00 20.00     0.005 A 
HETATM    8  C2  UNL     1     -32.191   8.048   2.100  1.00 20.00     0.005 A 
ENDBRANCH   5   6
ENDBRANCH   1   5
BRANCH   1   9
HETATM    9  O9  UNL     1     -33.985   7.956   6.747  1.00 20.00    -0.395 OA
HETATM   10  H23 UNL     1     -34.388   7.347   7.385  1.00 20.00     0.210 HD
ENDBRANCH   1   9
TORSDOF 4
ENDMDL
MODEL 4
REMARK VINA RESULT:      -4.2      9.218     10.255
REMARK  4 active torsions:
REMARK  status: ('A' for Active; 'I' for Inactive)
REMARK    1  A    between atoms: C5_5  and  C7_7 
REMARK    2  A    between atoms: C6_6  and  C8_8 
REMARK    3  A    between atoms: C7_7  and  C8_8 
REMARK    4  A    between atoms: C8_8  and  O9_9 
ROOT
HETATM    1  C8  UNL     1     -41.423  13.386   6.629  1.00 20.00     0.122 C 
ENDROOT
BRANCH   1   2
HETATM    2  C6  UNL     1     -40.412  13.969   7.607  1.00 20.00     0.014 A 
HETATM    3  C3  UNL     1     -40.447  15.433   7.952  1.00 20.00     0.007 A 
HETATM    4  C4  UNL     1     -40.851  14.409   8.977  1.00 20.00     0.007 A 
ENDBRANCH   1   2
BRANCH   1   5
HETATM    5  C7  UNL     1     -40.790  13.147   5.257  1.00 20.00     0.036 C 
BRANCH   5   6
HETATM    6  C5  UNL     1     -39.915  11.900   5.235  1.00 20.00    -0.012 A 
HETATM    7  C1  UNL     1     -39.016  11.626   4.060  1.00 20.00     0.005 A 
HETATM    8  C2  UNL     1     -38.423  12.020   5.384  1.00 20.00     0.005 A 
ENDBRANCH   5   6
ENDBRANCH   1   5
BRANCH   1   9
HETATM    9  O9  UNL     1     -41.900  12.147   7.145  1.00 20.00    -0.395 OA
HETATM   10  H23 UNL     1     -42.851  12.259   7.299  1.00 20.00     0.210 HD
ENDBRANCH   1   9
TORSDOF 4
ENDMDL
MODEL 5
REMARK VINA RESULT:      -4.0     11.953     12.901
REMARK  4 active torsions:
REMARK  status: ('A' for Active; 'I' for Inactive)
REMARK    1  A    between atoms: C5_5  and  C7_7 
REMARK    2  A    between atoms: C6_6  and  C8_8 
REMARK    3  A    between atoms: C7_7  and  C8_8 
REMARK    4  A    between atoms: C8_8  and  O9_9 
ROOT
HETATM    1  C8  UNL     1     -33.687  14.670  -4.834  1.00 20.00     0.122 C 
ENDROOT
BRANCH   1   2
HETATM    2  C6  UNL     1     -34.661  15.538  -5.618  1.00 20.00     0.014 A 
HETATM    3  C3  UNL     1     -34.567  15.622  -7.116  1.00 20.00     0.007 A 
HETATM    4  C4  UNL     1     -35.721  14.904  -6.474  1.00 20.00     0.007 A 
ENDBRANCH   1   2
BRANCH   1   5
HETATM    5  C7  UNL     1     -32.892  15.501  -3.825  1.00 20.00     0.036 C 
BRANCH   5   6
HETATM    6  C5  UNL     1     -33.721  16.633  -3.230  1.00 20.00    -0.012 A 
HETATM    7  C1  UNL     1     -33.503  17.064  -1.806  1.00 20.00     0.005 A 
HETATM    8  C2  UNL     1     -33.084  17.963  -2.936  1.00 20.00     0.005 A 
ENDBRANCH   5   6
ENDBRANCH   1   5
BRANCH   1   9
HETATM    9  O9  UNL     1     -34.421  13.668  -4.137  1.00 20.00    -0.395 OA
HETATM   10  H23 UNL     1     -33.846  12.889  -4.084  1.00 20.00     0.210 HD
ENDBRANCH   1   9
TORSDOF 4
ENDMDL
MODEL 6
REMARK VINA RESULT:      -4.0      1.162      4.201
REMARK  4 active torsions:
REMARK  status: ('A' for Active; 'I' for Inactive)
REMARK    1  A    between atoms: C5_5  and  C7_7 
REMARK    2  A    between atoms: C6_6  and  C8_8 
REMARK    3  A    between atoms: C7_7  and  C8_8 
REMARK    4  A    between atoms: C8_8  and  O9_9 
ROOT
HETATM    1  C8  UNL     1     -32.615   7.249   4.282  1.00 20.00     0.122 C 
ENDROOT
BRANCH   1   2
HETATM    2  C6  UNL     1     -34.002   7.255   4.910  1.00 20.00     0.014 A 
HETATM    3  C3  UNL     1     -34.644   5.966   5.345  1.00 20.00     0.007 A 
HETATM    4  C4  UNL     1     -34.172   6.956   6.373  1.00 20.00     0.007 A 
ENDBRANCH   1   2
BRANCH   1   5
HETATM    5  C7  UNL     1     -32.699   7.184   2.756  1.00 20.00     0.036 C 
BRANCH   5   6
HETATM    6  C5  UNL     1     -32.096   8.415   2.092  1.00 20.00    -0.012 A 
HETATM    7  C1  UNL     1     -32.245   8.627   0.610  1.00 20.00     0.005 A 
HETATM    8  C2  UNL     1     -32.989   9.509   1.573  1.00 20.00     0.005 A 
ENDBRANCH   5   6
ENDBRANCH   1   5
BRANCH   1   9
HETATM    9  O9  UNL     1     -31.933   8.440   4.661  1.00 20.00    -0.395 OA
HETATM   10  H23 UNL     1     -32.531   9.177   4.463  1.00 20.00     0.210 HD
ENDBRANCH   1   9
TORSDOF 4
ENDMDL
MODEL 7
REMARK VINA RESULT:      -4.0      2.047      4.255
REMARK  4 active torsions:
REMARK  status: ('A' for Active; 'I' for Inactive)
REMARK    1  A    between atoms: C5_5  and  C7_7 
REMARK    2  A    between atoms: C6_6  and  C8_8 
REMARK    3  A    between atoms: C7_7  and  C8_8 
REMARK    4  A    between atoms: C8_8  and  O9_9 
ROOT
HETATM    1  C8  UNL     1     -34.068   5.770   4.085  1.00 20.00     0.122 C 
ENDROOT
BRANCH   1   2
HETATM    2  C6  UNL     1     -33.547   6.301   5.413  1.00 20.00     0.014 A 
HETATM    3  C3  UNL     1     -34.254   7.431   6.109  1.00 20.00     0.007 A 
HETATM    4  C4  UNL     1     -34.309   6.042   6.683  1.00 20.00     0.007 A 
ENDBRANCH   1   2
BRANCH   1   5
HETATM    5  C7  UNL     1     -32.991   5.842   3.000  1.00 20.00     0.036 C 
BRANCH   5   6
HETATM    6  C5  UNL     1     -32.191   7.136   3.066  1.00 20.00    -0.012 A 
HETATM    7  C1  UNL     1     -32.021   7.986   1.837  1.00 20.00     0.005 A 
HETATM    8  C2  UNL     1     -32.889   8.464   2.967  1.00 20.00     0.005 A 
ENDBRANCH   5   6
ENDBRANCH   1   5
BRANCH   1   9
HETATM    9  O9  UNL     1     -34.468   4.414   4.256  1.00 20.00    -0.395 OA
HETATM   10  H23 UNL     1     -33.928   3.887   3.647  1.00 20.00     0.210 HD
ENDBRANCH   1   9
TORSDOF 4
ENDMDL
MODEL 8
REMARK VINA RESULT:      -4.0     11.795     12.662
REMARK  4 active torsions:
REMARK  status: ('A' for Active; 'I' for Inactive)
REMARK    1  A    between atoms: C5_5  and  C7_7 
REMARK    2  A    between atoms: C6_6  and  C8_8 
REMARK    3  A    between atoms: C7_7  and  C8_8 
REMARK    4  A    between atoms: C8_8  and  O9_9 
ROOT
HETATM    1  C8  UNL     1     -33.712  16.788  -3.429  1.00 20.00     0.122 C 
ENDROOT
BRANCH   1   2
HETATM    2  C6  UNL     1     -33.299  15.423  -3.962  1.00 20.00     0.014 A 
HETATM    3  C3  UNL     1     -34.323  14.336  -4.140  1.00 20.00     0.007 A 
HETATM    4  C4  UNL     1     -33.709  14.994  -5.344  1.00 20.00     0.007 A 
ENDBRANCH   1   2
BRANCH   1   5
HETATM    5  C7  UNL     1     -33.341  16.941  -1.952  1.00 20.00     0.036 C 
BRANCH   5   6
HETATM    6  C5  UNL     1     -32.697  18.290  -1.656  1.00 20.00    -0.012 A 
HETATM    7  C1  UNL     1     -32.944  18.974  -0.340  1.00 20.00     0.005 A 
HETATM    8  C2  UNL     1     -31.591  18.394  -0.643  1.00 20.00     0.005 A 
ENDBRANCH   5   6
ENDBRANCH   1   5
BRANCH   1   9
HETATM    9  O9  UNL     1     -33.049  17.797  -4.184  1.00 20.00    -0.395 OA
HETATM   10  H23 UNL     1     -32.537  17.339  -4.868  1.00 20.00     0.210 HD
ENDBRANCH   1   9
TORSDOF 4
ENDMDL
MODEL 9
REMARK VINA RESULT:      -4.0     11.792     12.604
REMARK  4 active torsions:
REMARK  status: ('A' for Active; 'I' for Inactive)
REMARK    1  A    between atoms: C5_5  and  C7_7 
REMARK    2  A    between atoms: C6_6  and  C8_8 
REMARK    3  A    between atoms: C7_7  and  C8_8 
REMARK    4  A    between atoms: C8_8  and  O9_9 
ROOT
HETATM    1  C8  UNL     1     -34.159  17.952  -2.819  1.00 20.00     0.122 C 
ENDROOT
BRANCH   1   2
HETATM    2  C6  UNL     1     -33.510  17.394  -1.560  1.00 20.00     0.014 A 
HETATM    3  C3  UNL     1     -32.406  18.151  -0.874  1.00 20.00     0.007 A 
HETATM    4  C4  UNL     1     -33.759  18.045  -0.227  1.00 20.00     0.007 A 
ENDBRANCH   1   2
BRANCH   1   5
HETATM    5  C7  UNL     1     -33.988  16.995  -4.000  1.00 20.00     0.036 C 
BRANCH   5   6
HETATM    6  C5  UNL     1     -33.609  15.589  -3.553  1.00 20.00    -0.012 A 
HETATM    7  C1  UNL     1     -34.275  14.391  -4.174  1.00 20.00     0.005 A 
HETATM    8  C2  UNL     1     -32.831  14.687  -4.470  1.00 20.00     0.005 A 
ENDBRANCH   5   6
ENDBRANCH   1   5
BRANCH   1   9
HETATM    9  O9  UNL     1     -35.548  18.147  -2.573  1.00 20.00    -0.395 OA
HETATM   10  H23 UNL     1     -35.798  17.518  -1.879  1.00 20.00     0.210 HD
ENDBRANCH   1   9
TORSDOF 4
ENDMDL
