MODEL 1
REMARK VINA RESULT:      -4.0      0.000      0.000
REMARK  2 active torsions:
REMARK  status: ('A' for Active; 'I' for Inactive)
REMARK    1  A    between atoms: C5_5  and  C6_6 
REMARK    2  A    between atoms: C6_6  and  C7_7 
ROOT
HETATM    1  C1  UNL     1     -33.597   6.613   6.530  1.00 20.00     0.027 C 
HETATM    2  C2  UNL     1     -34.024   7.570   5.421  1.00 20.00     0.009 C 
HETATM    3  C3  UNL     1     -34.561   5.439   6.635  1.00 20.00     0.167 C 
HETATM    4  C4  UNL     1     -35.241   5.640   4.376  1.00 20.00     0.172 C 
HETATM    5  C5  UNL     1     -34.319   6.834   4.106  1.00 20.00     0.010 C 
HETATM    6  O8  UNL     1     -34.697   4.779   5.377  1.00 20.00    -0.391 OA
ENDROOT
BRANCH   5   7
HETATM    7  C6  UNL     1     -33.025   6.381   3.423  1.00 20.00     0.021 C 
BRANCH   7   8
HETATM    8  C7  UNL     1     -32.049   7.521   3.162  1.00 20.00     0.115 C 
HETATM    9 CL9  UNL     1     -32.109   8.078   1.474  1.00 20.00    -0.130 Cl
ENDBRANCH   7   8
ENDBRANCH   5   7
TORSDOF 2
ENDMDL
MODEL 2
REMARK VINA RESULT:      -3.9      1.147      1.453
REMARK  2 active torsions:
REMARK  status: ('A' for Active; 'I' for Inactive)
REMARK    1  A    between atoms: C5_5  and  C6_6 
REMARK    2  A    between atoms: C6_6  and  C7_7 
ROOT
HETATM    1  C1  UNL     1     -33.919   5.426   6.494  1.00 20.00     0.027 C 
HETATM    2  C2  UNL     1     -34.306   6.898   6.605  1.00 20.00     0.009 C 
HETATM    3  C3  UNL     1     -34.600   4.774   5.298  1.00 20.00     0.167 C 
HETATM    4  C4  UNL     1     -34.822   6.834   4.150  1.00 20.00     0.172 C 
HETATM    5  C5  UNL     1     -34.151   7.637   5.269  1.00 20.00     0.010 C 
HETATM    6  O8  UNL     1     -34.322   5.497   4.099  1.00 20.00    -0.391 OA
ENDROOT
BRANCH   5   7
HETATM    7  C6  UNL     1     -32.676   7.895   4.946  1.00 20.00     0.021 C 
BRANCH   7   8
HETATM    8  C7  UNL     1     -32.464   8.617   3.621  1.00 20.00     0.115 C 
HETATM    9 CL9  UNL     1     -32.090   7.488   2.299  1.00 20.00    -0.130 Cl
ENDBRANCH   7   8
ENDBRANCH   5   7
TORSDOF 2
ENDMDL
MODEL 3
REMARK VINA RESULT:      -3.6     12.304     12.881
REMARK  2 active torsions:
REMARK  status: ('A' for Active; 'I' for Inactive)
REMARK    1  A    between atoms: C5_5  and  C6_6 
REMARK    2  A    between atoms: C6_6  and  C7_7 
ROOT
HETATM    1  C1  UNL     1     -31.344  18.511  -0.346  1.00 20.00     0.027 C 
HETATM    2  C2  UNL     1     -32.112  18.933  -1.595  1.00 20.00     0.009 C 
HETATM    3  C3  UNL     1     -32.169  18.759   0.909  1.00 20.00     0.167 C 
HETATM    4  C4  UNL     1     -34.220  18.626  -0.267  1.00 20.00     0.172 C 
HETATM    5  C5  UNL     1     -33.538  18.364  -1.614  1.00 20.00     0.010 C 
HETATM    6  O8  UNL     1     -33.441  18.118   0.817  1.00 20.00    -0.391 OA
ENDROOT
BRANCH   5   7
HETATM    7  C6  UNL     1     -33.533  16.867  -1.941  1.00 20.00     0.021 C 
BRANCH   7   8
HETATM    8  C7  UNL     1     -33.290  16.573  -3.416  1.00 20.00     0.115 C 
HETATM    9 CL9  UNL     1     -33.770  14.917  -3.854  1.00 20.00    -0.130 Cl
ENDBRANCH   7   8
ENDBRANCH   5   7
TORSDOF 2
ENDMDL
MODEL 4
REMARK VINA RESULT:      -3.6      9.313      9.942
REMARK  2 active torsions:
REMARK  status: ('A' for Active; 'I' for Inactive)
REMARK    1  A    between atoms: C5_5  and  C6_6 
REMARK    2  A    between atoms: C6_6  and  C7_7 
ROOT
HETATM    1  C1  UNL     1     -40.510  14.278   8.238  1.00 20.00     0.027 C 
HETATM    2  C2  UNL     1     -40.498  14.383   6.716  1.00 20.00     0.009 C 
HETATM    3  C3  UNL     1     -41.900  13.924   8.749  1.00 20.00     0.167 C 
HETATM    4  C4  UNL     1     -42.516  12.890   6.709  1.00 20.00     0.172 C 
HETATM    5  C5  UNL     1     -41.162  13.169   6.050  1.00 20.00     0.010 C 
HETATM    6  O8  UNL     1     -42.384  12.737   8.123  1.00 20.00    -0.391 OA
ENDROOT
BRANCH   5   7
HETATM    7  C6  UNL     1     -40.257  11.935   6.120  1.00 20.00     0.021 C 
BRANCH   7   8
HETATM    8  C7  UNL     1     -38.899  12.144   5.462  1.00 20.00     0.115 C 
HETATM    9 CL9  UNL     1     -38.905  11.660   3.751  1.00 20.00    -0.130 Cl
ENDBRANCH   7   8
ENDBRANCH   5   7
TORSDOF 2
ENDMDL
MODEL 5
REMARK VINA RESULT:      -3.5      2.718      4.056
REMARK  2 active torsions:
REMARK  status: ('A' for Active; 'I' for Inactive)
REMARK    1  A    between atoms: C5_5  and  C6_6 
REMARK    2  A    between atoms: C6_6  and  C7_7 
ROOT
HETATM    1  C1  UNL     1     -33.162   6.346   3.195  1.00 20.00     0.027 C 
HETATM    2  C2  UNL     1     -34.259   7.191   3.837  1.00 20.00     0.009 C 
HETATM    3  C3  UNL     1     -31.953   7.202   2.843  1.00 20.00     0.167 C 
HETATM    4  C4  UNL     1     -32.466   8.820   4.494  1.00 20.00     0.172 C 
HETATM    5  C5  UNL     1     -33.717   8.075   4.969  1.00 20.00     0.010 C 
HETATM    6  O8  UNL     1     -31.485   7.916   3.986  1.00 20.00    -0.391 OA
ENDROOT
BRANCH   5   7
HETATM    7  C6  UNL     1     -33.416   7.246   6.222  1.00 20.00     0.021 C 
BRANCH   7   8
HETATM    8  C7  UNL     1     -34.592   6.393   6.679  1.00 20.00     0.115 C 
HETATM    9 CL9  UNL     1     -34.464   4.715   6.102  1.00 20.00    -0.130 Cl
ENDBRANCH   7   8
ENDBRANCH   5   7
TORSDOF 2
ENDMDL
MODEL 6
REMARK VINA RESULT:      -3.4     12.476     13.098
REMARK  2 active torsions:
REMARK  status: ('A' for Active; 'I' for Inactive)
REMARK    1  A    between atoms: C5_5  and  C6_6 
REMARK    2  A    between atoms: C6_6  and  C7_7 
ROOT
HETATM    1  C1  UNL     1     -33.635  18.242   0.254  1.00 20.00     0.027 C 
HETATM    2  C2  UNL     1     -32.473  18.184  -0.734  1.00 20.00     0.009 C 
HETATM    3  C3  UNL     1     -34.707  19.211  -0.225  1.00 20.00     0.167 C 
HETATM    4  C4  UNL     1     -34.076  18.977  -2.495  1.00 20.00     0.172 C 
HETATM    5  C5  UNL     1     -32.954  17.983  -2.178  1.00 20.00     0.010 C 
HETATM    6  O8  UNL     1     -35.138  18.882  -1.545  1.00 20.00    -0.391 OA
ENDROOT
BRANCH   5   7
HETATM    7  C6  UNL     1     -33.419  16.542  -2.411  1.00 20.00     0.021 C 
BRANCH   7   8
HETATM    8  C7  UNL     1     -33.644  16.211  -3.881  1.00 20.00     0.115 C 
HETATM    9 CL9  UNL     1     -33.877  14.467  -4.143  1.00 20.00    -0.130 Cl
ENDBRANCH   7   8
ENDBRANCH   5   7
TORSDOF 2
ENDMDL
MODEL 7
REMARK VINA RESULT:      -3.4     12.476     13.608
REMARK  2 active torsions:
REMARK  status: ('A' for Active; 'I' for Inactive)
REMARK    1  A    between atoms: C5_5  and  C6_6 
REMARK    2  A    between atoms: C6_6  and  C7_7 
ROOT
HETATM    1  C1  UNL     1     -36.007  17.203  -5.210  1.00 20.00     0.027 C 
HETATM    2  C2  UNL     1     -34.714  16.745  -5.879  1.00 20.00     0.009 C 
HETATM    3  C3  UNL     1     -37.186  16.355  -5.669  1.00 20.00     0.167 C 
HETATM    4  C4  UNL     1     -35.803  14.508  -6.204  1.00 20.00     0.172 C 
HETATM    5  C5  UNL     1     -34.519  15.226  -5.778  1.00 20.00     0.010 C 
HETATM    6  O8  UNL     1     -36.929  14.968  -5.454  1.00 20.00    -0.391 OA
ENDROOT
BRANCH   5   7
HETATM    7  C6  UNL     1     -34.107  14.814  -4.361  1.00 20.00     0.021 C 
BRANCH   7   8
HETATM    8  C7  UNL     1     -33.000  15.683  -3.777  1.00 20.00     0.115 C 
HETATM    9 CL9  UNL     1     -33.519  16.518  -2.295  1.00 20.00    -0.130 Cl
ENDBRANCH   7   8
ENDBRANCH   5   7
TORSDOF 2
ENDMDL
MODEL 8
REMARK VINA RESULT:      -3.4     12.760     13.621
REMARK  2 active torsions:
REMARK  status: ('A' for Active; 'I' for Inactive)
REMARK    1  A    between atoms: C5_5  and  C6_6 
REMARK    2  A    between atoms: C6_6  and  C7_7 
ROOT
HETATM    1  C1  UNL     1     -33.590  17.047  -3.697  1.00 20.00     0.027 C 
HETATM    2  C2  UNL     1     -33.390  16.651  -2.237  1.00 20.00     0.009 C 
HETATM    3  C3  UNL     1     -34.831  17.915  -3.860  1.00 20.00     0.167 C 
HETATM    4  C4  UNL     1     -34.742  18.673  -1.618  1.00 20.00     0.172 C 
HETATM    5  C5  UNL     1     -33.486  17.858  -1.294  1.00 20.00     0.010 C 
HETATM    6  O8  UNL     1     -34.776  19.049  -2.996  1.00 20.00    -0.391 OA
ENDROOT
BRANCH   5   7
HETATM    7  C6  UNL     1     -32.230  18.731  -1.384  1.00 20.00     0.021 C 
BRANCH   7   8
HETATM    8  C7  UNL     1     -31.250  18.498  -0.241  1.00 20.00     0.115 C 
HETATM    9 CL9  UNL     1     -32.057  18.509   1.344  1.00 20.00    -0.130 Cl
ENDBRANCH   7   8
ENDBRANCH   5   7
TORSDOF 2
ENDMDL
MODEL 9
REMARK VINA RESULT:      -3.4      1.269      1.636
REMARK  2 active torsions:
REMARK  status: ('A' for Active; 'I' for Inactive)
REMARK    1  A    between atoms: C5_5  and  C6_6 
REMARK    2  A    between atoms: C6_6  and  C7_7 
ROOT
HETATM    1  C1  UNL     1     -33.767   7.710   5.401  1.00 20.00     0.027 C 
HETATM    2  C2  UNL     1     -34.646   7.107   4.309  1.00 20.00     0.009 C 
HETATM    3  C3  UNL     1     -34.070   7.080   6.753  1.00 20.00     0.167 C 
HETATM    4  C4  UNL     1     -34.886   5.083   5.774  1.00 20.00     0.172 C 
HETATM    5  C5  UNL     1     -34.637   5.572   4.343  1.00 20.00     0.010 C 
HETATM    6  O8  UNL     1     -33.953   5.659   6.689  1.00 20.00    -0.391 OA
ENDROOT
BRANCH   5   7
HETATM    7  C6  UNL     1     -33.319   5.015   3.797  1.00 20.00     0.021 C 
BRANCH   7   8
HETATM    8  C7  UNL     1     -32.979   5.525   2.403  1.00 20.00     0.115 C 
HETATM    9 CL9  UNL     1     -32.018   7.021   2.456  1.00 20.00    -0.130 Cl
ENDBRANCH   7   8
ENDBRANCH   5   7
TORSDOF 2
ENDMDL
