MODEL 1
REMARK VINA RESULT:      -5.0      0.000      0.000
REMARK  4 active torsions:
REMARK  status: ('A' for Active; 'I' for Inactive)
REMARK    1  A    between atoms: C3_3  and  C4_4 
REMARK    2  A    between atoms: C4_4  and  C5_5 
REMARK    3  A    between atoms: C5_5  and  C6_6 
REMARK    4  A    between atoms: C5_5  and  O7_7 
ROOT
HETATM    1  C5  UNL     1     -34.236   7.030   5.985  1.00 20.00     0.226 C 
ENDROOT
BRANCH   1   2
HETATM    2  C4  UNL     1     -34.050   8.067   4.875  1.00 20.00     0.045 C 
BRANCH   2   3
HETATM    3  C3  UNL     1     -32.638   8.106   4.369  1.00 20.00    -0.012 A 
HETATM    4  C1  UNL     1     -32.246   7.317   3.151  1.00 20.00     0.005 A 
HETATM    5  C2  UNL     1     -32.313   8.816   3.084  1.00 20.00     0.005 A 
ENDBRANCH   2   3
ENDBRANCH   1   2
BRANCH   1   6
HETATM    6  C6  UNL     1     -34.796   5.728   5.445  1.00 20.00     0.413 C 
HETATM    7  F8  UNL     1     -33.865   5.036   4.755  1.00 20.00    -0.168 F 
HETATM    8  F9  UNL     1     -35.842   5.953   4.622  1.00 20.00    -0.168 F 
HETATM    9  F10 UNL     1     -35.235   4.940   6.452  1.00 20.00    -0.168 F 
ENDBRANCH   1   6
BRANCH   1  10
HETATM   10  O7  UNL     1     -32.968   6.765   6.580  1.00 20.00    -0.387 OA
HETATM   11  H19 UNL     1     -32.804   5.817   6.469  1.00 20.00     0.210 HD
ENDBRANCH   1  10
TORSDOF 4
ENDMDL
MODEL 2
REMARK VINA RESULT:      -4.9      1.560      1.734
REMARK  4 active torsions:
REMARK  status: ('A' for Active; 'I' for Inactive)
REMARK    1  A    between atoms: C3_3  and  C4_4 
REMARK    2  A    between atoms: C4_4  and  C5_5 
REMARK    3  A    between atoms: C5_5  and  C6_6 
REMARK    4  A    between atoms: C5_5  and  O7_7 
ROOT
HETATM    1  C5  UNL     1     -34.223   6.344   4.953  1.00 20.00     0.226 C 
ENDROOT
BRANCH   1   2
HETATM    2  C4  UNL     1     -33.959   7.840   4.782  1.00 20.00     0.045 C 
BRANCH   2   3
HETATM    3  C3  UNL     1     -32.609   8.112   4.187  1.00 20.00    -0.012 A 
HETATM    4  C1  UNL     1     -32.122   7.311   3.012  1.00 20.00     0.005 A 
HETATM    5  C2  UNL     1     -32.494   8.755   2.833  1.00 20.00     0.005 A 
ENDBRANCH   2   3
ENDBRANCH   1   2
BRANCH   1   6
HETATM    6  C6  UNL     1     -34.374   5.965   6.413  1.00 20.00     0.413 C 
HETATM    7  F8  UNL     1     -33.264   5.359   6.886  1.00 20.00    -0.168 F 
HETATM    8  F9  UNL     1     -35.415   5.122   6.592  1.00 20.00    -0.168 F 
HETATM    9  F10 UNL     1     -34.604   7.059   7.173  1.00 20.00    -0.168 F 
ENDBRANCH   1   6
BRANCH   1  10
HETATM   10  O7  UNL     1     -35.432   6.012   4.272  1.00 20.00    -0.387 OA
HETATM   11  H19 UNL     1     -36.090   5.819   4.957  1.00 20.00     0.210 HD
ENDBRANCH   1  10
TORSDOF 4
ENDMDL
MODEL 3
REMARK VINA RESULT:      -4.6      1.216      1.925
REMARK  4 active torsions:
REMARK  status: ('A' for Active; 'I' for Inactive)
REMARK    1  A    between atoms: C3_3  and  C4_4 
REMARK    2  A    between atoms: C4_4  and  C5_5 
REMARK    3  A    between atoms: C5_5  and  C6_6 
REMARK    4  A    between atoms: C5_5  and  O7_7 
ROOT
HETATM    1  C5  UNL     1     -34.568   6.297   5.855  1.00 20.00     0.226 C 
ENDROOT
BRANCH   1   2
HETATM    2  C4  UNL     1     -33.230   7.033   5.759  1.00 20.00     0.045 C 
BRANCH   2   3
HETATM    3  C3  UNL     1     -33.346   8.319   4.994  1.00 20.00    -0.012 A 
HETATM    4  C1  UNL     1     -32.174   9.258   4.906  1.00 20.00     0.005 A 
HETATM    5  C2  UNL     1     -32.616   8.492   3.690  1.00 20.00     0.005 A 
ENDBRANCH   2   3
ENDBRANCH   1   2
BRANCH   1   6
HETATM    6  C6  UNL     1     -34.905   5.580   4.562  1.00 20.00     0.413 C 
HETATM    7  F8  UNL     1     -36.068   6.022   4.038  1.00 20.00    -0.168 F 
HETATM    8  F9  UNL     1     -35.018   4.249   4.760  1.00 20.00    -0.168 F 
HETATM    9  F10 UNL     1     -33.936   5.771   3.639  1.00 20.00    -0.168 F 
ENDBRANCH   1   6
BRANCH   1  10
HETATM   10  O7  UNL     1     -34.485   5.331   6.900  1.00 20.00    -0.387 OA
HETATM   11  H19 UNL     1     -33.995   4.577   6.540  1.00 20.00     0.210 HD
ENDBRANCH   1  10
TORSDOF 4
ENDMDL
MODEL 4
REMARK VINA RESULT:      -4.6      2.453      3.777
REMARK  4 active torsions:
REMARK  status: ('A' for Active; 'I' for Inactive)
REMARK    1  A    between atoms: C3_3  and  C4_4 
REMARK    2  A    between atoms: C4_4  and  C5_5 
REMARK    3  A    between atoms: C5_5  and  C6_6 
REMARK    4  A    between atoms: C5_5  and  O7_7 
ROOT
HETATM    1  C5  UNL     1     -32.905   7.319   4.700  1.00 20.00     0.226 C 
ENDROOT
BRANCH   1   2
HETATM    2  C4  UNL     1     -34.431   7.404   4.644  1.00 20.00     0.045 C 
BRANCH   2   3
HETATM    3  C3  UNL     1     -35.081   6.069   4.864  1.00 20.00    -0.012 A 
HETATM    4  C1  UNL     1     -34.275   4.805   4.749  1.00 20.00     0.005 A 
HETATM    5  C2  UNL     1     -34.763   5.265   6.094  1.00 20.00     0.005 A 
ENDBRANCH   2   3
ENDBRANCH   1   2
BRANCH   1   6
HETATM    6  C6  UNL     1     -32.279   7.586   3.345  1.00 20.00     0.413 C 
HETATM    7  F8  UNL     1     -32.752   8.726   2.796  1.00 20.00    -0.168 F 
HETATM    8  F9  UNL     1     -32.531   6.576   2.485  1.00 20.00    -0.168 F 
HETATM    9  F10 UNL     1     -30.937   7.704   3.450  1.00 20.00    -0.168 F 
ENDBRANCH   1   6
BRANCH   1  10
HETATM   10  O7  UNL     1     -32.425   8.297   5.621  1.00 20.00    -0.387 OA
HETATM   11  H19 UNL     1     -33.160   8.494   6.221  1.00 20.00     0.210 HD
ENDBRANCH   1  10
TORSDOF 4
ENDMDL
MODEL 5
REMARK VINA RESULT:      -4.5      2.994      4.129
REMARK  4 active torsions:
REMARK  status: ('A' for Active; 'I' for Inactive)
REMARK    1  A    between atoms: C3_3  and  C4_4 
REMARK    2  A    between atoms: C4_4  and  C5_5 
REMARK    3  A    between atoms: C5_5  and  C6_6 
REMARK    4  A    between atoms: C5_5  and  O7_7 
ROOT
HETATM    1  C5  UNL     1     -33.333   7.535   4.280  1.00 20.00     0.226 C 
ENDROOT
BRANCH   1   2
HETATM    2  C4  UNL     1     -33.361   7.185   5.769  1.00 20.00     0.045 C 
BRANCH   2   3
HETATM    3  C3  UNL     1     -34.594   6.418   6.147  1.00 20.00    -0.012 A 
HETATM    4  C1  UNL     1     -35.229   5.471   5.166  1.00 20.00     0.005 A 
HETATM    5  C2  UNL     1     -34.522   4.934   6.379  1.00 20.00     0.005 A 
ENDBRANCH   2   3
ENDBRANCH   1   2
BRANCH   1   6
HETATM    6  C6  UNL     1     -32.310   8.613   3.977  1.00 20.00     0.413 C 
HETATM    7  F8  UNL     1     -32.206   9.498   4.992  1.00 20.00    -0.168 F 
HETATM    8  F9  UNL     1     -32.641   9.297   2.861  1.00 20.00    -0.168 F 
HETATM    9  F10 UNL     1     -31.088   8.072   3.774  1.00 20.00    -0.168 F 
ENDBRANCH   1   6
BRANCH   1  10
HETATM   10  O7  UNL     1     -32.989   6.365   3.541  1.00 20.00    -0.387 OA
HETATM   11  H19 UNL     1     -33.346   5.612   4.035  1.00 20.00     0.210 HD
ENDBRANCH   1  10
TORSDOF 4
ENDMDL
MODEL 6
REMARK VINA RESULT:      -4.5      2.992      4.149
REMARK  4 active torsions:
REMARK  status: ('A' for Active; 'I' for Inactive)
REMARK    1  A    between atoms: C3_3  and  C4_4 
REMARK    2  A    between atoms: C4_4  and  C5_5 
REMARK    3  A    between atoms: C5_5  and  C6_6 
REMARK    4  A    between atoms: C5_5  and  O7_7 
ROOT
HETATM    1  C5  UNL     1     -33.342   7.518   4.243  1.00 20.00     0.226 C 
ENDROOT
BRANCH   1   2
HETATM    2  C4  UNL     1     -33.353   7.186   5.737  1.00 20.00     0.045 C 
BRANCH   2   3
HETATM    3  C3  UNL     1     -34.581   6.422   6.137  1.00 20.00    -0.012 A 
HETATM    4  C1  UNL     1     -35.233   5.472   5.171  1.00 20.00     0.005 A 
HETATM    5  C2  UNL     1     -34.507   4.939   6.373  1.00 20.00     0.005 A 
ENDBRANCH   2   3
ENDBRANCH   1   2
BRANCH   1   6
HETATM    6  C6  UNL     1     -32.324   8.594   3.917  1.00 20.00     0.413 C 
HETATM    7  F8  UNL     1     -32.661   9.273   2.800  1.00 20.00    -0.168 F 
HETATM    8  F9  UNL     1     -31.098   8.062   3.726  1.00 20.00    -0.168 F 
HETATM    9  F10 UNL     1     -32.226   9.485   4.929  1.00 20.00    -0.168 F 
ENDBRANCH   1   6
BRANCH   1  10
HETATM   10  O7  UNL     1     -33.003   6.340   3.515  1.00 20.00    -0.387 OA
HETATM   11  H19 UNL     1     -32.282   6.584   2.916  1.00 20.00     0.210 HD
ENDBRANCH   1  10
TORSDOF 4
ENDMDL
MODEL 7
REMARK VINA RESULT:      -4.5      2.987      4.137
REMARK  4 active torsions:
REMARK  status: ('A' for Active; 'I' for Inactive)
REMARK    1  A    between atoms: C3_3  and  C4_4 
REMARK    2  A    between atoms: C4_4  and  C5_5 
REMARK    3  A    between atoms: C5_5  and  C6_6 
REMARK    4  A    between atoms: C5_5  and  O7_7 
ROOT
HETATM    1  C5  UNL     1     -33.336   7.486   4.216  1.00 20.00     0.226 C 
ENDROOT
BRANCH   1   2
HETATM    2  C4  UNL     1     -33.350   7.182   5.715  1.00 20.00     0.045 C 
BRANCH   2   3
HETATM    3  C3  UNL     1     -34.580   6.428   6.128  1.00 20.00    -0.012 A 
HETATM    4  C1  UNL     1     -35.238   5.468   5.175  1.00 20.00     0.005 A 
HETATM    5  C2  UNL     1     -34.511   4.947   6.382  1.00 20.00     0.005 A 
ENDBRANCH   2   3
ENDBRANCH   1   2
BRANCH   1   6
HETATM    6  C6  UNL     1     -32.337   8.574   3.874  1.00 20.00     0.413 C 
HETATM    7  F8  UNL     1     -31.106   8.065   3.651  1.00 20.00    -0.168 F 
HETATM    8  F9  UNL     1     -32.239   9.475   4.875  1.00 20.00    -0.168 F 
HETATM    9  F10 UNL     1     -32.716   9.243   2.762  1.00 20.00    -0.168 F 
ENDBRANCH   1   6
BRANCH   1  10
HETATM   10  O7  UNL     1     -32.972   6.300   3.512  1.00 20.00    -0.387 OA
HETATM   11  H19 UNL     1     -33.320   6.395   2.613  1.00 20.00     0.210 HD
ENDBRANCH   1  10
TORSDOF 4
ENDMDL
MODEL 8
REMARK VINA RESULT:      -4.5      1.643      2.177
REMARK  4 active torsions:
REMARK  status: ('A' for Active; 'I' for Inactive)
REMARK    1  A    between atoms: C3_3  and  C4_4 
REMARK    2  A    between atoms: C4_4  and  C5_5 
REMARK    3  A    between atoms: C5_5  and  C6_6 
REMARK    4  A    between atoms: C5_5  and  O7_7 
ROOT
HETATM    1  C5  UNL     1     -33.705   5.267   4.569  1.00 20.00     0.226 C 
ENDROOT
BRANCH   1   2
HETATM    2  C4  UNL     1     -33.505   5.949   3.214  1.00 20.00     0.045 C 
BRANCH   2   3
HETATM    3  C3  UNL     1     -32.363   6.922   3.234  1.00 20.00    -0.012 A 
HETATM    4  C1  UNL     1     -32.190   7.913   2.117  1.00 20.00     0.005 A 
HETATM    5  C2  UNL     1     -32.617   8.383   3.478  1.00 20.00     0.005 A 
ENDBRANCH   2   3
ENDBRANCH   1   2
BRANCH   1   6
HETATM    6  C6  UNL     1     -34.818   5.920   5.365  1.00 20.00     0.413 C 
HETATM    7  F8  UNL     1     -34.441   7.122   5.852  1.00 20.00    -0.168 F 
HETATM    8  F9  UNL     1     -35.187   5.147   6.409  1.00 20.00    -0.168 F 
HETATM    9  F10 UNL     1     -35.913   6.110   4.595  1.00 20.00    -0.168 F 
ENDBRANCH   1   6
BRANCH   1  10
HETATM   10  O7  UNL     1     -34.050   3.901   4.347  1.00 20.00    -0.387 OA
HETATM   11  H19 UNL     1     -33.282   3.376   4.616  1.00 20.00     0.210 HD
ENDBRANCH   1  10
TORSDOF 4
ENDMDL
MODEL 9
REMARK VINA RESULT:      -4.4      2.224      2.904
REMARK  4 active torsions:
REMARK  status: ('A' for Active; 'I' for Inactive)
REMARK    1  A    between atoms: C3_3  and  C4_4 
REMARK    2  A    between atoms: C4_4  and  C5_5 
REMARK    3  A    between atoms: C5_5  and  C6_6 
REMARK    4  A    between atoms: C5_5  and  O7_7 
ROOT
HETATM    1  C5  UNL     1     -34.879   5.435   5.488  1.00 20.00     0.226 C 
ENDROOT
BRANCH   1   2
HETATM    2  C4  UNL     1     -33.880   4.657   4.629  1.00 20.00     0.045 C 
BRANCH   2   3
HETATM    3  C3  UNL     1     -33.784   5.207   3.236  1.00 20.00    -0.012 A 
HETATM    4  C1  UNL     1     -32.664   6.137   2.862  1.00 20.00     0.005 A 
HETATM    5  C2  UNL     1     -32.694   4.739   2.311  1.00 20.00     0.005 A 
ENDBRANCH   2   3
ENDBRANCH   1   2
BRANCH   1   6
HETATM    6  C6  UNL     1     -34.220   6.608   6.188  1.00 20.00     0.413 C 
HETATM    7  F8  UNL     1     -32.955   6.318   6.558  1.00 20.00    -0.168 F 
HETATM    8  F9  UNL     1     -34.907   6.961   7.296  1.00 20.00    -0.168 F 
HETATM    9  F10 UNL     1     -34.177   7.689   5.377  1.00 20.00    -0.168 F 
ENDBRANCH   1   6
BRANCH   1  10
HETATM   10  O7  UNL     1     -35.915   5.936   4.645  1.00 20.00    -0.387 OA
HETATM   11  H19 UNL     1     -35.638   5.759   3.734  1.00 20.00     0.210 HD
ENDBRANCH   1  10
TORSDOF 4
ENDMDL
