MODEL 1
REMARK VINA RESULT:      -4.6      0.000      0.000
REMARK  2 active torsions:
REMARK  status: ('A' for Active; 'I' for Inactive)
REMARK    1  A    between atoms: C5_5  and  C6_6 
REMARK    2  A    between atoms: C6_6  and  C7_7 
ROOT
HETATM    1  C1  UNL     1     -34.521   6.416   6.582  1.00 20.00     0.027 C 
HETATM    2  C2  UNL     1     -33.477   7.320   5.933  1.00 20.00     0.009 C 
HETATM    3  C3  UNL     1     -34.563   5.060   5.892  1.00 20.00     0.167 C 
HETATM    4  C4  UNL     1     -33.764   5.953   3.847  1.00 20.00     0.172 C 
HETATM    5  C5  UNL     1     -33.677   7.372   4.414  1.00 20.00     0.010 C 
HETATM    6  O8  UNL     1     -34.801   5.213   4.493  1.00 20.00    -0.391 OA
ENDROOT
BRANCH   5   7
HETATM    7  C6  UNL     1     -32.565   8.169   3.739  1.00 20.00     0.017 C 
BRANCH   7   8
HETATM    8  C7  UNL     1     -32.157   7.531   2.426  1.00 20.00     0.085 C 
HETATM    9 BR9  UNL     1     -32.453   8.787   0.969  1.00 20.00    -0.096 Br
ENDBRANCH   7   8
ENDBRANCH   5   7
TORSDOF 2
ENDMDL
MODEL 2
REMARK VINA RESULT:      -4.2      1.037      1.710
REMARK  2 active torsions:
REMARK  status: ('A' for Active; 'I' for Inactive)
REMARK    1  A    between atoms: C5_5  and  C6_6 
REMARK    2  A    between atoms: C6_6  and  C7_7 
ROOT
HETATM    1  C1  UNL     1     -34.236   4.970   4.704  1.00 20.00     0.027 C 
HETATM    2  C2  UNL     1     -33.806   6.053   3.720  1.00 20.00     0.009 C 
HETATM    3  C3  UNL     1     -34.916   5.586   5.919  1.00 20.00     0.167 C 
HETATM    4  C4  UNL     1     -33.753   7.636   5.667  1.00 20.00     0.172 C 
HETATM    5  C5  UNL     1     -32.995   7.141   4.433  1.00 20.00     0.010 C 
HETATM    6  O8  UNL     1     -34.064   6.549   6.540  1.00 20.00    -0.391 OA
ENDROOT
BRANCH   5   7
HETATM    7  C6  UNL     1     -32.666   8.292   3.489  1.00 20.00     0.017 C 
BRANCH   7   8
HETATM    8  C7  UNL     1     -32.247   7.776   2.126  1.00 20.00     0.085 C 
HETATM    9 BR9  UNL     1     -32.679   9.099   0.765  1.00 20.00    -0.096 Br
ENDBRANCH   7   8
ENDBRANCH   5   7
TORSDOF 2
ENDMDL
MODEL 3
REMARK VINA RESULT:      -3.8     12.294     12.797
REMARK  2 active torsions:
REMARK  status: ('A' for Active; 'I' for Inactive)
REMARK    1  A    between atoms: C5_5  and  C6_6 
REMARK    2  A    between atoms: C6_6  and  C7_7 
ROOT
HETATM    1  C1  UNL     1     -32.005  18.512   1.582  1.00 20.00     0.027 C 
HETATM    2  C2  UNL     1     -33.292  18.508   0.762  1.00 20.00     0.009 C 
HETATM    3  C3  UNL     1     -30.902  19.263   0.849  1.00 20.00     0.167 C 
HETATM    4  C4  UNL     1     -31.855  18.812  -1.274  1.00 20.00     0.172 C 
HETATM    5  C5  UNL     1     -33.020  18.025  -0.668  1.00 20.00     0.010 C 
HETATM    6  O8  UNL     1     -30.693  18.710  -0.450  1.00 20.00    -0.391 OA
ENDROOT
BRANCH   5   7
HETATM    7  C6  UNL     1     -34.270  18.136  -1.534  1.00 20.00     0.017 C 
BRANCH   7   8
HETATM    8  C7  UNL     1     -33.932  17.973  -3.002  1.00 20.00     0.085 C 
HETATM    9 BR9  UNL     1     -33.398  16.135  -3.351  1.00 20.00    -0.096 Br
ENDBRANCH   7   8
ENDBRANCH   5   7
TORSDOF 2
ENDMDL
MODEL 4
REMARK VINA RESULT:      -3.5     11.992     13.075
REMARK  2 active torsions:
REMARK  status: ('A' for Active; 'I' for Inactive)
REMARK    1  A    between atoms: C5_5  and  C6_6 
REMARK    2  A    between atoms: C6_6  and  C7_7 
ROOT
HETATM    1  C1  UNL     1     -34.710  16.873  -5.809  1.00 20.00     0.027 C 
HETATM    2  C2  UNL     1     -34.549  17.314  -4.357  1.00 20.00     0.009 C 
HETATM    3  C3  UNL     1     -34.842  15.359  -5.900  1.00 20.00     0.167 C 
HETATM    4  C4  UNL     1     -33.637  15.023  -3.887  1.00 20.00     0.172 C 
HETATM    5  C5  UNL     1     -33.427  16.523  -3.674  1.00 20.00     0.010 C 
HETATM    6  O8  UNL     1     -33.728  14.717  -5.279  1.00 20.00    -0.391 OA
ENDROOT
BRANCH   5   7
HETATM    7  C6  UNL     1     -33.338  16.863  -2.190  1.00 20.00     0.017 C 
BRANCH   7   8
HETATM    8  C7  UNL     1     -33.003  18.327  -1.985  1.00 20.00     0.085 C 
HETATM    9 BR9  UNL     1     -31.713  18.506  -0.538  1.00 20.00    -0.096 Br
ENDBRANCH   7   8
ENDBRANCH   5   7
TORSDOF 2
ENDMDL
MODEL 5
REMARK VINA RESULT:      -3.5     12.223     12.920
REMARK  2 active torsions:
REMARK  status: ('A' for Active; 'I' for Inactive)
REMARK    1  A    between atoms: C5_5  and  C6_6 
REMARK    2  A    between atoms: C6_6  and  C7_7 
ROOT
HETATM    1  C1  UNL     1     -33.747  14.509  -4.519  1.00 20.00     0.027 C 
HETATM    2  C2  UNL     1     -32.947  15.564  -3.760  1.00 20.00     0.009 C 
HETATM    3  C3  UNL     1     -34.524  15.144  -5.664  1.00 20.00     0.167 C 
HETATM    4  C4  UNL     1     -34.618  17.248  -4.578  1.00 20.00     0.172 C 
HETATM    5  C5  UNL     1     -33.847  16.739  -3.359  1.00 20.00     0.010 C 
HETATM    6  O8  UNL     1     -35.365  16.192  -5.183  1.00 20.00    -0.391 OA
ENDROOT
BRANCH   5   7
HETATM    7  C6  UNL     1     -33.037  17.856  -2.711  1.00 20.00     0.017 C 
BRANCH   7   8
HETATM    8  C7  UNL     1     -33.143  17.801  -1.200  1.00 20.00     0.085 C 
HETATM    9 BR9  UNL     1     -31.542  18.570  -0.404  1.00 20.00    -0.096 Br
ENDBRANCH   7   8
ENDBRANCH   5   7
TORSDOF 2
ENDMDL
MODEL 6
REMARK VINA RESULT:      -3.5     12.266     13.118
REMARK  2 active torsions:
REMARK  status: ('A' for Active; 'I' for Inactive)
REMARK    1  A    between atoms: C5_5  and  C6_6 
REMARK    2  A    between atoms: C6_6  and  C7_7 
ROOT
HETATM    1  C1  UNL     1     -32.973  18.072  -1.516  1.00 20.00     0.027 C 
HETATM    2  C2  UNL     1     -33.502  16.704  -1.936  1.00 20.00     0.009 C 
HETATM    3  C3  UNL     1     -33.433  19.148  -2.490  1.00 20.00     0.167 C 
HETATM    4  C4  UNL     1     -33.630  17.603  -4.276  1.00 20.00     0.172 C 
HETATM    5  C5  UNL     1     -33.175  16.427  -3.408  1.00 20.00     0.010 C 
HETATM    6  O8  UNL     1     -33.042  18.823  -3.823  1.00 20.00    -0.391 OA
ENDROOT
BRANCH   5   7
HETATM    7  C6  UNL     1     -33.806  15.120  -3.875  1.00 20.00     0.017 C 
BRANCH   7   8
HETATM    8  C7  UNL     1     -33.949  15.092  -5.384  1.00 20.00     0.085 C 
HETATM    9 BR9  UNL     1     -35.799  14.720  -5.859  1.00 20.00    -0.096 Br
ENDBRANCH   7   8
ENDBRANCH   5   7
TORSDOF 2
ENDMDL
MODEL 7
REMARK VINA RESULT:      -3.5     12.494     13.075
REMARK  2 active torsions:
REMARK  status: ('A' for Active; 'I' for Inactive)
REMARK    1  A    between atoms: C5_5  and  C6_6 
REMARK    2  A    between atoms: C6_6  and  C7_7 
ROOT
HETATM    1  C1  UNL     1     -33.620  16.499  -3.516  1.00 20.00     0.027 C 
HETATM    2  C2  UNL     1     -32.954  16.991  -2.234  1.00 20.00     0.009 C 
HETATM    3  C3  UNL     1     -34.383  17.629  -4.193  1.00 20.00     0.167 C 
HETATM    4  C4  UNL     1     -34.713  18.779  -2.147  1.00 20.00     0.172 C 
HETATM    5  C5  UNL     1     -33.969  17.713  -1.340  1.00 20.00     0.010 C 
HETATM    6  O8  UNL     1     -35.334  18.203  -3.296  1.00 20.00    -0.391 OA
ENDROOT
BRANCH   5   7
HETATM    7  C6  UNL     1     -33.292  18.319  -0.116  1.00 20.00     0.017 C 
BRANCH   7   8
HETATM    8  C7  UNL     1     -31.805  18.499  -0.348  1.00 20.00     0.085 C 
HETATM    9 BR9  UNL     1     -30.868  18.467   1.358  1.00 20.00    -0.096 Br
ENDBRANCH   7   8
ENDBRANCH   5   7
TORSDOF 2
ENDMDL
MODEL 8
REMARK VINA RESULT:      -3.4     12.077     12.632
REMARK  2 active torsions:
REMARK  status: ('A' for Active; 'I' for Inactive)
REMARK    1  A    between atoms: C5_5  and  C6_6 
REMARK    2  A    between atoms: C6_6  and  C7_7 
ROOT
HETATM    1  C1  UNL     1     -31.085  19.060   0.366  1.00 20.00     0.027 C 
HETATM    2  C2  UNL     1     -31.803  18.392  -0.803  1.00 20.00     0.009 C 
HETATM    3  C3  UNL     1     -31.787  18.746   1.680  1.00 20.00     0.167 C 
HETATM    4  C4  UNL     1     -33.877  18.418   0.611  1.00 20.00     0.172 C 
HETATM    5  C5  UNL     1     -33.301  18.718  -0.774  1.00 20.00     0.010 C 
HETATM    6  O8  UNL     1     -33.160  19.128   1.622  1.00 20.00    -0.391 OA
ENDROOT
BRANCH   5   7
HETATM    7  C6  UNL     1     -34.051  17.956  -1.861  1.00 20.00     0.017 C 
BRANCH   7   8
HETATM    8  C7  UNL     1     -33.353  16.652  -2.193  1.00 20.00     0.085 C 
HETATM    9 BR9  UNL     1     -33.761  16.140  -4.026  1.00 20.00    -0.096 Br
ENDBRANCH   7   8
ENDBRANCH   5   7
TORSDOF 2
ENDMDL
MODEL 9
REMARK VINA RESULT:      -3.4     16.108     17.056
REMARK  2 active torsions:
REMARK  status: ('A' for Active; 'I' for Inactive)
REMARK    1  A    between atoms: C5_5  and  C6_6 
REMARK    2  A    between atoms: C6_6  and  C7_7 
ROOT
HETATM    1  C1  UNL     1     -23.548  18.949   8.328  1.00 20.00     0.027 C 
HETATM    2  C2  UNL     1     -24.141  18.372   9.610  1.00 20.00     0.009 C 
HETATM    3  C3  UNL     1     -22.065  18.619   8.225  1.00 20.00     0.167 C 
HETATM    4  C4  UNL     1     -21.827  18.453  10.577  1.00 20.00     0.172 C 
HETATM    5  C5  UNL     1     -23.301  18.780  10.826  1.00 20.00     0.010 C 
HETATM    6  O8  UNL     1     -21.364  19.079   9.380  1.00 20.00    -0.391 OA
ENDROOT
BRANCH   5   7
HETATM    7  C6  UNL     1     -23.809  18.107  12.096  1.00 20.00     0.017 C 
BRANCH   7   8
HETATM    8  C7  UNL     1     -25.200  17.539  11.894  1.00 20.00     0.085 C 
HETATM    9 BR9  UNL     1     -26.529  18.892  12.330  1.00 20.00    -0.096 Br
ENDBRANCH   7   8
ENDBRANCH   5   7
TORSDOF 2
ENDMDL
