MODEL 1
REMARK VINA RESULT:      -4.6      0.000      0.000
REMARK  5 active torsions:
REMARK  status: ('A' for Active; 'I' for Inactive)
REMARK    1  A    between atoms: C3_3  and  C5_5 
REMARK    2  A    between atoms: C5_5  and  C8_8 
REMARK    3  A    between atoms: C6_6  and  C7_7 
REMARK    4  A    between atoms: C7_7  and  C8_8 
REMARK    5  A    between atoms: C8_8  and  O9_9 
ROOT
HETATM    1  C8  UNL     1     -32.730   8.424   4.135  1.00 20.00     0.118 C 
ENDROOT
BRANCH   1   2
HETATM    2  C5  UNL     1     -33.930   7.879   4.917  1.00 20.00     0.036 C 
BRANCH   2   3
HETATM    3  C3  UNL     1     -33.978   6.361   4.992  1.00 20.00    -0.012 A 
HETATM    4  C1  UNL     1     -34.684   5.680   6.131  1.00 20.00     0.005 A 
HETATM    5  C2  UNL     1     -35.269   5.631   4.748  1.00 20.00     0.005 A 
ENDBRANCH   2   3
ENDBRANCH   1   2
BRANCH   1   6
HETATM    6  C7  UNL     1     -32.177   7.426   3.109  1.00 20.00     0.031 C 
BRANCH   6   7
HETATM    7  C6  UNL     1     -32.186   7.993   1.685  1.00 20.00    -0.002 C 
HETATM    8  C4  UNL     1     -32.832   9.369   1.640  1.00 20.00     0.005 C 
ENDBRANCH   6   7
ENDBRANCH   1   6
BRANCH   1   9
HETATM    9  O9  UNL     1     -31.692   8.728   5.069  1.00 20.00    -0.396 OA
HETATM   10  H25 UNL     1     -31.728   9.685   5.214  1.00 20.00     0.210 HD
ENDBRANCH   1   9
TORSDOF 5
ENDMDL
MODEL 2
REMARK VINA RESULT:      -4.4      2.279      3.758
REMARK  5 active torsions:
REMARK  status: ('A' for Active; 'I' for Inactive)
REMARK    1  A    between atoms: C3_3  and  C5_5 
REMARK    2  A    between atoms: C5_5  and  C8_8 
REMARK    3  A    between atoms: C6_6  and  C7_7 
REMARK    4  A    between atoms: C7_7  and  C8_8 
REMARK    5  A    between atoms: C8_8  and  O9_9 
ROOT
HETATM    1  C8  UNL     1     -34.205   5.738   5.861  1.00 20.00     0.118 C 
ENDROOT
BRANCH   1   2
HETATM    2  C5  UNL     1     -33.745   7.170   6.159  1.00 20.00     0.036 C 
BRANCH   2   3
HETATM    3  C3  UNL     1     -33.495   8.007   4.914  1.00 20.00    -0.012 A 
HETATM    4  C1  UNL     1     -32.611   9.220   4.981  1.00 20.00     0.005 A 
HETATM    5  C2  UNL     1     -32.147   7.993   4.250  1.00 20.00     0.005 A 
ENDBRANCH   2   3
ENDBRANCH   1   2
BRANCH   1   6
HETATM    6  C7  UNL     1     -34.659   5.542   4.409  1.00 20.00     0.031 C 
BRANCH   6   7
HETATM    7  C6  UNL     1     -33.822   4.487   3.678  1.00 20.00    -0.002 C 
HETATM    8  C4  UNL     1     -32.991   5.110   2.567  1.00 20.00     0.005 C 
ENDBRANCH   6   7
ENDBRANCH   1   6
BRANCH   1   9
HETATM    9  O9  UNL     1     -35.307   5.439   6.721  1.00 20.00    -0.396 OA
HETATM   10  H25 UNL     1     -35.026   4.699   7.277  1.00 20.00     0.210 HD
ENDBRANCH   1   9
TORSDOF 5
ENDMDL
MODEL 3
REMARK VINA RESULT:      -4.3      1.993      2.494
REMARK  5 active torsions:
REMARK  status: ('A' for Active; 'I' for Inactive)
REMARK    1  A    between atoms: C3_3  and  C5_5 
REMARK    2  A    between atoms: C5_5  and  C8_8 
REMARK    3  A    between atoms: C6_6  and  C7_7 
REMARK    4  A    between atoms: C7_7  and  C8_8 
REMARK    5  A    between atoms: C8_8  and  O9_9 
ROOT
HETATM    1  C8  UNL     1     -33.054   5.932   3.587  1.00 20.00     0.118 C 
ENDROOT
BRANCH   1   2
HETATM    2  C5  UNL     1     -34.536   6.214   3.863  1.00 20.00     0.036 C 
BRANCH   2   3
HETATM    3  C3  UNL     1     -35.013   5.724   5.221  1.00 20.00    -0.012 A 
HETATM    4  C1  UNL     1     -34.060   5.033   6.155  1.00 20.00     0.005 A 
HETATM    5  C2  UNL     1     -34.558   6.413   6.477  1.00 20.00     0.005 A 
ENDBRANCH   2   3
ENDBRANCH   1   2
BRANCH   1   6
HETATM    6  C7  UNL     1     -32.283   7.173   3.119  1.00 20.00     0.031 C 
BRANCH   6   7
HETATM    7  C6  UNL     1     -32.894   8.471   3.658  1.00 20.00    -0.002 C 
HETATM    8  C4  UNL     1     -32.255   8.881   4.976  1.00 20.00     0.005 C 
ENDBRANCH   6   7
ENDBRANCH   1   6
BRANCH   1   9
HETATM    9  O9  UNL     1     -32.975   4.940   2.561  1.00 20.00    -0.396 OA
HETATM   10  H25 UNL     1     -32.140   4.470   2.700  1.00 20.00     0.210 HD
ENDBRANCH   1   9
TORSDOF 5
ENDMDL
MODEL 4
REMARK VINA RESULT:      -4.3      2.118      4.393
REMARK  5 active torsions:
REMARK  status: ('A' for Active; 'I' for Inactive)
REMARK    1  A    between atoms: C3_3  and  C5_5 
REMARK    2  A    between atoms: C5_5  and  C8_8 
REMARK    3  A    between atoms: C6_6  and  C7_7 
REMARK    4  A    between atoms: C7_7  and  C8_8 
REMARK    5  A    between atoms: C8_8  and  O9_9 
ROOT
HETATM    1  C8  UNL     1     -34.224   4.934   3.744  1.00 20.00     0.118 C 
ENDROOT
BRANCH   1   2
HETATM    2  C5  UNL     1     -32.946   5.640   3.275  1.00 20.00     0.036 C 
BRANCH   2   3
HETATM    3  C3  UNL     1     -33.054   7.156   3.250  1.00 20.00    -0.012 A 
HETATM    4  C1  UNL     1     -32.003   8.002   3.912  1.00 20.00     0.005 A 
HETATM    5  C2  UNL     1     -32.107   7.970   2.413  1.00 20.00     0.005 A 
ENDBRANCH   2   3
ENDBRANCH   1   2
BRANCH   1   6
HETATM    6  C7  UNL     1     -35.104   5.817   4.639  1.00 20.00     0.031 C 
BRANCH   6   7
HETATM    7  C6  UNL     1     -34.747   5.675   6.122  1.00 20.00    -0.002 C 
HETATM    8  C4  UNL     1     -34.155   6.962   6.676  1.00 20.00     0.005 C 
ENDBRANCH   6   7
ENDBRANCH   1   6
BRANCH   1   9
HETATM    9  O9  UNL     1     -33.842   3.777   4.490  1.00 20.00    -0.396 OA
HETATM   10  H25 UNL     1     -34.122   3.936   5.403  1.00 20.00     0.210 HD
ENDBRANCH   1   9
TORSDOF 5
ENDMDL
MODEL 5
REMARK VINA RESULT:      -4.3      2.313      3.595
REMARK  5 active torsions:
REMARK  status: ('A' for Active; 'I' for Inactive)
REMARK    1  A    between atoms: C3_3  and  C5_5 
REMARK    2  A    between atoms: C5_5  and  C8_8 
REMARK    3  A    between atoms: C6_6  and  C7_7 
REMARK    4  A    between atoms: C7_7  and  C8_8 
REMARK    5  A    between atoms: C8_8  and  O9_9 
ROOT
HETATM    1  C8  UNL     1     -34.869   6.098   5.643  1.00 20.00     0.118 C 
ENDROOT
BRANCH   1   2
HETATM    2  C5  UNL     1     -34.768   5.768   4.149  1.00 20.00     0.036 C 
BRANCH   2   3
HETATM    3  C3  UNL     1     -33.381   5.327   3.709  1.00 20.00    -0.012 A 
HETATM    4  C1  UNL     1     -33.165   4.770   2.329  1.00 20.00     0.005 A 
HETATM    5  C2  UNL     1     -32.621   6.125   2.686  1.00 20.00     0.005 A 
ENDBRANCH   2   3
ENDBRANCH   1   2
BRANCH   1   6
HETATM    6  C7  UNL     1     -33.743   7.018   6.132  1.00 20.00     0.031 C 
BRANCH   6   7
HETATM    7  C6  UNL     1     -33.773   8.387   5.444  1.00 20.00    -0.002 C 
HETATM    8  C4  UNL     1     -32.397   8.781   4.931  1.00 20.00     0.005 C 
ENDBRANCH   6   7
ENDBRANCH   1   6
BRANCH   1   9
HETATM    9  O9  UNL     1     -34.798   4.872   6.374  1.00 20.00    -0.396 OA
HETATM   10  H25 UNL     1     -34.765   5.115   7.310  1.00 20.00     0.210 HD
ENDBRANCH   1   9
TORSDOF 5
ENDMDL
MODEL 6
REMARK VINA RESULT:      -4.3      1.555      3.971
REMARK  5 active torsions:
REMARK  status: ('A' for Active; 'I' for Inactive)
REMARK    1  A    between atoms: C3_3  and  C5_5 
REMARK    2  A    between atoms: C5_5  and  C8_8 
REMARK    3  A    between atoms: C6_6  and  C7_7 
REMARK    4  A    between atoms: C7_7  and  C8_8 
REMARK    5  A    between atoms: C8_8  and  O9_9 
ROOT
HETATM    1  C8  UNL     1     -33.816   6.919   6.254  1.00 20.00     0.118 C 
ENDROOT
BRANCH   1   2
HETATM    2  C5  UNL     1     -33.899   7.749   4.967  1.00 20.00     0.036 C 
BRANCH   2   3
HETATM    3  C3  UNL     1     -32.548   8.026   4.326  1.00 20.00    -0.012 A 
HETATM    4  C1  UNL     1     -32.156   7.330   3.054  1.00 20.00     0.005 A 
HETATM    5  C2  UNL     1     -32.465   8.800   3.040  1.00 20.00     0.005 A 
ENDBRANCH   2   3
ENDBRANCH   1   2
BRANCH   1   6
HETATM    6  C7  UNL     1     -34.533   5.567   6.145  1.00 20.00     0.031 C 
BRANCH   6   7
HETATM    7  C6  UNL     1     -34.900   5.221   4.697  1.00 20.00    -0.002 C 
HETATM    8  C4  UNL     1     -33.902   4.249   4.088  1.00 20.00     0.005 C 
ENDBRANCH   6   7
ENDBRANCH   1   6
BRANCH   1   9
HETATM    9  O9  UNL     1     -34.428   7.669   7.305  1.00 20.00    -0.396 OA
HETATM   10  H25 UNL     1     -35.090   7.087   7.706  1.00 20.00     0.210 HD
ENDBRANCH   1   9
TORSDOF 5
ENDMDL
MODEL 7
REMARK VINA RESULT:      -4.2      2.136      4.158
REMARK  5 active torsions:
REMARK  status: ('A' for Active; 'I' for Inactive)
REMARK    1  A    between atoms: C3_3  and  C5_5 
REMARK    2  A    between atoms: C5_5  and  C8_8 
REMARK    3  A    between atoms: C6_6  and  C7_7 
REMARK    4  A    between atoms: C7_7  and  C8_8 
REMARK    5  A    between atoms: C8_8  and  O9_9 
ROOT
HETATM    1  C8  UNL     1     -33.443   5.701   3.058  1.00 20.00     0.118 C 
ENDROOT
BRANCH   1   2
HETATM    2  C5  UNL     1     -32.402   6.734   3.504  1.00 20.00     0.036 C 
BRANCH   2   3
HETATM    3  C3  UNL     1     -32.992   8.091   3.854  1.00 20.00    -0.012 A 
HETATM    4  C1  UNL     1     -33.445   8.381   5.257  1.00 20.00     0.005 A 
HETATM    5  C2  UNL     1     -32.219   9.055   4.710  1.00 20.00     0.005 A 
ENDBRANCH   2   3
ENDBRANCH   1   2
BRANCH   1   6
HETATM    6  C7  UNL     1     -33.851   4.736   4.180  1.00 20.00     0.031 C 
BRANCH   6   7
HETATM    7  C6  UNL     1     -35.038   5.263   4.993  1.00 20.00    -0.002 C 
HETATM    8  C4  UNL     1     -34.672   5.445   6.457  1.00 20.00     0.005 C 
ENDBRANCH   6   7
ENDBRANCH   1   6
BRANCH   1   9
HETATM    9  O9  UNL     1     -32.880   4.936   1.990  1.00 20.00    -0.396 OA
HETATM   10  H25 UNL     1     -32.075   4.529   2.341  1.00 20.00     0.210 HD
ENDBRANCH   1   9
TORSDOF 5
ENDMDL
MODEL 8
REMARK VINA RESULT:      -4.1      1.295      1.358
REMARK  5 active torsions:
REMARK  status: ('A' for Active; 'I' for Inactive)
REMARK    1  A    between atoms: C3_3  and  C5_5 
REMARK    2  A    between atoms: C5_5  and  C8_8 
REMARK    3  A    between atoms: C6_6  and  C7_7 
REMARK    4  A    between atoms: C7_7  and  C8_8 
REMARK    5  A    between atoms: C8_8  and  O9_9 
ROOT
HETATM    1  C8  UNL     1     -32.382   7.675   3.644  1.00 20.00     0.118 C 
ENDROOT
BRANCH   1   2
HETATM    2  C5  UNL     1     -33.474   7.592   4.716  1.00 20.00     0.036 C 
BRANCH   2   3
HETATM    3  C3  UNL     1     -33.881   6.171   5.072  1.00 20.00    -0.012 A 
HETATM    4  C1  UNL     1     -34.784   5.912   6.245  1.00 20.00     0.005 A 
HETATM    5  C2  UNL     1     -35.293   5.709   4.847  1.00 20.00     0.005 A 
ENDBRANCH   2   3
ENDBRANCH   1   2
BRANCH   1   6
HETATM    6  C7  UNL     1     -32.575   8.852   2.679  1.00 20.00     0.031 C 
BRANCH   6   7
HETATM    7  C6  UNL     1     -32.205   8.485   1.237  1.00 20.00    -0.002 C 
HETATM    8  C4  UNL     1     -32.799   9.471   0.243  1.00 20.00     0.005 C 
ENDBRANCH   6   7
ENDBRANCH   1   6
BRANCH   1   9
HETATM    9  O9  UNL     1     -32.411   6.463   2.886  1.00 20.00    -0.396 OA
HETATM   10  H25 UNL     1     -32.462   5.741   3.529  1.00 20.00     0.210 HD
ENDBRANCH   1   9
TORSDOF 5
ENDMDL
MODEL 9
REMARK VINA RESULT:      -4.0      1.453      3.491
REMARK  5 active torsions:
REMARK  status: ('A' for Active; 'I' for Inactive)
REMARK    1  A    between atoms: C3_3  and  C5_5 
REMARK    2  A    between atoms: C5_5  and  C8_8 
REMARK    3  A    between atoms: C6_6  and  C7_7 
REMARK    4  A    between atoms: C7_7  and  C8_8 
REMARK    5  A    between atoms: C8_8  and  O9_9 
ROOT
HETATM    1  C8  UNL     1     -32.560   7.970   4.624  1.00 20.00     0.118 C 
ENDROOT
BRANCH   1   2
HETATM    2  C5  UNL     1     -32.632   7.380   3.211  1.00 20.00     0.036 C 
BRANCH   2   3
HETATM    3  C3  UNL     1     -32.473   5.868   3.166  1.00 20.00    -0.012 A 
HETATM    4  C1  UNL     1     -33.677   4.976   3.278  1.00 20.00     0.005 A 
HETATM    5  C2  UNL     1     -32.947   5.092   1.970  1.00 20.00     0.005 A 
ENDBRANCH   2   3
ENDBRANCH   1   2
BRANCH   1   6
HETATM    6  C7  UNL     1     -33.894   7.886   5.379  1.00 20.00     0.031 C 
BRANCH   6   7
HETATM    7  C6  UNL     1     -33.842   6.884   6.537  1.00 20.00    -0.002 C 
HETATM    8  C4  UNL     1     -34.735   5.682   6.273  1.00 20.00     0.005 C 
ENDBRANCH   6   7
ENDBRANCH   1   6
BRANCH   1   9
HETATM    9  O9  UNL     1     -32.193   9.346   4.512  1.00 20.00    -0.396 OA
HETATM   10  H25 UNL     1     -32.902   9.778   4.015  1.00 20.00     0.210 HD
ENDBRANCH   1   9
TORSDOF 5
ENDMDL
