MODEL 1
REMARK VINA RESULT:      -3.8      0.000      0.000
REMARK  4 active torsions:
REMARK  status: ('A' for Active; 'I' for Inactive)
REMARK    1  A    between atoms: C1_1  and  C8_8 
REMARK    2  A    between atoms: C1_1  and  C9_9 
REMARK    3  A    between atoms: C4_4  and  C8_8 
REMARK    4  A    between atoms: C9_9  and  C10_10 
ROOT
HETATM    1  C1  UNL     1     -33.873  14.758  -4.575  1.00 20.00     0.128 C 
HETATM    2  O11 UNL     1     -34.437  13.816  -4.018  1.00 20.00    -0.298 OA
ENDROOT
BRANCH   1   3
HETATM    3  C8  UNL     1     -32.995  15.739  -3.818  1.00 20.00     0.082 C 
BRANCH   3   4
HETATM    4  C4  UNL     1     -33.678  16.375  -2.649  1.00 20.00    -0.008 A 
HETATM    5  C2  UNL     1     -32.973  17.428  -1.840  1.00 20.00     0.005 A 
HETATM    6  C3  UNL     1     -34.128  17.808  -2.723  1.00 20.00     0.005 A 
ENDBRANCH   3   4
ENDBRANCH   1   3
BRANCH   1   7
HETATM    7  C9  UNL     1     -34.041  15.005  -6.066  1.00 20.00     0.086 C 
BRANCH   7   8
HETATM    8  C10 UNL     1     -35.156  16.007  -6.442  1.00 20.00    -0.045 C 
HETATM    9  C5  UNL     1     -34.612  17.443  -6.530  1.00 20.00     0.015 C 
HETATM   10  C6  UNL     1     -36.310  15.963  -5.429  1.00 20.00     0.015 C 
HETATM   11  C7  UNL     1     -35.705  15.613  -7.827  1.00 20.00     0.015 C 
ENDBRANCH   7   8
ENDBRANCH   1   7
TORSDOF 4
ENDMDL
MODEL 2
REMARK VINA RESULT:      -3.8     12.431     14.073
REMARK  4 active torsions:
REMARK  status: ('A' for Active; 'I' for Inactive)
REMARK    1  A    between atoms: C1_1  and  C8_8 
REMARK    2  A    between atoms: C1_1  and  C9_9 
REMARK    3  A    between atoms: C4_4  and  C8_8 
REMARK    4  A    between atoms: C9_9  and  C10_10 
ROOT
HETATM    1  C1  UNL     1     -41.856  13.220   6.694  1.00 20.00     0.128 C 
HETATM    2  O11 UNL     1     -42.259  12.184   7.224  1.00 20.00    -0.298 OA
ENDROOT
BRANCH   1   3
HETATM    3  C8  UNL     1     -40.870  13.210   5.539  1.00 20.00     0.082 C 
BRANCH   3   4
HETATM    4  C4  UNL     1     -40.012  11.986   5.495  1.00 20.00    -0.008 A 
HETATM    5  C2  UNL     1     -39.186  11.683   4.276  1.00 20.00     0.005 A 
HETATM    6  C3  UNL     1     -38.514  12.111   5.551  1.00 20.00     0.005 A 
ENDBRANCH   3   4
ENDBRANCH   1   3
BRANCH   1   7
HETATM    7  C9  UNL     1     -42.314  14.584   7.186  1.00 20.00     0.086 C 
BRANCH   7   8
HETATM    8  C10 UNL     1     -41.343  15.290   8.158  1.00 20.00    -0.045 C 
HETATM    9  C5  UNL     1     -40.603  16.449   7.468  1.00 20.00     0.015 C 
HETATM   10  C6  UNL     1     -40.315  14.304   8.734  1.00 20.00     0.015 C 
HETATM   11  C7  UNL     1     -42.169  15.870   9.322  1.00 20.00     0.015 C 
ENDBRANCH   7   8
ENDBRANCH   1   7
TORSDOF 4
ENDMDL
MODEL 3
REMARK VINA RESULT:      -3.6     11.090     12.585
REMARK  4 active torsions:
REMARK  status: ('A' for Active; 'I' for Inactive)
REMARK    1  A    between atoms: C1_1  and  C8_8 
REMARK    2  A    between atoms: C1_1  and  C9_9 
REMARK    3  A    between atoms: C4_4  and  C8_8 
REMARK    4  A    between atoms: C9_9  and  C10_10 
ROOT
HETATM    1  C1  UNL     1     -32.625   8.061   4.254  1.00 20.00     0.128 C 
HETATM    2  O11 UNL     1     -32.017   8.597   5.181  1.00 20.00    -0.298 OA
ENDROOT
BRANCH   1   3
HETATM    3  C8  UNL     1     -31.960   7.738   2.928  1.00 20.00     0.082 C 
BRANCH   3   4
HETATM    4  C4  UNL     1     -32.766   8.149   1.738  1.00 20.00    -0.008 A 
HETATM    5  C2  UNL     1     -32.857   9.599   1.349  1.00 20.00     0.005 A 
HETATM    6  C3  UNL     1     -32.079   8.640   0.493  1.00 20.00     0.005 A 
ENDBRANCH   3   4
ENDBRANCH   1   3
BRANCH   1   7
HETATM    7  C9  UNL     1     -34.098   7.707   4.382  1.00 20.00     0.086 C 
BRANCH   7   8
HETATM    8  C10 UNL     1     -34.389   6.234   4.745  1.00 20.00    -0.045 C 
HETATM    9  C5  UNL     1     -34.196   5.979   6.249  1.00 20.00     0.015 C 
HETATM   10  C6  UNL     1     -33.490   5.275   3.948  1.00 20.00     0.015 C 
HETATM   11  C7  UNL     1     -35.858   5.935   4.389  1.00 20.00     0.015 C 
ENDBRANCH   7   8
ENDBRANCH   1   7
TORSDOF 4
ENDMDL
MODEL 4
REMARK VINA RESULT:      -3.5      1.789      2.571
REMARK  4 active torsions:
REMARK  status: ('A' for Active; 'I' for Inactive)
REMARK    1  A    between atoms: C1_1  and  C8_8 
REMARK    2  A    between atoms: C1_1  and  C9_9 
REMARK    3  A    between atoms: C4_4  and  C8_8 
REMARK    4  A    between atoms: C9_9  and  C10_10 
ROOT
HETATM    1  C1  UNL     1     -33.330  16.862  -3.375  1.00 20.00     0.128 C 
HETATM    2  O11 UNL     1     -33.100  17.868  -4.047  1.00 20.00    -0.298 OA
ENDROOT
BRANCH   1   3
HETATM    3  C8  UNL     1     -33.516  16.918  -1.870  1.00 20.00     0.082 C 
BRANCH   3   4
HETATM    4  C4  UNL     1     -33.127  18.229  -1.266  1.00 20.00    -0.008 A 
HETATM    5  C2  UNL     1     -33.060  18.385   0.228  1.00 20.00     0.005 A 
HETATM    6  C3  UNL     1     -31.795  18.382  -0.584  1.00 20.00     0.005 A 
ENDBRANCH   3   4
ENDBRANCH   1   3
BRANCH   1   7
HETATM    7  C9  UNL     1     -33.421  15.489  -4.023  1.00 20.00     0.086 C 
BRANCH   7   8
HETATM    8  C10 UNL     1     -34.593  15.309  -5.014  1.00 20.00    -0.045 C 
HETATM    9  C5  UNL     1     -35.525  16.532  -5.008  1.00 20.00     0.015 C 
HETATM   10  C6  UNL     1     -35.409  14.048  -4.690  1.00 20.00     0.015 C 
HETATM   11  C7  UNL     1     -34.002  15.158  -6.429  1.00 20.00     0.015 C 
ENDBRANCH   7   8
ENDBRANCH   1   7
TORSDOF 4
ENDMDL
MODEL 5
REMARK VINA RESULT:      -3.5     11.023     12.534
REMARK  4 active torsions:
REMARK  status: ('A' for Active; 'I' for Inactive)
REMARK    1  A    between atoms: C1_1  and  C8_8 
REMARK    2  A    between atoms: C1_1  and  C9_9 
REMARK    3  A    between atoms: C4_4  and  C8_8 
REMARK    4  A    between atoms: C9_9  and  C10_10 
ROOT
HETATM    1  C1  UNL     1     -32.853   8.087   4.208  1.00 20.00     0.128 C 
HETATM    2  O11 UNL     1     -31.638   8.057   4.404  1.00 20.00    -0.298 OA
ENDROOT
BRANCH   1   3
HETATM    3  C8  UNL     1     -33.464   8.768   2.997  1.00 20.00     0.082 C 
BRANCH   3   4
HETATM    4  C4  UNL     1     -32.456   9.188   1.975  1.00 20.00    -0.008 A 
HETATM    5  C2  UNL     1     -32.092   8.265   0.845  1.00 20.00     0.005 A 
HETATM    6  C3  UNL     1     -32.891   9.508   0.570  1.00 20.00     0.005 A 
ENDBRANCH   3   4
ENDBRANCH   1   3
BRANCH   1   7
HETATM    7  C9  UNL     1     -33.823   7.452   5.193  1.00 20.00     0.086 C 
BRANCH   7   8
HETATM    8  C10 UNL     1     -34.381   6.075   4.767  1.00 20.00    -0.045 C 
HETATM    9  C5  UNL     1     -33.485   5.411   3.708  1.00 20.00     0.015 C 
HETATM   10  C6  UNL     1     -35.810   6.198   4.217  1.00 20.00     0.015 C 
HETATM   11  C7  UNL     1     -34.412   5.167   6.011  1.00 20.00     0.015 C 
ENDBRANCH   7   8
ENDBRANCH   1   7
TORSDOF 4
ENDMDL
MODEL 6
REMARK VINA RESULT:      -3.4      1.363      1.737
REMARK  4 active torsions:
REMARK  status: ('A' for Active; 'I' for Inactive)
REMARK    1  A    between atoms: C1_1  and  C8_8 
REMARK    2  A    between atoms: C1_1  and  C9_9 
REMARK    3  A    between atoms: C4_4  and  C8_8 
REMARK    4  A    between atoms: C9_9  and  C10_10 
ROOT
HETATM    1  C1  UNL     1     -34.531  14.961  -5.679  1.00 20.00     0.128 C 
HETATM    2  O11 UNL     1     -33.660  14.857  -6.543  1.00 20.00    -0.298 OA
ENDROOT
BRANCH   1   3
HETATM    3  C8  UNL     1     -34.221  14.847  -4.197  1.00 20.00     0.082 C 
BRANCH   3   4
HETATM    4  C4  UNL     1     -33.187  15.820  -3.725  1.00 20.00    -0.008 A 
HETATM    5  C2  UNL     1     -33.478  17.295  -3.727  1.00 20.00     0.005 A 
HETATM    6  C3  UNL     1     -33.376  16.552  -2.425  1.00 20.00     0.005 A 
ENDBRANCH   3   4
ENDBRANCH   1   3
BRANCH   1   7
HETATM    7  C9  UNL     1     -35.987  15.191  -6.055  1.00 20.00     0.086 C 
BRANCH   7   8
HETATM    8  C10 UNL     1     -36.375  16.668  -6.294  1.00 20.00    -0.045 C 
HETATM    9  C5  UNL     1     -35.187  17.478  -6.839  1.00 20.00     0.015 C 
HETATM   10  C6  UNL     1     -36.890  17.326  -5.005  1.00 20.00     0.015 C 
HETATM   11  C7  UNL     1     -37.504  16.700  -7.343  1.00 20.00     0.015 C 
ENDBRANCH   7   8
ENDBRANCH   1   7
TORSDOF 4
ENDMDL
MODEL 7
REMARK VINA RESULT:      -3.4      1.811      2.731
REMARK  4 active torsions:
REMARK  status: ('A' for Active; 'I' for Inactive)
REMARK    1  A    between atoms: C1_1  and  C8_8 
REMARK    2  A    between atoms: C1_1  and  C9_9 
REMARK    3  A    between atoms: C4_4  and  C8_8 
REMARK    4  A    between atoms: C9_9  and  C10_10 
ROOT
HETATM    1  C1  UNL     1     -34.331  17.649  -4.169  1.00 20.00     0.128 C 
HETATM    2  O11 UNL     1     -33.322  18.078  -4.730  1.00 20.00    -0.298 OA
ENDROOT
BRANCH   1   3
HETATM    3  C8  UNL     1     -34.654  17.974  -2.722  1.00 20.00     0.082 C 
BRANCH   3   4
HETATM    4  C4  UNL     1     -33.709  17.353  -1.743  1.00 20.00    -0.008 A 
HETATM    5  C2  UNL     1     -32.499  18.111  -1.273  1.00 20.00     0.005 A 
HETATM    6  C3  UNL     1     -33.642  17.862  -0.329  1.00 20.00     0.005 A 
ENDBRANCH   3   4
ENDBRANCH   1   3
BRANCH   1   7
HETATM    7  C9  UNL     1     -35.311  16.744  -4.900  1.00 20.00     0.086 C 
BRANCH   7   8
HETATM    8  C10 UNL     1     -34.766  15.342  -5.256  1.00 20.00    -0.045 C 
HETATM    9  C5  UNL     1     -33.782  14.835  -4.189  1.00 20.00     0.015 C 
HETATM   10  C6  UNL     1     -34.071  15.346  -6.626  1.00 20.00     0.015 C 
HETATM   11  C7  UNL     1     -35.959  14.368  -5.316  1.00 20.00     0.015 C 
ENDBRANCH   7   8
ENDBRANCH   1   7
TORSDOF 4
ENDMDL
MODEL 8
REMARK VINA RESULT:      -3.4      3.768      5.855
REMARK  4 active torsions:
REMARK  status: ('A' for Active; 'I' for Inactive)
REMARK    1  A    between atoms: C1_1  and  C8_8 
REMARK    2  A    between atoms: C1_1  and  C9_9 
REMARK    3  A    between atoms: C4_4  and  C8_8 
REMARK    4  A    between atoms: C9_9  and  C10_10 
ROOT
HETATM    1  C1  UNL     1     -33.734  18.696   0.486  1.00 20.00     0.128 C 
HETATM    2  O11 UNL     1     -34.809  19.196   0.818  1.00 20.00    -0.298 OA
ENDROOT
BRANCH   1   3
HETATM    3  C8  UNL     1     -32.401  19.260   0.947  1.00 20.00     0.082 C 
BRANCH   3   4
HETATM    4  C4  UNL     1     -31.661  18.358   1.883  1.00 20.00    -0.008 A 
HETATM    5  C2  UNL     1     -30.201  18.586   2.159  1.00 20.00     0.005 A 
HETATM    6  C3  UNL     1     -31.219  18.863   3.229  1.00 20.00     0.005 A 
ENDBRANCH   3   4
ENDBRANCH   1   3
BRANCH   1   7
HETATM    7  C9  UNL     1     -33.680  17.484  -0.431  1.00 20.00     0.086 C 
BRANCH   7   8
HETATM    8  C10 UNL     1     -33.680  17.805  -1.942  1.00 20.00    -0.045 C 
HETATM    9  C5  UNL     1     -35.007  18.449  -2.378  1.00 20.00     0.015 C 
HETATM   10  C6  UNL     1     -33.429  16.543  -2.781  1.00 20.00     0.015 C 
HETATM   11  C7  UNL     1     -32.543  18.808  -2.217  1.00 20.00     0.015 C 
ENDBRANCH   7   8
ENDBRANCH   1   7
TORSDOF 4
ENDMDL
MODEL 9
REMARK VINA RESULT:      -3.3     11.796     13.159
REMARK  4 active torsions:
REMARK  status: ('A' for Active; 'I' for Inactive)
REMARK    1  A    between atoms: C1_1  and  C8_8 
REMARK    2  A    between atoms: C1_1  and  C9_9 
REMARK    3  A    between atoms: C4_4  and  C8_8 
REMARK    4  A    between atoms: C9_9  and  C10_10 
ROOT
HETATM    1  C1  UNL     1     -33.066   8.290   5.152  1.00 20.00     0.128 C 
HETATM    2  O11 UNL     1     -32.522   9.339   5.496  1.00 20.00    -0.298 OA
ENDROOT
BRANCH   1   3
HETATM    3  C8  UNL     1     -33.329   7.155   6.126  1.00 20.00     0.082 C 
BRANCH   3   4
HETATM    4  C4  UNL     1     -34.590   6.403   5.844  1.00 20.00    -0.008 A 
HETATM    5  C2  UNL     1     -34.536   5.052   5.186  1.00 20.00     0.005 A 
HETATM    6  C3  UNL     1     -34.926   5.166   6.633  1.00 20.00     0.005 A 
ENDBRANCH   3   4
ENDBRANCH   1   3
BRANCH   1   7
HETATM    7  C9  UNL     1     -33.493   8.062   3.710  1.00 20.00     0.086 C 
BRANCH   7   8
HETATM    8  C10 UNL     1     -32.406   7.457   2.793  1.00 20.00    -0.045 C 
HETATM    9  C5  UNL     1     -32.345   8.186   1.440  1.00 20.00     0.015 C 
HETATM   10  C6  UNL     1     -32.650   5.959   2.552  1.00 20.00     0.015 C 
HETATM   11  C7  UNL     1     -31.044   7.623   3.494  1.00 20.00     0.015 C 
ENDBRANCH   7   8
ENDBRANCH   1   7
TORSDOF 4
ENDMDL
