MODEL 1
REMARK VINA RESULT:      -4.3      0.000      0.000
REMARK  1 active torsions:
REMARK  status: ('A' for Active; 'I' for Inactive)
REMARK    1  A    between atoms: C7_7  and  C9_9 
ROOT
HETATM    1  C1  UNL     1     -32.592   9.249   0.852  1.00 20.00     0.012 C 
HETATM    2  C2  UNL     1     -32.594   8.825   1.976  1.00 20.00    -0.117 C 
HETATM    3  C9  UNL     1     -32.585   8.319   3.349  1.00 20.00     0.098 C 
ENDROOT
BRANCH   3   4
HETATM    4  C7  UNL     1     -33.533   7.139   3.499  1.00 20.00     0.008 C 
HETATM    5  C5  UNL     1     -32.851   5.798   3.208  1.00 20.00     0.013 C 
HETATM    6  C4  UNL     1     -33.836   4.757   3.723  1.00 20.00     0.079 C 
HETATM    7  C3  UNL     1     -34.474   5.473   4.885  1.00 20.00     0.131 C 
HETATM    8  C6  UNL     1     -34.160   6.957   4.894  1.00 20.00     0.056 C 
HETATM    9  O10 UNL     1     -35.172   4.915   5.722  1.00 20.00    -0.298 OA
HETATM   10  C8  UNL     1     -33.260   7.281   6.078  1.00 20.00     0.018 C 
ENDBRANCH   3   4
TORSDOF 1
ENDMDL
MODEL 2
REMARK VINA RESULT:      -4.1     12.069     13.214
REMARK  1 active torsions:
REMARK  status: ('A' for Active; 'I' for Inactive)
REMARK    1  A    between atoms: C7_7  and  C9_9 
ROOT
HETATM    1  C1  UNL     1     -33.314  16.877  -2.234  1.00 20.00     0.012 C 
HETATM    2  C2  UNL     1     -33.397  16.105  -3.150  1.00 20.00    -0.117 C 
HETATM    3  C9  UNL     1     -33.489  15.154  -4.259  1.00 20.00     0.098 C 
ENDROOT
BRANCH   3   4
HETATM    4  C7  UNL     1     -34.262  15.753  -5.424  1.00 20.00     0.008 C 
HETATM    5  C5  UNL     1     -33.735  15.279  -6.782  1.00 20.00     0.013 C 
HETATM    6  C4  UNL     1     -34.811  15.704  -7.772  1.00 20.00     0.079 C 
HETATM    7  C3  UNL     1     -36.065  15.590  -6.943  1.00 20.00     0.131 C 
HETATM    8  C6  UNL     1     -35.769  15.433  -5.463  1.00 20.00     0.056 C 
HETATM    9  O10 UNL     1     -37.194  15.628  -7.415  1.00 20.00    -0.298 OA
HETATM   10  C8  UNL     1     -36.166  14.035  -5.009  1.00 20.00     0.018 C 
ENDBRANCH   3   4
TORSDOF 1
ENDMDL
MODEL 3
REMARK VINA RESULT:      -4.1     10.039     10.811
REMARK  1 active torsions:
REMARK  status: ('A' for Active; 'I' for Inactive)
REMARK    1  A    between atoms: C7_7  and  C9_9 
ROOT
HETATM    1  C1  UNL     1     -38.937  11.633   3.898  1.00 20.00     0.012 C 
HETATM    2  C2  UNL     1     -39.314  11.951   4.993  1.00 20.00    -0.117 C 
HETATM    3  C9  UNL     1     -39.761  12.332   6.334  1.00 20.00     0.098 C 
ENDROOT
BRANCH   3   4
HETATM    4  C7  UNL     1     -41.020  13.182   6.265  1.00 20.00     0.008 C 
HETATM    5  C5  UNL     1     -42.265  12.425   6.737  1.00 20.00     0.013 C 
HETATM    6  C4  UNL     1     -43.321  13.508   6.908  1.00 20.00     0.079 C 
HETATM    7  C3  UNL     1     -42.492  14.694   7.328  1.00 20.00     0.131 C 
HETATM    8  C6  UNL     1     -41.007  14.468   7.114  1.00 20.00     0.056 C 
HETATM    9  O10 UNL     1     -42.969  15.725   7.786  1.00 20.00    -0.298 OA
HETATM   10  C8  UNL     1     -40.306  14.371   8.461  1.00 20.00     0.018 C 
ENDBRANCH   3   4
TORSDOF 1
ENDMDL
MODEL 4
REMARK VINA RESULT:      -4.0      1.277      2.314
REMARK  1 active torsions:
REMARK  status: ('A' for Active; 'I' for Inactive)
REMARK    1  A    between atoms: C7_7  and  C9_9 
ROOT
HETATM    1  C1  UNL     1     -32.551   9.139   0.792  1.00 20.00     0.012 C 
HETATM    2  C2  UNL     1     -32.397   8.185   1.505  1.00 20.00    -0.117 C 
HETATM    3  C9  UNL     1     -32.205   7.014   2.362  1.00 20.00     0.098 C 
ENDROOT
BRANCH   3   4
HETATM    4  C7  UNL     1     -32.411   7.374   3.826  1.00 20.00     0.008 C 
HETATM    5  C5  UNL     1     -33.066   8.747   4.006  1.00 20.00     0.013 C 
HETATM    6  C4  UNL     1     -33.481   8.776   5.471  1.00 20.00     0.079 C 
HETATM    7  C3  UNL     1     -33.799   7.327   5.738  1.00 20.00     0.131 C 
HETATM    8  C6  UNL     1     -33.304   6.412   4.633  1.00 20.00     0.056 C 
HETATM    9  O10 UNL     1     -34.386   6.936   6.739  1.00 20.00    -0.298 OA
HETATM   10  C8  UNL     1     -34.493   5.823   3.888  1.00 20.00     0.018 C 
ENDBRANCH   3   4
TORSDOF 1
ENDMDL
MODEL 5
REMARK VINA RESULT:      -3.9     11.813     12.938
REMARK  1 active torsions:
REMARK  status: ('A' for Active; 'I' for Inactive)
REMARK    1  A    between atoms: C7_7  and  C9_9 
ROOT
HETATM    1  C1  UNL     1     -33.585  17.774  -0.619  1.00 20.00     0.012 C 
HETATM    2  C2  UNL     1     -34.004  17.877  -1.740  1.00 20.00    -0.117 C 
HETATM    3  C9  UNL     1     -34.524  18.013  -3.102  1.00 20.00     0.098 C 
ENDROOT
BRANCH   3   4
HETATM    4  C7  UNL     1     -33.853  17.021  -4.040  1.00 20.00     0.008 C 
HETATM    5  C5  UNL     1     -33.698  15.633  -3.412  1.00 20.00     0.013 C 
HETATM    6  C4  UNL     1     -33.330  14.730  -4.582  1.00 20.00     0.079 C 
HETATM    7  C3  UNL     1     -34.069  15.378  -5.724  1.00 20.00     0.131 C 
HETATM    8  C6  UNL     1     -34.583  16.761  -5.372  1.00 20.00     0.056 C 
HETATM    9  O10 UNL     1     -34.228  14.846  -6.816  1.00 20.00    -0.298 OA
HETATM   10  C8  UNL     1     -36.104  16.738  -5.306  1.00 20.00     0.018 C 
ENDBRANCH   3   4
TORSDOF 1
ENDMDL
MODEL 6
REMARK VINA RESULT:      -3.9      1.843      2.259
REMARK  1 active torsions:
REMARK  status: ('A' for Active; 'I' for Inactive)
REMARK    1  A    between atoms: C7_7  and  C9_9 
ROOT
HETATM    1  C1  UNL     1     -31.823   9.404   5.034  1.00 20.00     0.012 C 
HETATM    2  C2  UNL     1     -32.886   8.850   5.119  1.00 20.00    -0.117 C 
HETATM    3  C9  UNL     1     -34.186   8.187   5.231  1.00 20.00     0.098 C 
ENDROOT
BRANCH   3   4
HETATM    4  C7  UNL     1     -34.243   6.952   4.345  1.00 20.00     0.008 C 
HETATM    5  C5  UNL     1     -32.925   6.698   3.607  1.00 20.00     0.013 C 
HETATM    6  C4  UNL     1     -33.067   5.285   3.059  1.00 20.00     0.079 C 
HETATM    7  C3  UNL     1     -33.920   4.623   4.111  1.00 20.00     0.131 C 
HETATM    8  C6  UNL     1     -34.541   5.623   5.067  1.00 20.00     0.056 C 
HETATM    9  O10 UNL     1     -34.093   3.412   4.178  1.00 20.00    -0.298 OA
HETATM   10  C8  UNL     1     -33.922   5.461   6.448  1.00 20.00     0.018 C 
ENDBRANCH   3   4
TORSDOF 1
ENDMDL
MODEL 7
REMARK VINA RESULT:      -3.8     11.719     12.714
REMARK  1 active torsions:
REMARK  status: ('A' for Active; 'I' for Inactive)
REMARK    1  A    between atoms: C7_7  and  C9_9 
ROOT
HETATM    1  C1  UNL     1     -33.933  18.138  -0.133  1.00 20.00     0.012 C 
HETATM    2  C2  UNL     1     -33.498  17.635  -1.133  1.00 20.00    -0.117 C 
HETATM    3  C9  UNL     1     -32.954  17.022  -2.346  1.00 20.00     0.098 C 
ENDROOT
BRANCH   3   4
HETATM    4  C7  UNL     1     -34.059  16.737  -3.352  1.00 20.00     0.008 C 
HETATM    5  C5  UNL     1     -34.046  17.716  -4.530  1.00 20.00     0.013 C 
HETATM    6  C4  UNL     1     -34.975  17.081  -5.556  1.00 20.00     0.079 C 
HETATM    7  C3  UNL     1     -34.764  15.610  -5.305  1.00 20.00     0.131 C 
HETATM    8  C6  UNL     1     -34.022  15.343  -4.009  1.00 20.00     0.056 C 
HETATM    9  O10 UNL     1     -35.154  14.731  -6.064  1.00 20.00    -0.298 OA
HETATM   10  C8  UNL     1     -32.639  14.788  -4.317  1.00 20.00     0.018 C 
ENDBRANCH   3   4
TORSDOF 1
ENDMDL
MODEL 8
REMARK VINA RESULT:      -3.7      2.251      4.408
REMARK  1 active torsions:
REMARK  status: ('A' for Active; 'I' for Inactive)
REMARK    1  A    between atoms: C7_7  and  C9_9 
ROOT
HETATM    1  C1  UNL     1     -34.036   5.019   6.956  1.00 20.00     0.012 C 
HETATM    2  C2  UNL     1     -34.537   5.387   5.929  1.00 20.00    -0.117 C 
HETATM    3  C9  UNL     1     -35.160   5.826   4.679  1.00 20.00     0.098 C 
ENDROOT
BRANCH   3   4
HETATM    4  C7  UNL     1     -34.352   6.942   4.033  1.00 20.00     0.008 C 
HETATM    5  C5  UNL     1     -33.325   7.552   4.991  1.00 20.00     0.013 C 
HETATM    6  C4  UNL     1     -32.421   8.385   4.093  1.00 20.00     0.079 C 
HETATM    7  C3  UNL     1     -32.441   7.598   2.808  1.00 20.00     0.131 C 
HETATM    8  C6  UNL     1     -33.531   6.542   2.792  1.00 20.00     0.056 C 
HETATM    9  O10 UNL     1     -31.666   7.796   1.881  1.00 20.00    -0.298 OA
HETATM   10  C8  UNL     1     -32.900   5.157   2.827  1.00 20.00     0.018 C 
ENDBRANCH   3   4
TORSDOF 1
ENDMDL
MODEL 9
REMARK VINA RESULT:      -3.6     11.868     13.284
REMARK  1 active torsions:
REMARK  status: ('A' for Active; 'I' for Inactive)
REMARK    1  A    between atoms: C7_7  and  C9_9 
ROOT
HETATM    1  C1  UNL     1     -33.673  17.116  -1.483  1.00 20.00     0.012 C 
HETATM    2  C2  UNL     1     -33.566  17.323  -2.662  1.00 20.00    -0.117 C 
HETATM    3  C9  UNL     1     -33.423  17.582  -4.095  1.00 20.00     0.098 C 
ENDROOT
BRANCH   3   4
HETATM    4  C7  UNL     1     -34.604  17.018  -4.869  1.00 20.00     0.008 C 
HETATM    5  C5  UNL     1     -34.597  17.442  -6.341  1.00 20.00     0.013 C 
HETATM    6  C4  UNL     1     -35.628  16.536  -6.999  1.00 20.00     0.079 C 
HETATM    7  C3  UNL     1     -35.504  15.274  -6.185  1.00 20.00     0.131 C 
HETATM    8  C6  UNL     1     -34.704  15.481  -4.913  1.00 20.00     0.056 C 
HETATM    9  O10 UNL     1     -36.000  14.204  -6.516  1.00 20.00    -0.298 OA
HETATM   10  C8  UNL     1     -33.384  14.729  -5.013  1.00 20.00     0.018 C 
ENDBRANCH   3   4
TORSDOF 1
ENDMDL
