MODEL 1
REMARK VINA RESULT:      -4.4      0.000      0.000
REMARK  1 active torsions:
REMARK  status: ('A' for Active; 'I' for Inactive)
REMARK    1  A    between atoms: C5_5  and  C9_9 
ROOT
HETATM    1  C1  UNL     1     -32.895   9.514   0.327  1.00 20.00     0.012 C 
HETATM    2  C2  UNL     1     -32.520   8.785   1.204  1.00 20.00    -0.117 C 
HETATM    3  C9  UNL     1     -32.054   7.892   2.269  1.00 20.00     0.098 C 
ENDROOT
BRANCH   3   4
HETATM    4  C5  UNL     1     -33.061   7.827   3.407  1.00 20.00     0.002 C 
HETATM    5  C3  UNL     1     -32.432   8.117   4.779  1.00 20.00     0.007 C 
HETATM    6  C4  UNL     1     -33.260   7.330   5.801  1.00 20.00     0.021 C 
HETATM    7  C7  UNL     1     -34.392   6.696   4.997  1.00 20.00     0.086 C 
HETATM    8  C6  UNL     1     -33.798   6.483   3.594  1.00 20.00     0.005 C 
HETATM    9 CL10 UNL     1     -35.041   5.243   5.773  1.00 20.00    -0.125 Cl
HETATM   10  C8  UNL     1     -32.888   5.258   3.462  1.00 20.00     0.012 C 
ENDBRANCH   3   4
TORSDOF 1
ENDMDL
MODEL 2
REMARK VINA RESULT:      -4.0     10.008     10.836
REMARK  1 active torsions:
REMARK  status: ('A' for Active; 'I' for Inactive)
REMARK    1  A    between atoms: C5_5  and  C9_9 
ROOT
HETATM    1  C1  UNL     1     -38.918  11.630   3.795  1.00 20.00     0.012 C 
HETATM    2  C2  UNL     1     -39.325  11.865   4.901  1.00 20.00    -0.117 C 
HETATM    3  C9  UNL     1     -39.813  12.147   6.254  1.00 20.00     0.098 C 
ENDROOT
BRANCH   3   4
HETATM    4  C5  UNL     1     -41.200  12.768   6.217  1.00 20.00     0.002 C 
HETATM    5  C3  UNL     1     -41.415  13.683   5.001  1.00 20.00     0.007 C 
HETATM    6  C4  UNL     1     -42.426  14.746   5.442  1.00 20.00     0.021 C 
HETATM    7  C7  UNL     1     -42.831  14.350   6.860  1.00 20.00     0.086 C 
HETATM    8  C6  UNL     1     -41.595  13.636   7.431  1.00 20.00     0.005 C 
HETATM    9 CL10 UNL     1     -43.416  15.728   7.806  1.00 20.00    -0.125 Cl
HETATM   10  C8  UNL     1     -40.479  14.570   7.909  1.00 20.00     0.012 C 
ENDBRANCH   3   4
TORSDOF 1
ENDMDL
MODEL 3
REMARK VINA RESULT:      -3.9     10.321     11.064
REMARK  1 active torsions:
REMARK  status: ('A' for Active; 'I' for Inactive)
REMARK    1  A    between atoms: C5_5  and  C9_9 
ROOT
HETATM    1  C1  UNL     1     -38.952  11.647   3.961  1.00 20.00     0.012 C 
HETATM    2  C2  UNL     1     -39.609  11.892   4.935  1.00 20.00    -0.117 C 
HETATM    3  C9  UNL     1     -40.412  12.180   6.127  1.00 20.00     0.098 C 
ENDROOT
BRANCH   3   4
HETATM    4  C5  UNL     1     -40.598  13.678   6.312  1.00 20.00     0.002 C 
HETATM    5  C3  UNL     1     -40.490  14.119   7.780  1.00 20.00     0.007 C 
HETATM    6  C4  UNL     1     -41.381  15.358   7.920  1.00 20.00     0.021 C 
HETATM    7  C7  UNL     1     -41.892  15.644   6.510  1.00 20.00     0.086 C 
HETATM    8  C6  UNL     1     -41.941  14.267   5.829  1.00 20.00     0.005 C 
HETATM    9 CL10 UNL     1     -43.417  16.544   6.513  1.00 20.00    -0.125 Cl
HETATM   10  C8  UNL     1     -43.157  13.411   6.198  1.00 20.00     0.012 C 
ENDBRANCH   3   4
TORSDOF 1
ENDMDL
MODEL 4
REMARK VINA RESULT:      -3.8     11.603     12.499
REMARK  1 active torsions:
REMARK  status: ('A' for Active; 'I' for Inactive)
REMARK    1  A    between atoms: C5_5  and  C9_9 
ROOT
HETATM    1  C1  UNL     1     -30.394  18.709   2.237  1.00 20.00     0.012 C 
HETATM    2  C2  UNL     1     -30.728  18.524   1.099  1.00 20.00    -0.117 C 
HETATM    3  C9  UNL     1     -31.128  18.292  -0.293  1.00 20.00     0.098 C 
ENDROOT
BRANCH   3   4
HETATM    4  C5  UNL     1     -32.408  19.042  -0.626  1.00 20.00     0.002 C 
HETATM    5  C3  UNL     1     -33.430  19.022   0.521  1.00 20.00     0.007 C 
HETATM    6  C4  UNL     1     -34.811  19.102  -0.139  1.00 20.00     0.021 C 
HETATM    7  C7  UNL     1     -34.534  19.263  -1.631  1.00 20.00     0.086 C 
HETATM    8  C6  UNL     1     -33.195  18.541  -1.856  1.00 20.00     0.005 C 
HETATM    9 CL10 UNL     1     -35.879  18.697  -2.634  1.00 20.00    -0.125 Cl
HETATM   10  C8  UNL     1     -33.296  17.015  -1.943  1.00 20.00     0.012 C 
ENDBRANCH   3   4
TORSDOF 1
ENDMDL
MODEL 5
REMARK VINA RESULT:      -3.8     11.432     12.490
REMARK  1 active torsions:
REMARK  status: ('A' for Active; 'I' for Inactive)
REMARK    1  A    between atoms: C5_5  and  C9_9 
ROOT
HETATM    1  C1  UNL     1     -33.871  17.763  -0.249  1.00 20.00     0.012 C 
HETATM    2  C2  UNL     1     -33.446  17.519  -1.345  1.00 20.00    -0.117 C 
HETATM    3  C9  UNL     1     -32.917  17.228  -2.681  1.00 20.00     0.098 C 
ENDROOT
BRANCH   3   4
HETATM    4  C5  UNL     1     -33.810  16.242  -3.419  1.00 20.00     0.002 C 
HETATM    5  C3  UNL     1     -33.016  15.161  -4.168  1.00 20.00     0.007 C 
HETATM    6  C4  UNL     1     -33.873  14.763  -5.374  1.00 20.00     0.021 C 
HETATM    7  C7  UNL     1     -35.169  15.556  -5.224  1.00 20.00     0.086 C 
HETATM    8  C6  UNL     1     -34.754  16.839  -4.485  1.00 20.00     0.005 C 
HETATM    9 CL10 UNL     1     -35.993  15.804  -6.772  1.00 20.00    -0.125 Cl
HETATM   10  C8  UNL     1     -34.094  17.903  -5.367  1.00 20.00     0.012 C 
ENDBRANCH   3   4
TORSDOF 1
ENDMDL
MODEL 6
REMARK VINA RESULT:      -3.7     11.552     12.820
REMARK  1 active torsions:
REMARK  status: ('A' for Active; 'I' for Inactive)
REMARK    1  A    between atoms: C5_5  and  C9_9 
ROOT
HETATM    1  C1  UNL     1     -32.934  17.830  -1.559  1.00 20.00     0.012 C 
HETATM    2  C2  UNL     1     -33.225  16.930  -2.299  1.00 20.00    -0.117 C 
HETATM    3  C9  UNL     1     -33.579  15.825  -3.195  1.00 20.00     0.098 C 
ENDROOT
BRANCH   3   4
HETATM    4  C5  UNL     1     -33.951  16.339  -4.577  1.00 20.00     0.002 C 
HETATM    5  C3  UNL     1     -35.070  17.391  -4.544  1.00 20.00     0.007 C 
HETATM    6  C4  UNL     1     -35.820  17.257  -5.873  1.00 20.00     0.021 C 
HETATM    7  C7  UNL     1     -35.048  16.204  -6.664  1.00 20.00     0.086 C 
HETATM    8  C6  UNL     1     -34.440  15.284  -5.592  1.00 20.00     0.005 C 
HETATM    9 CL10 UNL     1     -36.056  15.395  -7.875  1.00 20.00    -0.125 Cl
HETATM   10  C8  UNL     1     -35.413  14.261  -4.997  1.00 20.00     0.012 C 
ENDBRANCH   3   4
TORSDOF 1
ENDMDL
MODEL 7
REMARK VINA RESULT:      -3.6     10.420     11.301
REMARK  1 active torsions:
REMARK  status: ('A' for Active; 'I' for Inactive)
REMARK    1  A    between atoms: C5_5  and  C9_9 
ROOT
HETATM    1  C1  UNL     1     -39.346  11.794   4.768  1.00 20.00     0.012 C 
HETATM    2  C2  UNL     1     -40.174  12.550   5.196  1.00 20.00    -0.117 C 
HETATM    3  C9  UNL     1     -41.188  13.477   5.708  1.00 20.00     0.098 C 
ENDROOT
BRANCH   3   4
HETATM    4  C5  UNL     1     -41.295  13.387   7.223  1.00 20.00     0.002 C 
HETATM    5  C3  UNL     1     -42.728  13.600   7.736  1.00 20.00     0.007 C 
HETATM    6  C4  UNL     1     -42.592  14.214   9.133  1.00 20.00     0.021 C 
HETATM    7  C7  UNL     1     -41.092  14.242   9.415  1.00 20.00     0.086 C 
HETATM    8  C6  UNL     1     -40.441  14.388   8.030  1.00 20.00     0.005 C 
HETATM    9 CL10 UNL     1     -40.649  15.483  10.597  1.00 20.00    -0.125 Cl
HETATM   10  C8  UNL     1     -40.457  15.811   7.461  1.00 20.00     0.012 C 
ENDBRANCH   3   4
TORSDOF 1
ENDMDL
MODEL 8
REMARK VINA RESULT:      -3.5     10.909     11.742
REMARK  1 active torsions:
REMARK  status: ('A' for Active; 'I' for Inactive)
REMARK    1  A    between atoms: C5_5  and  C9_9 
ROOT
HETATM    1  C1  UNL     1     -39.337  11.772   5.078  1.00 20.00     0.012 C 
HETATM    2  C2  UNL     1     -40.145  12.372   5.735  1.00 20.00    -0.117 C 
HETATM    3  C9  UNL     1     -41.138  13.096   6.533  1.00 20.00     0.098 C 
ENDROOT
BRANCH   3   4
HETATM    4  C5  UNL     1     -40.551  14.376   7.106  1.00 20.00     0.002 C 
HETATM    5  C3  UNL     1     -40.265  14.283   8.613  1.00 20.00     0.007 C 
HETATM    6  C4  UNL     1     -40.417  15.705   9.163  1.00 20.00     0.021 C 
HETATM    7  C7  UNL     1     -40.687  16.581   7.942  1.00 20.00     0.086 C 
HETATM    8  C6  UNL     1     -41.407  15.651   6.951  1.00 20.00     0.005 C 
HETATM    9 CL10 UNL     1     -41.555  18.068   8.355  1.00 20.00    -0.125 Cl
HETATM   10  C8  UNL     1     -42.896  15.433   7.242  1.00 20.00     0.012 C 
ENDBRANCH   3   4
TORSDOF 1
ENDMDL
MODEL 9
REMARK VINA RESULT:      -3.4      1.029      2.002
REMARK  1 active torsions:
REMARK  status: ('A' for Active; 'I' for Inactive)
REMARK    1  A    between atoms: C5_5  and  C9_9 
ROOT
HETATM    1  C1  UNL     1     -32.180   8.353   0.534  1.00 20.00     0.012 C 
HETATM    2  C2  UNL     1     -32.214   8.474   1.728  1.00 20.00    -0.117 C 
HETATM    3  C9  UNL     1     -32.255   8.632   3.185  1.00 20.00     0.098 C 
ENDROOT
BRANCH   3   4
HETATM    4  C5  UNL     1     -32.499   7.298   3.873  1.00 20.00     0.002 C 
HETATM    5  C3  UNL     1     -33.304   6.316   3.008  1.00 20.00     0.007 C 
HETATM    6  C4  UNL     1     -34.082   5.428   3.984  1.00 20.00     0.021 C 
HETATM    7  C7  UNL     1     -33.624   5.863   5.374  1.00 20.00     0.086 C 
HETATM    8  C6  UNL     1     -33.262   7.349   5.214  1.00 20.00     0.005 C 
HETATM    9 CL10 UNL     1     -34.825   5.505   6.624  1.00 20.00    -0.125 Cl
HETATM   10  C8  UNL     1     -34.461   8.304   5.206  1.00 20.00     0.012 C 
ENDBRANCH   3   4
TORSDOF 1
ENDMDL
