MODEL 1
REMARK VINA RESULT:      -3.6      0.000      0.000
REMARK  2 active torsions:
REMARK  status: ('A' for Active; 'I' for Inactive)
REMARK    1  A    between atoms: C4_4  and  C9_9 
REMARK    2  A    between atoms: C6_6  and  N10_10 
ROOT
HETATM    1  C1  UNL     1     -32.711  18.711  -1.792  1.00 20.00     0.158 C 
HETATM    2  N10 UNL     1     -33.434  18.696  -2.717  1.00 20.00    -0.270 NA
HETATM    3  S11 UNL     1     -31.743  18.757  -0.528  1.00 20.00    -0.055 SA
ENDROOT
BRANCH   2   4
HETATM    4  C6  UNL     1     -33.238  17.574  -3.630  1.00 20.00     0.113 C 
HETATM    5  C3  UNL     1     -33.340  16.242  -2.891  1.00 20.00     0.028 C 
HETATM    6  C2  UNL     1     -33.955  15.257  -3.891  1.00 20.00     0.007 C 
HETATM    7  C4  UNL     1     -34.148  16.047  -5.190  1.00 20.00    -0.009 C 
HETATM    8  C5  UNL     1     -34.312  17.507  -4.724  1.00 20.00     0.010 C 
HETATM    9  C7  UNL     1     -35.722  17.850  -4.234  1.00 20.00     0.012 C 
BRANCH   7  10
HETATM   10  C9  UNL     1     -35.265  15.492  -6.062  1.00 20.00     0.000 C 
HETATM   11  C8  UNL     1     -35.960  14.344  -5.405  1.00 20.00     0.005 C 
ENDBRANCH   7  10
ENDBRANCH   2   4
TORSDOF 2
ENDMDL
MODEL 2
REMARK VINA RESULT:      -3.6      3.017      4.679
REMARK  2 active torsions:
REMARK  status: ('A' for Active; 'I' for Inactive)
REMARK    1  A    between atoms: C4_4  and  C9_9 
REMARK    2  A    between atoms: C6_6  and  N10_10 
ROOT
HETATM    1  C1  UNL     1     -34.973  16.519  -6.372  1.00 20.00     0.158 C 
HETATM    2  N10 UNL     1     -34.474  17.378  -5.746  1.00 20.00    -0.270 NA
HETATM    3  S11 UNL     1     -35.641  15.368  -7.248  1.00 20.00    -0.055 SA
ENDROOT
BRANCH   2   4
HETATM    4  C6  UNL     1     -34.616  17.243  -4.299  1.00 20.00     0.113 C 
HETATM    5  C3  UNL     1     -33.672  16.174  -3.753  1.00 20.00     0.028 C 
HETATM    6  C2  UNL     1     -33.263  16.655  -2.357  1.00 20.00     0.007 C 
HETATM    7  C4  UNL     1     -34.021  17.967  -2.128  1.00 20.00    -0.009 C 
HETATM    8  C5  UNL     1     -34.244  18.528  -3.547  1.00 20.00     0.010 C 
HETATM    9  C7  UNL     1     -33.029  19.259  -4.126  1.00 20.00     0.012 C 
BRANCH   7  10
HETATM   10  C9  UNL     1     -33.321  18.893  -1.144  1.00 20.00     0.000 C 
HETATM   11  C8  UNL     1     -32.013  18.331  -0.691  1.00 20.00     0.005 C 
ENDBRANCH   7  10
ENDBRANCH   2   4
TORSDOF 2
ENDMDL
MODEL 3
REMARK VINA RESULT:      -3.5      3.286      4.569
REMARK  2 active torsions:
REMARK  status: ('A' for Active; 'I' for Inactive)
REMARK    1  A    between atoms: C4_4  and  C9_9 
REMARK    2  A    between atoms: C6_6  and  N10_10 
ROOT
HETATM    1  C1  UNL     1     -36.695  16.762  -6.482  1.00 20.00     0.158 C 
HETATM    2  N10 UNL     1     -35.542  16.552  -6.413  1.00 20.00    -0.270 NA
HETATM    3  S11 UNL     1     -38.256  17.056  -6.605  1.00 20.00    -0.055 SA
ENDROOT
BRANCH   2   4
HETATM    4  C6  UNL     1     -35.088  16.042  -5.123  1.00 20.00     0.113 C 
HETATM    5  C3  UNL     1     -33.841  15.175  -5.283  1.00 20.00     0.028 C 
HETATM    6  C2  UNL     1     -33.011  15.402  -4.016  1.00 20.00     0.007 C 
HETATM    7  C4  UNL     1     -33.831  16.360  -3.145  1.00 20.00    -0.009 C 
HETATM    8  C5  UNL     1     -34.676  17.160  -4.156  1.00 20.00     0.010 C 
HETATM    9  C7  UNL     1     -33.921  18.314  -4.825  1.00 20.00     0.012 C 
BRANCH   7  10
HETATM   10  C9  UNL     1     -32.971  17.179  -2.194  1.00 20.00     0.000 C 
HETATM   11  C8  UNL     1     -33.717  17.546  -0.951  1.00 20.00     0.005 C 
ENDBRANCH   7  10
ENDBRANCH   2   4
TORSDOF 2
ENDMDL
MODEL 4
REMARK VINA RESULT:      -3.3      2.856      4.837
REMARK  2 active torsions:
REMARK  status: ('A' for Active; 'I' for Inactive)
REMARK    1  A    between atoms: C4_4  and  C9_9 
REMARK    2  A    between atoms: C6_6  and  N10_10 
ROOT
HETATM    1  C1  UNL     1     -34.902  17.209  -5.969  1.00 20.00     0.158 C 
HETATM    2  N10 UNL     1     -35.180  17.173  -4.830  1.00 20.00    -0.270 NA
HETATM    3  S11 UNL     1     -34.544  17.233  -7.522  1.00 20.00    -0.055 SA
ENDROOT
BRANCH   2   4
HETATM    4  C6  UNL     1     -34.532  18.192  -4.009  1.00 20.00     0.113 C 
HETATM    5  C3  UNL     1     -35.445  18.643  -2.871  1.00 20.00     0.028 C 
HETATM    6  C2  UNL     1     -34.517  18.967  -1.696  1.00 20.00     0.007 C 
HETATM    7  C4  UNL     1     -33.092  18.733  -2.212  1.00 20.00    -0.009 C 
HETATM    8  C5  UNL     1     -33.261  17.675  -3.320  1.00 20.00     0.010 C 
HETATM    9  C7  UNL     1     -33.375  16.239  -2.799  1.00 20.00     0.012 C 
BRANCH   7  10
HETATM   10  C9  UNL     1     -32.109  18.391  -1.103  1.00 20.00     0.000 C 
HETATM   11  C8  UNL     1     -32.748  18.468   0.246  1.00 20.00     0.005 C 
ENDBRANCH   7  10
ENDBRANCH   2   4
TORSDOF 2
ENDMDL
MODEL 5
REMARK VINA RESULT:      -3.3     11.627     12.803
REMARK  2 active torsions:
REMARK  status: ('A' for Active; 'I' for Inactive)
REMARK    1  A    between atoms: C4_4  and  C9_9 
REMARK    2  A    between atoms: C6_6  and  N10_10 
ROOT
HETATM    1  C1  UNL     1     -32.374   8.156   1.384  1.00 20.00     0.158 C 
HETATM    2  N10 UNL     1     -32.144   7.228   2.066  1.00 20.00    -0.270 NA
HETATM    3  S11 UNL     1     -32.682   9.396   0.432  1.00 20.00    -0.055 SA
ENDROOT
BRANCH   2   4
HETATM    4  C6  UNL     1     -32.180   7.499   3.500  1.00 20.00     0.113 C 
HETATM    5  C3  UNL     1     -32.795   8.867   3.784  1.00 20.00     0.028 C 
HETATM    6  C2  UNL     1     -33.539   8.721   5.115  1.00 20.00     0.007 C 
HETATM    7  C4  UNL     1     -33.291   7.280   5.577  1.00 20.00    -0.009 C 
HETATM    8  C5  UNL     1     -33.056   6.500   4.268  1.00 20.00     0.010 C 
HETATM    9  C7  UNL     1     -34.344   6.109   3.535  1.00 20.00     0.012 C 
BRANCH   7  10
HETATM   10  C9  UNL     1     -34.391   6.750   6.485  1.00 20.00     0.000 C 
HETATM   11  C8  UNL     1     -34.396   5.257   6.532  1.00 20.00     0.005 C 
ENDBRANCH   7  10
ENDBRANCH   2   4
TORSDOF 2
ENDMDL
MODEL 6
REMARK VINA RESULT:      -3.3      1.326      2.203
REMARK  2 active torsions:
REMARK  status: ('A' for Active; 'I' for Inactive)
REMARK    1  A    between atoms: C4_4  and  C9_9 
REMARK    2  A    between atoms: C6_6  and  N10_10 
ROOT
HETATM    1  C1  UNL     1     -33.256  17.711  -1.165  1.00 20.00     0.158 C 
HETATM    2  N10 UNL     1     -32.966  17.169  -2.165  1.00 20.00    -0.270 NA
HETATM    3  S11 UNL     1     -33.621  18.439   0.204  1.00 20.00    -0.055 SA
ENDROOT
BRANCH   2   4
HETATM    4  C6  UNL     1     -34.020  17.143  -3.174  1.00 20.00     0.113 C 
HETATM    5  C3  UNL     1     -33.746  18.159  -4.281  1.00 20.00     0.028 C 
HETATM    6  C2  UNL     1     -34.298  17.534  -5.566  1.00 20.00     0.007 C 
HETATM    7  C4  UNL     1     -34.913  16.193  -5.148  1.00 20.00    -0.009 C 
HETATM    8  C5  UNL     1     -34.119  15.789  -3.891  1.00 20.00     0.010 C 
HETATM    9  C7  UNL     1     -32.762  15.143  -4.192  1.00 20.00     0.012 C 
BRANCH   7  10
HETATM   10  C9  UNL     1     -34.942  15.176  -6.279  1.00 20.00     0.000 C 
HETATM   11  C8  UNL     1     -34.221  15.674  -7.489  1.00 20.00     0.005 C 
ENDBRANCH   7  10
ENDBRANCH   2   4
TORSDOF 2
ENDMDL
MODEL 7
REMARK VINA RESULT:      -3.2     12.757     13.344
REMARK  2 active torsions:
REMARK  status: ('A' for Active; 'I' for Inactive)
REMARK    1  A    between atoms: C4_4  and  C9_9 
REMARK    2  A    between atoms: C6_6  and  N10_10 
ROOT
HETATM    1  C1  UNL     1     -43.221  16.191   7.042  1.00 20.00     0.158 C 
HETATM    2  N10 UNL     1     -43.082  15.165   7.595  1.00 20.00    -0.270 NA
HETATM    3  S11 UNL     1     -43.417  17.596   6.318  1.00 20.00    -0.055 SA
ENDROOT
BRANCH   2   4
HETATM    4  C6  UNL     1     -42.723  14.046   6.730  1.00 20.00     0.113 C 
HETATM    5  C3  UNL     1     -42.326  14.534   5.339  1.00 20.00     0.028 C 
HETATM    6  C2  UNL     1     -41.245  13.564   4.851  1.00 20.00     0.007 C 
HETATM    7  C4  UNL     1     -41.086  12.521   5.962  1.00 20.00    -0.009 C 
HETATM    8  C5  UNL     1     -41.503  13.268   7.244  1.00 20.00     0.010 C 
HETATM    9  C7  UNL     1     -40.403  14.156   7.835  1.00 20.00     0.012 C 
BRANCH   7  10
HETATM   10  C9  UNL     1     -39.707  11.878   5.981  1.00 20.00     0.000 C 
HETATM   11  C8  UNL     1     -39.141  11.745   4.604  1.00 20.00     0.005 C 
ENDBRANCH   7  10
ENDBRANCH   2   4
TORSDOF 2
ENDMDL
MODEL 8
REMARK VINA RESULT:      -3.2     13.168     13.713
REMARK  2 active torsions:
REMARK  status: ('A' for Active; 'I' for Inactive)
REMARK    1  A    between atoms: C4_4  and  C9_9 
REMARK    2  A    between atoms: C6_6  and  N10_10 
ROOT
HETATM    1  C1  UNL     1     -43.137  14.195   8.923  1.00 20.00     0.158 C 
HETATM    2  N10 UNL     1     -42.935  14.615   7.846  1.00 20.00    -0.270 NA
HETATM    3  S11 UNL     1     -43.417  13.654  10.395  1.00 20.00    -0.055 SA
ENDROOT
BRANCH   2   4
HETATM    4  C6  UNL     1     -42.501  13.618   6.872  1.00 20.00     0.113 C 
HETATM    5  C3  UNL     1     -42.443  14.214   5.467  1.00 20.00     0.028 C 
HETATM    6  C2  UNL     1     -41.281  13.506   4.763  1.00 20.00     0.007 C 
HETATM    7  C4  UNL     1     -40.735  12.492   5.774  1.00 20.00    -0.009 C 
HETATM    8  C5  UNL     1     -41.082  13.102   7.146  1.00 20.00     0.010 C 
HETATM    9  C7  UNL     1     -40.104  14.186   7.611  1.00 20.00     0.012 C 
BRANCH   7  10
HETATM   10  C9  UNL     1     -39.270  12.153   5.542  1.00 20.00     0.000 C 
HETATM   11  C8  UNL     1     -39.018  11.719   4.135  1.00 20.00     0.005 C 
ENDBRANCH   7  10
ENDBRANCH   2   4
TORSDOF 2
ENDMDL
MODEL 9
REMARK VINA RESULT:      -3.2      1.701      2.219
REMARK  2 active torsions:
REMARK  status: ('A' for Active; 'I' for Inactive)
REMARK    1  A    between atoms: C4_4  and  C9_9 
REMARK    2  A    between atoms: C6_6  and  N10_10 
ROOT
HETATM    1  C1  UNL     1     -32.871  18.457   0.367  1.00 20.00     0.158 C 
HETATM    2  N10 UNL     1     -33.721  18.299  -0.427  1.00 20.00    -0.270 NA
HETATM    3  S11 UNL     1     -31.740  18.674   1.468  1.00 20.00    -0.055 SA
ENDROOT
BRANCH   2   4
HETATM    4  C6  UNL     1     -33.251  18.102  -1.795  1.00 20.00     0.113 C 
HETATM    5  C3  UNL     1     -33.360  16.636  -2.207  1.00 20.00     0.028 C 
HETATM    6  C2  UNL     1     -33.681  16.647  -3.705  1.00 20.00     0.007 C 
HETATM    7  C4  UNL     1     -33.704  18.123  -4.117  1.00 20.00    -0.009 C 
HETATM    8  C5  UNL     1     -34.091  18.870  -2.825  1.00 20.00     0.010 C 
HETATM    9  C7  UNL     1     -35.595  18.865  -2.530  1.00 20.00     0.012 C 
BRANCH   7  10
HETATM   10  C9  UNL     1     -34.580  18.387  -5.332  1.00 20.00     0.000 C 
HETATM   11  C8  UNL     1     -34.950  17.120  -6.033  1.00 20.00     0.005 C 
ENDBRANCH   7  10
ENDBRANCH   2   4
TORSDOF 2
ENDMDL
