MODEL 1
REMARK VINA RESULT:      -5.0      0.000      0.000
REMARK  2 active torsions:
REMARK  status: ('A' for Active; 'I' for Inactive)
REMARK    1  A    between atoms: C3_3  and  C8_8 
REMARK    2  A    between atoms: C8_8  and  C9_9 
ROOT
HETATM    1  C1  UNL     1     -32.749   6.050   2.723  1.00 20.00     0.006 C 
HETATM    2  C2  UNL     1     -33.627   5.255   3.684  1.00 20.00     0.021 C 
HETATM    3  C3  UNL     1     -32.338   7.336   3.472  1.00 20.00    -0.009 C 
HETATM    4  C4  UNL     1     -33.050   7.251   4.845  1.00 20.00     0.004 C 
HETATM    5  C5  UNL     1     -34.240   6.327   4.572  1.00 20.00     0.086 C 
HETATM    6  C6  UNL     1     -33.439   8.580   5.482  1.00 20.00     0.012 C 
HETATM    7 CL10 UNL     1     -34.936   5.636   6.047  1.00 20.00    -0.125 Cl
ENDROOT
BRANCH   3   8
HETATM    8  C8  UNL     1     -32.664   8.573   2.637  1.00 20.00     0.005 C 
BRANCH   8   9
HETATM    9  C9  UNL     1     -32.184   8.410   1.199  1.00 20.00    -0.004 C 
HETATM   10  C7  UNL     1     -32.799   9.462   0.290  1.00 20.00     0.005 C 
ENDBRANCH   8   9
ENDBRANCH   3   8
TORSDOF 2
ENDMDL
MODEL 2
REMARK VINA RESULT:      -4.6      0.897      2.263
REMARK  2 active torsions:
REMARK  status: ('A' for Active; 'I' for Inactive)
REMARK    1  A    between atoms: C3_3  and  C8_8 
REMARK    2  A    between atoms: C8_8  and  C9_9 
ROOT
HETATM    1  C1  UNL     1     -33.293   8.540   5.253  1.00 20.00     0.006 C 
HETATM    2  C2  UNL     1     -33.927   7.669   6.333  1.00 20.00     0.021 C 
HETATM    3  C3  UNL     1     -33.417   7.751   3.931  1.00 20.00    -0.009 C 
HETATM    4  C4  UNL     1     -34.088   6.409   4.319  1.00 20.00     0.004 C 
HETATM    5  C5  UNL     1     -33.742   6.256   5.803  1.00 20.00     0.086 C 
HETATM    6  C6  UNL     1     -33.710   5.200   3.473  1.00 20.00     0.012 C 
HETATM    7 CL10 UNL     1     -34.787   5.099   6.645  1.00 20.00    -0.125 Cl
ENDROOT
BRANCH   3   8
HETATM    8  C8  UNL     1     -32.057   7.632   3.246  1.00 20.00     0.005 C 
BRANCH   8   9
HETATM    9  C9  UNL     1     -32.149   7.995   1.768  1.00 20.00    -0.004 C 
HETATM   10  C7  UNL     1     -32.799   9.355   1.575  1.00 20.00     0.005 C 
ENDBRANCH   8   9
ENDBRANCH   3   8
TORSDOF 2
ENDMDL
MODEL 3
REMARK VINA RESULT:      -4.3      2.380      4.606
REMARK  2 active torsions:
REMARK  status: ('A' for Active; 'I' for Inactive)
REMARK    1  A    between atoms: C3_3  and  C8_8 
REMARK    2  A    between atoms: C8_8  and  C9_9 
ROOT
HETATM    1  C1  UNL     1     -33.361   8.368   4.616  1.00 20.00     0.006 C 
HETATM    2  C2  UNL     1     -32.587   8.955   3.441  1.00 20.00     0.021 C 
HETATM    3  C3  UNL     1     -33.329   6.835   4.436  1.00 20.00    -0.009 C 
HETATM    4  C4  UNL     1     -32.563   6.597   3.111  1.00 20.00     0.004 C 
HETATM    5  C5  UNL     1     -32.757   7.910   2.348  1.00 20.00     0.086 C 
HETATM    6  C6  UNL     1     -32.964   5.361   2.317  1.00 20.00     0.012 C 
HETATM    7 CL10 UNL     1     -31.583   8.134   1.040  1.00 20.00    -0.125 Cl
ENDROOT
BRANCH   3   8
HETATM    8  C8  UNL     1     -34.742   6.257   4.492  1.00 20.00     0.005 C 
BRANCH   8   9
HETATM    9  C9  UNL     1     -34.812   5.059   5.432  1.00 20.00    -0.004 C 
HETATM   10  C7  UNL     1     -34.068   5.331   6.728  1.00 20.00     0.005 C 
ENDBRANCH   8   9
ENDBRANCH   3   8
TORSDOF 2
ENDMDL
MODEL 4
REMARK VINA RESULT:      -3.8     11.012     12.586
REMARK  2 active torsions:
REMARK  status: ('A' for Active; 'I' for Inactive)
REMARK    1  A    between atoms: C3_3  and  C8_8 
REMARK    2  A    between atoms: C8_8  and  C9_9 
ROOT
HETATM    1  C1  UNL     1     -33.936  18.169  -4.187  1.00 20.00     0.006 C 
HETATM    2  C2  UNL     1     -34.832  17.836  -5.376  1.00 20.00     0.021 C 
HETATM    3  C3  UNL     1     -33.306  16.835  -3.730  1.00 20.00    -0.009 C 
HETATM    4  C4  UNL     1     -33.914  15.758  -4.664  1.00 20.00     0.004 C 
HETATM    5  C5  UNL     1     -35.231  16.390  -5.125  1.00 20.00     0.086 C 
HETATM    6  C6  UNL     1     -34.079  14.367  -4.065  1.00 20.00     0.012 C 
HETATM    7 CL10 UNL     1     -35.893  15.632  -6.583  1.00 20.00    -0.125 Cl
ENDROOT
BRANCH   3   8
HETATM    8  C8  UNL     1     -33.535  16.615  -2.236  1.00 20.00     0.005 C 
BRANCH   8   9
HETATM    9  C9  UNL     1     -32.947  17.757  -1.414  1.00 20.00    -0.004 C 
HETATM   10  C7  UNL     1     -33.752  17.995  -0.147  1.00 20.00     0.005 C 
ENDBRANCH   8   9
ENDBRANCH   3   8
TORSDOF 2
ENDMDL
MODEL 5
REMARK VINA RESULT:      -3.7      9.635     11.034
REMARK  2 active torsions:
REMARK  status: ('A' for Active; 'I' for Inactive)
REMARK    1  A    between atoms: C3_3  and  C8_8 
REMARK    2  A    between atoms: C8_8  and  C9_9 
ROOT
HETATM    1  C1  UNL     1     -40.391  14.399   7.015  1.00 20.00     0.006 C 
HETATM    2  C2  UNL     1     -41.093  14.892   8.276  1.00 20.00     0.021 C 
HETATM    3  C3  UNL     1     -41.385  13.454   6.306  1.00 20.00    -0.009 C 
HETATM    4  C4  UNL     1     -42.627  13.401   7.230  1.00 20.00     0.004 C 
HETATM    5  C5  UNL     1     -42.061  13.765   8.606  1.00 20.00     0.086 C 
HETATM    6  C6  UNL     1     -43.417  12.099   7.218  1.00 20.00     0.012 C 
HETATM    7 CL10 UNL     1     -43.306  14.286   9.754  1.00 20.00    -0.125 Cl
ENDROOT
BRANCH   3   8
HETATM    8  C8  UNL     1     -40.728  12.107   6.009  1.00 20.00     0.005 C 
BRANCH   8   9
HETATM    9  C9  UNL     1     -39.253  12.278   5.660  1.00 20.00    -0.004 C 
HETATM   10  C7  UNL     1     -38.936  11.682   4.298  1.00 20.00     0.005 C 
ENDBRANCH   8   9
ENDBRANCH   3   8
TORSDOF 2
ENDMDL
MODEL 6
REMARK VINA RESULT:      -3.7      9.735     11.065
REMARK  2 active torsions:
REMARK  status: ('A' for Active; 'I' for Inactive)
REMARK    1  A    between atoms: C3_3  and  C8_8 
REMARK    2  A    between atoms: C8_8  and  C9_9 
ROOT
HETATM    1  C1  UNL     1     -41.860  13.846   5.286  1.00 20.00     0.006 C 
HETATM    2  C2  UNL     1     -42.431  15.195   5.710  1.00 20.00     0.021 C 
HETATM    3  C3  UNL     1     -41.201  13.238   6.544  1.00 20.00    -0.009 C 
HETATM    4  C4  UNL     1     -41.381  14.305   7.653  1.00 20.00     0.004 C 
HETATM    5  C5  UNL     1     -41.536  15.611   6.867  1.00 20.00     0.086 C 
HETATM    6  C6  UNL     1     -40.293  14.356   8.718  1.00 20.00     0.012 C 
HETATM    7 CL10 UNL     1     -42.264  16.914   7.822  1.00 20.00    -0.125 Cl
ENDROOT
BRANCH   3   8
HETATM    8  C8  UNL     1     -39.759  12.831   6.252  1.00 20.00     0.005 C 
BRANCH   8   9
HETATM    9  C9  UNL     1     -39.702  11.518   5.477  1.00 20.00    -0.004 C 
HETATM   10  C7  UNL     1     -38.991  11.694   4.145  1.00 20.00     0.005 C 
ENDBRANCH   8   9
ENDBRANCH   3   8
TORSDOF 2
ENDMDL
MODEL 7
REMARK VINA RESULT:      -3.5      2.473      4.213
REMARK  2 active torsions:
REMARK  status: ('A' for Active; 'I' for Inactive)
REMARK    1  A    between atoms: C3_3  and  C8_8 
REMARK    2  A    between atoms: C8_8  and  C9_9 
ROOT
HETATM    1  C1  UNL     1     -33.650   5.709   3.714  1.00 20.00     0.006 C 
HETATM    2  C2  UNL     1     -32.954   5.973   2.382  1.00 20.00     0.021 C 
HETATM    3  C3  UNL     1     -33.829   7.085   4.391  1.00 20.00    -0.009 C 
HETATM    4  C4  UNL     1     -33.172   8.103   3.425  1.00 20.00     0.004 C 
HETATM    5  C5  UNL     1     -32.170   7.251   2.640  1.00 20.00     0.086 C 
HETATM    6  C6  UNL     1     -32.555   9.338   4.069  1.00 20.00     0.012 C 
HETATM    7 CL10 UNL     1     -31.644   8.012   1.129  1.00 20.00    -0.125 Cl
ENDROOT
BRANCH   3   8
HETATM    8  C8  UNL     1     -33.261   7.064   5.809  1.00 20.00     0.005 C 
BRANCH   8   9
HETATM    9  C9  UNL     1     -34.331   6.680   6.826  1.00 20.00    -0.004 C 
HETATM   10  C7  UNL     1     -34.766   5.235   6.649  1.00 20.00     0.005 C 
ENDBRANCH   8   9
ENDBRANCH   3   8
TORSDOF 2
ENDMDL
MODEL 8
REMARK VINA RESULT:      -3.5      9.975     11.428
REMARK  2 active torsions:
REMARK  status: ('A' for Active; 'I' for Inactive)
REMARK    1  A    between atoms: C3_3  and  C8_8 
REMARK    2  A    between atoms: C8_8  and  C9_9 
ROOT
HETATM    1  C1  UNL     1     -40.433  14.196   8.148  1.00 20.00     0.006 C 
HETATM    2  C2  UNL     1     -41.403  15.331   8.457  1.00 20.00     0.021 C 
HETATM    3  C3  UNL     1     -40.512  13.960   6.624  1.00 20.00    -0.009 C 
HETATM    4  C4  UNL     1     -41.581  14.957   6.113  1.00 20.00     0.004 C 
HETATM    5  C5  UNL     1     -42.442  15.221   7.352  1.00 20.00     0.086 C 
HETATM    6  C6  UNL     1     -42.381  14.517   4.893  1.00 20.00     0.012 C 
HETATM    7 CL10 UNL     1     -43.417  16.694   7.220  1.00 20.00    -0.125 Cl
ENDROOT
BRANCH   3   8
HETATM    8  C8  UNL     1     -40.786  12.488   6.321  1.00 20.00     0.005 C 
BRANCH   8   9
HETATM    9  C9  UNL     1     -39.502  11.749   5.962  1.00 20.00    -0.004 C 
HETATM   10  C7  UNL     1     -39.259  11.763   4.462  1.00 20.00     0.005 C 
ENDBRANCH   8   9
ENDBRANCH   3   8
TORSDOF 2
ENDMDL
MODEL 9
REMARK VINA RESULT:      -3.4     11.524     12.691
REMARK  2 active torsions:
REMARK  status: ('A' for Active; 'I' for Inactive)
REMARK    1  A    between atoms: C3_3  and  C8_8 
REMARK    2  A    between atoms: C8_8  and  C9_9 
ROOT
HETATM    1  C1  UNL     1     -33.199  15.461  -3.879  1.00 20.00     0.006 C 
HETATM    2  C2  UNL     1     -33.800  14.844  -5.138  1.00 20.00     0.021 C 
HETATM    3  C3  UNL     1     -34.037  16.720  -3.570  1.00 20.00    -0.009 C 
HETATM    4  C4  UNL     1     -35.079  16.807  -4.713  1.00 20.00     0.004 C 
HETATM    5  C5  UNL     1     -34.415  16.034  -5.857  1.00 20.00     0.086 C 
HETATM    6  C6  UNL     1     -35.533  18.208  -5.101  1.00 20.00     0.012 C 
HETATM    7 CL10 UNL     1     -35.562  15.523  -7.107  1.00 20.00    -0.125 Cl
ENDROOT
BRANCH   3   8
HETATM    8  C8  UNL     1     -33.133  17.941  -3.410  1.00 20.00     0.005 C 
BRANCH   8   9
HETATM    9  C9  UNL     1     -32.670  18.100  -1.965  1.00 20.00    -0.004 C 
HETATM   10  C7  UNL     1     -33.733  17.623  -0.990  1.00 20.00     0.005 C 
ENDBRANCH   8   9
ENDBRANCH   3   8
TORSDOF 2
ENDMDL
