MODEL 1
REMARK VINA RESULT:      -5.2      0.000      0.000
REMARK  1 active torsions:
REMARK  status: ('A' for Active; 'I' for Inactive)
REMARK    1  A    between atoms: C7_7  and  C9_9 
ROOT
HETATM    1  C1  UNL     1     -32.104   7.784   2.579  1.00 20.00     0.012 C 
HETATM    2  C2  UNL     1     -32.439   7.839   3.730  1.00 20.00    -0.117 C 
HETATM    3  C9  UNL     1     -32.843   7.906   5.140  1.00 20.00     0.098 C 
ENDROOT
BRANCH   3   4
HETATM    4  C7  UNL     1     -34.271   7.389   5.334  1.00 20.00     0.008 C 
HETATM    5  C5  UNL     1     -34.444   6.719   6.700  1.00 20.00     0.013 C 
HETATM    6  C4  UNL     1     -33.928   5.296   6.524  1.00 20.00     0.079 C 
HETATM    7  C3  UNL     1     -34.235   5.027   5.074  1.00 20.00     0.131 C 
HETATM    8  C6  UNL     1     -34.614   6.284   4.317  1.00 20.00     0.056 C 
HETATM    9  O10 UNL     1     -34.180   3.913   4.567  1.00 20.00    -0.298 OA
HETATM   10  C8  UNL     1     -36.094   6.245   3.965  1.00 20.00     0.018 C 
ENDBRANCH   3   4
TORSDOF 1
ENDMDL
MODEL 2
REMARK VINA RESULT:      -4.5      1.114      1.529
REMARK  1 active torsions:
REMARK  status: ('A' for Active; 'I' for Inactive)
REMARK    1  A    between atoms: C7_7  and  C9_9 
ROOT
HETATM    1  C1  UNL     1     -32.056   8.053   1.250  1.00 20.00     0.012 C 
HETATM    2  C2  UNL     1     -32.183   7.904   2.434  1.00 20.00    -0.117 C 
HETATM    3  C9  UNL     1     -32.331   7.720   3.883  1.00 20.00     0.098 C 
ENDROOT
BRANCH   3   4
HETATM    4  C7  UNL     1     -33.807   7.673   4.287  1.00 20.00     0.008 C 
HETATM    5  C5  UNL     1     -34.048   8.396   5.617  1.00 20.00     0.013 C 
HETATM    6  C4  UNL     1     -33.694   7.384   6.700  1.00 20.00     0.079 C 
HETATM    7  C3  UNL     1     -34.036   6.077   6.033  1.00 20.00     0.131 C 
HETATM    8  C6  UNL     1     -34.276   6.228   4.544  1.00 20.00     0.056 C 
HETATM    9  O10 UNL     1     -34.109   5.010   6.632  1.00 20.00    -0.298 OA
HETATM   10  C8  UNL     1     -35.753   6.024   4.239  1.00 20.00     0.018 C 
ENDBRANCH   3   4
TORSDOF 1
ENDMDL
MODEL 3
REMARK VINA RESULT:      -4.4     12.840     14.140
REMARK  1 active torsions:
REMARK  status: ('A' for Active; 'I' for Inactive)
REMARK    1  A    between atoms: C7_7  and  C9_9 
ROOT
HETATM    1  C1  UNL     1     -33.297  17.013  -2.010  1.00 20.00     0.012 C 
HETATM    2  C2  UNL     1     -33.511  16.300  -2.952  1.00 20.00    -0.117 C 
HETATM    3  C9  UNL     1     -33.770  15.422  -4.100  1.00 20.00     0.098 C 
ENDROOT
BRANCH   3   4
HETATM    4  C7  UNL     1     -34.136  16.233  -5.346  1.00 20.00     0.008 C 
HETATM    5  C5  UNL     1     -35.514  16.887  -5.205  1.00 20.00     0.013 C 
HETATM    6  C4  UNL     1     -36.519  15.807  -5.584  1.00 20.00     0.079 C 
HETATM    7  C3  UNL     1     -35.741  14.989  -6.582  1.00 20.00     0.131 C 
HETATM    8  C6  UNL     1     -34.264  15.331  -6.588  1.00 20.00     0.056 C 
HETATM    9  O10 UNL     1     -36.249  14.141  -7.305  1.00 20.00    -0.298 OA
HETATM   10  C8  UNL     1     -33.909  16.053  -7.881  1.00 20.00     0.018 C 
ENDBRANCH   3   4
TORSDOF 1
ENDMDL
MODEL 4
REMARK VINA RESULT:      -4.2      9.441     10.223
REMARK  1 active torsions:
REMARK  status: ('A' for Active; 'I' for Inactive)
REMARK    1  A    between atoms: C7_7  and  C9_9 
ROOT
HETATM    1  C1  UNL     1     -38.912  11.617   3.837  1.00 20.00     0.012 C 
HETATM    2  C2  UNL     1     -39.292  11.935   4.930  1.00 20.00    -0.117 C 
HETATM    3  C9  UNL     1     -39.753  12.318   6.270  1.00 20.00     0.098 C 
ENDROOT
BRANCH   3   4
HETATM    4  C7  UNL     1     -40.857  13.377   6.194  1.00 20.00     0.008 C 
HETATM    5  C5  UNL     1     -40.487  14.631   6.991  1.00 20.00     0.013 C 
HETATM    6  C4  UNL     1     -40.854  14.318   8.437  1.00 20.00     0.079 C 
HETATM    7  C3  UNL     1     -42.016  13.374   8.270  1.00 20.00     0.131 C 
HETATM    8  C6  UNL     1     -42.162  12.878   6.845  1.00 20.00     0.056 C 
HETATM    9  O10 UNL     1     -42.757  13.044   9.188  1.00 20.00    -0.298 OA
HETATM   10  C8  UNL     1     -43.406  13.488   6.214  1.00 20.00     0.018 C 
ENDBRANCH   3   4
TORSDOF 1
ENDMDL
MODEL 5
REMARK VINA RESULT:      -3.9     12.805     13.655
REMARK  1 active torsions:
REMARK  status: ('A' for Active; 'I' for Inactive)
REMARK    1  A    between atoms: C7_7  and  C9_9 
ROOT
HETATM    1  C1  UNL     1     -32.146  18.774   0.452  1.00 20.00     0.012 C 
HETATM    2  C2  UNL     1     -32.864  18.192  -0.313  1.00 20.00    -0.117 C 
HETATM    3  C9  UNL     1     -33.748  17.480  -1.244  1.00 20.00     0.098 C 
ENDROOT
BRANCH   3   4
HETATM    4  C7  UNL     1     -33.013  17.116  -2.538  1.00 20.00     0.008 C 
HETATM    5  C5  UNL     1     -32.877  18.328  -3.465  1.00 20.00     0.013 C 
HETATM    6  C4  UNL     1     -34.201  18.418  -4.215  1.00 20.00     0.079 C 
HETATM    7  C3  UNL     1     -34.625  16.973  -4.279  1.00 20.00     0.131 C 
HETATM    8  C6  UNL     1     -33.805  16.085  -3.365  1.00 20.00     0.056 C 
HETATM    9  O10 UNL     1     -35.536  16.567  -4.990  1.00 20.00    -0.298 OA
HETATM   10  C8  UNL     1     -32.906  15.182  -4.198  1.00 20.00     0.018 C 
ENDBRANCH   3   4
TORSDOF 1
ENDMDL
MODEL 6
REMARK VINA RESULT:      -3.8      9.667     10.561
REMARK  1 active torsions:
REMARK  status: ('A' for Active; 'I' for Inactive)
REMARK    1  A    between atoms: C7_7  and  C9_9 
ROOT
HETATM    1  C1  UNL     1     -38.920  11.457   3.821  1.00 20.00     0.012 C 
HETATM    2  C2  UNL     1     -39.355  11.976   4.812  1.00 20.00    -0.117 C 
HETATM    3  C9  UNL     1     -39.881  12.609   6.027  1.00 20.00     0.098 C 
ENDROOT
BRANCH   3   4
HETATM    4  C7  UNL     1     -41.407  12.730   5.973  1.00 20.00     0.008 C 
HETATM    5  C5  UNL     1     -41.843  14.014   5.260  1.00 20.00     0.013 C 
HETATM    6  C4  UNL     1     -41.770  15.111   6.315  1.00 20.00     0.079 C 
HETATM    7  C3  UNL     1     -42.069  14.351   7.581  1.00 20.00     0.131 C 
HETATM    8  C6  UNL     1     -42.013  12.849   7.384  1.00 20.00     0.056 C 
HETATM    9  O10 UNL     1     -42.326  14.892   8.650  1.00 20.00    -0.298 OA
HETATM   10  C8  UNL     1     -43.417  12.267   7.473  1.00 20.00     0.018 C 
ENDBRANCH   3   4
TORSDOF 1
ENDMDL
MODEL 7
REMARK VINA RESULT:      -3.8      9.971     10.903
REMARK  1 active torsions:
REMARK  status: ('A' for Active; 'I' for Inactive)
REMARK    1  A    between atoms: C7_7  and  C9_9 
ROOT
HETATM    1  C1  UNL     1     -38.942  11.524   4.254  1.00 20.00     0.012 C 
HETATM    2  C2  UNL     1     -39.812  12.252   4.647  1.00 20.00    -0.117 C 
HETATM    3  C9  UNL     1     -40.876  13.145   5.121  1.00 20.00     0.098 C 
ENDROOT
BRANCH   3   4
HETATM    4  C7  UNL     1     -41.033  13.062   6.642  1.00 20.00     0.008 C 
HETATM    5  C5  UNL     1     -42.443  12.610   7.037  1.00 20.00     0.013 C 
HETATM    6  C4  UNL     1     -43.301  13.868   6.993  1.00 20.00     0.079 C 
HETATM    7  C3  UNL     1     -42.306  14.941   7.350  1.00 20.00     0.131 C 
HETATM    8  C6  UNL     1     -40.874  14.445   7.302  1.00 20.00     0.056 C 
HETATM    9  O10 UNL     1     -42.623  16.088   7.642  1.00 20.00    -0.298 OA
HETATM   10  C8  UNL     1     -40.312  14.364   8.714  1.00 20.00     0.018 C 
ENDBRANCH   3   4
TORSDOF 1
ENDMDL
MODEL 8
REMARK VINA RESULT:      -3.8     13.210     14.360
REMARK  1 active torsions:
REMARK  status: ('A' for Active; 'I' for Inactive)
REMARK    1  A    between atoms: C7_7  and  C9_9 
ROOT
HETATM    1  C1  UNL     1     -33.308  17.243  -1.735  1.00 20.00     0.012 C 
HETATM    2  C2  UNL     1     -33.312  16.536  -2.705  1.00 20.00    -0.117 C 
HETATM    3  C9  UNL     1     -33.310  15.671  -3.891  1.00 20.00     0.098 C 
ENDROOT
BRANCH   3   4
HETATM    4  C7  UNL     1     -34.689  15.638  -4.556  1.00 20.00     0.008 C 
HETATM    5  C5  UNL     1     -34.705  14.703  -5.769  1.00 20.00     0.013 C 
HETATM    6  C4  UNL     1     -34.142  15.523  -6.923  1.00 20.00     0.079 C 
HETATM    7  C3  UNL     1     -34.568  16.920  -6.554  1.00 20.00     0.131 C 
HETATM    8  C6  UNL     1     -35.072  17.016  -5.128  1.00 20.00     0.056 C 
HETATM    9  O10 UNL     1     -34.508  17.871  -7.324  1.00 20.00    -0.298 OA
HETATM   10  C8  UNL     1     -36.575  17.257  -5.130  1.00 20.00     0.018 C 
ENDBRANCH   3   4
TORSDOF 1
ENDMDL
MODEL 9
REMARK VINA RESULT:      -3.6     12.755     13.887
REMARK  1 active torsions:
REMARK  status: ('A' for Active; 'I' for Inactive)
REMARK    1  A    between atoms: C7_7  and  C9_9 
ROOT
HETATM    1  C1  UNL     1     -34.682  14.940  -5.800  1.00 20.00     0.012 C 
HETATM    2  C2  UNL     1     -34.222  15.224  -4.729  1.00 20.00    -0.117 C 
HETATM    3  C9  UNL     1     -33.661  15.566  -3.416  1.00 20.00     0.098 C 
ENDROOT
BRANCH   3   4
HETATM    4  C7  UNL     1     -33.170  17.016  -3.383  1.00 20.00     0.008 C 
HETATM    5  C5  UNL     1     -32.755  17.435  -1.969  1.00 20.00     0.013 C 
HETATM    6  C4  UNL     1     -34.047  17.832  -1.266  1.00 20.00     0.079 C 
HETATM    7  C3  UNL     1     -34.883  18.345  -2.409  1.00 20.00     0.131 C 
HETATM    8  C6  UNL     1     -34.293  18.000  -3.762  1.00 20.00     0.056 C 
HETATM    9  O10 UNL     1     -35.926  18.970  -2.258  1.00 20.00    -0.298 OA
HETATM   10  C8  UNL     1     -33.769  19.263  -4.431  1.00 20.00     0.018 C 
ENDBRANCH   3   4
TORSDOF 1
ENDMDL
