MODEL 1
REMARK VINA RESULT:      -4.8      0.000      0.000
REMARK  2 active torsions:
REMARK  status: ('A' for Active; 'I' for Inactive)
REMARK    1  A    between atoms: C7_7  and  C10_10 
REMARK    2  A    between atoms: C9_9  and  C10_10 
ROOT
HETATM    1  C1  UNL     1     -32.725   9.118   1.726  1.00 20.00     0.012 C 
HETATM    2  C2  UNL     1     -32.593   9.064   2.919  1.00 20.00    -0.117 C 
HETATM    3  C9  UNL     1     -32.431   9.004   4.377  1.00 20.00     0.093 C 
ENDROOT
BRANCH   3   4
HETATM    4  C10 UNL     1     -32.590   7.575   4.860  1.00 20.00     0.017 C 
BRANCH   4   5
HETATM    5  C7  UNL     1     -34.025   7.090   4.652  1.00 20.00    -0.002 C 
HETATM    6  C5  UNL     1     -34.705   6.766   5.989  1.00 20.00     0.013 C 
HETATM    7  C4  UNL     1     -34.255   5.350   6.335  1.00 20.00     0.079 C 
HETATM    8  C3  UNL     1     -34.058   4.739   4.971  1.00 20.00     0.131 C 
HETATM    9  C6  UNL     1     -34.158   5.771   3.865  1.00 20.00     0.055 C 
HETATM   10  O11 UNL     1     -33.850   3.546   4.790  1.00 20.00    -0.298 OA
HETATM   11  C8  UNL     1     -33.146   5.548   2.757  1.00 20.00     0.018 C 
ENDBRANCH   4   5
ENDBRANCH   3   4
TORSDOF 2
ENDMDL
MODEL 2
REMARK VINA RESULT:      -4.7      1.284      1.673
REMARK  2 active torsions:
REMARK  status: ('A' for Active; 'I' for Inactive)
REMARK    1  A    between atoms: C7_7  and  C10_10 
REMARK    2  A    between atoms: C9_9  and  C10_10 
ROOT
HETATM    1  C1  UNL     1     -32.823   9.566   1.032  1.00 20.00     0.012 C 
HETATM    2  C2  UNL     1     -32.483   8.568   1.609  1.00 20.00    -0.117 C 
HETATM    3  C9  UNL     1     -32.066   7.346   2.308  1.00 20.00     0.093 C 
ENDROOT
BRANCH   3   4
HETATM    4  C10 UNL     1     -32.276   7.504   3.801  1.00 20.00     0.017 C 
BRANCH   4   5
HETATM    5  C7  UNL     1     -33.767   7.589   4.133  1.00 20.00    -0.002 C 
HETATM    6  C5  UNL     1     -34.011   8.406   5.408  1.00 20.00     0.013 C 
HETATM    7  C4  UNL     1     -33.790   7.431   6.559  1.00 20.00     0.079 C 
HETATM    8  C3  UNL     1     -34.201   6.117   5.944  1.00 20.00     0.131 C 
HETATM    9  C6  UNL     1     -34.440   6.239   4.451  1.00 20.00     0.055 C 
HETATM   10  O11 UNL     1     -34.330   5.083   6.585  1.00 20.00    -0.298 OA
HETATM   11  C8  UNL     1     -33.933   5.039   3.673  1.00 20.00     0.018 C 
ENDBRANCH   4   5
ENDBRANCH   3   4
TORSDOF 2
ENDMDL
MODEL 3
REMARK VINA RESULT:      -4.2      2.058      4.287
REMARK  2 active torsions:
REMARK  status: ('A' for Active; 'I' for Inactive)
REMARK    1  A    between atoms: C7_7  and  C10_10 
REMARK    2  A    between atoms: C9_9  and  C10_10 
ROOT
HETATM    1  C1  UNL     1     -34.487   4.741   6.263  1.00 20.00     0.012 C 
HETATM    2  C2  UNL     1     -34.373   5.936   6.219  1.00 20.00    -0.117 C 
HETATM    3  C9  UNL     1     -34.235   7.397   6.169  1.00 20.00     0.093 C 
ENDROOT
BRANCH   3   4
HETATM    4  C10 UNL     1     -34.050   7.854   4.736  1.00 20.00     0.017 C 
BRANCH   4   5
HETATM    5  C7  UNL     1     -32.564   7.988   4.398  1.00 20.00    -0.002 C 
HETATM    6  C5  UNL     1     -32.188   9.445   4.097  1.00 20.00     0.013 C 
HETATM    7  C4  UNL     1     -32.561   9.662   2.634  1.00 20.00     0.079 C 
HETATM    8  C3  UNL     1     -32.368   8.284   2.052  1.00 20.00     0.131 C 
HETATM    9  C6  UNL     1     -32.116   7.243   3.125  1.00 20.00     0.055 C 
HETATM   10  O11 UNL     1     -32.406   8.048   0.851  1.00 20.00    -0.298 OA
HETATM   11  C8  UNL     1     -32.813   5.924   2.842  1.00 20.00     0.018 C 
ENDBRANCH   4   5
ENDBRANCH   3   4
TORSDOF 2
ENDMDL
MODEL 4
REMARK VINA RESULT:      -4.1     11.996     13.215
REMARK  2 active torsions:
REMARK  status: ('A' for Active; 'I' for Inactive)
REMARK    1  A    between atoms: C7_7  and  C10_10 
REMARK    2  A    between atoms: C9_9  and  C10_10 
ROOT
HETATM    1  C1  UNL     1     -31.193  18.544  -0.276  1.00 20.00     0.012 C 
HETATM    2  C2  UNL     1     -32.294  18.287  -0.685  1.00 20.00    -0.117 C 
HETATM    3  C9  UNL     1     -33.640  17.978  -1.183  1.00 20.00     0.093 C 
ENDROOT
BRANCH   3   4
HETATM    4  C10 UNL     1     -33.607  16.719  -2.026  1.00 20.00     0.017 C 
BRANCH   4   5
HETATM    5  C7  UNL     1     -33.238  17.046  -3.474  1.00 20.00    -0.002 C 
HETATM    6  C5  UNL     1     -33.860  18.375  -3.922  1.00 20.00     0.013 C 
HETATM    7  C4  UNL     1     -35.286  18.030  -4.342  1.00 20.00     0.079 C 
HETATM    8  C3  UNL     1     -35.137  16.611  -4.830  1.00 20.00     0.131 C 
HETATM    9  C6  UNL     1     -33.765  16.044  -4.521  1.00 20.00     0.055 C 
HETATM   10  O11 UNL     1     -36.025  16.002  -5.413  1.00 20.00    -0.298 OA
HETATM   11  C8  UNL     1     -33.811  14.589  -4.091  1.00 20.00     0.018 C 
ENDBRANCH   4   5
ENDBRANCH   3   4
TORSDOF 2
ENDMDL
MODEL 5
REMARK VINA RESULT:      -3.9     12.557     13.946
REMARK  2 active torsions:
REMARK  status: ('A' for Active; 'I' for Inactive)
REMARK    1  A    between atoms: C7_7  and  C10_10 
REMARK    2  A    between atoms: C9_9  and  C10_10 
ROOT
HETATM    1  C1  UNL     1     -33.632  17.302  -1.555  1.00 20.00     0.012 C 
HETATM    2  C2  UNL     1     -33.371  16.632  -2.517  1.00 20.00    -0.117 C 
HETATM    3  C9  UNL     1     -33.047  15.812  -3.692  1.00 20.00     0.093 C 
ENDROOT
BRANCH   3   4
HETATM    4  C10 UNL     1     -34.308  15.507  -4.477  1.00 20.00     0.017 C 
BRANCH   4   5
HETATM    5  C7  UNL     1     -34.701  16.697  -5.354  1.00 20.00    -0.002 C 
HETATM    6  C5  UNL     1     -36.096  17.222  -4.991  1.00 20.00     0.013 C 
HETATM    7  C4  UNL     1     -37.072  16.321  -5.741  1.00 20.00     0.079 C 
HETATM    8  C3  UNL     1     -36.274  15.936  -6.960  1.00 20.00     0.131 C 
HETATM    9  C6  UNL     1     -34.828  16.382  -6.858  1.00 20.00     0.055 C 
HETATM   10  O11 UNL     1     -36.750  15.340  -7.918  1.00 20.00    -0.298 OA
HETATM   11  C8  UNL     1     -33.854  15.358  -7.412  1.00 20.00     0.018 C 
ENDBRANCH   4   5
ENDBRANCH   3   4
TORSDOF 2
ENDMDL
MODEL 6
REMARK VINA RESULT:      -3.9     11.954     13.138
REMARK  2 active torsions:
REMARK  status: ('A' for Active; 'I' for Inactive)
REMARK    1  A    between atoms: C7_7  and  C10_10 
REMARK    2  A    between atoms: C9_9  and  C10_10 
ROOT
HETATM    1  C1  UNL     1     -33.673  17.603  -0.826  1.00 20.00     0.012 C 
HETATM    2  C2  UNL     1     -33.388  17.174  -1.911  1.00 20.00    -0.117 C 
HETATM    3  C9  UNL     1     -33.035  16.653  -3.238  1.00 20.00     0.093 C 
ENDROOT
BRANCH   3   4
HETATM    4  C10 UNL     1     -33.942  15.494  -3.600  1.00 20.00     0.017 C 
BRANCH   4   5
HETATM    5  C7  UNL     1     -34.235  15.484  -5.101  1.00 20.00    -0.002 C 
HETATM    6  C5  UNL     1     -34.501  16.900  -5.628  1.00 20.00     0.013 C 
HETATM    7  C4  UNL     1     -35.970  17.173  -5.324  1.00 20.00     0.079 C 
HETATM    8  C3  UNL     1     -36.570  15.792  -5.396  1.00 20.00     0.131 C 
HETATM    9  C6  UNL     1     -35.507  14.715  -5.511  1.00 20.00     0.055 C 
HETATM   10  O11 UNL     1     -37.775  15.577  -5.371  1.00 20.00    -0.298 OA
HETATM   11  C8  UNL     1     -35.832  13.477  -4.696  1.00 20.00     0.018 C 
ENDBRANCH   4   5
ENDBRANCH   3   4
TORSDOF 2
ENDMDL
MODEL 7
REMARK VINA RESULT:      -3.9      9.645     10.617
REMARK  2 active torsions:
REMARK  status: ('A' for Active; 'I' for Inactive)
REMARK    1  A    between atoms: C7_7  and  C10_10 
REMARK    2  A    between atoms: C9_9  and  C10_10 
ROOT
HETATM    1  C1  UNL     1     -38.919  11.564   3.315  1.00 20.00     0.012 C 
HETATM    2  C2  UNL     1     -39.019  11.901   4.464  1.00 20.00    -0.117 C 
HETATM    3  C9  UNL     1     -39.138  12.314   5.868  1.00 20.00     0.093 C 
ENDROOT
BRANCH   3   4
HETATM    4  C10 UNL     1     -40.566  12.139   6.343  1.00 20.00     0.017 C 
BRANCH   4   5
HETATM    5  C7  UNL     1     -41.296  13.483   6.375  1.00 20.00    -0.002 C 
HETATM    6  C5  UNL     1     -40.442  14.566   7.047  1.00 20.00     0.013 C 
HETATM    7  C4  UNL     1     -40.669  14.386   8.545  1.00 20.00     0.079 C 
HETATM    8  C3  UNL     1     -42.076  13.843   8.587  1.00 20.00     0.131 C 
HETATM    9  C6  UNL     1     -42.595  13.499   7.204  1.00 20.00     0.055 C 
HETATM   10  O11 UNL     1     -42.716  13.709   9.622  1.00 20.00    -0.298 OA
HETATM   11  C8  UNL     1     -43.417  12.224   7.184  1.00 20.00     0.018 C 
ENDBRANCH   4   5
ENDBRANCH   3   4
TORSDOF 2
ENDMDL
MODEL 8
REMARK VINA RESULT:      -3.8     10.213     11.246
REMARK  2 active torsions:
REMARK  status: ('A' for Active; 'I' for Inactive)
REMARK    1  A    between atoms: C7_7  and  C10_10 
REMARK    2  A    between atoms: C9_9  and  C10_10 
ROOT
HETATM    1  C1  UNL     1     -38.931  11.718   3.505  1.00 20.00     0.012 C 
HETATM    2  C2  UNL     1     -39.364  11.743   4.625  1.00 20.00    -0.117 C 
HETATM    3  C9  UNL     1     -39.894  11.770   5.994  1.00 20.00     0.093 C 
ENDROOT
BRANCH   3   4
HETATM    4  C10 UNL     1     -39.992  13.200   6.487  1.00 20.00     0.017 C 
BRANCH   4   5
HETATM    5  C7  UNL     1     -41.382  13.481   7.060  1.00 20.00    -0.002 C 
HETATM    6  C5  UNL     1     -42.443  13.529   5.952  1.00 20.00     0.013 C 
HETATM    7  C4  UNL     1     -42.369  14.943   5.386  1.00 20.00     0.079 C 
HETATM    8  C3  UNL     1     -41.928  15.741   6.586  1.00 20.00     0.131 C 
HETATM    9  C6  UNL     1     -41.537  14.850   7.750  1.00 20.00     0.055 C 
HETATM   10  O11 UNL     1     -41.900  16.965   6.609  1.00 20.00    -0.298 OA
HETATM   11  C8  UNL     1     -40.322  15.362   8.502  1.00 20.00     0.018 C 
ENDBRANCH   4   5
ENDBRANCH   3   4
TORSDOF 2
ENDMDL
MODEL 9
REMARK VINA RESULT:      -3.8     11.898     12.905
REMARK  2 active torsions:
REMARK  status: ('A' for Active; 'I' for Inactive)
REMARK    1  A    between atoms: C7_7  and  C10_10 
REMARK    2  A    between atoms: C9_9  and  C10_10 
ROOT
HETATM    1  C1  UNL     1     -34.038  14.879  -3.817  1.00 20.00     0.012 C 
HETATM    2  C2  UNL     1     -33.536  15.862  -3.342  1.00 20.00    -0.117 C 
HETATM    3  C9  UNL     1     -32.920  17.064  -2.766  1.00 20.00     0.093 C 
ENDROOT
BRANCH   3   4
HETATM    4  C10 UNL     1     -33.638  17.457  -1.490  1.00 20.00     0.017 C 
BRANCH   4   5
HETATM    5  C7  UNL     1     -33.239  18.869  -1.058  1.00 20.00    -0.002 C 
HETATM    6  C5  UNL     1     -31.745  19.124  -1.291  1.00 20.00     0.013 C 
HETATM    7  C4  UNL     1     -31.040  18.531  -0.075  1.00 20.00     0.079 C 
HETATM    8  C3  UNL     1     -32.078  18.704   1.005  1.00 20.00     0.131 C 
HETATM    9  C6  UNL     1     -33.411  19.162   0.446  1.00 20.00     0.055 C 
HETATM   10  O11 UNL     1     -31.856  18.503   2.192  1.00 20.00    -0.298 OA
HETATM   11  C8  UNL     1     -34.595  18.498   1.126  1.00 20.00     0.018 C 
ENDBRANCH   4   5
ENDBRANCH   3   4
TORSDOF 2
ENDMDL
