MODEL 1
REMARK VINA RESULT:      -4.5      0.000      0.000
REMARK  1 active torsions:
REMARK  status: ('A' for Active; 'I' for Inactive)
REMARK    1  A    between atoms: C4_4  and  C7_7 
ROOT
HETATM    1  C5  UNL     1     -34.875  18.840  -1.490  1.00 20.00     0.011 C 
HETATM    2  C6  UNL     1     -35.352  18.689  -2.928  1.00 20.00     0.021 C 
HETATM    3  C7  UNL     1     -33.735  17.813  -1.354  1.00 20.00     0.025 C 
HETATM    4  C8  UNL     1     -33.224  17.539  -2.803  1.00 20.00     0.008 C 
HETATM    5  C9  UNL     1     -34.043  18.507  -3.680  1.00 20.00     0.086 C 
HETATM    6  C10 UNL     1     -33.383  16.052  -3.140  1.00 20.00     0.012 C 
HETATM    7 CL12 UNL     1     -34.304  18.002  -5.357  1.00 20.00    -0.125 Cl
ENDROOT
BRANCH   3   8
HETATM    8  C4  UNL     1     -32.653  18.258  -0.394  1.00 20.00    -0.029 A 
HETATM    9  C1  UNL     1     -32.807  18.567   0.980  1.00 20.00     0.034 A 
HETATM   10  C2  UNL     1     -31.558  18.918   1.435  1.00 20.00     0.142 A 
HETATM   11  O11 UNL     1     -30.646  18.845   0.430  1.00 20.00    -0.334 OA
HETATM   12  C3  UNL     1     -31.320  18.443  -0.679  1.00 20.00     0.148 A 
ENDBRANCH   3   8
TORSDOF 1
ENDMDL
MODEL 2
REMARK VINA RESULT:      -4.3     11.247     12.312
REMARK  1 active torsions:
REMARK  status: ('A' for Active; 'I' for Inactive)
REMARK    1  A    between atoms: C4_4  and  C7_7 
ROOT
HETATM    1  C5  UNL     1     -32.501   8.224   4.760  1.00 20.00     0.011 C 
HETATM    2  C6  UNL     1     -33.204   7.294   5.738  1.00 20.00     0.021 C 
HETATM    3  C7  UNL     1     -32.434   7.420   3.447  1.00 20.00     0.025 C 
HETATM    4  C8  UNL     1     -33.563   6.348   3.538  1.00 20.00     0.008 C 
HETATM    5  C9  UNL     1     -34.280   6.667   4.865  1.00 20.00     0.086 C 
HETATM    6  C10 UNL     1     -32.957   4.943   3.439  1.00 20.00     0.012 C 
HETATM    7 CL12 UNL     1     -35.074   5.302   5.665  1.00 20.00    -0.125 Cl
ENDROOT
BRANCH   3   8
HETATM    8  C4  UNL     1     -32.513   8.296   2.215  1.00 20.00    -0.029 A 
HETATM    9  C1  UNL     1     -32.153   7.941   0.892  1.00 20.00     0.034 A 
HETATM   10  C2  UNL     1     -32.397   9.052   0.119  1.00 20.00     0.142 A 
HETATM   11  O11 UNL     1     -32.884  10.066   0.881  1.00 20.00    -0.334 OA
HETATM   12  C3  UNL     1     -32.952   9.598   2.155  1.00 20.00     0.148 A 
ENDBRANCH   3   8
TORSDOF 1
ENDMDL
MODEL 3
REMARK VINA RESULT:      -4.3      2.314      3.643
REMARK  1 active torsions:
REMARK  status: ('A' for Active; 'I' for Inactive)
REMARK    1  A    between atoms: C4_4  and  C7_7 
ROOT
HETATM    1  C5  UNL     1     -33.138  15.535  -3.789  1.00 20.00     0.011 C 
HETATM    2  C6  UNL     1     -33.642  14.791  -5.017  1.00 20.00     0.021 C 
HETATM    3  C7  UNL     1     -33.690  16.964  -3.954  1.00 20.00     0.025 C 
HETATM    4  C8  UNL     1     -34.916  16.848  -4.911  1.00 20.00     0.008 C 
HETATM    5  C9  UNL     1     -35.055  15.333  -5.161  1.00 20.00     0.086 C 
HETATM    6  C10 UNL     1     -34.684  17.702  -6.163  1.00 20.00     0.012 C 
HETATM    7 CL12 UNL     1     -35.794  14.866  -6.701  1.00 20.00    -0.125 Cl
ENDROOT
BRANCH   3   8
HETATM    8  C4  UNL     1     -34.001  17.632  -2.632  1.00 20.00    -0.029 A 
HETATM    9  C1  UNL     1     -33.376  17.386  -1.385  1.00 20.00     0.034 A 
HETATM   10  C2  UNL     1     -33.987  18.223  -0.480  1.00 20.00     0.142 A 
HETATM   11  O11 UNL     1     -34.947  18.966  -1.091  1.00 20.00    -0.334 OA
HETATM   12  C3  UNL     1     -34.949  18.601  -2.399  1.00 20.00     0.148 A 
ENDBRANCH   3   8
TORSDOF 1
ENDMDL
MODEL 4
REMARK VINA RESULT:      -4.0      3.146      4.699
REMARK  1 active torsions:
REMARK  status: ('A' for Active; 'I' for Inactive)
REMARK    1  A    between atoms: C4_4  and  C7_7 
ROOT
HETATM    1  C5  UNL     1     -35.128  18.690  -2.562  1.00 20.00     0.011 C 
HETATM    2  C6  UNL     1     -35.050  19.263  -1.154  1.00 20.00     0.021 C 
HETATM    3  C7  UNL     1     -33.752  18.034  -2.786  1.00 20.00     0.025 C 
HETATM    4  C8  UNL     1     -33.173  17.747  -1.366  1.00 20.00     0.008 C 
HETATM    5  C9  UNL     1     -34.303  18.169  -0.406  1.00 20.00     0.086 C 
HETATM    6  C10 UNL     1     -31.844  18.491  -1.184  1.00 20.00     0.012 C 
HETATM    7 CL12 UNL     1     -33.795  18.694   1.207  1.00 20.00    -0.125 Cl
ENDROOT
BRANCH   3   8
HETATM    8  C4  UNL     1     -33.819  16.815  -3.681  1.00 20.00    -0.029 A 
HETATM    9  C1  UNL     1     -33.280  15.533  -3.417  1.00 20.00     0.034 A 
HETATM   10  C2  UNL     1     -33.588  14.757  -4.510  1.00 20.00     0.142 A 
HETATM   11  O11 UNL     1     -34.281  15.480  -5.429  1.00 20.00    -0.334 OA
HETATM   12  C3  UNL     1     -34.417  16.731  -4.917  1.00 20.00     0.148 A 
ENDBRANCH   3   8
TORSDOF 1
ENDMDL
MODEL 5
REMARK VINA RESULT:      -3.9     11.528     12.640
REMARK  1 active torsions:
REMARK  status: ('A' for Active; 'I' for Inactive)
REMARK    1  A    between atoms: C4_4  and  C7_7 
ROOT
HETATM    1  C5  UNL     1     -40.163  14.053   8.554  1.00 20.00     0.011 C 
HETATM    2  C6  UNL     1     -40.428  15.410   9.192  1.00 20.00     0.021 C 
HETATM    3  C7  UNL     1     -41.089  14.021   7.323  1.00 20.00     0.025 C 
HETATM    4  C8  UNL     1     -41.399  15.510   6.976  1.00 20.00     0.008 C 
HETATM    5  C9  UNL     1     -40.546  16.315   7.976  1.00 20.00     0.086 C 
HETATM    6  C10 UNL     1     -42.910  15.760   7.050  1.00 20.00     0.012 C 
HETATM    7 CL12 UNL     1     -41.159  17.921   8.400  1.00 20.00    -0.125 Cl
ENDROOT
BRANCH   3   8
HETATM    8  C4  UNL     1     -40.510  13.228   6.171  1.00 20.00    -0.029 A 
HETATM    9  C1  UNL     1     -39.486  12.252   6.239  1.00 20.00     0.034 A 
HETATM   10  C2  UNL     1     -39.299  11.806   4.951  1.00 20.00     0.142 A 
HETATM   11  O11 UNL     1     -40.141  12.446   4.097  1.00 20.00    -0.334 OA
HETATM   12  C3  UNL     1     -40.874  13.308   4.848  1.00 20.00     0.148 A 
ENDBRANCH   3   8
TORSDOF 1
ENDMDL
MODEL 6
REMARK VINA RESULT:      -3.8     12.099     13.205
REMARK  1 active torsions:
REMARK  status: ('A' for Active; 'I' for Inactive)
REMARK    1  A    between atoms: C4_4  and  C7_7 
ROOT
HETATM    1  C5  UNL     1     -42.324  13.310   8.015  1.00 20.00     0.011 C 
HETATM    2  C6  UNL     1     -42.287  14.021   9.360  1.00 20.00     0.021 C 
HETATM    3  C7  UNL     1     -41.385  14.138   7.116  1.00 20.00     0.025 C 
HETATM    4  C8  UNL     1     -40.431  14.908   8.081  1.00 20.00     0.008 C 
HETATM    5  C9  UNL     1     -40.817  14.394   9.482  1.00 20.00     0.086 C 
HETATM    6  C10 UNL     1     -40.582  16.419   7.869  1.00 20.00     0.012 C 
HETATM    7 CL12 UNL     1     -40.524  15.510  10.824  1.00 20.00    -0.125 Cl
ENDROOT
BRANCH   3   8
HETATM    8  C4  UNL     1     -40.669  13.299   6.080  1.00 20.00    -0.029 A 
HETATM    9  C1  UNL     1     -39.657  12.337   6.314  1.00 20.00     0.034 A 
HETATM   10  C2  UNL     1     -39.314  11.836   5.080  1.00 20.00     0.142 A 
HETATM   11  O11 UNL     1     -40.050  12.428   4.103  1.00 20.00    -0.334 OA
HETATM   12  C3  UNL     1     -40.872  13.316   4.720  1.00 20.00     0.148 A 
ENDBRANCH   3   8
TORSDOF 1
ENDMDL
MODEL 7
REMARK VINA RESULT:      -3.8      1.860      2.456
REMARK  1 active torsions:
REMARK  status: ('A' for Active; 'I' for Inactive)
REMARK    1  A    between atoms: C4_4  and  C7_7 
ROOT
HETATM    1  C5  UNL     1     -35.495  17.877  -3.990  1.00 20.00     0.011 C 
HETATM    2  C6  UNL     1     -35.745  17.161  -5.310  1.00 20.00     0.021 C 
HETATM    3  C7  UNL     1     -34.456  16.998  -3.268  1.00 20.00     0.025 C 
HETATM    4  C8  UNL     1     -33.739  16.172  -4.380  1.00 20.00     0.008 C 
HETATM    5  C9  UNL     1     -34.347  16.703  -5.694  1.00 20.00     0.086 C 
HETATM    6  C10 UNL     1     -33.934  14.673  -4.125  1.00 20.00     0.012 C 
HETATM    7 CL12 UNL     1     -34.368  15.569  -7.053  1.00 20.00    -0.125 Cl
ENDROOT
BRANCH   3   8
HETATM    8  C4  UNL     1     -33.516  17.797  -2.392  1.00 20.00    -0.029 A 
HETATM    9  C1  UNL     1     -33.380  17.709  -0.985  1.00 20.00     0.034 A 
HETATM   10  C2  UNL     1     -32.410  18.620  -0.637  1.00 20.00     0.142 A 
HETATM   11  O11 UNL     1     -31.942  19.263  -1.739  1.00 20.00    -0.334 OA
HETATM   12  C3  UNL     1     -32.619  18.756  -2.802  1.00 20.00     0.148 A 
ENDBRANCH   3   8
TORSDOF 1
ENDMDL
MODEL 8
REMARK VINA RESULT:      -3.6     11.929     12.793
REMARK  1 active torsions:
REMARK  status: ('A' for Active; 'I' for Inactive)
REMARK    1  A    between atoms: C4_4  and  C7_7 
ROOT
HETATM    1  C5  UNL     1     -32.402   6.510   2.674  1.00 20.00     0.011 C 
HETATM    2  C6  UNL     1     -32.092   7.726   1.812  1.00 20.00     0.021 C 
HETATM    3  C7  UNL     1     -32.662   7.091   4.077  1.00 20.00     0.025 C 
HETATM    4  C8  UNL     1     -33.056   8.585   3.861  1.00 20.00     0.008 C 
HETATM    5  C9  UNL     1     -33.095   8.746   2.329  1.00 20.00     0.086 C 
HETATM    6  C10 UNL     1     -32.065   9.497   4.594  1.00 20.00     0.012 C 
HETATM    7 CL12 UNL     1     -32.767  10.373   1.712  1.00 20.00    -0.125 Cl
ENDROOT
BRANCH   3   8
HETATM    8  C4  UNL     1     -33.678   6.293   4.866  1.00 20.00    -0.029 A 
HETATM    9  C1  UNL     1     -34.057   6.494   6.216  1.00 20.00     0.034 A 
HETATM   10  C2  UNL     1     -35.004   5.536   6.492  1.00 20.00     0.142 A 
HETATM   11  O11 UNL     1     -35.231   4.760   5.400  1.00 20.00    -0.334 OA
HETATM   12  C3  UNL     1     -34.421   5.227   4.415  1.00 20.00     0.148 A 
ENDBRANCH   3   8
TORSDOF 1
ENDMDL
MODEL 9
REMARK VINA RESULT:      -3.6     24.889     25.854
REMARK  1 active torsions:
REMARK  status: ('A' for Active; 'I' for Inactive)
REMARK    1  A    between atoms: C4_4  and  C7_7 
ROOT
HETATM    1  C5  UNL     1     -24.291  -1.739  11.583  1.00 20.00     0.011 C 
HETATM    2  C6  UNL     1     -25.635  -1.136  11.964  1.00 20.00     0.021 C 
HETATM    3  C7  UNL     1     -24.647  -3.092  10.936  1.00 20.00     0.025 C 
HETATM    4  C8  UNL     1     -26.126  -2.966  10.455  1.00 20.00     0.008 C 
HETATM    5  C9  UNL     1     -26.500  -1.503  10.768  1.00 20.00     0.086 C 
HETATM    6  C10 UNL     1     -26.991  -4.028  11.143  1.00 20.00     0.012 C 
HETATM    7 CL12 UNL     1     -28.217  -1.189  11.066  1.00 20.00    -0.125 Cl
ENDROOT
BRANCH   3   8
HETATM    8  C4  UNL     1     -23.677  -3.498   9.848  1.00 20.00    -0.029 A 
HETATM    9  C1  UNL     1     -23.543  -2.915   8.565  1.00 20.00     0.034 A 
HETATM   10  C2  UNL     1     -22.540  -3.611   7.932  1.00 20.00     0.142 A 
HETATM   11  O11 UNL     1     -22.050  -4.585   8.743  1.00 20.00    -0.334 OA
HETATM   12  C3  UNL     1     -22.747  -4.509   9.907  1.00 20.00     0.148 A 
ENDBRANCH   3   8
TORSDOF 1
ENDMDL
