MODEL 1
REMARK VINA RESULT:      -4.8      0.000      0.000
REMARK  1 active torsions:
REMARK  status: ('A' for Active; 'I' for Inactive)
REMARK    1  A    between atoms: C5_5  and  C8_8 
ROOT
HETATM    1  C1  UNL     1     -31.453  19.028   0.493  1.00 20.00     0.018 A 
HETATM    2  C2  UNL     1     -31.614  18.533  -0.798  1.00 20.00     0.010 A 
HETATM    3  C3  UNL     1     -32.487  18.868   1.403  1.00 20.00     0.087 A 
HETATM    4  C4  UNL     1     -33.797  17.761  -0.199  1.00 20.00     0.095 A 
HETATM    5  C5  UNL     1     -32.798  17.892  -1.152  1.00 20.00    -0.038 A 
HETATM    6  N12 UNL     1     -33.616  18.247   1.036  1.00 20.00    -0.375 N 
HETATM    7  H28 UNL     1     -34.364  18.140   1.722  1.00 20.00     0.164 HD
ENDROOT
BRANCH   5   8
HETATM    8  C8  UNL     1     -32.991  17.348  -2.548  1.00 20.00     0.025 C 
HETATM    9  C6  UNL     1     -33.650  15.968  -2.695  1.00 20.00     0.011 C 
HETATM   10  C7  UNL     1     -33.927  15.895  -4.190  1.00 20.00     0.021 C 
HETATM   11  C10 UNL     1     -34.520  17.270  -4.473  1.00 20.00     0.086 C 
HETATM   12  C9  UNL     1     -33.757  18.255  -3.556  1.00 20.00     0.008 C 
HETATM   13 CL13 UNL     1     -34.398  17.702  -6.189  1.00 20.00    -0.125 Cl
HETATM   14  C11 UNL     1     -34.730  19.263  -2.942  1.00 20.00     0.012 C 
ENDBRANCH   5   8
TORSDOF 1
ENDMDL
MODEL 2
REMARK VINA RESULT:      -4.5      0.846      1.386
REMARK  1 active torsions:
REMARK  status: ('A' for Active; 'I' for Inactive)
REMARK    1  A    between atoms: C5_5  and  C8_8 
ROOT
HETATM    1  C1  UNL     1     -33.762  18.248   0.706  1.00 20.00     0.018 A 
HETATM    2  C2  UNL     1     -33.905  17.708  -0.569  1.00 20.00     0.010 A 
HETATM    3  C3  UNL     1     -32.650  19.031   0.979  1.00 20.00     0.087 A 
HETATM    4  C4  UNL     1     -31.850  18.751  -1.210  1.00 20.00     0.095 A 
HETATM    5  C5  UNL     1     -32.941  17.960  -1.541  1.00 20.00    -0.038 A 
HETATM    6  N12 UNL     1     -31.737  19.258   0.024  1.00 20.00    -0.375 N 
HETATM    7  H28 UNL     1     -30.927  19.837   0.247  1.00 20.00     0.164 HD
ENDROOT
BRANCH   5   8
HETATM    8  C8  UNL     1     -33.078  17.384  -2.931  1.00 20.00     0.025 C 
HETATM    9  C6  UNL     1     -33.617  15.952  -3.064  1.00 20.00     0.011 C 
HETATM   10  C7  UNL     1     -33.877  15.837  -4.559  1.00 20.00     0.021 C 
HETATM   11  C10 UNL     1     -34.582  17.153  -4.863  1.00 20.00     0.086 C 
HETATM   12  C9  UNL     1     -33.911  18.210  -3.955  1.00 20.00     0.008 C 
HETATM   13 CL13 UNL     1     -34.484  17.573  -6.584  1.00 20.00    -0.125 Cl
HETATM   14  C11 UNL     1     -34.969  19.140  -3.360  1.00 20.00     0.012 C 
ENDBRANCH   5   8
TORSDOF 1
ENDMDL
MODEL 3
REMARK VINA RESULT:      -4.5      1.569      2.144
REMARK  1 active torsions:
REMARK  status: ('A' for Active; 'I' for Inactive)
REMARK    1  A    between atoms: C5_5  and  C8_8 
ROOT
HETATM    1  C1  UNL     1     -33.669  17.665  -0.231  1.00 20.00     0.018 A 
HETATM    2  C2  UNL     1     -33.834  16.942  -1.409  1.00 20.00     0.010 A 
HETATM    3  C3  UNL     1     -32.933  18.840  -0.266  1.00 20.00     0.087 A 
HETATM    4  C4  UNL     1     -32.539  18.587  -2.566  1.00 20.00     0.095 A 
HETATM    5  C5  UNL     1     -33.264  17.405  -2.592  1.00 20.00    -0.038 A 
HETATM    6  N12 UNL     1     -32.395  19.263  -1.418  1.00 20.00    -0.375 N 
HETATM    7  H28 UNL     1     -31.858  20.130  -1.421  1.00 20.00     0.164 HD
ENDROOT
BRANCH   5   8
HETATM    8  C8  UNL     1     -33.432  16.635  -3.881  1.00 20.00     0.025 C 
HETATM    9  C6  UNL     1     -33.680  15.123  -3.787  1.00 20.00     0.011 C 
HETATM   10  C7  UNL     1     -34.072  14.765  -5.213  1.00 20.00     0.021 C 
HETATM   11  C10 UNL     1     -35.058  15.873  -5.561  1.00 20.00     0.086 C 
HETATM   12  C9  UNL     1     -34.521  17.148  -4.869  1.00 20.00     0.008 C 
HETATM   13 CL13 UNL     1     -35.235  16.073  -7.315  1.00 20.00    -0.125 Cl
HETATM   14  C11 UNL     1     -35.675  17.932  -4.243  1.00 20.00     0.012 C 
ENDBRANCH   5   8
TORSDOF 1
ENDMDL
MODEL 4
REMARK VINA RESULT:      -4.4      2.996      5.005
REMARK  1 active torsions:
REMARK  status: ('A' for Active; 'I' for Inactive)
REMARK    1  A    between atoms: C5_5  and  C8_8 
ROOT
HETATM    1  C1  UNL     1     -34.072  15.211  -4.532  1.00 20.00     0.018 A 
HETATM    2  C2  UNL     1     -33.750  15.617  -3.241  1.00 20.00     0.010 A 
HETATM    3  C3  UNL     1     -34.149  16.167  -5.534  1.00 20.00     0.087 A 
HETATM    4  C4  UNL     1     -33.602  17.874  -4.019  1.00 20.00     0.095 A 
HETATM    5  C5  UNL     1     -33.511  16.963  -2.977  1.00 20.00    -0.038 A 
HETATM    6  N12 UNL     1     -33.914  17.456  -5.253  1.00 20.00    -0.375 N 
HETATM    7  H28 UNL     1     -33.976  18.143  -6.004  1.00 20.00     0.164 HD
ENDROOT
BRANCH   5   8
HETATM    8  C8  UNL     1     -33.160  17.424  -1.582  1.00 20.00     0.025 C 
HETATM    9  C6  UNL     1     -31.910  18.300  -1.409  1.00 20.00     0.011 C 
HETATM   10  C7  UNL     1     -32.044  18.784   0.027  1.00 20.00     0.021 C 
HETATM   11  C10 UNL     1     -33.511  19.192   0.091  1.00 20.00     0.086 C 
HETATM   12  C9  UNL     1     -34.271  18.170  -0.787  1.00 20.00     0.008 C 
HETATM   13 CL13 UNL     1     -34.112  19.236   1.760  1.00 20.00    -0.125 Cl
HETATM   14  C11 UNL     1     -35.329  18.885  -1.629  1.00 20.00     0.012 C 
ENDBRANCH   5   8
TORSDOF 1
ENDMDL
MODEL 5
REMARK VINA RESULT:      -4.3      1.948      2.901
REMARK  1 active torsions:
REMARK  status: ('A' for Active; 'I' for Inactive)
REMARK    1  A    between atoms: C5_5  and  C8_8 
ROOT
HETATM    1  C1  UNL     1     -33.212  17.499  -1.173  1.00 20.00     0.018 A 
HETATM    2  C2  UNL     1     -33.686  16.791  -2.273  1.00 20.00     0.010 A 
HETATM    3  C3  UNL     1     -32.652  18.752  -1.375  1.00 20.00     0.087 A 
HETATM    4  C4  UNL     1     -33.024  18.603  -3.687  1.00 20.00     0.095 A 
HETATM    5  C5  UNL     1     -33.593  17.346  -3.546  1.00 20.00    -0.038 A 
HETATM    6  N12 UNL     1     -32.575  19.263  -2.612  1.00 20.00    -0.375 N 
HETATM    7  H28 UNL     1     -32.161  20.186  -2.737  1.00 20.00     0.164 HD
ENDROOT
BRANCH   5   8
HETATM    8  C8  UNL     1     -34.103  16.594  -4.754  1.00 20.00     0.025 C 
HETATM    9  C6  UNL     1     -34.327  15.081  -4.615  1.00 20.00     0.011 C 
HETATM   10  C7  UNL     1     -35.087  14.743  -5.889  1.00 20.00     0.021 C 
HETATM   11  C10 UNL     1     -36.122  15.859  -5.950  1.00 20.00     0.086 C 
HETATM   12  C9  UNL     1     -35.412  17.123  -5.410  1.00 20.00     0.008 C 
HETATM   13 CL13 UNL     1     -36.757  16.083  -7.591  1.00 20.00    -0.125 Cl
HETATM   14  C11 UNL     1     -36.353  17.903  -4.491  1.00 20.00     0.012 C 
ENDBRANCH   5   8
TORSDOF 1
ENDMDL
MODEL 6
REMARK VINA RESULT:      -3.8      3.343      5.864
REMARK  1 active torsions:
REMARK  status: ('A' for Active; 'I' for Inactive)
REMARK    1  A    between atoms: C5_5  and  C8_8 
ROOT
HETATM    1  C1  UNL     1     -36.919  16.339  -6.229  1.00 20.00     0.018 A 
HETATM    2  C2  UNL     1     -36.389  16.919  -5.081  1.00 20.00     0.010 A 
HETATM    3  C3  UNL     1     -36.203  16.427  -7.414  1.00 20.00     0.087 A 
HETATM    4  C4  UNL     1     -34.490  17.629  -6.350  1.00 20.00     0.095 A 
HETATM    5  C5  UNL     1     -35.161  17.573  -5.138  1.00 20.00    -0.038 A 
HETATM    6  N12 UNL     1     -35.023  17.062  -7.441  1.00 20.00    -0.375 N 
HETATM    7  H28 UNL     1     -34.513  17.114  -8.322  1.00 20.00     0.164 HD
ENDROOT
BRANCH   5   8
HETATM    8  C8  UNL     1     -34.569  18.209  -3.902  1.00 20.00     0.025 C 
HETATM    9  C6  UNL     1     -35.527  18.601  -2.767  1.00 20.00     0.011 C 
HETATM   10  C7  UNL     1     -34.571  18.926  -1.628  1.00 20.00     0.021 C 
HETATM   11  C10 UNL     1     -33.592  17.761  -1.690  1.00 20.00     0.086 C 
HETATM   12  C9  UNL     1     -33.421  17.432  -3.192  1.00 20.00     0.008 C 
HETATM   13 CL13 UNL     1     -32.052  18.148  -0.899  1.00 20.00    -0.125 Cl
HETATM   14  C11 UNL     1     -33.411  15.917  -3.402  1.00 20.00     0.012 C 
ENDBRANCH   5   8
TORSDOF 1
ENDMDL
MODEL 7
REMARK VINA RESULT:      -3.7      3.947      5.425
REMARK  1 active torsions:
REMARK  status: ('A' for Active; 'I' for Inactive)
REMARK    1  A    between atoms: C5_5  and  C8_8 
ROOT
HETATM    1  C1  UNL     1     -33.366  15.916  -3.555  1.00 20.00     0.018 A 
HETATM    2  C2  UNL     1     -34.207  16.861  -4.134  1.00 20.00     0.010 A 
HETATM    3  C3  UNL     1     -32.978  14.817  -4.307  1.00 20.00     0.087 A 
HETATM    4  C4  UNL     1     -34.220  15.572  -6.149  1.00 20.00     0.095 A 
HETATM    5  C5  UNL     1     -34.642  16.691  -5.446  1.00 20.00    -0.038 A 
HETATM    6  N12 UNL     1     -33.410  14.678  -5.567  1.00 20.00    -0.375 N 
HETATM    7  H28 UNL     1     -33.112  13.862  -6.102  1.00 20.00     0.164 HD
ENDROOT
BRANCH   5   8
HETATM    8  C8  UNL     1     -35.555  17.706  -6.093  1.00 20.00     0.025 C 
HETATM    9  C6  UNL     1     -35.487  17.862  -7.619  1.00 20.00     0.011 C 
HETATM   10  C7  UNL     1     -36.704  18.726  -7.916  1.00 20.00     0.021 C 
HETATM   11  C10 UNL     1     -37.783  18.058  -7.072  1.00 20.00     0.086 C 
HETATM   12  C9  UNL     1     -37.075  17.583  -5.781  1.00 20.00     0.008 C 
HETATM   13 CL13 UNL     1     -39.138  19.155  -6.742  1.00 20.00    -0.125 Cl
HETATM   14  C11 UNL     1     -37.567  16.188  -5.394  1.00 20.00     0.012 C 
ENDBRANCH   5   8
TORSDOF 1
ENDMDL
MODEL 8
REMARK VINA RESULT:      -3.5     12.140     13.792
REMARK  1 active torsions:
REMARK  status: ('A' for Active; 'I' for Inactive)
REMARK    1  A    between atoms: C5_5  and  C8_8 
ROOT
HETATM    1  C1  UNL     1     -39.360  11.822   5.949  1.00 20.00     0.018 A 
HETATM    2  C2  UNL     1     -39.498  12.607   7.089  1.00 20.00     0.010 A 
HETATM    3  C3  UNL     1     -40.077  12.164   4.811  1.00 20.00     0.087 A 
HETATM    4  C4  UNL     1     -41.034  14.007   5.904  1.00 20.00     0.095 A 
HETATM    5  C5  UNL     1     -40.343  13.713   7.071  1.00 20.00    -0.038 A 
HETATM    6  N12 UNL     1     -40.883  13.234   4.821  1.00 20.00    -0.375 N 
HETATM    7  H28 UNL     1     -41.400  13.467   3.973  1.00 20.00     0.164 HD
ENDROOT
BRANCH   5   8
HETATM    8  C8  UNL     1     -40.506  14.579   8.298  1.00 20.00     0.025 C 
HETATM    9  C6  UNL     1     -40.673  16.092   8.092  1.00 20.00     0.011 C 
HETATM   10  C7  UNL     1     -41.085  16.568   9.478  1.00 20.00     0.021 C 
HETATM   11  C10 UNL     1     -42.136  15.538   9.871  1.00 20.00     0.086 C 
HETATM   12  C9  UNL     1     -41.647  14.192   9.285  1.00 20.00     0.008 C 
HETATM   13 CL13 UNL     1     -42.371  15.470  11.628  1.00 20.00    -0.125 Cl
HETATM   14  C11 UNL     1     -42.823  13.424   8.679  1.00 20.00     0.012 C 
ENDBRANCH   5   8
TORSDOF 1
ENDMDL
MODEL 9
REMARK VINA RESULT:      -3.4      2.334      3.388
REMARK  1 active torsions:
REMARK  status: ('A' for Active; 'I' for Inactive)
REMARK    1  A    between atoms: C5_5  and  C8_8 
ROOT
HETATM    1  C1  UNL     1     -29.689  18.843   2.709  1.00 20.00     0.018 A 
HETATM    2  C2  UNL     1     -30.269  18.942   1.448  1.00 20.00     0.010 A 
HETATM    3  C3  UNL     1     -30.500  18.959   3.828  1.00 20.00     0.087 A 
HETATM    4  C4  UNL     1     -32.401  19.260   2.485  1.00 20.00     0.095 A 
HETATM    5  C5  UNL     1     -31.640  19.153   1.330  1.00 20.00    -0.038 A 
HETATM    6  N12 UNL     1     -31.817  19.162   3.686  1.00 20.00    -0.375 N 
HETATM    7  H28 UNL     1     -32.394  19.243   4.523  1.00 20.00     0.164 HD
ENDROOT
BRANCH   5   8
HETATM    8  C8  UNL     1     -32.289  19.263  -0.030  1.00 20.00     0.025 C 
HETATM    9  C6  UNL     1     -31.753  18.366  -1.156  1.00 20.00     0.011 C 
HETATM   10  C7  UNL     1     -32.802  18.542  -2.244  1.00 20.00     0.021 C 
HETATM   11  C10 UNL     1     -34.102  18.414  -1.459  1.00 20.00     0.086 C 
HETATM   12  C9  UNL     1     -33.834  19.080  -0.088  1.00 20.00     0.008 C 
HETATM   13 CL13 UNL     1     -35.469  19.148  -2.318  1.00 20.00    -0.125 Cl
HETATM   14  C11 UNL     1     -34.451  18.242   1.033  1.00 20.00     0.012 C 
ENDBRANCH   5   8
TORSDOF 1
ENDMDL
