MODEL 1
REMARK VINA RESULT:      -5.6      0.000      0.000
REMARK  2 active torsions:
REMARK  status: ('A' for Active; 'I' for Inactive)
REMARK    1  A    between atoms: C2_2  and  C10_10 
REMARK    2  A    between atoms: C7_7  and  C10_10 
ROOT
HETATM    1  C1  UNL     1     -32.682   9.150   1.755  1.00 20.00    -0.111 C 
HETATM    2  C2  UNL     1     -32.561   8.868   2.916  1.00 20.00    -0.107 C 
HETATM    3  C8  UNL     1     -32.831   9.493   0.341  1.00 20.00     0.112 C 
ENDROOT
BRANCH   2   4
HETATM    4  C10 UNL     1     -32.399   8.527   4.330  1.00 20.00     0.099 C 
BRANCH   4   5
HETATM    5  C7  UNL     1     -33.592   7.729   4.836  1.00 20.00     0.008 C 
HETATM    6  C5  UNL     1     -33.371   7.173   6.245  1.00 20.00     0.013 C 
HETATM    7  C4  UNL     1     -34.493   6.160   6.431  1.00 20.00     0.079 C 
HETATM    8  C3  UNL     1     -34.684   5.643   5.029  1.00 20.00     0.131 C 
HETATM    9  C6  UNL     1     -33.978   6.497   3.993  1.00 20.00     0.056 C 
HETATM   10  O11 UNL     1     -35.342   4.644   4.760  1.00 20.00    -0.298 OA
HETATM   11  C9  UNL     1     -32.822   5.715   3.387  1.00 20.00     0.018 C 
ENDBRANCH   4   5
ENDBRANCH   2   4
TORSDOF 2
ENDMDL
MODEL 2
REMARK VINA RESULT:      -4.4     11.320     12.742
REMARK  2 active torsions:
REMARK  status: ('A' for Active; 'I' for Inactive)
REMARK    1  A    between atoms: C2_2  and  C10_10 
REMARK    2  A    between atoms: C7_7  and  C10_10 
ROOT
HETATM    1  C1  UNL     1     -32.238  18.171  -1.081  1.00 20.00    -0.111 C 
HETATM    2  C2  UNL     1     -32.916  17.364  -1.658  1.00 20.00    -0.107 C 
HETATM    3  C8  UNL     1     -31.412  19.152  -0.379  1.00 20.00     0.112 C 
ENDROOT
BRANCH   2   4
HETATM    4  C10 UNL     1     -33.753  16.388  -2.358  1.00 20.00     0.099 C 
BRANCH   4   5
HETATM    5  C7  UNL     1     -33.588  16.515  -3.865  1.00 20.00     0.008 C 
HETATM    6  C5  UNL     1     -34.700  17.347  -4.509  1.00 20.00     0.013 C 
HETATM    7  C4  UNL     1     -34.552  17.083  -6.002  1.00 20.00     0.079 C 
HETATM    8  C3  UNL     1     -34.046  15.664  -6.020  1.00 20.00     0.131 C 
HETATM    9  C6  UNL     1     -33.594  15.190  -4.652  1.00 20.00     0.056 C 
HETATM   10  O11 UNL     1     -34.003  14.975  -7.033  1.00 20.00    -0.298 OA
HETATM   11  C9  UNL     1     -34.543  14.116  -4.144  1.00 20.00     0.018 C 
ENDBRANCH   4   5
ENDBRANCH   2   4
TORSDOF 2
ENDMDL
MODEL 3
REMARK VINA RESULT:      -4.4     11.843     13.021
REMARK  2 active torsions:
REMARK  status: ('A' for Active; 'I' for Inactive)
REMARK    1  A    between atoms: C2_2  and  C10_10 
REMARK    2  A    between atoms: C7_7  and  C10_10 
ROOT
HETATM    1  C1  UNL     1     -33.380  16.924  -2.076  1.00 20.00    -0.111 C 
HETATM    2  C2  UNL     1     -33.425  16.147  -2.991  1.00 20.00    -0.107 C 
HETATM    3  C8  UNL     1     -33.324  17.870  -0.963  1.00 20.00     0.112 C 
ENDROOT
BRANCH   2   4
HETATM    4  C10 UNL     1     -33.480  15.190  -4.098  1.00 20.00     0.099 C 
BRANCH   4   5
HETATM    5  C7  UNL     1     -34.210  15.785  -5.293  1.00 20.00     0.008 C 
HETATM    6  C5  UNL     1     -34.978  17.060  -4.936  1.00 20.00     0.013 C 
HETATM    7  C4  UNL     1     -35.882  17.305  -6.137  1.00 20.00     0.079 C 
HETATM    8  C3  UNL     1     -36.174  15.901  -6.600  1.00 20.00     0.131 C 
HETATM    9  C6  UNL     1     -35.263  14.874  -5.954  1.00 20.00     0.056 C 
HETATM   10  O11 UNL     1     -37.050  15.626  -7.412  1.00 20.00    -0.298 OA
HETATM   11  C9  UNL     1     -36.072  13.995  -5.011  1.00 20.00     0.018 C 
ENDBRANCH   4   5
ENDBRANCH   2   4
TORSDOF 2
ENDMDL
MODEL 4
REMARK VINA RESULT:      -4.3     14.626     16.122
REMARK  2 active torsions:
REMARK  status: ('A' for Active; 'I' for Inactive)
REMARK    1  A    between atoms: C2_2  and  C10_10 
REMARK    2  A    between atoms: C7_7  and  C10_10 
ROOT
HETATM    1  C1  UNL     1     -28.276  17.814  12.325  1.00 20.00    -0.111 C 
HETATM    2  C2  UNL     1     -27.249  18.437  12.324  1.00 20.00    -0.107 C 
HETATM    3  C8  UNL     1     -29.526  17.055  12.328  1.00 20.00     0.112 C 
ENDROOT
BRANCH   2   4
HETATM    4  C10 UNL     1     -25.998  19.198  12.308  1.00 20.00     0.099 C 
BRANCH   4   5
HETATM    5  C7  UNL     1     -24.831  18.313  11.895  1.00 20.00     0.008 C 
HETATM    6  C5  UNL     1     -23.480  18.885  12.332  1.00 20.00     0.013 C 
HETATM    7  C4  UNL     1     -22.456  18.062  11.561  1.00 20.00     0.079 C 
HETATM    8  C3  UNL     1     -23.196  17.758  10.284  1.00 20.00     0.131 C 
HETATM    9  C6  UNL     1     -24.677  18.074  10.381  1.00 20.00     0.056 C 
HETATM   10  O11 UNL     1     -22.657  17.302   9.282  1.00 20.00    -0.298 OA
HETATM   11  C9  UNL     1     -25.007  19.255   9.481  1.00 20.00     0.018 C 
ENDBRANCH   4   5
ENDBRANCH   2   4
TORSDOF 2
ENDMDL
MODEL 5
REMARK VINA RESULT:      -4.3     11.386     12.773
REMARK  2 active torsions:
REMARK  status: ('A' for Active; 'I' for Inactive)
REMARK    1  A    between atoms: C2_2  and  C10_10 
REMARK    2  A    between atoms: C7_7  and  C10_10 
ROOT
HETATM    1  C1  UNL     1     -32.176  18.482  -1.405  1.00 20.00    -0.111 C 
HETATM    2  C2  UNL     1     -32.785  18.373  -2.434  1.00 20.00    -0.107 C 
HETATM    3  C8  UNL     1     -31.435  18.616  -0.151  1.00 20.00     0.112 C 
ENDROOT
BRANCH   2   4
HETATM    4  C10 UNL     1     -33.519  18.231  -3.693  1.00 20.00     0.099 C 
BRANCH   4   5
HETATM    5  C7  UNL     1     -34.181  16.863  -3.783  1.00 20.00     0.008 C 
HETATM    6  C5  UNL     1     -33.163  15.720  -3.804  1.00 20.00     0.013 C 
HETATM    7  C4  UNL     1     -33.975  14.501  -4.222  1.00 20.00     0.079 C 
HETATM    8  C3  UNL     1     -35.009  15.111  -5.132  1.00 20.00     0.131 C 
HETATM    9  C6  UNL     1     -35.055  16.624  -5.029  1.00 20.00     0.056 C 
HETATM   10  O11 UNL     1     -35.735  14.453  -5.869  1.00 20.00    -0.298 OA
HETATM   11  C9  UNL     1     -34.551  17.240  -6.326  1.00 20.00     0.018 C 
ENDBRANCH   4   5
ENDBRANCH   2   4
TORSDOF 2
ENDMDL
MODEL 6
REMARK VINA RESULT:      -4.1     11.869     12.824
REMARK  2 active torsions:
REMARK  status: ('A' for Active; 'I' for Inactive)
REMARK    1  A    between atoms: C2_2  and  C10_10 
REMARK    2  A    between atoms: C7_7  and  C10_10 
ROOT
HETATM    1  C1  UNL     1     -34.030  18.372   0.054  1.00 20.00    -0.111 C 
HETATM    2  C2  UNL     1     -33.471  17.911  -0.904  1.00 20.00    -0.107 C 
HETATM    3  C8  UNL     1     -34.711  18.934   1.219  1.00 20.00     0.112 C 
ENDROOT
BRANCH   2   4
HETATM    4  C10 UNL     1     -32.785  17.338  -2.064  1.00 20.00     0.099 C 
BRANCH   4   5
HETATM    5  C7  UNL     1     -33.764  16.594  -2.960  1.00 20.00     0.008 C 
HETATM    6  C5  UNL     1     -33.079  15.523  -3.814  1.00 20.00     0.013 C 
HETATM    7  C4  UNL     1     -34.129  15.138  -4.848  1.00 20.00     0.079 C 
HETATM    8  C3  UNL     1     -34.870  16.437  -5.041  1.00 20.00     0.131 C 
HETATM    9  C6  UNL     1     -34.534  17.461  -3.974  1.00 20.00     0.056 C 
HETATM   10  O11 UNL     1     -35.658  16.635  -5.958  1.00 20.00    -0.298 OA
HETATM   11  C9  UNL     1     -33.754  18.610  -4.597  1.00 20.00     0.018 C 
ENDBRANCH   4   5
ENDBRANCH   2   4
TORSDOF 2
ENDMDL
MODEL 7
REMARK VINA RESULT:      -4.1     10.620     11.276
REMARK  2 active torsions:
REMARK  status: ('A' for Active; 'I' for Inactive)
REMARK    1  A    between atoms: C2_2  and  C10_10 
REMARK    2  A    between atoms: C7_7  and  C10_10 
ROOT
HETATM    1  C1  UNL     1     -39.774  12.126   4.942  1.00 20.00    -0.111 C 
HETATM    2  C2  UNL     1     -40.472  12.581   5.808  1.00 20.00    -0.107 C 
HETATM    3  C8  UNL     1     -38.926  11.572   3.887  1.00 20.00     0.112 C 
ENDROOT
BRANCH   2   4
HETATM    4  C10 UNL     1     -41.310  13.137   6.871  1.00 20.00     0.099 C 
BRANCH   4   5
HETATM    5  C7  UNL     1     -40.616  14.308   7.552  1.00 20.00     0.008 C 
HETATM    6  C5  UNL     1     -40.786  14.285   9.073  1.00 20.00     0.013 C 
HETATM    7  C4  UNL     1     -40.329  15.667   9.524  1.00 20.00     0.079 C 
HETATM    8  C3  UNL     1     -40.730  16.527   8.353  1.00 20.00     0.131 C 
HETATM    9  C6  UNL     1     -41.102  15.708   7.131  1.00 20.00     0.056 C 
HETATM   10  O11 UNL     1     -40.748  17.752   8.389  1.00 20.00    -0.298 OA
HETATM   11  C9  UNL     1     -42.592  15.844   6.859  1.00 20.00     0.018 C 
ENDBRANCH   4   5
ENDBRANCH   2   4
TORSDOF 2
ENDMDL
MODEL 8
REMARK VINA RESULT:      -4.0     11.830     12.823
REMARK  2 active torsions:
REMARK  status: ('A' for Active; 'I' for Inactive)
REMARK    1  A    between atoms: C2_2  and  C10_10 
REMARK    2  A    between atoms: C7_7  and  C10_10 
ROOT
HETATM    1  C1  UNL     1     -31.389  18.812   1.788  1.00 20.00    -0.111 C 
HETATM    2  C2  UNL     1     -31.442  18.576   0.611  1.00 20.00    -0.107 C 
HETATM    3  C8  UNL     1     -31.322  19.101   3.220  1.00 20.00     0.112 C 
ENDROOT
BRANCH   2   4
HETATM    4  C10 UNL     1     -31.517  18.278  -0.820  1.00 20.00     0.099 C 
BRANCH   4   5
HETATM    5  C7  UNL     1     -32.779  18.869  -1.431  1.00 20.00     0.008 C 
HETATM    6  C5  UNL     1     -33.926  18.973  -0.422  1.00 20.00     0.013 C 
HETATM    7  C4  UNL     1     -35.154  19.259  -1.276  1.00 20.00     0.079 C 
HETATM    8  C3  UNL     1     -34.831  18.519  -2.548  1.00 20.00     0.131 C 
HETATM    9  C6  UNL     1     -33.379  18.086  -2.615  1.00 20.00     0.056 C 
HETATM   10  O11 UNL     1     -35.653  18.299  -3.430  1.00 20.00    -0.298 OA
HETATM   11  C9  UNL     1     -33.293  16.570  -2.525  1.00 20.00     0.018 C 
ENDBRANCH   4   5
ENDBRANCH   2   4
TORSDOF 2
ENDMDL
MODEL 9
REMARK VINA RESULT:      -4.0      0.983      1.945
REMARK  2 active torsions:
REMARK  status: ('A' for Active; 'I' for Inactive)
REMARK    1  A    between atoms: C2_2  and  C10_10 
REMARK    2  A    between atoms: C7_7  and  C10_10 
ROOT
HETATM    1  C1  UNL     1     -32.601   8.880   1.602  1.00 20.00    -0.111 C 
HETATM    2  C2  UNL     1     -32.584   8.690   2.788  1.00 20.00    -0.107 C 
HETATM    3  C8  UNL     1     -32.621   9.111   0.158  1.00 20.00     0.112 C 
ENDROOT
BRANCH   2   4
HETATM    4  C10 UNL     1     -32.562   8.472   4.235  1.00 20.00     0.099 C 
BRANCH   4   5
HETATM    5  C7  UNL     1     -33.092   7.089   4.583  1.00 20.00     0.008 C 
HETATM    6  C5  UNL     1     -34.370   6.741   3.815  1.00 20.00     0.013 C 
HETATM    7  C4  UNL     1     -34.912   5.507   4.524  1.00 20.00     0.079 C 
HETATM    8  C3  UNL     1     -34.478   5.748   5.947  1.00 20.00     0.131 C 
HETATM    9  C6  UNL     1     -33.461   6.867   6.063  1.00 20.00     0.056 C 
HETATM   10  O11 UNL     1     -34.900   5.104   6.901  1.00 20.00    -0.298 OA
HETATM   11  C9  UNL     1     -34.087   8.054   6.780  1.00 20.00     0.018 C 
ENDBRANCH   4   5
ENDBRANCH   2   4
TORSDOF 2
ENDMDL
