MODEL 1
REMARK VINA RESULT:      -4.5      0.000      0.000
REMARK  3 active torsions:
REMARK  status: ('A' for Active; 'I' for Inactive)
REMARK    1  A    between atoms: C1_1  and  C4_4 
REMARK    2  A    between atoms: C1_1  and  C6_6 
REMARK    3  A    between atoms: N7_7  and  O8_8 
ROOT
HETATM    1  C1  UNL     1     -33.337   6.738   4.048  1.00 20.00     0.043 C 
HETATM    2  N7  UNL     1     -32.578   6.595   3.005  1.00 20.00    -0.145 NA
ENDROOT
BRANCH   1   3
HETATM    3  C4  UNL     1     -34.109   5.534   4.530  1.00 20.00     0.036 A 
HETATM    4  C2  UNL     1     -34.649   5.560   5.912  1.00 20.00     0.011 A 
HETATM    5  C3  UNL     1     -35.571   5.682   4.737  1.00 20.00     0.011 A 
ENDBRANCH   1   3
BRANCH   1   6
HETATM    6  C6  UNL     1     -33.540   8.039   4.804  1.00 20.00     0.053 C 
HETATM    7  C5  UNL     1     -32.267   8.864   4.799  1.00 20.00     0.011 C 
ENDBRANCH   1   6
BRANCH   2   8
HETATM    8  O8  UNL     1     -32.628   5.290   2.512  1.00 20.00    -0.266 OA
HETATM    9  H19 UNL     1     -31.765   4.942   2.790  1.00 20.00     0.247 HD
ENDBRANCH   2   8
TORSDOF 3
ENDMDL
MODEL 2
REMARK VINA RESULT:      -4.5      1.152      3.003
REMARK  3 active torsions:
REMARK  status: ('A' for Active; 'I' for Inactive)
REMARK    1  A    between atoms: C1_1  and  C4_4 
REMARK    2  A    between atoms: C1_1  and  C6_6 
REMARK    3  A    between atoms: N7_7  and  O8_8 
ROOT
HETATM    1  C1  UNL     1     -33.527   6.515   4.358  1.00 20.00     0.043 C 
HETATM    2  N7  UNL     1     -33.737   5.459   3.633  1.00 20.00    -0.145 NA
ENDROOT
BRANCH   1   3
HETATM    3  C4  UNL     1     -32.459   7.481   3.905  1.00 20.00     0.036 A 
HETATM    4  C2  UNL     1     -32.891   8.796   3.368  1.00 20.00     0.011 A 
HETATM    5  C3  UNL     1     -32.239   8.705   4.715  1.00 20.00     0.011 A 
ENDBRANCH   1   3
BRANCH   1   6
HETATM    6  C6  UNL     1     -34.248   6.839   5.654  1.00 20.00     0.053 C 
HETATM    7  C5  UNL     1     -34.635   5.566   6.382  1.00 20.00     0.011 C 
ENDBRANCH   1   6
BRANCH   2   8
HETATM    8  O8  UNL     1     -32.893   5.426   2.522  1.00 20.00    -0.266 OA
HETATM    9  H19 UNL     1     -33.532   5.367   1.792  1.00 20.00     0.247 HD
ENDBRANCH   2   8
TORSDOF 3
ENDMDL
MODEL 3
REMARK VINA RESULT:      -4.4      2.241      3.086
REMARK  3 active torsions:
REMARK  status: ('A' for Active; 'I' for Inactive)
REMARK    1  A    between atoms: C1_1  and  C4_4 
REMARK    2  A    between atoms: C1_1  and  C6_6 
REMARK    3  A    between atoms: N7_7  and  O8_8 
ROOT
HETATM    1  C1  UNL     1     -33.912   5.813   4.261  1.00 20.00     0.043 C 
HETATM    2  N7  UNL     1     -34.426   4.657   4.554  1.00 20.00    -0.145 NA
ENDROOT
BRANCH   1   3
HETATM    3  C4  UNL     1     -34.322   6.999   5.100  1.00 20.00     0.036 A 
HETATM    4  C2  UNL     1     -33.500   7.327   6.292  1.00 20.00     0.011 A 
HETATM    5  C3  UNL     1     -33.453   8.202   5.075  1.00 20.00     0.011 A 
ENDBRANCH   1   3
BRANCH   1   6
HETATM    6  C6  UNL     1     -32.956   6.075   3.113  1.00 20.00     0.053 C 
HETATM    7  C5  UNL     1     -32.837   4.849   2.226  1.00 20.00     0.011 C 
ENDBRANCH   1   6
BRANCH   2   8
HETATM    8  O8  UNL     1     -35.297   4.745   5.640  1.00 20.00    -0.266 OA
HETATM    9  H19 UNL     1     -36.106   4.349   5.275  1.00 20.00     0.247 HD
ENDBRANCH   2   8
TORSDOF 3
ENDMDL
MODEL 4
REMARK VINA RESULT:      -4.2      2.003      2.681
REMARK  3 active torsions:
REMARK  status: ('A' for Active; 'I' for Inactive)
REMARK    1  A    between atoms: C1_1  and  C4_4 
REMARK    2  A    between atoms: C1_1  and  C6_6 
REMARK    3  A    between atoms: N7_7  and  O8_8 
ROOT
HETATM    1  C1  UNL     1     -33.389   6.862   4.452  1.00 20.00     0.043 C 
HETATM    2  N7  UNL     1     -32.541   7.778   4.097  1.00 20.00    -0.145 NA
ENDROOT
BRANCH   1   3
HETATM    3  C4  UNL     1     -33.834   6.835   5.894  1.00 20.00     0.036 A 
HETATM    4  C2  UNL     1     -35.015   6.005   6.244  1.00 20.00     0.011 A 
HETATM    5  C3  UNL     1     -33.639   5.578   6.660  1.00 20.00     0.011 A 
ENDBRANCH   1   3
BRANCH   1   6
HETATM    6  C6  UNL     1     -33.942   5.785   3.537  1.00 20.00     0.053 C 
HETATM    7  C5  UNL     1     -32.853   5.243   2.630  1.00 20.00     0.011 C 
ENDBRANCH   1   6
BRANCH   2   8
HETATM    8  O8  UNL     1     -32.194   8.598   5.170  1.00 20.00    -0.266 OA
HETATM    9  H19 UNL     1     -31.285   8.852   4.938  1.00 20.00     0.247 HD
ENDBRANCH   2   8
TORSDOF 3
ENDMDL
MODEL 5
REMARK VINA RESULT:      -4.0      2.192      3.359
REMARK  3 active torsions:
REMARK  status: ('A' for Active; 'I' for Inactive)
REMARK    1  A    between atoms: C1_1  and  C4_4 
REMARK    2  A    between atoms: C1_1  and  C6_6 
REMARK    3  A    between atoms: N7_7  and  O8_8 
ROOT
HETATM    1  C1  UNL     1     -33.531   7.159   4.673  1.00 20.00     0.043 C 
HETATM    2  N7  UNL     1     -33.387   8.232   5.389  1.00 20.00    -0.145 NA
ENDROOT
BRANCH   1   3
HETATM    3  C4  UNL     1     -32.442   6.820   3.684  1.00 20.00     0.036 A 
HETATM    4  C2  UNL     1     -32.739   5.805   2.641  1.00 20.00     0.011 A 
HETATM    5  C3  UNL     1     -32.621   7.255   2.276  1.00 20.00     0.011 A 
ENDBRANCH   1   3
BRANCH   1   6
HETATM    6  C6  UNL     1     -34.732   6.233   4.724  1.00 20.00     0.053 C 
HETATM    7  C5  UNL     1     -34.730   5.426   6.009  1.00 20.00     0.011 C 
ENDBRANCH   1   6
BRANCH   2   8
HETATM    8  O8  UNL     1     -32.195   8.891   5.088  1.00 20.00    -0.266 OA
HETATM    9  H19 UNL     1     -32.477   9.493   4.379  1.00 20.00     0.247 HD
ENDBRANCH   2   8
TORSDOF 3
ENDMDL
MODEL 6
REMARK VINA RESULT:      -4.0     11.805     12.717
REMARK  3 active torsions:
REMARK  status: ('A' for Active; 'I' for Inactive)
REMARK    1  A    between atoms: C1_1  and  C4_4 
REMARK    2  A    between atoms: C1_1  and  C6_6 
REMARK    3  A    between atoms: N7_7  and  O8_8 
ROOT
HETATM    1  C1  UNL     1     -34.209  14.621  -4.473  1.00 20.00     0.043 C 
HETATM    2  N7  UNL     1     -34.623  13.568  -3.836  1.00 20.00    -0.145 NA
ENDROOT
BRANCH   1   3
HETATM    3  C4  UNL     1     -34.906  14.984  -5.762  1.00 20.00     0.036 A 
HETATM    4  C2  UNL     1     -34.836  16.394  -6.219  1.00 20.00     0.011 A 
HETATM    5  C3  UNL     1     -34.064  15.327  -6.935  1.00 20.00     0.011 A 
ENDBRANCH   1   3
BRANCH   1   6
HETATM    6  C6  UNL     1     -33.049  15.499  -4.043  1.00 20.00     0.053 C 
HETATM    7  C5  UNL     1     -33.427  16.327  -2.829  1.00 20.00     0.011 C 
ENDBRANCH   1   6
BRANCH   2   8
HETATM    8  O8  UNL     1     -35.683  12.951  -4.501  1.00 20.00    -0.266 OA
HETATM    9  H19 UNL     1     -35.360  12.038  -4.581  1.00 20.00     0.247 HD
ENDBRANCH   2   8
TORSDOF 3
ENDMDL
MODEL 7
REMARK VINA RESULT:      -3.9      2.305      2.536
REMARK  3 active torsions:
REMARK  status: ('A' for Active; 'I' for Inactive)
REMARK    1  A    between atoms: C1_1  and  C4_4 
REMARK    2  A    between atoms: C1_1  and  C6_6 
REMARK    3  A    between atoms: N7_7  and  O8_8 
ROOT
HETATM    1  C1  UNL     1     -33.724   6.927   4.920  1.00 20.00     0.043 C 
HETATM    2  N7  UNL     1     -33.993   7.146   6.171  1.00 20.00    -0.145 NA
ENDROOT
BRANCH   1   3
HETATM    3  C4  UNL     1     -34.399   5.755   4.249  1.00 20.00     0.036 A 
HETATM    4  C2  UNL     1     -33.663   5.053   3.167  1.00 20.00     0.011 A 
HETATM    5  C3  UNL     1     -33.852   4.398   4.503  1.00 20.00     0.011 A 
ENDBRANCH   1   3
BRANCH   1   6
HETATM    6  C6  UNL     1     -32.750   7.736   4.084  1.00 20.00     0.053 C 
HETATM    7  C5  UNL     1     -32.289   8.966   4.842  1.00 20.00     0.011 C 
ENDBRANCH   1   6
BRANCH   2   8
HETATM    8  O8  UNL     1     -34.898   6.210   6.671  1.00 20.00    -0.266 OA
HETATM    9  H19 UNL     1     -34.354   5.742   7.327  1.00 20.00     0.247 HD
ENDBRANCH   2   8
TORSDOF 3
ENDMDL
MODEL 8
REMARK VINA RESULT:      -3.8      2.446      3.734
REMARK  3 active torsions:
REMARK  status: ('A' for Active; 'I' for Inactive)
REMARK    1  A    between atoms: C1_1  and  C4_4 
REMARK    2  A    between atoms: C1_1  and  C6_6 
REMARK    3  A    between atoms: N7_7  and  O8_8 
ROOT
HETATM    1  C1  UNL     1     -33.914   6.638   4.870  1.00 20.00     0.043 C 
HETATM    2  N7  UNL     1     -34.345   6.281   6.042  1.00 20.00    -0.145 NA
ENDROOT
BRANCH   1   3
HETATM    3  C4  UNL     1     -33.580   8.095   4.656  1.00 20.00     0.036 A 
HETATM    4  C2  UNL     1     -32.171   8.521   4.842  1.00 20.00     0.011 A 
HETATM    5  C3  UNL     1     -32.767   8.454   3.467  1.00 20.00     0.011 A 
ENDBRANCH   1   3
BRANCH   1   6
HETATM    6  C6  UNL     1     -33.756   5.710   3.681  1.00 20.00     0.053 C 
HETATM    7  C5  UNL     1     -33.927   4.263   4.105  1.00 20.00     0.011 C 
ENDBRANCH   1   6
BRANCH   2   8
HETATM    8  O8  UNL     1     -34.415   7.368   6.914  1.00 20.00    -0.266 OA
HETATM    9  H19 UNL     1     -33.779   7.109   7.602  1.00 20.00     0.247 HD
ENDBRANCH   2   8
TORSDOF 3
ENDMDL
MODEL 9
REMARK VINA RESULT:      -3.7     11.903     12.881
REMARK  3 active torsions:
REMARK  status: ('A' for Active; 'I' for Inactive)
REMARK    1  A    between atoms: C1_1  and  C4_4 
REMARK    2  A    between atoms: C1_1  and  C6_6 
REMARK    3  A    between atoms: N7_7  and  O8_8 
ROOT
HETATM    1  C1  UNL     1     -35.034  14.869  -5.227  1.00 20.00     0.043 C 
HETATM    2  N7  UNL     1     -35.959  13.975  -5.400  1.00 20.00    -0.145 NA
ENDROOT
BRANCH   1   3
HETATM    3  C4  UNL     1     -34.080  14.682  -4.073  1.00 20.00     0.036 A 
HETATM    4  C2  UNL     1     -32.654  15.034  -4.283  1.00 20.00     0.011 A 
HETATM    5  C3  UNL     1     -33.527  15.897  -3.423  1.00 20.00     0.011 A 
ENDBRANCH   1   3
BRANCH   1   6
HETATM    6  C6  UNL     1     -34.859  16.116  -6.075  1.00 20.00     0.053 C 
HETATM    7  C5  UNL     1     -34.349  15.755  -7.457  1.00 20.00     0.011 C 
ENDBRANCH   1   6
BRANCH   2   8
HETATM    8  O8  UNL     1     -35.883  12.967  -4.439  1.00 20.00    -0.266 OA
HETATM    9  H19 UNL     1     -36.318  12.228  -4.895  1.00 20.00     0.247 HD
ENDBRANCH   2   8
TORSDOF 3
ENDMDL
