MODEL 1
REMARK VINA RESULT:      -4.4      0.000      0.000
REMARK  2 active torsions:
REMARK  status: ('A' for Active; 'I' for Inactive)
REMARK    1  A    between atoms: C3_3  and  C9_9 
REMARK    2  A    between atoms: C9_9  and  C10_10 
ROOT
HETATM    1  C1  UNL     1     -23.932  16.478  10.647  1.00 20.00     0.006 C 
HETATM    2  C2  UNL     1     -24.822  16.751  11.864  1.00 20.00     0.016 C 
HETATM    3  C3  UNL     1     -23.420  17.844  10.185  1.00 20.00    -0.009 C 
HETATM    4  C4  UNL     1     -23.371  18.685  11.476  1.00 20.00    -0.000 C 
HETATM    5  C5  UNL     1     -24.628  18.223  12.224  1.00 20.00     0.062 C 
HETATM    6  C6  UNL     1     -22.123  18.452  12.332  1.00 20.00     0.011 C 
HETATM    7 BR11 UNL     1     -26.183  19.263  11.633  1.00 20.00    -0.091 Br
ENDROOT
BRANCH   3   8
HETATM    8  C9  UNL     1     -22.120  17.755   9.402  1.00 20.00     0.009 C 
BRANCH   8   9
HETATM    9  C10 UNL     1     -22.041  18.752   8.236  1.00 20.00    -0.022 C 
HETATM   10  C7  UNL     1     -21.350  18.161   7.006  1.00 20.00     0.009 C 
HETATM   11  C8  UNL     1     -23.451  19.217   7.862  1.00 20.00     0.009 C 
ENDBRANCH   8   9
ENDBRANCH   3   8
TORSDOF 2
ENDMDL
MODEL 2
REMARK VINA RESULT:      -3.7     17.456     18.820
REMARK  2 active torsions:
REMARK  status: ('A' for Active; 'I' for Inactive)
REMARK    1  A    between atoms: C3_3  and  C9_9 
REMARK    2  A    between atoms: C9_9  and  C10_10 
ROOT
HETATM    1  C1  UNL     1     -41.389  15.158   6.323  1.00 20.00     0.006 C 
HETATM    2  C2  UNL     1     -42.047  15.625   7.625  1.00 20.00     0.016 C 
HETATM    3  C3  UNL     1     -41.020  13.689   6.543  1.00 20.00    -0.009 C 
HETATM    4  C4  UNL     1     -42.079  13.179   7.540  1.00 20.00    -0.000 C 
HETATM    5  C5  UNL     1     -42.257  14.377   8.480  1.00 20.00     0.062 C 
HETATM    6  C6  UNL     1     -43.416  12.798   6.898  1.00 20.00     0.011 C 
HETATM    7 BR11 UNL     1     -40.916  14.316   9.910  1.00 20.00    -0.091 Br
ENDROOT
BRANCH   3   8
HETATM    8  C9  UNL     1     -40.902  12.908   5.243  1.00 20.00     0.009 C 
BRANCH   8   9
HETATM    9  C10 UNL     1     -39.820  11.819   5.283  1.00 20.00    -0.022 C 
HETATM   10  C7  UNL     1     -39.026  11.734   3.978  1.00 20.00     0.009 C 
HETATM   11  C8  UNL     1     -38.866  12.085   6.450  1.00 20.00     0.009 C 
ENDBRANCH   8   9
ENDBRANCH   3   8
TORSDOF 2
ENDMDL
MODEL 3
REMARK VINA RESULT:      -3.7     15.579     17.486
REMARK  2 active torsions:
REMARK  status: ('A' for Active; 'I' for Inactive)
REMARK    1  A    between atoms: C3_3  and  C9_9 
REMARK    2  A    between atoms: C9_9  and  C10_10 
ROOT
HETATM    1  C1  UNL     1     -33.529  18.354  -3.941  1.00 20.00     0.006 C 
HETATM    2  C2  UNL     1     -34.035  18.082  -5.361  1.00 20.00     0.016 C 
HETATM    3  C3  UNL     1     -34.103  17.236  -3.068  1.00 20.00    -0.009 C 
HETATM    4  C4  UNL     1     -34.234  16.038  -4.029  1.00 20.00    -0.000 C 
HETATM    5  C5  UNL     1     -34.692  16.703  -5.332  1.00 20.00     0.062 C 
HETATM    6  C6  UNL     1     -32.932  15.263  -4.251  1.00 20.00     0.011 C 
HETATM    7 BR11 UNL     1     -36.644  16.895  -5.342  1.00 20.00    -0.091 Br
ENDROOT
BRANCH   3   8
HETATM    8  C9  UNL     1     -33.286  16.990  -1.809  1.00 20.00     0.009 C 
BRANCH   8   9
HETATM    9  C10 UNL     1     -33.110  18.247  -0.943  1.00 20.00    -0.022 C 
HETATM   10  C7  UNL     1     -33.889  18.165   0.371  1.00 20.00     0.009 C 
HETATM   11  C8  UNL     1     -31.624  18.464  -0.649  1.00 20.00     0.009 C 
ENDBRANCH   8   9
ENDBRANCH   3   8
TORSDOF 2
ENDMDL
MODEL 4
REMARK VINA RESULT:      -3.7     17.506     18.776
REMARK  2 active torsions:
REMARK  status: ('A' for Active; 'I' for Inactive)
REMARK    1  A    between atoms: C3_3  and  C9_9 
REMARK    2  A    between atoms: C9_9  and  C10_10 
ROOT
HETATM    1  C1  UNL     1     -42.836  12.925   6.725  1.00 20.00     0.006 C 
HETATM    2  C2  UNL     1     -43.417  14.254   7.218  1.00 20.00     0.016 C 
HETATM    3  C3  UNL     1     -41.503  13.272   6.057  1.00 20.00    -0.009 C 
HETATM    4  C4  UNL     1     -41.019  14.527   6.811  1.00 20.00    -0.000 C 
HETATM    5  C5  UNL     1     -42.322  15.303   7.039  1.00 20.00     0.062 C 
HETATM    6  C6  UNL     1     -40.330  14.233   8.146  1.00 20.00     0.011 C 
HETATM    7 BR11 UNL     1     -42.721  16.423   5.478  1.00 20.00    -0.091 Br
ENDROOT
BRANCH   3   8
HETATM    8  C9  UNL     1     -40.533  12.101   6.028  1.00 20.00     0.009 C 
BRANCH   8   9
HETATM    9  C10 UNL     1     -39.277  12.371   5.187  1.00 20.00    -0.022 C 
HETATM   10  C7  UNL     1     -37.986  12.175   5.984  1.00 20.00     0.009 C 
HETATM   11  C8  UNL     1     -39.271  11.453   3.962  1.00 20.00     0.009 C 
ENDBRANCH   8   9
ENDBRANCH   3   8
TORSDOF 2
ENDMDL
MODEL 5
REMARK VINA RESULT:      -3.6     15.448     17.276
REMARK  2 active torsions:
REMARK  status: ('A' for Active; 'I' for Inactive)
REMARK    1  A    between atoms: C3_3  and  C9_9 
REMARK    2  A    between atoms: C9_9  and  C10_10 
ROOT
HETATM    1  C1  UNL     1     -33.303  16.674  -3.275  1.00 20.00     0.006 C 
HETATM    2  C2  UNL     1     -34.297  16.096  -4.287  1.00 20.00     0.016 C 
HETATM    3  C3  UNL     1     -33.326  18.190  -3.481  1.00 20.00    -0.009 C 
HETATM    4  C4  UNL     1     -34.755  18.482  -3.979  1.00 20.00    -0.000 C 
HETATM    5  C5  UNL     1     -35.041  17.285  -4.894  1.00 20.00     0.062 C 
HETATM    6  C6  UNL     1     -35.804  18.568  -2.867  1.00 20.00     0.011 C 
HETATM    7 BR11 UNL     1     -34.364  17.641  -6.701  1.00 20.00    -0.091 Br
ENDROOT
BRANCH   3   8
HETATM    8  C9  UNL     1     -32.883  18.962  -2.248  1.00 20.00     0.009 C 
BRANCH   8   9
HETATM    9  C10 UNL     1     -32.544  18.058  -1.053  1.00 20.00    -0.022 C 
HETATM   10  C7  UNL     1     -31.230  18.451  -0.375  1.00 20.00     0.009 C 
HETATM   11  C8  UNL     1     -33.685  18.105  -0.034  1.00 20.00     0.009 C 
ENDBRANCH   8   9
ENDBRANCH   3   8
TORSDOF 2
ENDMDL
MODEL 6
REMARK VINA RESULT:      -3.4     17.946     19.708
REMARK  2 active torsions:
REMARK  status: ('A' for Active; 'I' for Inactive)
REMARK    1  A    between atoms: C3_3  and  C9_9 
REMARK    2  A    between atoms: C9_9  and  C10_10 
ROOT
HETATM    1  C1  UNL     1     -33.908  15.512  -6.651  1.00 20.00     0.006 C 
HETATM    2  C2  UNL     1     -35.046  15.418  -7.672  1.00 20.00     0.016 C 
HETATM    3  C3  UNL     1     -34.545  16.030  -5.360  1.00 20.00    -0.009 C 
HETATM    4  C4  UNL     1     -35.993  15.508  -5.417  1.00 20.00    -0.000 C 
HETATM    5  C5  UNL     1     -36.344  15.657  -6.902  1.00 20.00     0.062 C 
HETATM    6  C6  UNL     1     -36.156  14.053  -4.971  1.00 20.00     0.011 C 
HETATM    7 BR11 UNL     1     -37.007  17.468  -7.260  1.00 20.00    -0.091 Br
ENDROOT
BRANCH   3   8
HETATM    8  C9  UNL     1     -33.752  15.653  -4.117  1.00 20.00     0.009 C 
BRANCH   8   9
HETATM    9  C10 UNL     1     -33.139  16.863  -3.396  1.00 20.00    -0.022 C 
HETATM   10  C7  UNL     1     -33.554  18.193  -4.028  1.00 20.00     0.009 C 
HETATM   11  C8  UNL     1     -33.548  16.843  -1.921  1.00 20.00     0.009 C 
ENDBRANCH   8   9
ENDBRANCH   3   8
TORSDOF 2
ENDMDL
MODEL 7
REMARK VINA RESULT:      -3.3     16.273     18.008
REMARK  2 active torsions:
REMARK  status: ('A' for Active; 'I' for Inactive)
REMARK    1  A    between atoms: C3_3  and  C9_9 
REMARK    2  A    between atoms: C9_9  and  C10_10 
ROOT
HETATM    1  C1  UNL     1     -33.516  16.547  -3.062  1.00 20.00     0.006 C 
HETATM    2  C2  UNL     1     -32.940  17.429  -1.949  1.00 20.00     0.016 C 
HETATM    3  C3  UNL     1     -34.566  17.403  -3.775  1.00 20.00    -0.009 C 
HETATM    4  C4  UNL     1     -34.054  18.847  -3.605  1.00 20.00    -0.000 C 
HETATM    5  C5  UNL     1     -33.489  18.836  -2.180  1.00 20.00     0.062 C 
HETATM    6  C6  UNL     1     -32.971  19.253  -4.608  1.00 20.00     0.011 C 
HETATM    7 BR11 UNL     1     -34.916  19.214  -0.887  1.00 20.00    -0.091 Br
ENDROOT
BRANCH   3   8
HETATM    8  C9  UNL     1     -34.822  16.953  -5.206  1.00 20.00     0.009 C 
BRANCH   8   9
HETATM    9  C10 UNL     1     -34.565  15.456  -5.429  1.00 20.00    -0.022 C 
HETATM   10  C7  UNL     1     -35.846  14.624  -5.348  1.00 20.00     0.009 C 
HETATM   11  C8  UNL     1     -33.898  15.246  -6.791  1.00 20.00     0.009 C 
ENDBRANCH   8   9
ENDBRANCH   3   8
TORSDOF 2
ENDMDL
MODEL 8
REMARK VINA RESULT:      -3.2     17.261     18.491
REMARK  2 active torsions:
REMARK  status: ('A' for Active; 'I' for Inactive)
REMARK    1  A    between atoms: C3_3  and  C9_9 
REMARK    2  A    between atoms: C9_9  and  C10_10 
ROOT
HETATM    1  C1  UNL     1     -42.853  15.483   8.039  1.00 20.00     0.006 C 
HETATM    2  C2  UNL     1     -42.549  16.885   8.577  1.00 20.00     0.016 C 
HETATM    3  C3  UNL     1     -41.543  14.970   7.438  1.00 20.00    -0.009 C 
HETATM    4  C4  UNL     1     -40.448  15.666   8.271  1.00 20.00    -0.000 C 
HETATM    5  C5  UNL     1     -41.035  17.065   8.491  1.00 20.00     0.062 C 
HETATM    6  C6  UNL     1     -40.154  14.991   9.613  1.00 20.00     0.011 C 
HETATM    7 BR11 UNL     1     -40.589  18.229   6.975  1.00 20.00    -0.091 Br
ENDROOT
BRANCH   3   8
HETATM    8  C9  UNL     1     -41.471  13.452   7.385  1.00 20.00     0.009 C 
BRANCH   8   9
HETATM    9  C10 UNL     1     -41.261  12.902   5.966  1.00 20.00    -0.022 C 
HETATM   10  C7  UNL     1     -41.591  13.933   4.885  1.00 20.00     0.009 C 
HETATM   11  C8  UNL     1     -39.814  12.431   5.806  1.00 20.00     0.009 C 
ENDBRANCH   8   9
ENDBRANCH   3   8
TORSDOF 2
ENDMDL
MODEL 9
REMARK VINA RESULT:      -3.2     17.556     18.471
REMARK  2 active torsions:
REMARK  status: ('A' for Active; 'I' for Inactive)
REMARK    1  A    between atoms: C3_3  and  C9_9 
REMARK    2  A    between atoms: C9_9  and  C10_10 
ROOT
HETATM    1  C1  UNL     1     -40.101  14.376   9.146  1.00 20.00     0.006 C 
HETATM    2  C2  UNL     1     -40.557  15.240  10.326  1.00 20.00     0.016 C 
HETATM    3  C3  UNL     1     -41.151  14.573   8.051  1.00 20.00    -0.009 C 
HETATM    4  C4  UNL     1     -41.683  16.000   8.289  1.00 20.00    -0.000 C 
HETATM    5  C5  UNL     1     -41.720  16.090   9.820  1.00 20.00     0.062 C 
HETATM    6  C6  UNL     1     -40.798  17.107   7.709  1.00 20.00     0.011 C 
HETATM    7 BR11 UNL     1     -43.416  15.371  10.495  1.00 20.00    -0.091 Br
ENDROOT
BRANCH   3   8
HETATM    8  C9  UNL     1     -40.611  14.291   6.656  1.00 20.00     0.009 C 
BRANCH   8   9
HETATM    9  C10 UNL     1     -41.181  13.009   6.031  1.00 20.00    -0.022 C 
HETATM   10  C7  UNL     1     -40.131  11.903   5.907  1.00 20.00     0.009 C 
HETATM   11  C8  UNL     1     -42.361  12.509   6.868  1.00 20.00     0.009 C 
ENDBRANCH   8   9
ENDBRANCH   3   8
TORSDOF 2
ENDMDL
