MODEL 1
REMARK VINA RESULT:      -3.9      0.000      0.000
REMARK  1 active torsions:
REMARK  status: ('A' for Active; 'I' for Inactive)
REMARK    1  A    between atoms: C6_6  and  N9_9 
ROOT
HETATM    1  C1  UNL     1     -33.682  17.029  -2.322  1.00 20.00     0.158 C 
HETATM    2  N9  UNL     1     -33.703  17.170  -1.156  1.00 20.00    -0.270 NA
HETATM    3  S10 UNL     1     -33.665  16.810  -3.900  1.00 20.00    -0.055 SA
ENDROOT
BRANCH   2   4
HETATM    4  C6  UNL     1     -33.232  18.475  -0.684  1.00 20.00     0.113 C 
HETATM    5  C3  UNL     1     -31.764  18.668  -1.083  1.00 20.00     0.028 C 
HETATM    6  C2  UNL     1     -30.973  18.548   0.213  1.00 20.00     0.007 C 
HETATM    7  C4  UNL     1     -31.925  19.123   1.258  1.00 20.00    -0.013 C 
HETATM    8  C5  UNL     1     -33.270  18.499   0.855  1.00 20.00     0.010 C 
HETATM    9  C7  UNL     1     -31.498  18.795   2.681  1.00 20.00     0.010 C 
HETATM   10  C8  UNL     1     -34.473  19.263   1.393  1.00 20.00     0.012 C 
ENDBRANCH   2   4
TORSDOF 1
ENDMDL
MODEL 2
REMARK VINA RESULT:      -3.7     11.418     11.872
REMARK  1 active torsions:
REMARK  status: ('A' for Active; 'I' for Inactive)
REMARK    1  A    between atoms: C6_6  and  N9_9 
ROOT
HETATM    1  C1  UNL     1     -32.723   9.056   2.063  1.00 20.00     0.158 C 
HETATM    2  N9  UNL     1     -32.811   9.076   3.233  1.00 20.00    -0.270 NA
HETATM    3  S10 UNL     1     -32.612   9.059   0.473  1.00 20.00    -0.055 SA
ENDROOT
BRANCH   2   4
HETATM    4  C6  UNL     1     -32.455   7.820   3.899  1.00 20.00     0.113 C 
HETATM    5  C3  UNL     1     -32.189   6.737   2.847  1.00 20.00     0.028 C 
HETATM    6  C2  UNL     1     -33.376   5.786   2.934  1.00 20.00     0.007 C 
HETATM    7  C4  UNL     1     -33.750   5.831   4.414  1.00 20.00    -0.013 C 
HETATM    8  C5  UNL     1     -33.654   7.331   4.731  1.00 20.00     0.010 C 
HETATM    9  C7  UNL     1     -35.122   5.232   4.686  1.00 20.00     0.010 C 
HETATM   10  C8  UNL     1     -33.487   7.622   6.217  1.00 20.00     0.012 C 
ENDBRANCH   2   4
TORSDOF 1
ENDMDL
MODEL 3
REMARK VINA RESULT:      -3.6      3.271      5.697
REMARK  1 active torsions:
REMARK  status: ('A' for Active; 'I' for Inactive)
REMARK    1  A    between atoms: C6_6  and  N9_9 
ROOT
HETATM    1  C1  UNL     1     -32.631  18.886  -2.281  1.00 20.00     0.158 C 
HETATM    2  N9  UNL     1     -33.036  18.635  -3.353  1.00 20.00    -0.270 NA
HETATM    3  S10 UNL     1     -32.063  19.250  -0.837  1.00 20.00    -0.055 SA
ENDROOT
BRANCH   2   4
HETATM    4  C6  UNL     1     -34.032  17.560  -3.400  1.00 20.00     0.113 C 
HETATM    5  C3  UNL     1     -33.435  16.279  -2.807  1.00 20.00     0.028 C 
HETATM    6  C2  UNL     1     -33.210  15.350  -3.994  1.00 20.00     0.007 C 
HETATM    7  C4  UNL     1     -34.353  15.710  -4.940  1.00 20.00    -0.013 C 
HETATM    8  C5  UNL     1     -34.366  17.244  -4.869  1.00 20.00     0.010 C 
HETATM    9  C7  UNL     1     -34.142  15.161  -6.343  1.00 20.00     0.010 C 
HETATM   10  C8  UNL     1     -35.691  17.855  -5.307  1.00 20.00     0.012 C 
ENDBRANCH   2   4
TORSDOF 1
ENDMDL
MODEL 4
REMARK VINA RESULT:      -3.6      2.832      5.852
REMARK  1 active torsions:
REMARK  status: ('A' for Active; 'I' for Inactive)
REMARK    1  A    between atoms: C6_6  and  N9_9 
ROOT
HETATM    1  C1  UNL     1     -32.778  17.686  -1.441  1.00 20.00     0.158 C 
HETATM    2  N9  UNL     1     -33.514  16.967  -2.005  1.00 20.00    -0.270 NA
HETATM    3  S10 UNL     1     -31.792  18.654  -0.648  1.00 20.00    -0.055 SA
ENDROOT
BRANCH   2   4
HETATM    4  C6  UNL     1     -33.352  16.938  -3.462  1.00 20.00     0.113 C 
HETATM    5  C3  UNL     1     -34.187  18.058  -4.094  1.00 20.00     0.028 C 
HETATM    6  C2  UNL     1     -35.354  17.357  -4.779  1.00 20.00     0.007 C 
HETATM    7  C4  UNL     1     -34.746  16.032  -5.232  1.00 20.00    -0.013 C 
HETATM    8  C5  UNL     1     -33.918  15.615  -4.008  1.00 20.00     0.010 C 
HETATM    9  C7  UNL     1     -35.803  15.013  -5.635  1.00 20.00     0.010 C 
HETATM   10  C8  UNL     1     -32.823  14.608  -4.336  1.00 20.00     0.012 C 
ENDBRANCH   2   4
TORSDOF 1
ENDMDL
MODEL 5
REMARK VINA RESULT:      -3.5      4.138      5.761
REMARK  1 active torsions:
REMARK  status: ('A' for Active; 'I' for Inactive)
REMARK    1  A    between atoms: C6_6  and  N9_9 
ROOT
HETATM    1  C1  UNL     1     -36.769  16.412  -6.721  1.00 20.00     0.158 C 
HETATM    2  N9  UNL     1     -36.234  15.861  -5.833  1.00 20.00    -0.270 NA
HETATM    3  S10 UNL     1     -37.522  17.146  -7.918  1.00 20.00    -0.055 SA
ENDROOT
BRANCH   2   4
HETATM    4  C6  UNL     1     -34.820  16.204  -5.657  1.00 20.00     0.113 C 
HETATM    5  C3  UNL     1     -34.009  14.927  -5.405  1.00 20.00     0.028 C 
HETATM    6  C2  UNL     1     -33.618  14.980  -3.933  1.00 20.00     0.007 C 
HETATM    7  C4  UNL     1     -33.450  16.474  -3.670  1.00 20.00    -0.013 C 
HETATM    8  C5  UNL     1     -34.663  17.073  -4.397  1.00 20.00     0.010 C 
HETATM    9  C7  UNL     1     -33.400  16.802  -2.185  1.00 20.00     0.010 C 
HETATM   10  C8  UNL     1     -34.496  18.551  -4.729  1.00 20.00     0.012 C 
ENDBRANCH   2   4
TORSDOF 1
ENDMDL
MODEL 6
REMARK VINA RESULT:      -3.3     11.928     12.373
REMARK  1 active torsions:
REMARK  status: ('A' for Active; 'I' for Inactive)
REMARK    1  A    between atoms: C6_6  and  N9_9 
ROOT
HETATM    1  C1  UNL     1     -32.173   7.971   2.372  1.00 20.00     0.158 C 
HETATM    2  N9  UNL     1     -32.171   7.650   3.501  1.00 20.00    -0.270 NA
HETATM    3  S10 UNL     1     -32.146   8.400   0.838  1.00 20.00    -0.055 SA
ENDROOT
BRANCH   2   4
HETATM    4  C6  UNL     1     -33.477   7.717   4.164  1.00 20.00     0.113 C 
HETATM    5  C3  UNL     1     -33.339   8.457   5.499  1.00 20.00     0.028 C 
HETATM    6  C2  UNL     1     -33.484   7.386   6.574  1.00 20.00     0.007 C 
HETATM    7  C4  UNL     1     -34.461   6.394   5.948  1.00 20.00    -0.013 C 
HETATM    8  C5  UNL     1     -33.944   6.290   4.505  1.00 20.00     0.010 C 
HETATM    9  C7  UNL     1     -34.495   5.064   6.686  1.00 20.00     0.010 C 
HETATM   10  C8  UNL     1     -34.991   5.773   3.527  1.00 20.00     0.012 C 
ENDBRANCH   2   4
TORSDOF 1
ENDMDL
MODEL 7
REMARK VINA RESULT:      -3.2      3.601      4.775
REMARK  1 active torsions:
REMARK  status: ('A' for Active; 'I' for Inactive)
REMARK    1  A    between atoms: C6_6  and  N9_9 
ROOT
HETATM    1  C1  UNL     1     -35.447  15.532  -6.148  1.00 20.00     0.158 C 
HETATM    2  N9  UNL     1     -35.154  15.541  -5.011  1.00 20.00    -0.270 NA
HETATM    3  S10 UNL     1     -35.863  15.498  -7.685  1.00 20.00    -0.055 SA
ENDROOT
BRANCH   2   4
HETATM    4  C6  UNL     1     -34.154  16.545  -4.639  1.00 20.00     0.113 C 
HETATM    5  C3  UNL     1     -33.178  15.946  -3.619  1.00 20.00     0.028 C 
HETATM    6  C2  UNL     1     -33.515  16.616  -2.293  1.00 20.00     0.007 C 
HETATM    7  C4  UNL     1     -33.966  18.013  -2.713  1.00 20.00    -0.013 C 
HETATM    8  C5  UNL     1     -34.855  17.718  -3.930  1.00 20.00     0.010 C 
HETATM    9  C7  UNL     1     -34.683  18.755  -1.594  1.00 20.00     0.010 C 
HETATM   10  C8  UNL     1     -35.039  18.922  -4.846  1.00 20.00     0.012 C 
ENDBRANCH   2   4
TORSDOF 1
ENDMDL
MODEL 8
REMARK VINA RESULT:      -3.2     11.246     12.544
REMARK  1 active torsions:
REMARK  status: ('A' for Active; 'I' for Inactive)
REMARK    1  A    between atoms: C6_6  and  N9_9 
ROOT
HETATM    1  C1  UNL     1     -39.605  12.132   5.640  1.00 20.00     0.158 C 
HETATM    2  N9  UNL     1     -40.019  12.388   6.708  1.00 20.00    -0.270 NA
HETATM    3  S10 UNL     1     -39.027  11.763   4.202  1.00 20.00    -0.055 SA
ENDROOT
BRANCH   2   4
HETATM    4  C6  UNL     1     -41.009  13.469   6.744  1.00 20.00     0.113 C 
HETATM    5  C3  UNL     1     -40.417  14.684   7.467  1.00 20.00     0.028 C 
HETATM    6  C2  UNL     1     -41.136  14.748   8.809  1.00 20.00     0.007 C 
HETATM    7  C4  UNL     1     -42.530  14.219   8.482  1.00 20.00    -0.013 C 
HETATM    8  C5  UNL     1     -42.221  13.016   7.578  1.00 20.00     0.010 C 
HETATM    9  C7  UNL     1     -43.325  13.861   9.729  1.00 20.00     0.010 C 
HETATM   10  C8  UNL     1     -43.400  12.599   6.707  1.00 20.00     0.012 C 
ENDBRANCH   2   4
TORSDOF 1
ENDMDL
MODEL 9
REMARK VINA RESULT:      -3.1     12.184     13.652
REMARK  1 active torsions:
REMARK  status: ('A' for Active; 'I' for Inactive)
REMARK    1  A    between atoms: C6_6  and  N9_9 
ROOT
HETATM    1  C1  UNL     1     -40.896  14.231  10.783  1.00 20.00     0.158 C 
HETATM    2  N9  UNL     1     -41.382  13.466  10.038  1.00 20.00    -0.270 NA
HETATM    3  S10 UNL     1     -40.227  15.246  11.812  1.00 20.00    -0.055 SA
ENDROOT
BRANCH   2   4
HETATM    4  C6  UNL     1     -41.984  14.066   8.843  1.00 20.00     0.113 C 
HETATM    5  C3  UNL     1     -43.115  13.167   8.330  1.00 20.00     0.028 C 
HETATM    6  C2  UNL     1     -42.583  12.534   7.051  1.00 20.00     0.007 C 
HETATM    7  C4  UNL     1     -41.679  13.621   6.475  1.00 20.00    -0.013 C 
HETATM    8  C5  UNL     1     -40.932  14.120   7.721  1.00 20.00     0.010 C 
HETATM    9  C7  UNL     1     -40.763  13.097   5.379  1.00 20.00     0.010 C 
HETATM   10  C8  UNL     1     -40.339  15.513   7.549  1.00 20.00     0.012 C 
ENDBRANCH   2   4
TORSDOF 1
ENDMDL
