MODEL 1
REMARK VINA RESULT:      -4.3      0.000      0.000
REMARK  2 active torsions:
REMARK  status: ('A' for Active; 'I' for Inactive)
REMARK    1  A    between atoms: C4_4  and  C5_5 
REMARK    2  A    between atoms: C5_5  and  C7_7 
ROOT
HETATM    1  C3  UNL     1     -34.359   7.137   6.747  1.00 20.00     0.207 A 
HETATM    2  C5  UNL     1     -34.127   6.861   5.280  1.00 20.00     0.085 A 
HETATM    3  O8  UNL     1     -33.230   6.376   6.289  1.00 20.00    -0.375 OA
ENDROOT
BRANCH   2   4
HETATM    4  C4  UNL     1     -33.537   7.910   4.348  1.00 20.00     0.022 A 
HETATM    5  C1  UNL     1     -32.228   8.596   4.625  1.00 20.00     0.008 A 
HETATM    6  C2  UNL     1     -32.345   7.639   3.471  1.00 20.00     0.008 A 
ENDBRANCH   2   4
BRANCH   2   7
HETATM    7  C7  UNL     1     -34.927   5.769   4.636  1.00 20.00     0.036 C 
HETATM    8  C6  UNL     1     -34.111   4.534   4.370  1.00 20.00     0.008 C 
ENDBRANCH   2   7
TORSDOF 2
ENDMDL
MODEL 2
REMARK VINA RESULT:      -4.3      1.488      2.858
REMARK  2 active torsions:
REMARK  status: ('A' for Active; 'I' for Inactive)
REMARK    1  A    between atoms: C4_4  and  C5_5 
REMARK    2  A    between atoms: C5_5  and  C7_7 
ROOT
HETATM    1  C3  UNL     1     -32.563   8.450   4.937  1.00 20.00     0.207 A 
HETATM    2  C5  UNL     1     -33.093   7.179   4.315  1.00 20.00     0.085 A 
HETATM    3  O8  UNL     1     -33.856   8.395   4.315  1.00 20.00    -0.375 OA
ENDROOT
BRANCH   2   4
HETATM    4  C4  UNL     1     -33.680   6.055   5.158  1.00 20.00     0.022 A 
HETATM    5  C1  UNL     1     -34.493   6.310   6.397  1.00 20.00     0.008 A 
HETATM    6  C2  UNL     1     -35.149   5.734   5.173  1.00 20.00     0.008 A 
ENDBRANCH   2   4
BRANCH   2   7
HETATM    7  C7  UNL     1     -32.594   6.802   2.954  1.00 20.00     0.036 C 
HETATM    8  C6  UNL     1     -32.853   5.358   2.621  1.00 20.00     0.008 C 
ENDBRANCH   2   7
TORSDOF 2
ENDMDL
MODEL 3
REMARK VINA RESULT:      -4.1      1.473      3.191
REMARK  2 active torsions:
REMARK  status: ('A' for Active; 'I' for Inactive)
REMARK    1  A    between atoms: C4_4  and  C5_5 
REMARK    2  A    between atoms: C5_5  and  C7_7 
ROOT
HETATM    1  C3  UNL     1     -32.605   8.319   5.176  1.00 20.00     0.207 A 
HETATM    2  C5  UNL     1     -33.330   7.256   4.385  1.00 20.00     0.085 A 
HETATM    3  O8  UNL     1     -33.531   8.654   4.131  1.00 20.00    -0.375 OA
ENDROOT
BRANCH   2   4
HETATM    4  C4  UNL     1     -34.544   6.526   4.944  1.00 20.00     0.022 A 
HETATM    5  C1  UNL     1     -34.716   5.036   4.832  1.00 20.00     0.008 A 
HETATM    6  C2  UNL     1     -34.478   5.667   6.176  1.00 20.00     0.008 A 
ENDBRANCH   2   4
BRANCH   2   7
HETATM    7  C7  UNL     1     -32.581   6.564   3.287  1.00 20.00     0.036 C 
HETATM    8  C6  UNL     1     -32.263   7.479   2.136  1.00 20.00     0.008 C 
ENDBRANCH   2   7
TORSDOF 2
ENDMDL
MODEL 4
REMARK VINA RESULT:      -3.9      1.424      2.665
REMARK  2 active torsions:
REMARK  status: ('A' for Active; 'I' for Inactive)
REMARK    1  A    between atoms: C4_4  and  C5_5 
REMARK    2  A    between atoms: C5_5  and  C7_7 
ROOT
HETATM    1  C3  UNL     1     -33.327   8.569   4.321  1.00 20.00     0.207 A 
HETATM    2  C5  UNL     1     -33.519   7.136   4.759  1.00 20.00     0.085 A 
HETATM    3  O8  UNL     1     -32.218   7.670   4.472  1.00 20.00    -0.375 OA
ENDROOT
BRANCH   2   4
HETATM    4  C4  UNL     1     -33.995   6.057   3.796  1.00 20.00     0.022 A 
HETATM    5  C1  UNL     1     -33.083   5.405   2.794  1.00 20.00     0.008 A 
HETATM    6  C2  UNL     1     -33.622   4.609   3.951  1.00 20.00     0.008 A 
ENDBRANCH   2   4
BRANCH   2   7
HETATM    7  C7  UNL     1     -33.733   6.871   6.218  1.00 20.00     0.036 C 
HETATM    8  C6  UNL     1     -34.826   5.868   6.470  1.00 20.00     0.008 C 
ENDBRANCH   2   7
TORSDOF 2
ENDMDL
MODEL 5
REMARK VINA RESULT:      -3.8      1.344      1.886
REMARK  2 active torsions:
REMARK  status: ('A' for Active; 'I' for Inactive)
REMARK    1  A    between atoms: C4_4  and  C5_5 
REMARK    2  A    between atoms: C5_5  and  C7_7 
ROOT
HETATM    1  C3  UNL     1     -33.705   8.486   5.154  1.00 20.00     0.207 A 
HETATM    2  C5  UNL     1     -33.606   7.056   4.679  1.00 20.00     0.085 A 
HETATM    3  O8  UNL     1     -33.096   7.463   5.957  1.00 20.00    -0.375 OA
ENDROOT
BRANCH   2   4
HETATM    4  C4  UNL     1     -32.547   6.612   3.679  1.00 20.00     0.022 A 
HETATM    5  C1  UNL     1     -32.835   5.635   2.573  1.00 20.00     0.008 A 
HETATM    6  C2  UNL     1     -32.538   7.073   2.248  1.00 20.00     0.008 A 
ENDBRANCH   2   4
BRANCH   2   7
HETATM    7  C7  UNL     1     -34.827   6.194   4.785  1.00 20.00     0.036 C 
HETATM    8  C6  UNL     1     -34.734   5.191   5.901  1.00 20.00     0.008 C 
ENDBRANCH   2   7
TORSDOF 2
ENDMDL
MODEL 6
REMARK VINA RESULT:      -3.8      1.340      1.968
REMARK  2 active torsions:
REMARK  status: ('A' for Active; 'I' for Inactive)
REMARK    1  A    between atoms: C4_4  and  C5_5 
REMARK    2  A    between atoms: C5_5  and  C7_7 
ROOT
HETATM    1  C3  UNL     1     -34.044   5.349   3.966  1.00 20.00     0.207 A 
HETATM    2  C5  UNL     1     -34.021   6.616   4.788  1.00 20.00     0.085 A 
HETATM    3  O8  UNL     1     -35.231   6.124   4.194  1.00 20.00    -0.375 OA
ENDROOT
BRANCH   2   4
HETATM    4  C4  UNL     1     -33.518   7.936   4.219  1.00 20.00     0.022 A 
HETATM    5  C1  UNL     1     -32.440   8.747   4.883  1.00 20.00     0.008 A 
HETATM    6  C2  UNL     1     -32.171   8.077   3.564  1.00 20.00     0.008 A 
ENDBRANCH   2   4
BRANCH   2   7
HETATM    7  C7  UNL     1     -34.007   6.484   6.281  1.00 20.00     0.036 C 
HETATM    8  C6  UNL     1     -34.771   5.282   6.764  1.00 20.00     0.008 C 
ENDBRANCH   2   7
TORSDOF 2
ENDMDL
MODEL 7
REMARK VINA RESULT:      -3.7      1.404      2.502
REMARK  2 active torsions:
REMARK  status: ('A' for Active; 'I' for Inactive)
REMARK    1  A    between atoms: C4_4  and  C5_5 
REMARK    2  A    between atoms: C5_5  and  C7_7 
ROOT
HETATM    1  C3  UNL     1     -35.595   5.658   4.378  1.00 20.00     0.207 A 
HETATM    2  C5  UNL     1     -34.093   5.818   4.369  1.00 20.00     0.085 A 
HETATM    3  O8  UNL     1     -34.729   4.705   5.014  1.00 20.00    -0.375 OA
ENDROOT
BRANCH   2   4
HETATM    4  C4  UNL     1     -33.381   6.782   5.308  1.00 20.00     0.022 A 
HETATM    5  C1  UNL     1     -33.731   8.242   5.390  1.00 20.00     0.008 A 
HETATM    6  C2  UNL     1     -34.027   7.332   6.550  1.00 20.00     0.008 A 
ENDBRANCH   2   4
BRANCH   2   7
HETATM    7  C7  UNL     1     -33.351   5.428   3.126  1.00 20.00     0.036 C 
HETATM    8  C6  UNL     1     -32.411   6.502   2.651  1.00 20.00     0.008 C 
ENDBRANCH   2   7
TORSDOF 2
ENDMDL
MODEL 8
REMARK VINA RESULT:      -3.7      1.603      2.749
REMARK  2 active torsions:
REMARK  status: ('A' for Active; 'I' for Inactive)
REMARK    1  A    between atoms: C4_4  and  C5_5 
REMARK    2  A    between atoms: C5_5  and  C7_7 
ROOT
HETATM    1  C3  UNL     1     -34.714   5.671   5.805  1.00 20.00     0.207 A 
HETATM    2  C5  UNL     1     -34.019   6.454   4.716  1.00 20.00     0.085 A 
HETATM    3  O8  UNL     1     -35.334   5.910   4.532  1.00 20.00    -0.375 OA
ENDROOT
BRANCH   2   4
HETATM    4  C4  UNL     1     -32.940   5.830   3.842  1.00 20.00     0.022 A 
HETATM    5  C1  UNL     1     -33.253   5.083   2.575  1.00 20.00     0.008 A 
HETATM    6  C2  UNL     1     -32.540   6.406   2.512  1.00 20.00     0.008 A 
ENDBRANCH   2   4
BRANCH   2   7
HETATM    7  C7  UNL     1     -34.014   7.949   4.819  1.00 20.00     0.036 C 
HETATM    8  C6  UNL     1     -32.643   8.507   5.083  1.00 20.00     0.008 C 
ENDBRANCH   2   7
TORSDOF 2
ENDMDL
MODEL 9
REMARK VINA RESULT:      -3.5      1.545      3.464
REMARK  2 active torsions:
REMARK  status: ('A' for Active; 'I' for Inactive)
REMARK    1  A    between atoms: C4_4  and  C5_5 
REMARK    2  A    between atoms: C5_5  and  C7_7 
ROOT
HETATM    1  C3  UNL     1     -33.528   5.484   2.545  1.00 20.00     0.207 A 
HETATM    2  C5  UNL     1     -33.268   6.377   3.736  1.00 20.00     0.085 A 
HETATM    3  O8  UNL     1     -32.743   5.043   3.664  1.00 20.00    -0.375 OA
ENDROOT
BRANCH   2   4
HETATM    4  C4  UNL     1     -34.314   6.596   4.820  1.00 20.00     0.022 A 
HETATM    5  C1  UNL     1     -34.736   5.510   5.771  1.00 20.00     0.008 A 
HETATM    6  C2  UNL     1     -33.962   6.696   6.279  1.00 20.00     0.008 A 
ENDBRANCH   2   4
BRANCH   2   7
HETATM    7  C7  UNL     1     -32.209   7.429   3.607  1.00 20.00     0.036 C 
HETATM    8  C6  UNL     1     -32.716   8.805   3.942  1.00 20.00     0.008 C 
ENDBRANCH   2   7
TORSDOF 2
ENDMDL
