MODEL 1
REMARK VINA RESULT:      -4.4      0.000      0.000
REMARK  2 active torsions:
REMARK  status: ('A' for Active; 'I' for Inactive)
REMARK    1  A    between atoms: C5_5  and  C9_9 
REMARK    2  A    between atoms: C9_9  and  C10_10 
ROOT
HETATM    1  C1  UNL     1     -32.318  18.466   0.638  1.00 20.00     0.131 C 
HETATM    2  C2  UNL     1     -31.422  18.891  -0.495  1.00 20.00     0.079 C 
HETATM    3  C3  UNL     1     -32.424  19.165  -1.609  1.00 20.00     0.013 C 
HETATM    4  C4  UNL     1     -33.736  18.183   0.184  1.00 20.00     0.055 C 
HETATM    5  C5  UNL     1     -33.594  18.210  -1.350  1.00 20.00    -0.003 C 
HETATM    6  C6  UNL     1     -34.670  19.263   0.709  1.00 20.00     0.018 C 
HETATM    7  O11 UNL     1     -31.938  18.360   1.798  1.00 20.00    -0.298 OA
ENDROOT
BRANCH   5   8
HETATM    8  C9  UNL     1     -33.314  16.815  -1.915  1.00 20.00     0.009 C 
BRANCH   8   9
HETATM    9  C10 UNL     1     -33.338  16.757  -3.453  1.00 20.00    -0.022 C 
HETATM   10  C7  UNL     1     -33.303  15.324  -3.983  1.00 20.00     0.009 C 
HETATM   11  C8  UNL     1     -34.582  17.475  -3.981  1.00 20.00     0.009 C 
ENDBRANCH   8   9
ENDBRANCH   5   8
TORSDOF 2
ENDMDL
MODEL 2
REMARK VINA RESULT:      -4.1     10.514     11.948
REMARK  2 active torsions:
REMARK  status: ('A' for Active; 'I' for Inactive)
REMARK    1  A    between atoms: C5_5  and  C9_9 
REMARK    2  A    between atoms: C9_9  and  C10_10 
ROOT
HETATM    1  C1  UNL     1     -42.172  14.999   6.797  1.00 20.00     0.131 C 
HETATM    2  C2  UNL     1     -43.153  13.899   6.488  1.00 20.00     0.079 C 
HETATM    3  C3  UNL     1     -42.365  12.652   6.870  1.00 20.00     0.013 C 
HETATM    4  C4  UNL     1     -40.772  14.477   7.046  1.00 20.00     0.055 C 
HETATM    5  C5  UNL     1     -40.895  13.003   6.614  1.00 20.00    -0.003 C 
HETATM    6  C6  UNL     1     -40.418  14.633   8.518  1.00 20.00     0.018 C 
HETATM    7  O11 UNL     1     -42.478  16.185   6.840  1.00 20.00    -0.298 OA
ENDROOT
BRANCH   5   8
HETATM    8  C9  UNL     1     -40.522  12.815   5.142  1.00 20.00     0.009 C 
BRANCH   8   9
HETATM    9  C10 UNL     1     -39.408  11.777   4.917  1.00 20.00    -0.022 C 
HETATM   10  C7  UNL     1     -38.956  11.713   3.458  1.00 20.00     0.009 C 
HETATM   11  C8  UNL     1     -38.212  12.096   5.817  1.00 20.00     0.009 C 
ENDBRANCH   8   9
ENDBRANCH   5   8
TORSDOF 2
ENDMDL
MODEL 3
REMARK VINA RESULT:      -4.0      2.553      4.872
REMARK  2 active torsions:
REMARK  status: ('A' for Active; 'I' for Inactive)
REMARK    1  A    between atoms: C5_5  and  C9_9 
REMARK    2  A    between atoms: C9_9  and  C10_10 
ROOT
HETATM    1  C1  UNL     1     -34.632  16.791  -4.308  1.00 20.00     0.131 C 
HETATM    2  C2  UNL     1     -34.323  18.264  -4.265  1.00 20.00     0.079 C 
HETATM    3  C3  UNL     1     -32.980  18.287  -3.546  1.00 20.00     0.013 C 
HETATM    4  C4  UNL     1     -33.723  15.979  -3.408  1.00 20.00     0.055 C 
HETATM    5  C5  UNL     1     -32.999  17.077  -2.606  1.00 20.00    -0.003 C 
HETATM    6  C6  UNL     1     -32.774  15.142  -4.254  1.00 20.00     0.018 C 
HETATM    7  O11 UNL     1     -35.524  16.307  -4.995  1.00 20.00    -0.298 OA
ENDROOT
BRANCH   5   8
HETATM    8  C9  UNL     1     -33.729  17.395  -1.299  1.00 20.00     0.009 C 
BRANCH   8   9
HETATM    9  C10 UNL     1     -33.135  18.594  -0.538  1.00 20.00    -0.022 C 
HETATM   10  C7  UNL     1     -33.825  18.831   0.805  1.00 20.00     0.009 C 
HETATM   11  C8  UNL     1     -31.635  18.379  -0.320  1.00 20.00     0.009 C 
ENDBRANCH   8   9
ENDBRANCH   5   8
TORSDOF 2
ENDMDL
MODEL 4
REMARK VINA RESULT:      -4.0      3.959      6.440
REMARK  2 active torsions:
REMARK  status: ('A' for Active; 'I' for Inactive)
REMARK    1  A    between atoms: C5_5  and  C9_9 
REMARK    2  A    between atoms: C9_9  and  C10_10 
ROOT
HETATM    1  C1  UNL     1     -35.780  15.095  -6.496  1.00 20.00     0.131 C 
HETATM    2  C2  UNL     1     -36.730  15.744  -5.524  1.00 20.00     0.079 C 
HETATM    3  C3  UNL     1     -36.008  17.043  -5.190  1.00 20.00     0.013 C 
HETATM    4  C4  UNL     1     -34.424  15.772  -6.524  1.00 20.00     0.055 C 
HETATM    5  C5  UNL     1     -34.514  16.723  -5.315  1.00 20.00    -0.003 C 
HETATM    6  C6  UNL     1     -34.244  16.510  -7.843  1.00 20.00     0.018 C 
HETATM    7  O11 UNL     1     -36.074  14.126  -7.185  1.00 20.00    -0.298 OA
ENDROOT
BRANCH   5   8
HETATM    8  C9  UNL     1     -33.973  16.069  -4.042  1.00 20.00     0.009 C 
BRANCH   8   9
HETATM    9  C10 UNL     1     -33.108  17.011  -3.185  1.00 20.00    -0.022 C 
HETATM   10  C7  UNL     1     -33.107  18.444  -3.715  1.00 20.00     0.009 C 
HETATM   11  C8  UNL     1     -33.602  16.995  -1.736  1.00 20.00     0.009 C 
ENDBRANCH   8   9
ENDBRANCH   5   8
TORSDOF 2
ENDMDL
MODEL 5
REMARK VINA RESULT:      -4.0     12.377     13.212
REMARK  2 active torsions:
REMARK  status: ('A' for Active; 'I' for Inactive)
REMARK    1  A    between atoms: C5_5  and  C9_9 
REMARK    2  A    between atoms: C9_9  and  C10_10 
ROOT
HETATM    1  C1  UNL     1     -34.269   4.926   4.995  1.00 20.00     0.131 C 
HETATM    2  C2  UNL     1     -33.886   5.152   6.433  1.00 20.00     0.079 C 
HETATM    3  C3  UNL     1     -34.486   6.525   6.711  1.00 20.00     0.013 C 
HETATM    4  C4  UNL     1     -34.784   6.184   4.325  1.00 20.00     0.055 C 
HETATM    5  C5  UNL     1     -34.450   7.265   5.370  1.00 20.00    -0.003 C 
HETATM    6  C6  UNL     1     -36.278   6.055   4.066  1.00 20.00     0.018 C 
HETATM    7  O11 UNL     1     -34.172   3.843   4.431  1.00 20.00    -0.298 OA
ENDROOT
BRANCH   5   8
HETATM    8  C9  UNL     1     -33.077   7.892   5.113  1.00 20.00     0.009 C 
BRANCH   8   9
HETATM    9  C10 UNL     1     -32.842   8.277   3.641  1.00 20.00    -0.022 C 
HETATM   10  C7  UNL     1     -32.368   9.722   3.485  1.00 20.00     0.009 C 
HETATM   11  C8  UNL     1     -31.820   7.326   3.014  1.00 20.00     0.009 C 
ENDBRANCH   8   9
ENDBRANCH   5   8
TORSDOF 2
ENDMDL
MODEL 6
REMARK VINA RESULT:      -4.0      2.407      4.482
REMARK  2 active torsions:
REMARK  status: ('A' for Active; 'I' for Inactive)
REMARK    1  A    between atoms: C5_5  and  C9_9 
REMARK    2  A    between atoms: C9_9  and  C10_10 
ROOT
HETATM    1  C1  UNL     1     -33.720  18.120  -3.797  1.00 20.00     0.131 C 
HETATM    2  C2  UNL     1     -33.209  16.734  -3.502  1.00 20.00     0.079 C 
HETATM    3  C3  UNL     1     -33.567  16.569  -2.031  1.00 20.00     0.013 C 
HETATM    4  C4  UNL     1     -34.076  18.889  -2.541  1.00 20.00     0.055 C 
HETATM    5  C5  UNL     1     -33.507  17.980  -1.435  1.00 20.00    -0.003 C 
HETATM    6  C6  UNL     1     -35.586  19.055  -2.449  1.00 20.00     0.018 C 
HETATM    7  O11 UNL     1     -33.832  18.572  -4.930  1.00 20.00    -0.298 OA
ENDROOT
BRANCH   5   8
HETATM    8  C9  UNL     1     -32.074  18.371  -1.066  1.00 20.00     0.009 C 
BRANCH   8   9
HETATM    9  C10 UNL     1     -31.956  19.052   0.310  1.00 20.00    -0.022 C 
HETATM   10  C7  UNL     1     -33.266  19.005   1.097  1.00 20.00     0.009 C 
HETATM   11  C8  UNL     1     -30.840  18.392   1.122  1.00 20.00     0.009 C 
ENDBRANCH   8   9
ENDBRANCH   5   8
TORSDOF 2
ENDMDL
MODEL 7
REMARK VINA RESULT:      -3.5      3.325      5.610
REMARK  2 active torsions:
REMARK  status: ('A' for Active; 'I' for Inactive)
REMARK    1  A    between atoms: C5_5  and  C9_9 
REMARK    2  A    between atoms: C9_9  and  C10_10 
ROOT
HETATM    1  C1  UNL     1     -33.986  15.294  -5.912  1.00 20.00     0.131 C 
HETATM    2  C2  UNL     1     -33.225  14.632  -4.795  1.00 20.00     0.079 C 
HETATM    3  C3  UNL     1     -33.921  15.190  -3.560  1.00 20.00     0.013 C 
HETATM    4  C4  UNL     1     -34.873  16.422  -5.424  1.00 20.00     0.055 C 
HETATM    5  C5  UNL     1     -34.413  16.584  -3.963  1.00 20.00    -0.003 C 
HETATM    6  C6  UNL     1     -36.335  16.016  -5.541  1.00 20.00     0.018 C 
HETATM    7  O11 UNL     1     -33.894  14.956  -7.086  1.00 20.00    -0.298 OA
ENDROOT
BRANCH   5   8
HETATM    8  C9  UNL     1     -33.301  17.628  -3.835  1.00 20.00     0.009 C 
BRANCH   8   9
HETATM    9  C10 UNL     1     -33.448  18.537  -2.601  1.00 20.00    -0.022 C 
HETATM   10  C7  UNL     1     -34.904  18.682  -2.155  1.00 20.00     0.009 C 
HETATM   11  C8  UNL     1     -32.606  17.987  -1.448  1.00 20.00     0.009 C 
ENDBRANCH   8   9
ENDBRANCH   5   8
TORSDOF 2
ENDMDL
MODEL 8
REMARK VINA RESULT:      -3.5      4.132      6.337
REMARK  2 active torsions:
REMARK  status: ('A' for Active; 'I' for Inactive)
REMARK    1  A    between atoms: C5_5  and  C9_9 
REMARK    2  A    between atoms: C9_9  and  C10_10 
ROOT
HETATM    1  C1  UNL     1     -35.501  14.909  -6.749  1.00 20.00     0.131 C 
HETATM    2  C2  UNL     1     -34.058  15.235  -7.027  1.00 20.00     0.079 C 
HETATM    3  C3  UNL     1     -33.448  15.199  -5.631  1.00 20.00     0.013 C 
HETATM    4  C4  UNL     1     -35.841  14.981  -5.274  1.00 20.00     0.055 C 
HETATM    5  C5  UNL     1     -34.573  15.628  -4.683  1.00 20.00    -0.003 C 
HETATM    6  C6  UNL     1     -36.096  13.581  -4.734  1.00 20.00     0.018 C 
HETATM    7  O11 UNL     1     -36.309  14.619  -7.623  1.00 20.00    -0.298 OA
ENDROOT
BRANCH   5   8
HETATM    8  C9  UNL     1     -34.698  17.152  -4.614  1.00 20.00     0.009 C 
BRANCH   8   9
HETATM    9  C10 UNL     1     -34.091  17.762  -3.337  1.00 20.00    -0.022 C 
HETATM   10  C7  UNL     1     -33.441  16.709  -2.440  1.00 20.00     0.009 C 
HETATM   11  C8  UNL     1     -33.062  18.831  -3.711  1.00 20.00     0.009 C 
ENDBRANCH   8   9
ENDBRANCH   5   8
TORSDOF 2
ENDMDL
MODEL 9
REMARK VINA RESULT:      -3.5      3.307      5.706
REMARK  2 active torsions:
REMARK  status: ('A' for Active; 'I' for Inactive)
REMARK    1  A    between atoms: C5_5  and  C9_9 
REMARK    2  A    between atoms: C9_9  and  C10_10 
ROOT
HETATM    1  C1  UNL     1     -35.203  14.284  -4.751  1.00 20.00     0.131 C 
HETATM    2  C2  UNL     1     -35.861  14.972  -5.918  1.00 20.00     0.079 C 
HETATM    3  C3  UNL     1     -34.881  16.100  -6.217  1.00 20.00     0.013 C 
HETATM    4  C4  UNL     1     -34.072  15.099  -4.157  1.00 20.00     0.055 C 
HETATM    5  C5  UNL     1     -34.242  16.454  -4.870  1.00 20.00    -0.003 C 
HETATM    6  C6  UNL     1     -32.739  14.433  -4.467  1.00 20.00     0.018 C 
HETATM    7  O11 UNL     1     -35.549  13.186  -4.330  1.00 20.00    -0.298 OA
ENDROOT
BRANCH   5   8
HETATM    8  C9  UNL     1     -35.128  17.407  -4.064  1.00 20.00     0.009 C 
BRANCH   8   9
HETATM    9  C10 UNL     1     -34.336  18.348  -3.137  1.00 20.00    -0.022 C 
HETATM   10  C7  UNL     1     -33.938  17.672  -1.824  1.00 20.00     0.009 C 
HETATM   11  C8  UNL     1     -33.086  18.856  -3.858  1.00 20.00     0.009 C 
ENDBRANCH   8   9
ENDBRANCH   5   8
TORSDOF 2
ENDMDL
