MODEL 1
REMARK VINA RESULT:      -4.8      0.000      0.000
REMARK  1 active torsions:
REMARK  status: ('A' for Active; 'I' for Inactive)
REMARK    1  A    between atoms: C5_5  and  C9_9 
ROOT
HETATM    1  C1  UNL     1     -32.404   8.755   0.631  1.00 20.00     0.012 C 
HETATM    2  C2  UNL     1     -32.198   8.421   1.765  1.00 20.00    -0.117 C 
HETATM    3  C9  UNL     1     -31.937   8.013   3.150  1.00 20.00     0.098 C 
ENDROOT
BRANCH   3   4
HETATM    4  C5  UNL     1     -33.231   7.682   3.879  1.00 20.00     0.002 C 
HETATM    5  C3  UNL     1     -33.382   8.460   5.196  1.00 20.00     0.007 C 
HETATM    6  C4  UNL     1     -33.983   7.483   6.209  1.00 20.00     0.021 C 
HETATM    7  C7  UNL     1     -34.410   6.272   5.389  1.00 20.00     0.086 C 
HETATM    8  C6  UNL     1     -33.349   6.203   4.288  1.00 20.00     0.005 C 
HETATM    9 CL10 UNL     1     -34.487   4.800   6.373  1.00 20.00    -0.125 Cl
HETATM   10  C8  UNL     1     -33.733   5.288   3.132  1.00 20.00     0.012 C 
ENDBRANCH   3   4
TORSDOF 1
ENDMDL
MODEL 2
REMARK VINA RESULT:      -4.7      0.979      2.213
REMARK  1 active torsions:
REMARK  status: ('A' for Active; 'I' for Inactive)
REMARK    1  A    between atoms: C5_5  and  C9_9 
ROOT
HETATM    1  C1  UNL     1     -32.713   9.155   0.475  1.00 20.00     0.012 C 
HETATM    2  C2  UNL     1     -32.655   9.149   1.674  1.00 20.00    -0.117 C 
HETATM    3  C9  UNL     1     -32.585   9.151   3.140  1.00 20.00     0.098 C 
ENDROOT
BRANCH   3   4
HETATM    4  C5  UNL     1     -32.487   7.735   3.688  1.00 20.00     0.002 C 
HETATM    5  C3  UNL     1     -32.387   6.678   2.575  1.00 20.00     0.007 C 
HETATM    6  C4  UNL     1     -33.246   5.494   3.025  1.00 20.00     0.021 C 
HETATM    7  C7  UNL     1     -33.588   5.782   4.482  1.00 20.00     0.086 C 
HETATM    8  C6  UNL     1     -33.710   7.307   4.518  1.00 20.00     0.005 C 
HETATM    9 CL10 UNL     1     -35.072   4.955   4.988  1.00 20.00    -0.125 Cl
HETATM   10  C8  UNL     1     -33.710   7.883   5.929  1.00 20.00     0.012 C 
ENDBRANCH   3   4
TORSDOF 1
ENDMDL
MODEL 3
REMARK VINA RESULT:      -4.1     11.674     12.802
REMARK  1 active torsions:
REMARK  status: ('A' for Active; 'I' for Inactive)
REMARK    1  A    between atoms: C5_5  and  C9_9 
ROOT
HETATM    1  C1  UNL     1     -31.727  18.679  -0.838  1.00 20.00     0.012 C 
HETATM    2  C2  UNL     1     -32.531  17.908  -1.287  1.00 20.00    -0.117 C 
HETATM    3  C9  UNL     1     -33.515  16.963  -1.827  1.00 20.00     0.098 C 
ENDROOT
BRANCH   3   4
HETATM    4  C5  UNL     1     -33.641  17.103  -3.337  1.00 20.00     0.002 C 
HETATM    5  C3  UNL     1     -34.787  18.042  -3.748  1.00 20.00     0.007 C 
HETATM    6  C4  UNL     1     -35.451  17.404  -4.970  1.00 20.00     0.021 C 
HETATM    7  C7  UNL     1     -34.514  16.278  -5.389  1.00 20.00     0.086 C 
HETATM    8  C6  UNL     1     -33.949  15.779  -4.057  1.00 20.00     0.005 C 
HETATM    9 CL10 UNL     1     -35.363  15.016  -6.299  1.00 20.00    -0.125 Cl
HETATM   10  C8  UNL     1     -32.727  14.882  -4.215  1.00 20.00     0.012 C 
ENDBRANCH   3   4
TORSDOF 1
ENDMDL
MODEL 4
REMARK VINA RESULT:      -4.0      2.495      4.329
REMARK  1 active torsions:
REMARK  status: ('A' for Active; 'I' for Inactive)
REMARK    1  A    between atoms: C5_5  and  C9_9 
ROOT
HETATM    1  C1  UNL     1     -34.712   4.979   7.030  1.00 20.00     0.012 C 
HETATM    2  C2  UNL     1     -34.779   5.604   6.007  1.00 20.00    -0.117 C 
HETATM    3  C9  UNL     1     -34.868   6.365   4.756  1.00 20.00     0.098 C 
ENDROOT
BRANCH   3   4
HETATM    4  C5  UNL     1     -33.501   6.874   4.323  1.00 20.00     0.002 C 
HETATM    5  C3  UNL     1     -33.331   8.384   4.560  1.00 20.00     0.007 C 
HETATM    6  C4  UNL     1     -32.572   8.929   3.347  1.00 20.00     0.021 C 
HETATM    7  C7  UNL     1     -32.093   7.695   2.591  1.00 20.00     0.086 C 
HETATM    8  C6  UNL     1     -33.218   6.684   2.822  1.00 20.00     0.005 C 
HETATM    9 CL10 UNL     1     -31.811   8.040   0.875  1.00 20.00    -0.125 Cl
HETATM   10  C8  UNL     1     -32.832   5.255   2.460  1.00 20.00     0.012 C 
ENDBRANCH   3   4
TORSDOF 1
ENDMDL
MODEL 5
REMARK VINA RESULT:      -4.0     15.556     16.104
REMARK  1 active torsions:
REMARK  status: ('A' for Active; 'I' for Inactive)
REMARK    1  A    between atoms: C5_5  and  C9_9 
ROOT
HETATM    1  C1  UNL     1     -21.319  18.312   7.088  1.00 20.00     0.012 C 
HETATM    2  C2  UNL     1     -21.864  17.826   8.040  1.00 20.00    -0.117 C 
HETATM    3  C9  UNL     1     -22.530  17.224   9.201  1.00 20.00     0.098 C 
ENDROOT
BRANCH   3   4
HETATM    4  C5  UNL     1     -23.108  18.291  10.118  1.00 20.00     0.002 C 
HETATM    5  C3  UNL     1     -22.885  17.973  11.606  1.00 20.00     0.007 C 
HETATM    6  C4  UNL     1     -24.171  18.377  12.332  1.00 20.00     0.021 C 
HETATM    7  C7  UNL     1     -24.980  19.157  11.303  1.00 20.00     0.086 C 
HETATM    8  C6  UNL     1     -24.631  18.463   9.984  1.00 20.00     0.005 C 
HETATM    9 CL10 UNL     1     -26.714  19.127  11.666  1.00 20.00    -0.125 Cl
HETATM   10  C8  UNL     1     -25.040  19.261   8.752  1.00 20.00     0.012 C 
ENDBRANCH   3   4
TORSDOF 1
ENDMDL
MODEL 6
REMARK VINA RESULT:      -3.9      9.601     10.655
REMARK  1 active torsions:
REMARK  status: ('A' for Active; 'I' for Inactive)
REMARK    1  A    between atoms: C5_5  and  C9_9 
ROOT
HETATM    1  C1  UNL     1     -38.986  11.686   3.830  1.00 20.00     0.012 C 
HETATM    2  C2  UNL     1     -39.211  11.922   4.985  1.00 20.00    -0.117 C 
HETATM    3  C9  UNL     1     -39.480  12.206   6.399  1.00 20.00     0.098 C 
ENDROOT
BRANCH   3   4
HETATM    4  C5  UNL     1     -40.757  13.015   6.565  1.00 20.00     0.002 C 
HETATM    5  C3  UNL     1     -41.474  13.265   5.228  1.00 20.00     0.007 C 
HETATM    6  C4  UNL     1     -41.997  14.703   5.280  1.00 20.00     0.021 C 
HETATM    7  C7  UNL     1     -41.810  15.142   6.728  1.00 20.00     0.086 C 
HETATM    8  C6  UNL     1     -40.528  14.420   7.149  1.00 20.00     0.005 C 
HETATM    9 CL10 UNL     1     -41.694  16.904   6.874  1.00 20.00    -0.125 Cl
HETATM   10  C8  UNL     1     -40.302  14.415   8.657  1.00 20.00     0.012 C 
ENDBRANCH   3   4
TORSDOF 1
ENDMDL
MODEL 7
REMARK VINA RESULT:      -3.8     11.869     13.025
REMARK  1 active torsions:
REMARK  status: ('A' for Active; 'I' for Inactive)
REMARK    1  A    between atoms: C5_5  and  C9_9 
ROOT
HETATM    1  C1  UNL     1     -33.793  17.764  -0.420  1.00 20.00     0.012 C 
HETATM    2  C2  UNL     1     -33.402  17.433  -1.505  1.00 20.00    -0.117 C 
HETATM    3  C9  UNL     1     -32.917  17.033  -2.831  1.00 20.00     0.098 C 
ENDROOT
BRANCH   3   4
HETATM    4  C5  UNL     1     -33.965  16.220  -3.578  1.00 20.00     0.002 C 
HETATM    5  C3  UNL     1     -33.389  14.927  -4.178  1.00 20.00     0.007 C 
HETATM    6  C4  UNL     1     -34.038  14.763  -5.555  1.00 20.00     0.021 C 
HETATM    7  C7  UNL     1     -35.155  15.799  -5.594  1.00 20.00     0.086 C 
HETATM    8  C6  UNL     1     -34.584  16.960  -4.776  1.00 20.00     0.005 C 
HETATM    9 CL10 UNL     1     -35.573  16.258  -7.254  1.00 20.00    -0.125 Cl
HETATM   10  C8  UNL     1     -35.632  17.990  -4.371  1.00 20.00     0.012 C 
ENDBRANCH   3   4
TORSDOF 1
ENDMDL
MODEL 8
REMARK VINA RESULT:      -3.7     10.135     11.201
REMARK  1 active torsions:
REMARK  status: ('A' for Active; 'I' for Inactive)
REMARK    1  A    between atoms: C5_5  and  C9_9 
ROOT
HETATM    1  C1  UNL     1     -38.931  11.764   4.715  1.00 20.00     0.012 C 
HETATM    2  C2  UNL     1     -39.889  12.429   4.999  1.00 20.00    -0.117 C 
HETATM    3  C9  UNL     1     -41.061  13.245   5.338  1.00 20.00     0.098 C 
ENDROOT
BRANCH   3   4
HETATM    4  C5  UNL     1     -41.392  13.143   6.819  1.00 20.00     0.002 C 
HETATM    5  C3  UNL     1     -42.656  12.307   7.084  1.00 20.00     0.007 C 
HETATM    6  C4  UNL     1     -43.417  13.019   8.205  1.00 20.00     0.021 C 
HETATM    7  C7  UNL     1     -42.453  14.073   8.733  1.00 20.00     0.086 C 
HETATM    8  C6  UNL     1     -41.681  14.500   7.483  1.00 20.00     0.005 C 
HETATM    9 CL10 UNL     1     -43.306  15.416   9.515  1.00 20.00    -0.125 Cl
HETATM   10  C8  UNL     1     -40.420  15.299   7.792  1.00 20.00     0.012 C 
ENDBRANCH   3   4
TORSDOF 1
ENDMDL
MODEL 9
REMARK VINA RESULT:      -3.6     11.386     13.292
REMARK  1 active torsions:
REMARK  status: ('A' for Active; 'I' for Inactive)
REMARK    1  A    between atoms: C5_5  and  C9_9 
ROOT
HETATM    1  C1  UNL     1     -37.901  16.267  -5.285  1.00 20.00     0.012 C 
HETATM    2  C2  UNL     1     -36.893  16.376  -5.928  1.00 20.00    -0.117 C 
HETATM    3  C9  UNL     1     -35.666  16.512  -6.722  1.00 20.00     0.098 C 
ENDROOT
BRANCH   3   4
HETATM    4  C5  UNL     1     -34.429  16.296  -5.862  1.00 20.00     0.002 C 
HETATM    5  C3  UNL     1     -34.265  14.832  -5.422  1.00 20.00     0.007 C 
HETATM    6  C4  UNL     1     -33.779  14.869  -3.971  1.00 20.00     0.021 C 
HETATM    7  C7  UNL     1     -33.419  16.327  -3.709  1.00 20.00     0.086 C 
HETATM    8  C6  UNL     1     -34.443  17.096  -4.548  1.00 20.00     0.005 C 
HETATM    9 CL10 UNL     1     -33.494  16.726  -1.984  1.00 20.00    -0.125 Cl
HETATM   10  C8  UNL     1     -34.090  18.567  -4.735  1.00 20.00     0.012 C 
ENDBRANCH   3   4
TORSDOF 1
ENDMDL
