MODEL 1
REMARK VINA RESULT:      -4.4      0.000      0.000
REMARK  1 active torsions:
REMARK  status: ('A' for Active; 'I' for Inactive)
REMARK    1  A    between atoms: C1_1  and  N8_8 
ROOT
HETATM    1  C2  UNL     1     -34.146   4.749   6.002  1.00 20.00     0.008 C 
HETATM    2  C3  UNL     1     -33.758   4.527   4.524  1.00 20.00     0.026 C 
HETATM    3  C4  UNL     1     -35.543   6.087   4.619  1.00 20.00     0.031 C 
HETATM    4  C5  UNL     1     -33.764   7.212   5.714  1.00 20.00     0.130 C 
HETATM    5  C6  UNL     1     -34.830   6.134   5.978  1.00 20.00     0.006 C 
HETATM    6  C7  UNL     1     -34.247   5.821   3.852  1.00 20.00     0.087 C 
HETATM    7  N8  UNL     1     -33.394   6.906   4.339  1.00 20.00    -0.354 N 
ENDROOT
BRANCH   7   8
HETATM    8  C1  UNL     1     -32.368   7.492   3.645  1.00 20.00     0.351 C 
HETATM    9  O9  UNL     1     -32.163   7.430   2.440  1.00 20.00    -0.284 OA
ENDBRANCH   7   8
TORSDOF 1
ENDMDL
MODEL 2
REMARK VINA RESULT:      -3.9     15.864     16.687
REMARK  1 active torsions:
REMARK  status: ('A' for Active; 'I' for Inactive)
REMARK    1  A    between atoms: C1_1  and  N8_8 
ROOT
HETATM    1  C2  UNL     1     -23.063  18.515  12.328  1.00 20.00     0.008 C 
HETATM    2  C3  UNL     1     -22.381  18.195  10.981  1.00 20.00     0.026 C 
HETATM    3  C4  UNL     1     -24.211  16.714  11.281  1.00 20.00     0.031 C 
HETATM    4  C5  UNL     1     -25.241  18.846  11.127  1.00 20.00     0.130 C 
HETATM    5  C6  UNL     1     -24.491  17.958  12.136  1.00 20.00     0.006 C 
HETATM    6  C7  UNL     1     -23.511  17.520  10.186  1.00 20.00     0.087 C 
HETATM    7  N8  UNL     1     -24.510  18.552   9.902  1.00 20.00    -0.354 N 
ENDROOT
BRANCH   7   8
HETATM    8  C1  UNL     1     -24.685  19.190   8.702  1.00 20.00     0.351 C 
HETATM    9  O9  UNL     1     -24.016  19.048   7.687  1.00 20.00    -0.284 OA
ENDBRANCH   7   8
TORSDOF 1
ENDMDL
MODEL 3
REMARK VINA RESULT:      -3.8     15.610     16.659
REMARK  1 active torsions:
REMARK  status: ('A' for Active; 'I' for Inactive)
REMARK    1  A    between atoms: C1_1  and  N8_8 
ROOT
HETATM    1  C2  UNL     1     -23.863  16.941  12.288  1.00 20.00     0.008 C 
HETATM    2  C3  UNL     1     -24.209  16.336  10.911  1.00 20.00     0.026 C 
HETATM    3  C4  UNL     1     -24.549  18.683  10.823  1.00 20.00     0.031 C 
HETATM    4  C5  UNL     1     -22.213  18.473  11.182  1.00 20.00     0.130 C 
HETATM    5  C6  UNL     1     -23.544  18.414  11.952  1.00 20.00     0.006 C 
HETATM    6  C7  UNL     1     -24.020  17.533   9.964  1.00 20.00     0.087 C 
HETATM    7  N8  UNL     1     -22.587  17.830   9.930  1.00 20.00    -0.354 N 
ENDROOT
BRANCH   7   8
HETATM    8  C1  UNL     1     -21.723  17.499   8.920  1.00 20.00     0.351 C 
HETATM    9  O9  UNL     1     -21.983  16.860   7.908  1.00 20.00    -0.284 OA
ENDBRANCH   7   8
TORSDOF 1
ENDMDL
MODEL 4
REMARK VINA RESULT:      -3.6      1.390      1.582
REMARK  1 active torsions:
REMARK  status: ('A' for Active; 'I' for Inactive)
REMARK    1  A    between atoms: C1_1  and  N8_8 
ROOT
HETATM    1  C2  UNL     1     -34.129   6.134   6.521  1.00 20.00     0.008 C 
HETATM    2  C3  UNL     1     -34.242   4.807   5.742  1.00 20.00     0.026 C 
HETATM    3  C4  UNL     1     -35.580   6.443   4.663  1.00 20.00     0.031 C 
HETATM    4  C5  UNL     1     -33.374   7.282   4.422  1.00 20.00     0.130 C 
HETATM    5  C6  UNL     1     -34.505   7.193   5.462  1.00 20.00     0.006 C 
HETATM    6  C7  UNL     1     -34.644   5.279   4.335  1.00 20.00     0.087 C 
HETATM    7  N8  UNL     1     -33.490   5.983   3.773  1.00 20.00    -0.354 N 
ENDROOT
BRANCH   7   8
HETATM    8  C1  UNL     1     -32.619   5.481   2.843  1.00 20.00     0.351 C 
HETATM    9  O9  UNL     1     -32.859   4.638   1.987  1.00 20.00    -0.284 OA
ENDBRANCH   7   8
TORSDOF 1
ENDMDL
MODEL 5
REMARK VINA RESULT:      -3.6      9.076     10.177
REMARK  1 active torsions:
REMARK  status: ('A' for Active; 'I' for Inactive)
REMARK    1  A    between atoms: C1_1  and  N8_8 
ROOT
HETATM    1  C2  UNL     1     -41.265   7.280   1.422  1.00 20.00     0.008 C 
HETATM    2  C3  UNL     1     -42.804   7.178   1.376  1.00 20.00     0.026 C 
HETATM    3  C4  UNL     1     -42.036   8.077  -0.681  1.00 20.00     0.031 C 
HETATM    4  C5  UNL     1     -41.126   5.885  -0.659  1.00 20.00     0.130 C 
HETATM    5  C6  UNL     1     -40.871   7.285  -0.071  1.00 20.00     0.006 C 
HETATM    6  C7  UNL     1     -43.089   7.113  -0.134  1.00 20.00     0.087 C 
HETATM    7  N8  UNL     1     -42.581   5.826  -0.610  1.00 20.00    -0.354 N 
ENDROOT
BRANCH   7   8
HETATM    8  C1  UNL     1     -43.339   4.721  -0.898  1.00 20.00     0.351 C 
HETATM    9  O9  UNL     1     -43.356   4.092  -1.949  1.00 20.00    -0.284 OA
ENDBRANCH   7   8
TORSDOF 1
ENDMDL
MODEL 6
REMARK VINA RESULT:      -3.5     16.366     17.270
REMARK  1 active torsions:
REMARK  status: ('A' for Active; 'I' for Inactive)
REMARK    1  A    between atoms: C1_1  and  N8_8 
ROOT
HETATM    1  C2  UNL     1     -22.440  19.243   9.080  1.00 20.00     0.008 C 
HETATM    2  C3  UNL     1     -23.981  19.163   9.051  1.00 20.00     0.026 C 
HETATM    3  C4  UNL     1     -23.117  17.051   9.705  1.00 20.00     0.031 C 
HETATM    4  C5  UNL     1     -22.461  18.491  11.474  1.00 20.00     0.130 C 
HETATM    5  C6  UNL     1     -22.049  18.101  10.043  1.00 20.00     0.006 C 
HETATM    6  C7  UNL     1     -24.273  18.003  10.019  1.00 20.00     0.087 C 
HETATM    7  N8  UNL     1     -23.913  18.464  11.361  1.00 20.00    -0.354 N 
ENDROOT
BRANCH   7   8
HETATM    8  C1  UNL     1     -24.791  18.871  12.331  1.00 20.00     0.351 C 
HETATM    9  O9  UNL     1     -26.014  18.828  12.283  1.00 20.00    -0.284 OA
ENDBRANCH   7   8
TORSDOF 1
ENDMDL
MODEL 7
REMARK VINA RESULT:      -3.3      8.864     10.053
REMARK  1 active torsions:
REMARK  status: ('A' for Active; 'I' for Inactive)
REMARK    1  A    between atoms: C1_1  and  N8_8 
ROOT
HETATM    1  C2  UNL     1     -40.976   7.776  -0.317  1.00 20.00     0.008 C 
HETATM    2  C3  UNL     1     -41.013   7.531   1.206  1.00 20.00     0.026 C 
HETATM    3  C4  UNL     1     -43.214   8.005   0.454  1.00 20.00     0.031 C 
HETATM    4  C5  UNL     1     -42.682   5.964  -0.634  1.00 20.00     0.130 C 
HETATM    5  C6  UNL     1     -42.427   7.477  -0.754  1.00 20.00     0.006 C 
HETATM    6  C7  UNL     1     -42.472   7.101   1.439  1.00 20.00     0.087 C 
HETATM    7  N8  UNL     1     -42.636   5.789   0.812  1.00 20.00    -0.354 N 
ENDROOT
BRANCH   7   8
HETATM    8  C1  UNL     1     -42.673   4.586   1.466  1.00 20.00     0.351 C 
HETATM    9  O9  UNL     1     -43.357   3.611   1.180  1.00 20.00    -0.284 OA
ENDBRANCH   7   8
TORSDOF 1
ENDMDL
MODEL 8
REMARK VINA RESULT:      -3.3     12.385     13.435
REMARK  1 active torsions:
REMARK  status: ('A' for Active; 'I' for Inactive)
REMARK    1  A    between atoms: C1_1  and  N8_8 
ROOT
HETATM    1  C2  UNL     1     -36.148  14.858  -5.397  1.00 20.00     0.008 C 
HETATM    2  C3  UNL     1     -35.082  14.042  -4.635  1.00 20.00     0.026 C 
HETATM    3  C4  UNL     1     -34.036  15.161  -6.447  1.00 20.00     0.031 C 
HETATM    4  C5  UNL     1     -34.779  16.933  -5.054  1.00 20.00     0.130 C 
HETATM    5  C6  UNL     1     -35.312  15.945  -6.108  1.00 20.00     0.006 C 
HETATM    6  C7  UNL     1     -33.780  14.780  -4.988  1.00 20.00     0.087 C 
HETATM    7  N8  UNL     1     -33.838  16.088  -4.332  1.00 20.00    -0.354 N 
ENDROOT
BRANCH   7   8
HETATM    8  C1  UNL     1     -33.173  16.441  -3.188  1.00 20.00     0.351 C 
HETATM    9  O9  UNL     1     -33.643  16.534  -2.061  1.00 20.00    -0.284 OA
ENDBRANCH   7   8
TORSDOF 1
ENDMDL
MODEL 9
REMARK VINA RESULT:      -3.2     11.259     12.416
REMARK  1 active torsions:
REMARK  status: ('A' for Active; 'I' for Inactive)
REMARK    1  A    between atoms: C1_1  and  N8_8 
ROOT
HETATM    1  C2  UNL     1     -26.810  -0.449  11.474  1.00 20.00     0.008 C 
HETATM    2  C3  UNL     1     -27.805  -0.523  10.297  1.00 20.00     0.026 C 
HETATM    3  C4  UNL     1     -26.465  -2.482  10.289  1.00 20.00     0.031 C 
HETATM    4  C5  UNL     1     -27.676  -2.645  12.324  1.00 20.00     0.130 C 
HETATM    5  C6  UNL     1     -26.452  -1.931  11.722  1.00 20.00     0.006 C 
HETATM    6  C7  UNL     1     -27.907  -2.037  10.041  1.00 20.00     0.087 C 
HETATM    7  N8  UNL     1     -28.594  -2.621  11.194  1.00 20.00    -0.354 N 
ENDROOT
BRANCH   7   8
HETATM    8  C1  UNL     1     -29.905  -3.016  11.230  1.00 20.00     0.351 C 
HETATM    9  O9  UNL     1     -30.894  -2.294  11.220  1.00 20.00    -0.284 OA
ENDBRANCH   7   8
TORSDOF 1
ENDMDL
