MODEL 1
REMARK VINA RESULT:      -4.1      0.000      0.000
REMARK  4 active torsions:
REMARK  status: ('A' for Active; 'I' for Inactive)
REMARK    1  A    between atoms: C3_3  and  C5_5 
REMARK    2  A    between atoms: C5_5  and  N8_8 
REMARK    3  A    between atoms: C6_6  and  C7_7 
REMARK    4  A    between atoms: C7_7  and  N8_8 
ROOT
HETATM    1  N8  UNL     1     -33.530   8.359   4.404  1.00 20.00     0.089 N 
HETATM    2  H23 UNL     1     -34.434   8.183   3.958  1.00 20.00     0.316 HD
ENDROOT
BRANCH   1   3
HETATM    3  C5  UNL     1     -33.296   7.331   5.414  1.00 20.00     0.274 C 
BRANCH   3   4
HETATM    4  C3  UNL     1     -34.536   6.548   5.682  1.00 20.00     0.014 A 
HETATM    5  C1  UNL     1     -34.755   5.222   5.008  1.00 20.00     0.007 A 
HETATM    6  C2  UNL     1     -34.471   5.278   6.483  1.00 20.00     0.007 A 
ENDBRANCH   3   4
ENDBRANCH   1   3
BRANCH   1   7
HETATM    7  C7  UNL     1     -32.485   8.356   3.401  1.00 20.00     0.230 C 
HETATM    8  C4  UNL     1     -32.268   6.932   2.898  1.00 20.00     0.043 C 
BRANCH   7   9
HETATM    9  C6  UNL     1     -32.819   9.356   2.292  1.00 20.00     0.149 C 
HETATM   10 CL9  UNL     1     -32.400   8.768   0.662  1.00 20.00    -0.128 Cl
ENDBRANCH   7   9
ENDBRANCH   1   7
TORSDOF 4
ENDMDL
MODEL 2
REMARK VINA RESULT:      -4.1      2.038      3.902
REMARK  4 active torsions:
REMARK  status: ('A' for Active; 'I' for Inactive)
REMARK    1  A    between atoms: C3_3  and  C5_5 
REMARK    2  A    between atoms: C5_5  and  N8_8 
REMARK    3  A    between atoms: C6_6  and  C7_7 
REMARK    4  A    between atoms: C7_7  and  N8_8 
ROOT
HETATM    1  N8  UNL     1     -34.061   6.076   6.112  1.00 20.00     0.089 N 
HETATM    2  H23 UNL     1     -33.100   5.737   6.205  1.00 20.00     0.316 HD
ENDROOT
BRANCH   1   3
HETATM    3  C5  UNL     1     -34.028   7.455   5.631  1.00 20.00     0.274 C 
BRANCH   3   4
HETATM    4  C3  UNL     1     -32.696   7.791   5.052  1.00 20.00     0.014 A 
HETATM    5  C1  UNL     1     -32.598   8.397   3.680  1.00 20.00     0.007 A 
HETATM    6  C2  UNL     1     -32.281   9.227   4.892  1.00 20.00     0.007 A 
ENDBRANCH   3   4
ENDBRANCH   1   3
BRANCH   1   7
HETATM    7  C7  UNL     1     -34.794   5.221   5.202  1.00 20.00     0.230 C 
HETATM    8  C4  UNL     1     -35.685   6.078   4.307  1.00 20.00     0.043 C 
BRANCH   7   9
HETATM    9  C6  UNL     1     -33.823   4.326   4.427  1.00 20.00     0.149 C 
HETATM   10 CL9  UNL     1     -33.292   5.036   2.880  1.00 20.00    -0.128 Cl
ENDBRANCH   7   9
ENDBRANCH   1   7
TORSDOF 4
ENDMDL
MODEL 3
REMARK VINA RESULT:      -4.0      1.483      1.933
REMARK  4 active torsions:
REMARK  status: ('A' for Active; 'I' for Inactive)
REMARK    1  A    between atoms: C3_3  and  C5_5 
REMARK    2  A    between atoms: C5_5  and  N8_8 
REMARK    3  A    between atoms: C6_6  and  C7_7 
REMARK    4  A    between atoms: C7_7  and  N8_8 
ROOT
HETATM    1  N8  UNL     1     -33.977   7.601   4.396  1.00 20.00     0.089 N 
HETATM    2  H23 UNL     1     -34.072   6.679   3.963  1.00 20.00     0.316 HD
ENDROOT
BRANCH   1   3
HETATM    3  C5  UNL     1     -33.751   7.427   5.828  1.00 20.00     0.274 C 
BRANCH   3   4
HETATM    4  C3  UNL     1     -33.789   5.986   6.207  1.00 20.00     0.014 A 
HETATM    5  C1  UNL     1     -35.054   5.379   6.750  1.00 20.00     0.007 A 
HETATM    6  C2  UNL     1     -34.570   5.005   5.377  1.00 20.00     0.007 A 
ENDBRANCH   3   4
ENDBRANCH   1   3
BRANCH   1   7
HETATM    7  C7  UNL     1     -32.882   8.320   3.777  1.00 20.00     0.230 C 
HETATM    8  C4  UNL     1     -32.107   9.083   4.846  1.00 20.00     0.043 C 
BRANCH   7   9
HETATM    9  C6  UNL     1     -32.017   7.357   2.960  1.00 20.00     0.149 C 
HETATM   10 CL9  UNL     1     -32.806   5.788   2.653  1.00 20.00    -0.128 Cl
ENDBRANCH   7   9
ENDBRANCH   1   7
TORSDOF 4
ENDMDL
MODEL 4
REMARK VINA RESULT:      -3.8      2.482      4.361
REMARK  4 active torsions:
REMARK  status: ('A' for Active; 'I' for Inactive)
REMARK    1  A    between atoms: C3_3  and  C5_5 
REMARK    2  A    between atoms: C5_5  and  N8_8 
REMARK    3  A    between atoms: C6_6  and  C7_7 
REMARK    4  A    between atoms: C7_7  and  N8_8 
ROOT
HETATM    1  N8  UNL     1     -34.252   6.522   4.118  1.00 20.00     0.089 N 
HETATM    2  H23 UNL     1     -33.999   7.192   4.848  1.00 20.00     0.316 HD
ENDROOT
BRANCH   1   3
HETATM    3  C5  UNL     1     -33.098   6.315   3.248  1.00 20.00     0.274 C 
BRANCH   3   4
HETATM    4  C3  UNL     1     -32.138   7.451   3.349  1.00 20.00     0.014 A 
HETATM    5  C1  UNL     1     -32.522   8.814   2.844  1.00 20.00     0.007 A 
HETATM    6  C2  UNL     1     -32.388   8.570   4.321  1.00 20.00     0.007 A 
ENDBRANCH   3   4
ENDBRANCH   1   3
BRANCH   1   7
HETATM    7  C7  UNL     1     -34.680   5.279   4.726  1.00 20.00     0.230 C 
HETATM    8  C4  UNL     1     -33.822   4.134   4.197  1.00 20.00     0.043 C 
BRANCH   7   9
HETATM    9  C6  UNL     1     -34.661   5.407   6.251  1.00 20.00     0.149 C 
HETATM   10 CL9  UNL     1     -34.288   7.057   6.816  1.00 20.00    -0.128 Cl
ENDBRANCH   7   9
ENDBRANCH   1   7
TORSDOF 4
ENDMDL
MODEL 5
REMARK VINA RESULT:      -3.7      1.785      2.316
REMARK  4 active torsions:
REMARK  status: ('A' for Active; 'I' for Inactive)
REMARK    1  A    between atoms: C3_3  and  C5_5 
REMARK    2  A    between atoms: C5_5  and  N8_8 
REMARK    3  A    between atoms: C6_6  and  C7_7 
REMARK    4  A    between atoms: C7_7  and  N8_8 
ROOT
HETATM    1  N8  UNL     1     -34.253   6.348   3.844  1.00 20.00     0.089 N 
HETATM    2  H23 UNL     1     -34.847   6.509   3.027  1.00 20.00     0.316 HD
ENDROOT
BRANCH   1   3
HETATM    3  C5  UNL     1     -34.766   5.195   4.578  1.00 20.00     0.274 C 
BRANCH   3   4
HETATM    4  C3  UNL     1     -34.854   5.483   6.038  1.00 20.00     0.014 A 
HETATM    5  C1  UNL     1     -33.613   5.482   6.887  1.00 20.00     0.007 A 
HETATM    6  C2  UNL     1     -34.318   6.775   6.589  1.00 20.00     0.007 A 
ENDBRANCH   3   4
ENDBRANCH   1   3
BRANCH   1   7
HETATM    7  C7  UNL     1     -32.886   6.133   3.417  1.00 20.00     0.230 C 
HETATM    8  C4  UNL     1     -32.863   5.106   2.288  1.00 20.00     0.043 C 
BRANCH   7   9
HETATM    9  C6  UNL     1     -32.235   7.467   3.048  1.00 20.00     0.149 C 
HETATM   10 CL9  UNL     1     -32.272   8.661   4.372  1.00 20.00    -0.128 Cl
ENDBRANCH   7   9
ENDBRANCH   1   7
TORSDOF 4
ENDMDL
MODEL 6
REMARK VINA RESULT:      -3.7      2.029      2.430
REMARK  4 active torsions:
REMARK  status: ('A' for Active; 'I' for Inactive)
REMARK    1  A    between atoms: C3_3  and  C5_5 
REMARK    2  A    between atoms: C5_5  and  N8_8 
REMARK    3  A    between atoms: C6_6  and  C7_7 
REMARK    4  A    between atoms: C7_7  and  N8_8 
ROOT
HETATM    1  N8  UNL     1     -33.440   6.595   3.222  1.00 20.00     0.089 N 
HETATM    2  H23 UNL     1     -33.910   6.604   2.314  1.00 20.00     0.316 HD
ENDROOT
BRANCH   1   3
HETATM    3  C5  UNL     1     -33.208   5.209   3.618  1.00 20.00     0.274 C 
BRANCH   3   4
HETATM    4  C3  UNL     1     -34.318   4.702   4.475  1.00 20.00     0.014 A 
HETATM    5  C1  UNL     1     -34.415   5.122   5.916  1.00 20.00     0.007 A 
HETATM    6  C2  UNL     1     -35.417   5.628   4.917  1.00 20.00     0.007 A 
ENDBRANCH   3   4
ENDBRANCH   1   3
BRANCH   1   7
HETATM    7  C7  UNL     1     -32.195   7.330   3.134  1.00 20.00     0.230 C 
HETATM    8  C4  UNL     1     -32.109   8.022   1.777  1.00 20.00     0.043 C 
BRANCH   7   9
HETATM    9  C6  UNL     1     -32.066   8.287   4.321  1.00 20.00     0.149 C 
HETATM   10 CL9  UNL     1     -33.598   8.535   5.197  1.00 20.00    -0.128 Cl
ENDBRANCH   7   9
ENDBRANCH   1   7
TORSDOF 4
ENDMDL
MODEL 7
REMARK VINA RESULT:      -3.7     11.848     12.764
REMARK  4 active torsions:
REMARK  status: ('A' for Active; 'I' for Inactive)
REMARK    1  A    between atoms: C3_3  and  C5_5 
REMARK    2  A    between atoms: C5_5  and  N8_8 
REMARK    3  A    between atoms: C6_6  and  C7_7 
REMARK    4  A    between atoms: C7_7  and  N8_8 
ROOT
HETATM    1  N8  UNL     1     -33.418  14.794  -5.576  1.00 20.00     0.089 N 
HETATM    2  H23 UNL     1     -32.678  15.463  -5.803  1.00 20.00     0.316 HD
ENDROOT
BRANCH   1   3
HETATM    3  C5  UNL     1     -33.790  14.961  -4.174  1.00 20.00     0.274 C 
BRANCH   3   4
HETATM    4  C3  UNL     1     -33.115  16.149  -3.577  1.00 20.00     0.014 A 
HETATM    5  C1  UNL     1     -33.870  17.438  -3.400  1.00 20.00     0.007 A 
HETATM    6  C2  UNL     1     -33.490  16.619  -2.199  1.00 20.00     0.007 A 
ENDBRANCH   3   4
ENDBRANCH   1   3
BRANCH   1   7
HETATM    7  C7  UNL     1     -34.554  15.010  -6.449  1.00 20.00     0.230 C 
HETATM    8  C4  UNL     1     -35.839  14.668  -5.702  1.00 20.00     0.043 C 
BRANCH   7   9
HETATM    9  C6  UNL     1     -34.526  16.437  -7.002  1.00 20.00     0.149 C 
HETATM   10 CL9  UNL     1     -35.879  17.444  -6.425  1.00 20.00    -0.128 Cl
ENDBRANCH   7   9
ENDBRANCH   1   7
TORSDOF 4
ENDMDL
MODEL 8
REMARK VINA RESULT:      -3.5      9.746     10.452
REMARK  4 active torsions:
REMARK  status: ('A' for Active; 'I' for Inactive)
REMARK    1  A    between atoms: C3_3  and  C5_5 
REMARK    2  A    between atoms: C5_5  and  N8_8 
REMARK    3  A    between atoms: C6_6  and  C7_7 
REMARK    4  A    between atoms: C7_7  and  N8_8 
ROOT
HETATM    1  N8  UNL     1     -39.947  14.108   6.930  1.00 20.00     0.089 N 
HETATM    2  H23 UNL     1     -39.019  13.720   7.115  1.00 20.00     0.316 HD
ENDROOT
BRANCH   1   3
HETATM    3  C5  UNL     1     -40.617  13.270   5.939  1.00 20.00     0.274 C 
BRANCH   3   4
HETATM    4  C3  UNL     1     -39.865  12.004   5.708  1.00 20.00     0.014 A 
HETATM    5  C1  UNL     1     -39.272  11.712   4.357  1.00 20.00     0.007 A 
HETATM    6  C2  UNL     1     -38.374  12.033   5.519  1.00 20.00     0.007 A 
ENDBRANCH   3   4
ENDBRANCH   1   3
BRANCH   1   7
HETATM    7  C7  UNL     1     -40.704  14.168   8.163  1.00 20.00     0.230 C 
HETATM    8  C4  UNL     1     -40.167  15.300   9.033  1.00 20.00     0.043 C 
BRANCH   7   9
HETATM    9  C6  UNL     1     -42.199  14.284   7.856  1.00 20.00     0.149 C 
HETATM   10 CL9  UNL     1     -43.150  12.896   8.443  1.00 20.00    -0.128 Cl
ENDBRANCH   7   9
ENDBRANCH   1   7
TORSDOF 4
ENDMDL
MODEL 9
REMARK VINA RESULT:      -3.5      9.746     10.445
REMARK  4 active torsions:
REMARK  status: ('A' for Active; 'I' for Inactive)
REMARK    1  A    between atoms: C3_3  and  C5_5 
REMARK    2  A    between atoms: C5_5  and  N8_8 
REMARK    3  A    between atoms: C6_6  and  C7_7 
REMARK    4  A    between atoms: C7_7  and  N8_8 
ROOT
HETATM    1  N8  UNL     1     -39.924  14.012   7.019  1.00 20.00     0.089 N 
HETATM    2  H23 UNL     1     -39.314  13.431   7.598  1.00 20.00     0.316 HD
ENDROOT
BRANCH   1   3
HETATM    3  C5  UNL     1     -40.632  13.154   6.074  1.00 20.00     0.274 C 
BRANCH   3   4
HETATM    4  C3  UNL     1     -39.842  11.928   5.764  1.00 20.00     0.014 A 
HETATM    5  C1  UNL     1     -39.311  11.700   4.375  1.00 20.00     0.007 A 
HETATM    6  C2  UNL     1     -38.366  12.026   5.497  1.00 20.00     0.007 A 
ENDBRANCH   3   4
ENDBRANCH   1   3
BRANCH   1   7
HETATM    7  C7  UNL     1     -40.850  14.738   7.863  1.00 20.00     0.230 C 
HETATM    8  C4  UNL     1     -42.091  13.884   8.106  1.00 20.00     0.043 C 
BRANCH   7   9
HETATM    9  C6  UNL     1     -40.149  15.185   9.147  1.00 20.00     0.149 C 
HETATM   10 CL9  UNL     1     -40.591  14.205  10.570  1.00 20.00    -0.128 Cl
ENDBRANCH   7   9
ENDBRANCH   1   7
TORSDOF 4
ENDMDL
