MODEL 1
REMARK VINA RESULT:      -4.3      0.000      0.000
REMARK  1 active torsions:
REMARK  status: ('A' for Active; 'I' for Inactive)
REMARK    1  A    between atoms: C1_1  and  N8_8 
ROOT
HETATM    1  C2  UNL     1     -34.008   7.580   6.380  1.00 20.00     0.022 C 
HETATM    2  C3  UNL     1     -34.412   6.110   6.330  1.00 20.00     0.032 C 
HETATM    3  C4  UNL     1     -32.939   7.670   5.307  1.00 20.00     0.126 C 
HETATM    4  C5  UNL     1     -34.363   5.763   4.823  1.00 20.00     0.027 C 
HETATM    5  C6  UNL     1     -33.945   4.300   4.636  1.00 20.00     0.038 C 
HETATM    6  C7  UNL     1     -35.725   6.010   4.161  1.00 20.00     0.038 C 
HETATM    7  N8  UNL     1     -33.355   6.705   4.301  1.00 20.00    -0.351 N 
ENDROOT
BRANCH   7   8
HETATM    8  C1  UNL     1     -32.869   6.726   3.012  1.00 20.00     0.351 C 
HETATM    9  O9  UNL     1     -32.182   7.600   2.497  1.00 20.00    -0.284 OA
ENDBRANCH   7   8
TORSDOF 1
ENDMDL
MODEL 2
REMARK VINA RESULT:      -3.6      1.856      3.138
REMARK  1 active torsions:
REMARK  status: ('A' for Active; 'I' for Inactive)
REMARK    1  A    between atoms: C1_1  and  N8_8 
ROOT
HETATM    1  C2  UNL     1     -32.137   7.636   2.930  1.00 20.00     0.022 C 
HETATM    2  C3  UNL     1     -32.142   8.110   4.380  1.00 20.00     0.032 C 
HETATM    3  C4  UNL     1     -32.728   6.243   3.031  1.00 20.00     0.126 C 
HETATM    4  C5  UNL     1     -33.459   7.534   4.953  1.00 20.00     0.027 C 
HETATM    5  C6  UNL     1     -33.280   7.195   6.437  1.00 20.00     0.038 C 
HETATM    6  C7  UNL     1     -34.613   8.530   4.776  1.00 20.00     0.038 C 
HETATM    7  N8  UNL     1     -33.680   6.332   4.126  1.00 20.00    -0.351 N 
ENDROOT
BRANCH   7   8
HETATM    8  C1  UNL     1     -34.680   5.404   4.314  1.00 20.00     0.351 C 
HETATM    9  O9  UNL     1     -34.568   4.288   4.807  1.00 20.00    -0.284 OA
ENDBRANCH   7   8
TORSDOF 1
ENDMDL
MODEL 3
REMARK VINA RESULT:      -3.6      9.138      9.929
REMARK  1 active torsions:
REMARK  status: ('A' for Active; 'I' for Inactive)
REMARK    1  A    between atoms: C1_1  and  N8_8 
ROOT
HETATM    1  C2  UNL     1     -43.417   5.555   2.058  1.00 20.00     0.022 C 
HETATM    2  C3  UNL     1     -42.257   4.844   1.368  1.00 20.00     0.032 C 
HETATM    3  C4  UNL     1     -43.136   7.017   1.764  1.00 20.00     0.126 C 
HETATM    4  C5  UNL     1     -42.037   5.664   0.074  1.00 20.00     0.027 C 
HETATM    5  C6  UNL     1     -40.551   5.655  -0.305  1.00 20.00     0.038 C 
HETATM    6  C7  UNL     1     -42.877   5.099  -1.079  1.00 20.00     0.038 C 
HETATM    7  N8  UNL     1     -42.511   7.008   0.451  1.00 20.00    -0.351 N 
ENDROOT
BRANCH   7   8
HETATM    8  C1  UNL     1     -42.426   8.137  -0.334  1.00 20.00     0.351 C 
HETATM    9  O9  UNL     1     -43.357   8.780  -0.804  1.00 20.00    -0.284 OA
ENDBRANCH   7   8
TORSDOF 1
ENDMDL
MODEL 4
REMARK VINA RESULT:      -3.5      9.086     10.104
REMARK  1 active torsions:
REMARK  status: ('A' for Active; 'I' for Inactive)
REMARK    1  A    between atoms: C1_1  and  N8_8 
ROOT
HETATM    1  C2  UNL     1     -40.394   7.052  -0.164  1.00 20.00     0.022 C 
HETATM    2  C3  UNL     1     -41.216   7.489   1.045  1.00 20.00     0.032 C 
HETATM    3  C4  UNL     1     -41.027   5.723  -0.535  1.00 20.00     0.126 C 
HETATM    4  C5  UNL     1     -42.654   7.037   0.699  1.00 20.00     0.027 C 
HETATM    5  C6  UNL     1     -43.402   6.646   1.979  1.00 20.00     0.038 C 
HETATM    6  C7  UNL     1     -43.414   8.149  -0.036  1.00 20.00     0.038 C 
HETATM    7  N8  UNL     1     -42.432   5.884  -0.193  1.00 20.00    -0.351 N 
ENDROOT
BRANCH   7   8
HETATM    8  C1  UNL     1     -43.413   5.059  -0.695  1.00 20.00     0.351 C 
HETATM    9  O9  UNL     1     -43.396   4.456  -1.762  1.00 20.00    -0.284 OA
ENDBRANCH   7   8
TORSDOF 1
ENDMDL
MODEL 5
REMARK VINA RESULT:      -3.4      1.322      2.693
REMARK  1 active torsions:
REMARK  status: ('A' for Active; 'I' for Inactive)
REMARK    1  A    between atoms: C1_1  and  N8_8 
ROOT
HETATM    1  C2  UNL     1     -32.524   5.283   2.888  1.00 20.00     0.022 C 
HETATM    2  C3  UNL     1     -33.962   4.911   3.235  1.00 20.00     0.032 C 
HETATM    3  C4  UNL     1     -32.491   6.776   3.159  1.00 20.00     0.126 C 
HETATM    4  C5  UNL     1     -34.289   5.794   4.462  1.00 20.00     0.027 C 
HETATM    5  C6  UNL     1     -35.773   6.174   4.454  1.00 20.00     0.038 C 
HETATM    6  C7  UNL     1     -33.939   5.065   5.767  1.00 20.00     0.038 C 
HETATM    7  N8  UNL     1     -33.410   6.962   4.270  1.00 20.00    -0.351 N 
ENDROOT
BRANCH   7   8
HETATM    8  C1  UNL     1     -33.402   8.096   5.053  1.00 20.00     0.351 C 
HETATM    9  O9  UNL     1     -32.545   8.971   5.076  1.00 20.00    -0.284 OA
ENDBRANCH   7   8
TORSDOF 1
ENDMDL
MODEL 6
REMARK VINA RESULT:      -3.4      8.935     10.225
REMARK  1 active torsions:
REMARK  status: ('A' for Active; 'I' for Inactive)
REMARK    1  A    between atoms: C1_1  and  N8_8 
ROOT
HETATM    1  C2  UNL     1     -43.398   5.530   2.213  1.00 20.00     0.022 C 
HETATM    2  C3  UNL     1     -43.346   7.006   1.831  1.00 20.00     0.032 C 
HETATM    3  C4  UNL     1     -43.417   4.837   0.863  1.00 20.00     0.126 C 
HETATM    4  C5  UNL     1     -42.427   7.036   0.588  1.00 20.00     0.027 C 
HETATM    5  C6  UNL     1     -42.868   8.155  -0.363  1.00 20.00     0.038 C 
HETATM    6  C7  UNL     1     -40.962   7.241   0.998  1.00 20.00     0.038 C 
HETATM    7  N8  UNL     1     -42.619   5.696   0.003  1.00 20.00    -0.351 N 
ENDROOT
BRANCH   7   8
HETATM    8  C1  UNL     1     -42.089   5.260  -1.191  1.00 20.00     0.351 C 
HETATM    9  O9  UNL     1     -42.671   4.637  -2.072  1.00 20.00    -0.284 OA
ENDBRANCH   7   8
TORSDOF 1
ENDMDL
MODEL 7
REMARK VINA RESULT:      -3.3      1.133      2.502
REMARK  1 active torsions:
REMARK  status: ('A' for Active; 'I' for Inactive)
REMARK    1  A    between atoms: C1_1  and  N8_8 
ROOT
HETATM    1  C2  UNL     1     -34.292   4.645   4.484  1.00 20.00     0.022 C 
HETATM    2  C3  UNL     1     -35.039   5.858   5.030  1.00 20.00     0.032 C 
HETATM    3  C4  UNL     1     -33.473   5.239   3.353  1.00 20.00     0.126 C 
HETATM    4  C5  UNL     1     -34.006   7.005   4.931  1.00 20.00     0.027 C 
HETATM    5  C6  UNL     1     -34.722   8.331   4.652  1.00 20.00     0.038 C 
HETATM    6  C7  UNL     1     -33.183   7.112   6.222  1.00 20.00     0.038 C 
HETATM    7  N8  UNL     1     -33.151   6.582   3.806  1.00 20.00    -0.351 N 
ENDROOT
BRANCH   7   8
HETATM    8  C1  UNL     1     -32.135   7.326   3.249  1.00 20.00     0.351 C 
HETATM    9  O9  UNL     1     -32.121   7.842   2.137  1.00 20.00    -0.284 OA
ENDBRANCH   7   8
TORSDOF 1
ENDMDL
MODEL 8
REMARK VINA RESULT:      -3.3     12.530     13.809
REMARK  1 active torsions:
REMARK  status: ('A' for Active; 'I' for Inactive)
REMARK    1  A    between atoms: C1_1  and  N8_8 
ROOT
HETATM    1  C2  UNL     1     -33.076  15.686  -3.914  1.00 20.00     0.022 C 
HETATM    2  C3  UNL     1     -33.903  16.967  -3.936  1.00 20.00     0.032 C 
HETATM    3  C4  UNL     1     -34.118  14.611  -4.162  1.00 20.00     0.126 C 
HETATM    4  C5  UNL     1     -34.951  16.714  -5.045  1.00 20.00     0.027 C 
HETATM    5  C6  UNL     1     -36.263  17.426  -4.699  1.00 20.00     0.038 C 
HETATM    6  C7  UNL     1     -34.432  17.198  -6.406  1.00 20.00     0.038 C 
HETATM    7  N8  UNL     1     -35.091  15.246  -5.038  1.00 20.00    -0.351 N 
ENDROOT
BRANCH   7   8
HETATM    8  C1  UNL     1     -35.995  14.523  -5.784  1.00 20.00     0.351 C 
HETATM    9  O9  UNL     1     -35.937  14.285  -6.985  1.00 20.00    -0.284 OA
ENDBRANCH   7   8
TORSDOF 1
ENDMDL
MODEL 9
REMARK VINA RESULT:      -3.3     15.632     16.946
REMARK  1 active torsions:
REMARK  status: ('A' for Active; 'I' for Inactive)
REMARK    1  A    between atoms: C1_1  and  N8_8 
ROOT
HETATM    1  C2  UNL     1     -21.997  18.893  12.293  1.00 20.00     0.022 C 
HETATM    2  C3  UNL     1     -23.205  17.963  12.332  1.00 20.00     0.032 C 
HETATM    3  C4  UNL     1     -21.308  18.493  11.001  1.00 20.00     0.126 C 
HETATM    4  C5  UNL     1     -23.651  17.872  10.853  1.00 20.00     0.027 C 
HETATM    5  C6  UNL     1     -24.241  16.487  10.568  1.00 20.00     0.038 C 
HETATM    6  C7  UNL     1     -24.682  18.961  10.526  1.00 20.00     0.038 C 
HETATM    7  N8  UNL     1     -22.396  18.109  10.116  1.00 20.00    -0.351 N 
ENDROOT
BRANCH   7   8
HETATM    8  C1  UNL     1     -22.242  18.026   8.749  1.00 20.00     0.351 C 
HETATM    9  O9  UNL     1     -21.871  17.051   8.107  1.00 20.00    -0.284 OA
ENDBRANCH   7   8
TORSDOF 1
ENDMDL
