MODEL 1
REMARK VINA RESULT:      -4.0      0.000      0.000
REMARK  3 active torsions:
REMARK  status: ('A' for Active; 'I' for Inactive)
REMARK    1  A    between atoms: C5_5  and  C7_7 
REMARK    2  A    between atoms: C5_5  and  C8_8 
REMARK    3  A    between atoms: C8_8  and  O9_9 
ROOT
HETATM    1  C1  UNL     1     -33.518  15.927  -3.219  1.00 20.00     0.001 C 
HETATM    2  C2  UNL     1     -33.874  17.154  -4.037  1.00 20.00     0.001 C 
HETATM    3  C3  UNL     1     -33.516  14.803  -4.248  1.00 20.00     0.011 C 
HETATM    4  C4  UNL     1     -34.982  16.648  -4.948  1.00 20.00     0.011 C 
HETATM    5  C5  UNL     1     -34.587  15.193  -5.294  1.00 20.00    -0.019 C 
ENDROOT
BRANCH   5   6
HETATM    6  C7  UNL     1     -34.004  15.113  -6.712  1.00 20.00     0.007 C 
HETATM    7  C6  UNL     1     -34.542  16.194  -7.589  1.00 20.00     0.006 C 
ENDBRANCH   5   6
BRANCH   5   8
HETATM    8  C8  UNL     1     -35.807  14.269  -5.202  1.00 20.00     0.173 C 
BRANCH   8   9
HETATM    9  O9  UNL     1     -35.430  13.113  -4.484  1.00 20.00    -0.400 OA
HETATM   10  H25 UNL     1     -35.384  12.379  -5.122  1.00 20.00     0.209 HD
ENDBRANCH   8   9
ENDBRANCH   5   8
TORSDOF 3
ENDMDL
MODEL 2
REMARK VINA RESULT:      -3.9     18.670     19.819
REMARK  3 active torsions:
REMARK  status: ('A' for Active; 'I' for Inactive)
REMARK    1  A    between atoms: C5_5  and  C7_7 
REMARK    2  A    between atoms: C5_5  and  C8_8 
REMARK    3  A    between atoms: C8_8  and  O9_9 
ROOT
HETATM    1  C1  UNL     1     -23.075  18.072   9.484  1.00 20.00     0.001 C 
HETATM    2  C2  UNL     1     -22.223  18.726  10.556  1.00 20.00     0.001 C 
HETATM    3  C3  UNL     1     -24.479  18.114  10.073  1.00 20.00     0.011 C 
HETATM    4  C4  UNL     1     -22.772  18.126  11.841  1.00 20.00     0.011 C 
HETATM    5  C5  UNL     1     -24.294  17.986  11.604  1.00 20.00    -0.019 C 
ENDROOT
BRANCH   5   6
HETATM    6  C7  UNL     1     -25.060  19.101  12.330  1.00 20.00     0.007 C 
HETATM    7  C6  UNL     1     -26.536  18.884  12.267  1.00 20.00     0.006 C 
ENDBRANCH   5   6
BRANCH   5   8
HETATM    8  C8  UNL     1     -24.793  16.626  12.107  1.00 20.00     0.173 C 
BRANCH   8   9
HETATM    9  O9  UNL     1     -23.669  15.802  12.330  1.00 20.00    -0.400 OA
HETATM   10  H25 UNL     1     -22.911  16.387  12.507  1.00 20.00     0.209 HD
ENDBRANCH   8   9
ENDBRANCH   5   8
TORSDOF 3
ENDMDL
MODEL 3
REMARK VINA RESULT:      -3.8     11.721     13.445
REMARK  3 active torsions:
REMARK  status: ('A' for Active; 'I' for Inactive)
REMARK    1  A    between atoms: C5_5  and  C7_7 
REMARK    2  A    between atoms: C5_5  and  C8_8 
REMARK    3  A    between atoms: C8_8  and  O9_9 
ROOT
HETATM    1  C1  UNL     1     -42.176   8.147  -0.427  1.00 20.00     0.001 C 
HETATM    2  C2  UNL     1     -40.811   7.601  -0.052  1.00 20.00     0.001 C 
HETATM    3  C3  UNL     1     -43.140   7.108   0.132  1.00 20.00     0.011 C 
HETATM    4  C4  UNL     1     -40.944   6.116  -0.352  1.00 20.00     0.011 C 
HETATM    5  C5  UNL     1     -42.398   5.754   0.032  1.00 20.00    -0.019 C 
ENDROOT
BRANCH   5   6
HETATM    6  C7  UNL     1     -42.436   5.023   1.381  1.00 20.00     0.007 C 
HETATM    7  C6  UNL     1     -43.417   5.647   2.317  1.00 20.00     0.006 C 
ENDBRANCH   5   6
BRANCH   5   8
HETATM    8  C8  UNL     1     -43.030   4.858  -1.040  1.00 20.00     0.173 C 
BRANCH   8   9
HETATM    9  O9  UNL     1     -41.995   4.357  -1.859  1.00 20.00    -0.400 OA
HETATM   10  H25 UNL     1     -41.174   4.810  -1.598  1.00 20.00     0.209 HD
ENDBRANCH   8   9
ENDBRANCH   5   8
TORSDOF 3
ENDMDL
MODEL 4
REMARK VINA RESULT:      -3.8      0.661      2.653
REMARK  3 active torsions:
REMARK  status: ('A' for Active; 'I' for Inactive)
REMARK    1  A    between atoms: C5_5  and  C7_7 
REMARK    2  A    between atoms: C5_5  and  C8_8 
REMARK    3  A    between atoms: C8_8  and  O9_9 
ROOT
HETATM    1  C1  UNL     1     -35.454  17.241  -6.338  1.00 20.00     0.001 C 
HETATM    2  C2  UNL     1     -34.321  16.557  -7.079  1.00 20.00     0.001 C 
HETATM    3  C3  UNL     1     -35.445  16.566  -4.973  1.00 20.00     0.011 C 
HETATM    4  C4  UNL     1     -34.500  15.094  -6.700  1.00 20.00     0.011 C 
HETATM    5  C5  UNL     1     -34.977  15.113  -5.229  1.00 20.00    -0.019 C 
ENDROOT
BRANCH   5   6
HETATM    6  C7  UNL     1     -33.825  14.748  -4.282  1.00 20.00     0.007 C 
HETATM    7  C6  UNL     1     -33.452  15.896  -3.404  1.00 20.00     0.006 C 
ENDBRANCH   5   6
BRANCH   5   8
HETATM    8  C8  UNL     1     -36.127  14.120  -5.024  1.00 20.00     0.173 C 
BRANCH   8   9
HETATM    9  O9  UNL     1     -35.597  12.949  -4.439  1.00 20.00    -0.400 OA
HETATM   10  H25 UNL     1     -35.875  12.940  -3.507  1.00 20.00     0.209 HD
ENDBRANCH   8   9
ENDBRANCH   5   8
TORSDOF 3
ENDMDL
MODEL 5
REMARK VINA RESULT:      -3.7      1.402      2.641
REMARK  3 active torsions:
REMARK  status: ('A' for Active; 'I' for Inactive)
REMARK    1  A    between atoms: C5_5  and  C7_7 
REMARK    2  A    between atoms: C5_5  and  C8_8 
REMARK    3  A    between atoms: C8_8  and  O9_9 
ROOT
HETATM    1  C1  UNL     1     -33.690  17.281  -3.961  1.00 20.00     0.001 C 
HETATM    2  C2  UNL     1     -33.483  15.889  -3.394  1.00 20.00     0.001 C 
HETATM    3  C3  UNL     1     -34.840  17.097  -4.942  1.00 20.00     0.011 C 
HETATM    4  C4  UNL     1     -33.599  14.999  -4.623  1.00 20.00     0.011 C 
HETATM    5  C5  UNL     1     -34.689  15.660  -5.499  1.00 20.00    -0.019 C 
ENDROOT
BRANCH   5   6
HETATM    6  C7  UNL     1     -36.016  14.898  -5.379  1.00 20.00     0.007 C 
HETATM    7  C6  UNL     1     -35.845  13.608  -4.649  1.00 20.00     0.006 C 
ENDBRANCH   5   6
BRANCH   5   8
HETATM    8  C8  UNL     1     -34.256  15.683  -6.969  1.00 20.00     0.173 C 
BRANCH   8   9
HETATM    9  O9  UNL     1     -33.116  14.860  -7.103  1.00 20.00    -0.400 OA
HETATM   10  H25 UNL     1     -32.406  15.408  -7.480  1.00 20.00     0.209 HD
ENDBRANCH   8   9
ENDBRANCH   5   8
TORSDOF 3
ENDMDL
MODEL 6
REMARK VINA RESULT:      -3.6     17.988     19.153
REMARK  3 active torsions:
REMARK  status: ('A' for Active; 'I' for Inactive)
REMARK    1  A    between atoms: C5_5  and  C7_7 
REMARK    2  A    between atoms: C5_5  and  C8_8 
REMARK    3  A    between atoms: C8_8  and  O9_9 
ROOT
HETATM    1  C1  UNL     1     -24.123  17.303  12.083  1.00 20.00     0.001 C 
HETATM    2  C2  UNL     1     -22.720  17.834  12.309  1.00 20.00     0.001 C 
HETATM    3  C3  UNL     1     -24.134  16.947  10.602  1.00 20.00     0.011 C 
HETATM    4  C4  UNL     1     -22.482  18.703  11.083  1.00 20.00     0.011 C 
HETATM    5  C5  UNL     1     -23.186  17.964   9.921  1.00 20.00    -0.019 C 
ENDROOT
BRANCH   5   6
HETATM    6  C7  UNL     1     -22.161  17.233   9.043  1.00 20.00     0.007 C 
HETATM    7  C6  UNL     1     -21.788  18.043   7.845  1.00 20.00     0.006 C 
ENDBRANCH   5   6
BRANCH   5   8
HETATM    8  C8  UNL     1     -23.973  18.953   9.054  1.00 20.00     0.173 C 
BRANCH   8   9
HETATM    9  O9  UNL     1     -25.350  18.739   9.283  1.00 20.00    -0.400 OA
HETATM   10  H25 UNL     1     -25.582  17.886   8.876  1.00 20.00     0.209 HD
ENDBRANCH   8   9
ENDBRANCH   5   8
TORSDOF 3
ENDMDL
MODEL 7
REMARK VINA RESULT:      -3.6     12.251     13.211
REMARK  3 active torsions:
REMARK  status: ('A' for Active; 'I' for Inactive)
REMARK    1  A    between atoms: C5_5  and  C7_7 
REMARK    2  A    between atoms: C5_5  and  C8_8 
REMARK    3  A    between atoms: C8_8  and  O9_9 
ROOT
HETATM    1  C1  UNL     1     -33.375   8.099   6.257  1.00 20.00     0.001 C 
HETATM    2  C2  UNL     1     -32.833   8.513   4.902  1.00 20.00     0.001 C 
HETATM    3  C3  UNL     1     -33.608   6.601   6.104  1.00 20.00     0.011 C 
HETATM    4  C4  UNL     1     -33.720   7.746   3.932  1.00 20.00     0.011 C 
HETATM    5  C5  UNL     1     -33.992   6.388   4.620  1.00 20.00    -0.019 C 
ENDROOT
BRANCH   5   6
HETATM    6  C7  UNL     1     -33.128   5.282   3.998  1.00 20.00     0.007 C 
HETATM    7  C6  UNL     1     -32.908   5.513   2.540  1.00 20.00     0.006 C 
ENDBRANCH   5   6
BRANCH   5   8
HETATM    8  C8  UNL     1     -35.470   6.005   4.484  1.00 20.00     0.173 C 
BRANCH   8   9
HETATM    9  O9  UNL     1     -35.625   4.680   4.947  1.00 20.00    -0.400 OA
HETATM   10  H25 UNL     1     -35.100   4.106   4.362  1.00 20.00     0.209 HD
ENDBRANCH   8   9
ENDBRANCH   5   8
TORSDOF 3
ENDMDL
MODEL 8
REMARK VINA RESULT:      -3.6     12.236     13.463
REMARK  3 active torsions:
REMARK  status: ('A' for Active; 'I' for Inactive)
REMARK    1  A    between atoms: C5_5  and  C7_7 
REMARK    2  A    between atoms: C5_5  and  C8_8 
REMARK    3  A    between atoms: C8_8  and  O9_9 
ROOT
HETATM    1  C1  UNL     1     -35.351   5.560   5.637  1.00 20.00     0.001 C 
HETATM    2  C2  UNL     1     -34.031   5.258   6.320  1.00 20.00     0.001 C 
HETATM    3  C3  UNL     1     -34.931   6.218   4.328  1.00 20.00     0.011 C 
HETATM    4  C4  UNL     1     -33.219   6.519   6.066  1.00 20.00     0.011 C 
HETATM    5  C5  UNL     1     -33.622   6.980   4.646  1.00 20.00    -0.019 C 
ENDROOT
BRANCH   5   6
HETATM    6  C7  UNL     1     -32.532   6.617   3.628  1.00 20.00     0.007 C 
HETATM    7  C6  UNL     1     -32.952   5.482   2.755  1.00 20.00     0.006 C 
ENDBRANCH   5   6
BRANCH   5   8
HETATM    8  C8  UNL     1     -33.848   8.497   4.617  1.00 20.00     0.173 C 
BRANCH   8   9
HETATM    9  O9  UNL     1     -32.605   9.130   4.834  1.00 20.00    -0.400 OA
HETATM   10  H25 UNL     1     -32.571   9.387   5.773  1.00 20.00     0.209 HD
ENDBRANCH   8   9
ENDBRANCH   5   8
TORSDOF 3
ENDMDL
MODEL 9
REMARK VINA RESULT:      -3.5     12.098     13.648
REMARK  3 active torsions:
REMARK  status: ('A' for Active; 'I' for Inactive)
REMARK    1  A    between atoms: C5_5  and  C7_7 
REMARK    2  A    between atoms: C5_5  and  C8_8 
REMARK    3  A    between atoms: C8_8  and  O9_9 
ROOT
HETATM    1  C1  UNL     1     -43.368   5.429   2.188  1.00 20.00     0.001 C 
HETATM    2  C2  UNL     1     -43.417   6.913   1.875  1.00 20.00     0.001 C 
HETATM    3  C3  UNL     1     -42.209   4.925   1.336  1.00 20.00     0.011 C 
HETATM    4  C4  UNL     1     -43.210   6.951   0.368  1.00 20.00     0.011 C 
HETATM    5  C5  UNL     1     -42.204   5.814   0.070  1.00 20.00    -0.019 C 
ENDROOT
BRANCH   5   6
HETATM    6  C7  UNL     1     -40.800   6.384  -0.178  1.00 20.00     0.007 C 
HETATM    7  C6  UNL     1     -40.796   7.876  -0.121  1.00 20.00     0.006 C 
ENDBRANCH   5   6
BRANCH   5   8
HETATM    8  C8  UNL     1     -42.645   5.017  -1.163  1.00 20.00     0.173 C 
BRANCH   8   9
HETATM    9  O9  UNL     1     -43.324   3.861  -0.719  1.00 20.00    -0.400 OA
HETATM   10  H25 UNL     1     -42.663   3.280  -0.303  1.00 20.00     0.209 HD
ENDBRANCH   8   9
ENDBRANCH   5   8
TORSDOF 3
ENDMDL
