MODEL 1
REMARK VINA RESULT:      -4.4      0.000      0.000
REMARK  1 active torsions:
REMARK  status: ('A' for Active; 'I' for Inactive)
REMARK    1  A    between atoms: C6_6  and  C7_7 
ROOT
HETATM    1  C1  UNL     1     -32.432   8.784   1.247  1.00 20.00     0.065 C 
HETATM    2  C7  UNL     1     -31.763   7.671   1.937  1.00 20.00     0.186 C 
HETATM    3  N8  UNL     1     -32.960   9.661   0.700  1.00 20.00    -0.197 NA
ENDROOT
BRANCH   2   4
HETATM    4  C6  UNL     1     -32.573   7.215   3.104  1.00 20.00     0.085 A 
HETATM    5  C4  UNL     1     -32.715   8.048   4.203  1.00 20.00     0.143 A 
HETATM    6  C2  UNL     1     -33.477   7.589   5.272  1.00 20.00     0.069 A 
HETATM    7  F10 UNL     1     -32.141   9.256   4.243  1.00 20.00    -0.204 F 
HETATM    8  C5  UNL     1     -34.066   6.332   5.211  1.00 20.00     0.054 A 
HETATM    9  C3  UNL     1     -33.864   5.576   4.068  1.00 20.00     0.141 A 
HETATM   10 CL11 UNL     1     -35.012   5.735   6.510  1.00 20.00    -0.083 Cl
HETATM   11  N9  UNL     1     -33.131   5.986   3.008  1.00 20.00    -0.260 NA
ENDBRANCH   2   4
TORSDOF 1
ENDMDL
MODEL 2
REMARK VINA RESULT:      -4.4      1.680      2.063
REMARK  1 active torsions:
REMARK  status: ('A' for Active; 'I' for Inactive)
REMARK    1  A    between atoms: C6_6  and  C7_7 
ROOT
HETATM    1  C1  UNL     1     -32.415   8.748   1.155  1.00 20.00     0.065 C 
HETATM    2  C7  UNL     1     -31.819   7.562   1.786  1.00 20.00     0.186 C 
HETATM    3  N8  UNL     1     -32.886   9.684   0.655  1.00 20.00    -0.197 NA
ENDROOT
BRANCH   2   4
HETATM    4  C6  UNL     1     -32.609   7.151   2.983  1.00 20.00     0.085 A 
HETATM    5  C4  UNL     1     -33.152   5.876   3.037  1.00 20.00     0.143 A 
HETATM    6  C2  UNL     1     -33.883   5.528   4.168  1.00 20.00     0.069 A 
HETATM    7  F10 UNL     1     -32.983   5.002   2.038  1.00 20.00    -0.204 F 
HETATM    8  C5  UNL     1     -34.045   6.450   5.195  1.00 20.00     0.054 A 
HETATM    9  C3  UNL     1     -33.463   7.698   5.045  1.00 20.00     0.141 A 
HETATM   10 CL11 UNL     1     -34.939   6.055   6.604  1.00 20.00    -0.083 Cl
HETATM   11  N9  UNL     1     -32.746   8.074   3.962  1.00 20.00    -0.260 NA
ENDBRANCH   2   4
TORSDOF 1
ENDMDL
MODEL 3
REMARK VINA RESULT:      -4.3     11.539     11.919
REMARK  1 active torsions:
REMARK  status: ('A' for Active; 'I' for Inactive)
REMARK    1  A    between atoms: C6_6  and  C7_7 
ROOT
HETATM    1  C1  UNL     1     -33.089  17.260  -2.568  1.00 20.00     0.065 C 
HETATM    2  C7  UNL     1     -32.617  18.609  -2.224  1.00 20.00     0.186 C 
HETATM    3  N8  UNL     1     -33.460  16.195  -2.843  1.00 20.00    -0.197 NA
ENDROOT
BRANCH   2   4
HETATM    4  C6  UNL     1     -32.301  18.698  -0.768  1.00 20.00     0.085 A 
HETATM    5  C4  UNL     1     -33.335  18.835   0.146  1.00 20.00     0.143 A 
HETATM    6  C2  UNL     1     -33.004  18.916   1.494  1.00 20.00     0.069 A 
HETATM    7  F10 UNL     1     -34.613  18.889  -0.247  1.00 20.00    -0.204 F 
HETATM    8  C5  UNL     1     -31.671  18.856   1.882  1.00 20.00     0.054 A 
HETATM    9  C3  UNL     1     -30.712  18.718   0.891  1.00 20.00     0.141 A 
HETATM   10 CL11 UNL     1     -31.226  18.951   3.536  1.00 20.00    -0.083 Cl
HETATM   11  N9  UNL     1     -30.994  18.637  -0.428  1.00 20.00    -0.260 NA
ENDBRANCH   2   4
TORSDOF 1
ENDMDL
MODEL 4
REMARK VINA RESULT:      -4.3     11.778     12.590
REMARK  1 active torsions:
REMARK  status: ('A' for Active; 'I' for Inactive)
REMARK    1  A    between atoms: C6_6  and  C7_7 
ROOT
HETATM    1  C1  UNL     1     -34.277  15.419  -6.930  1.00 20.00     0.065 C 
HETATM    2  C7  UNL     1     -35.194  15.839  -5.860  1.00 20.00     0.186 C 
HETATM    3  N8  UNL     1     -33.555  15.089  -7.777  1.00 20.00    -0.197 NA
ENDROOT
BRANCH   2   4
HETATM    4  C6  UNL     1     -34.446  16.533  -4.771  1.00 20.00     0.085 A 
HETATM    5  C4  UNL     1     -33.919  15.790  -3.726  1.00 20.00     0.143 A 
HETATM    6  C2  UNL     1     -33.229  16.470  -2.728  1.00 20.00     0.069 A 
HETATM    7  F10 UNL     1     -34.063  14.461  -3.670  1.00 20.00    -0.204 F 
HETATM    8  C5  UNL     1     -33.088  17.851  -2.805  1.00 20.00     0.054 A 
HETATM    9  C3  UNL     1     -33.653  18.501  -3.891  1.00 20.00     0.141 A 
HETATM   10 CL11 UNL     1     -32.243  18.723  -1.594  1.00 20.00    -0.083 Cl
HETATM   11  N9  UNL     1     -34.330  17.876  -4.879  1.00 20.00    -0.260 NA
ENDBRANCH   2   4
TORSDOF 1
ENDMDL
MODEL 5
REMARK VINA RESULT:      -4.2     11.417     12.215
REMARK  1 active torsions:
REMARK  status: ('A' for Active; 'I' for Inactive)
REMARK    1  A    between atoms: C6_6  and  C7_7 
ROOT
HETATM    1  C1  UNL     1     -35.433  15.310  -5.796  1.00 20.00     0.065 C 
HETATM    2  C7  UNL     1     -34.469  16.419  -5.732  1.00 20.00     0.186 C 
HETATM    3  N8  UNL     1     -36.192  14.433  -5.848  1.00 20.00    -0.197 NA
ENDROOT
BRANCH   2   4
HETATM    4  C6  UNL     1     -34.334  16.916  -4.331  1.00 20.00     0.085 A 
HETATM    5  C4  UNL     1     -33.429  16.306  -3.477  1.00 20.00     0.143 A 
HETATM    6  C2  UNL     1     -33.330  16.795  -2.178  1.00 20.00     0.069 A 
HETATM    7  F10 UNL     1     -32.670  15.280  -3.878  1.00 20.00    -0.204 F 
HETATM    8  C5  UNL     1     -34.126  17.863  -1.781  1.00 20.00     0.054 A 
HETATM    9  C3  UNL     1     -35.000  18.403  -2.712  1.00 20.00     0.141 A 
HETATM   10 CL11 UNL     1     -34.031  18.493  -0.189  1.00 20.00    -0.083 Cl
HETATM   11  N9  UNL     1     -35.125  17.956  -3.981  1.00 20.00    -0.260 NA
ENDBRANCH   2   4
TORSDOF 1
ENDMDL
MODEL 6
REMARK VINA RESULT:      -4.1     11.786     12.515
REMARK  1 active torsions:
REMARK  status: ('A' for Active; 'I' for Inactive)
REMARK    1  A    between atoms: C6_6  and  C7_7 
ROOT
HETATM    1  C1  UNL     1     -32.102  18.382  -0.782  1.00 20.00     0.065 C 
HETATM    2  C7  UNL     1     -33.452  17.800  -0.817  1.00 20.00     0.186 C 
HETATM    3  N8  UNL     1     -31.036  18.839  -0.753  1.00 20.00    -0.197 NA
ENDROOT
BRANCH   2   4
HETATM    4  C6  UNL     1     -33.809  17.386  -2.205  1.00 20.00     0.085 A 
HETATM    5  C4  UNL     1     -34.702  18.154  -2.937  1.00 20.00     0.143 A 
HETATM    6  C2  UNL     1     -35.012  17.737  -4.227  1.00 20.00     0.069 A 
HETATM    7  F10 UNL     1     -35.252  19.262  -2.427  1.00 20.00    -0.204 F 
HETATM    8  C5  UNL     1     -34.429  16.584  -4.739  1.00 20.00     0.054 A 
HETATM    9  C3  UNL     1     -33.549  15.887  -3.927  1.00 20.00     0.141 A 
HETATM   10 CL11 UNL     1     -34.787  16.041  -6.326  1.00 20.00    -0.083 Cl
HETATM   11  N9  UNL     1     -33.223  16.259  -2.669  1.00 20.00    -0.260 NA
ENDBRANCH   2   4
TORSDOF 1
ENDMDL
MODEL 7
REMARK VINA RESULT:      -4.1      2.757      4.268
REMARK  1 active torsions:
REMARK  status: ('A' for Active; 'I' for Inactive)
REMARK    1  A    between atoms: C6_6  and  C7_7 
ROOT
HETATM    1  C1  UNL     1     -34.421   5.792   6.230  1.00 20.00     0.065 C 
HETATM    2  C7  UNL     1     -33.680   7.062   6.191  1.00 20.00     0.186 C 
HETATM    3  N8  UNL     1     -35.008   4.791   6.261  1.00 20.00    -0.197 NA
ENDROOT
BRANCH   2   4
HETATM    4  C6  UNL     1     -33.194   7.344   4.809  1.00 20.00     0.085 A 
HETATM    5  C4  UNL     1     -32.665   8.591   4.514  1.00 20.00     0.143 A 
HETATM    6  C2  UNL     1     -32.222   8.818   3.216  1.00 20.00     0.069 A 
HETATM    7  F10 UNL     1     -32.578   9.551   5.442  1.00 20.00    -0.204 F 
HETATM    8  C5  UNL     1     -32.319   7.807   2.267  1.00 20.00     0.054 A 
HETATM    9  C3  UNL     1     -32.864   6.596   2.662  1.00 20.00     0.141 A 
HETATM   10 CL11 UNL     1     -31.783   8.052   0.656  1.00 20.00    -0.083 Cl
HETATM   11  N9  UNL     1     -33.305   6.337   3.913  1.00 20.00    -0.260 NA
ENDBRANCH   2   4
TORSDOF 1
ENDMDL
MODEL 8
REMARK VINA RESULT:      -4.0     11.970     12.716
REMARK  1 active torsions:
REMARK  status: ('A' for Active; 'I' for Inactive)
REMARK    1  A    between atoms: C6_6  and  C7_7 
ROOT
HETATM    1  C1  UNL     1     -32.806  18.166  -2.517  1.00 20.00     0.065 C 
HETATM    2  C7  UNL     1     -33.281  16.774  -2.524  1.00 20.00     0.186 C 
HETATM    3  N8  UNL     1     -32.428  19.263  -2.512  1.00 20.00    -0.197 NA
ENDROOT
BRANCH   2   4
HETATM    4  C6  UNL     1     -33.890  16.434  -3.843  1.00 20.00     0.085 A 
HETATM    5  C4  UNL     1     -33.433  15.325  -4.538  1.00 20.00     0.143 A 
HETATM    6  C2  UNL     1     -34.023  15.038  -5.764  1.00 20.00     0.069 A 
HETATM    7  F10 UNL     1     -32.457  14.549  -4.053  1.00 20.00    -0.204 F 
HETATM    8  C5  UNL     1     -35.037  15.855  -6.250  1.00 20.00     0.054 A 
HETATM    9  C3  UNL     1     -35.422  16.940  -5.479  1.00 20.00     0.141 A 
HETATM   10 CL11 UNL     1     -35.787  15.532  -7.758  1.00 20.00    -0.083 Cl
HETATM   11  N9  UNL     1     -34.873  17.251  -4.283  1.00 20.00    -0.260 NA
ENDBRANCH   2   4
TORSDOF 1
ENDMDL
MODEL 9
REMARK VINA RESULT:      -3.9     10.411     11.121
REMARK  1 active torsions:
REMARK  status: ('A' for Active; 'I' for Inactive)
REMARK    1  A    between atoms: C6_6  and  C7_7 
ROOT
HETATM    1  C1  UNL     1     -39.251  12.144   5.557  1.00 20.00     0.065 C 
HETATM    2  C7  UNL     1     -40.618  12.259   6.088  1.00 20.00     0.186 C 
HETATM    3  N8  UNL     1     -38.174  12.052   5.134  1.00 20.00    -0.197 NA
ENDROOT
BRANCH   2   4
HETATM    4  C6  UNL     1     -40.777  13.529   6.855  1.00 20.00     0.085 A 
HETATM    5  C4  UNL     1     -41.493  14.576   6.297  1.00 20.00     0.143 A 
HETATM    6  C2  UNL     1     -41.620  15.745   7.040  1.00 20.00     0.069 A 
HETATM    7  F10 UNL     1     -42.049  14.476   5.084  1.00 20.00    -0.204 F 
HETATM    8  C5  UNL     1     -41.038  15.830   8.298  1.00 20.00     0.054 A 
HETATM    9  C3  UNL     1     -40.341  14.727   8.767  1.00 20.00     0.141 A 
HETATM   10 CL11 UNL     1     -41.175  17.255   9.243  1.00 20.00    -0.083 Cl
HETATM   11  N9  UNL     1     -40.196  13.574   8.075  1.00 20.00    -0.260 NA
ENDBRANCH   2   4
TORSDOF 1
ENDMDL
