MODEL 1
REMARK VINA RESULT:      -4.4      0.000      0.000
REMARK  2 active torsions:
REMARK  status: ('A' for Active; 'I' for Inactive)
REMARK    1  A    between atoms: C1_1  and  N11_11 
REMARK    2  A    between atoms: C7_7  and  C10_10 
ROOT
HETATM    1  C2  UNL     1     -34.002  14.797  -4.247  1.00 20.00     0.020 C 
HETATM    2  C3  UNL     1     -33.667  15.873  -3.215  1.00 20.00     0.006 C 
HETATM    3  C4  UNL     1     -35.076  17.664  -4.432  1.00 20.00     0.025 C 
HETATM    4  C5  UNL     1     -33.750  15.175  -5.701  1.00 20.00     0.125 C 
HETATM    5  C6  UNL     1     -34.932  17.375  -5.927  1.00 20.00     0.125 C 
HETATM    6  C7  UNL     1     -33.802  17.349  -3.632  1.00 20.00    -0.010 C 
HETATM    7  N11 UNL     1     -34.864  15.953  -6.238  1.00 20.00    -0.359 N 
ENDROOT
BRANCH   6   8
HETATM    8  C10 UNL     1     -33.742  18.227  -2.375  1.00 20.00    -0.019 C 
HETATM    9  C8  UNL     1     -33.625  17.358  -1.126  1.00 20.00     0.010 C 
HETATM   10  C9  UNL     1     -32.576  19.205  -2.467  1.00 20.00     0.010 C 
ENDBRANCH   6   8
BRANCH   7  11
HETATM   11  C1  UNL     1     -35.880  15.331  -6.951  1.00 20.00     0.350 C 
HETATM   12  O12 UNL     1     -36.044  14.127  -7.119  1.00 20.00    -0.284 OA
ENDBRANCH   7  11
TORSDOF 2
ENDMDL
MODEL 2
REMARK VINA RESULT:      -4.3      1.012      2.288
REMARK  2 active torsions:
REMARK  status: ('A' for Active; 'I' for Inactive)
REMARK    1  A    between atoms: C1_1  and  N11_11 
REMARK    2  A    between atoms: C7_7  and  C10_10 
ROOT
HETATM    1  C2  UNL     1     -34.796  18.065  -4.941  1.00 20.00     0.020 C 
HETATM    2  C3  UNL     1     -34.242  18.343  -3.543  1.00 20.00     0.006 C 
HETATM    3  C4  UNL     1     -33.019  16.070  -3.434  1.00 20.00     0.025 C 
HETATM    4  C5  UNL     1     -35.531  16.741  -5.109  1.00 20.00     0.125 C 
HETATM    5  C6  UNL     1     -33.910  15.071  -4.175  1.00 20.00     0.125 C 
HETATM    6  C7  UNL     1     -33.817  17.143  -2.677  1.00 20.00    -0.010 C 
HETATM    7  N11 UNL     1     -34.589  15.646  -5.328  1.00 20.00    -0.359 N 
ENDROOT
BRANCH   6   8
HETATM    8  C10 UNL     1     -33.002  17.658  -1.483  1.00 20.00    -0.019 C 
HETATM    9  C8  UNL     1     -32.339  18.988  -1.827  1.00 20.00     0.010 C 
HETATM   10  C9  UNL     1     -33.893  17.797  -0.254  1.00 20.00     0.010 C 
ENDBRANCH   6   8
BRANCH   7  11
HETATM   11  C1  UNL     1     -34.283  15.228  -6.617  1.00 20.00     0.350 C 
HETATM   12  O12 UNL     1     -35.065  14.854  -7.484  1.00 20.00    -0.284 OA
ENDBRANCH   7  11
TORSDOF 2
ENDMDL
MODEL 3
REMARK VINA RESULT:      -3.9      1.028      1.471
REMARK  2 active torsions:
REMARK  status: ('A' for Active; 'I' for Inactive)
REMARK    1  A    between atoms: C1_1  and  N11_11 
REMARK    2  A    between atoms: C7_7  and  C10_10 
ROOT
HETATM    1  C2  UNL     1     -34.056  15.054  -4.517  1.00 20.00     0.020 C 
HETATM    2  C3  UNL     1     -33.227  15.777  -3.455  1.00 20.00     0.006 C 
HETATM    3  C4  UNL     1     -34.793  17.832  -3.445  1.00 20.00     0.025 C 
HETATM    4  C5  UNL     1     -34.352  15.852  -5.780  1.00 20.00     0.125 C 
HETATM    5  C6  UNL     1     -35.278  18.004  -4.886  1.00 20.00     0.125 C 
HETATM    6  C7  UNL     1     -33.351  17.308  -3.353  1.00 20.00    -0.010 C 
HETATM    7  N11 UNL     1     -35.494  16.741  -5.579  1.00 20.00    -0.359 N 
ENDROOT
BRANCH   6   8
HETATM    8  C10 UNL     1     -32.707  17.772  -2.039  1.00 20.00    -0.019 C 
HETATM    9  C8  UNL     1     -32.380  19.260  -2.106  1.00 20.00     0.010 C 
HETATM   10  C9  UNL     1     -33.628  17.470  -0.863  1.00 20.00     0.010 C 
ENDBRANCH   6   8
BRANCH   7  11
HETATM   11  C1  UNL     1     -36.770  16.347  -5.960  1.00 20.00     0.350 C 
HETATM   12  O12 UNL     1     -37.163  15.207  -6.180  1.00 20.00    -0.284 OA
ENDBRANCH   7  11
TORSDOF 2
ENDMDL
MODEL 4
REMARK VINA RESULT:      -3.9      1.368      1.520
REMARK  2 active torsions:
REMARK  status: ('A' for Active; 'I' for Inactive)
REMARK    1  A    between atoms: C1_1  and  N11_11 
REMARK    2  A    between atoms: C7_7  and  C10_10 
ROOT
HETATM    1  C2  UNL     1     -33.836  15.632  -3.660  1.00 20.00     0.020 C 
HETATM    2  C3  UNL     1     -33.315  16.554  -2.557  1.00 20.00     0.006 C 
HETATM    3  C4  UNL     1     -35.230  18.255  -2.892  1.00 20.00     0.025 C 
HETATM    4  C5  UNL     1     -34.104  16.296  -5.004  1.00 20.00     0.125 C 
HETATM    5  C6  UNL     1     -35.536  18.261  -4.391  1.00 20.00     0.125 C 
HETATM    6  C7  UNL     1     -33.741  18.033  -2.583  1.00 20.00    -0.010 C 
HETATM    7  N11 UNL     1     -35.410  16.949  -5.013  1.00 20.00    -0.359 N 
ENDROOT
BRANCH   6   8
HETATM    8  C10 UNL     1     -33.384  18.675  -1.236  1.00 20.00    -0.019 C 
HETATM    9  C8  UNL     1     -33.900  17.817  -0.086  1.00 20.00     0.010 C 
HETATM   10  C9  UNL     1     -31.877  18.878  -1.128  1.00 20.00     0.010 C 
ENDBRANCH   6   8
BRANCH   7  11
HETATM   11  C1  UNL     1     -36.523  16.292  -5.521  1.00 20.00     0.350 C 
HETATM   12  O12 UNL     1     -36.795  15.100  -5.424  1.00 20.00    -0.284 OA
ENDBRANCH   7  11
TORSDOF 2
ENDMDL
MODEL 5
REMARK VINA RESULT:      -3.7      3.175      5.027
REMARK  2 active torsions:
REMARK  status: ('A' for Active; 'I' for Inactive)
REMARK    1  A    between atoms: C1_1  and  N11_11 
REMARK    2  A    between atoms: C7_7  and  C10_10 
ROOT
HETATM    1  C2  UNL     1     -35.452  18.377  -3.790  1.00 20.00     0.020 C 
HETATM    2  C3  UNL     1     -34.995  17.162  -4.597  1.00 20.00     0.006 C 
HETATM    3  C4  UNL     1     -33.536  16.263  -2.664  1.00 20.00     0.025 C 
HETATM    4  C5  UNL     1     -34.342  19.208  -3.160  1.00 20.00     0.125 C 
HETATM    5  C6  UNL     1     -32.967  17.493  -1.953  1.00 20.00     0.125 C 
HETATM    6  C7  UNL     1     -33.690  16.461  -4.180  1.00 20.00    -0.010 C 
HETATM    7  N11 UNL     1     -33.896  18.613  -1.902  1.00 20.00    -0.359 N 
ENDROOT
BRANCH   6   8
HETATM    8  C10 UNL     1     -33.603  15.106  -4.897  1.00 20.00    -0.019 C 
HETATM    9  C8  UNL     1     -34.448  14.066  -4.168  1.00 20.00     0.010 C 
HETATM   10  C9  UNL     1     -34.047  15.245  -6.349  1.00 20.00     0.010 C 
ENDBRANCH   6   8
BRANCH   7  11
HETATM   11  C1  UNL     1     -34.418  19.051  -0.692  1.00 20.00     0.350 C 
HETATM   12  O12 UNL     1     -34.237  18.562   0.418  1.00 20.00    -0.284 OA
ENDBRANCH   7  11
TORSDOF 2
ENDMDL
MODEL 6
REMARK VINA RESULT:      -3.7      2.964      4.850
REMARK  2 active torsions:
REMARK  status: ('A' for Active; 'I' for Inactive)
REMARK    1  A    between atoms: C1_1  and  N11_11 
REMARK    2  A    between atoms: C7_7  and  C10_10 
ROOT
HETATM    1  C2  UNL     1     -33.062  16.061  -3.230  1.00 20.00     0.020 C 
HETATM    2  C3  UNL     1     -33.929  15.595  -4.400  1.00 20.00     0.006 C 
HETATM    3  C4  UNL     1     -34.472  18.012  -5.132  1.00 20.00     0.025 C 
HETATM    4  C5  UNL     1     -33.710  17.066  -2.287  1.00 20.00     0.125 C 
HETATM    5  C6  UNL     1     -34.566  18.835  -3.845  1.00 20.00     0.125 C 
HETATM    6  C7  UNL     1     -34.978  16.571  -4.963  1.00 20.00    -0.010 C 
HETATM    7  N11 UNL     1     -33.613  18.422  -2.823  1.00 20.00    -0.359 N 
ENDROOT
BRANCH   6   8
HETATM    8  C10 UNL     1     -35.485  16.033  -6.308  1.00 20.00    -0.019 C 
HETATM    9  C8  UNL     1     -34.433  16.239  -7.392  1.00 20.00     0.010 C 
HETATM   10  C9  UNL     1     -35.855  14.559  -6.183  1.00 20.00     0.010 C 
ENDBRANCH   6   8
BRANCH   7  11
HETATM   11  C1  UNL     1     -32.580  19.263  -2.431  1.00 20.00     0.350 C 
HETATM   12  O12 UNL     1     -31.760  19.070  -1.540  1.00 20.00    -0.284 OA
ENDBRANCH   7  11
TORSDOF 2
ENDMDL
MODEL 7
REMARK VINA RESULT:      -3.5     11.796     13.229
REMARK  2 active torsions:
REMARK  status: ('A' for Active; 'I' for Inactive)
REMARK    1  A    between atoms: C1_1  and  N11_11 
REMARK    2  A    between atoms: C7_7  and  C10_10 
ROOT
HETATM    1  C2  UNL     1     -41.263  15.020   7.527  1.00 20.00     0.020 C 
HETATM    2  C3  UNL     1     -40.526  13.717   7.213  1.00 20.00     0.006 C 
HETATM    3  C4  UNL     1     -41.274  13.736   4.741  1.00 20.00     0.025 C 
HETATM    4  C5  UNL     1     -42.732  15.060   7.126  1.00 20.00     0.125 C 
HETATM    5  C6  UNL     1     -42.685  14.328   4.728  1.00 20.00     0.125 C 
HETATM    6  C7  UNL     1     -40.985  12.896   5.995  1.00 20.00    -0.010 C 
HETATM    7  N11 UNL     1     -42.877  15.387   5.710  1.00 20.00    -0.359 N 
ENDROOT
BRANCH   6   8
HETATM    8  C10 UNL     1     -39.921  11.835   5.682  1.00 20.00    -0.019 C 
HETATM    9  C8  UNL     1     -39.492  11.929   4.222  1.00 20.00     0.010 C 
HETATM   10  C9  UNL     1     -38.723  11.996   6.611  1.00 20.00     0.010 C 
ENDBRANCH   6   8
BRANCH   7  11
HETATM   11  C1  UNL     1     -43.103  16.697   5.308  1.00 20.00     0.350 C 
HETATM   12  O12 UNL     1     -42.263  17.546   5.029  1.00 20.00    -0.284 OA
ENDBRANCH   7  11
TORSDOF 2
ENDMDL
MODEL 8
REMARK VINA RESULT:      -3.4      2.828      5.046
REMARK  2 active torsions:
REMARK  status: ('A' for Active; 'I' for Inactive)
REMARK    1  A    between atoms: C1_1  and  N11_11 
REMARK    2  A    between atoms: C7_7  and  C10_10 
ROOT
HETATM    1  C2  UNL     1     -35.616  18.384  -3.682  1.00 20.00     0.020 C 
HETATM    2  C3  UNL     1     -35.738  17.670  -5.029  1.00 20.00     0.006 C 
HETATM    3  C4  UNL     1     -34.140  15.770  -4.314  1.00 20.00     0.025 C 
HETATM    4  C5  UNL     1     -34.195  18.657  -3.206  1.00 20.00     0.125 C 
HETATM    5  C6  UNL     1     -33.088  16.416  -3.409  1.00 20.00     0.125 C 
HETATM    6  C7  UNL     1     -34.617  16.698  -5.441  1.00 20.00    -0.010 C 
HETATM    7  N11 UNL     1     -33.624  17.475  -2.564  1.00 20.00    -0.359 N 
ENDROOT
BRANCH   6   8
HETATM    8  C10 UNL     1     -35.097  15.866  -6.638  1.00 20.00    -0.019 C 
HETATM    9  C8  UNL     1     -33.926  15.531  -7.555  1.00 20.00     0.010 C 
HETATM   10  C9  UNL     1     -35.791  14.597  -6.157  1.00 20.00     0.010 C 
ENDBRANCH   6   8
BRANCH   7  11
HETATM   11  C1  UNL     1     -33.675  17.328  -1.184  1.00 20.00     0.350 C 
HETATM   12  O12 UNL     1     -34.039  18.159  -0.359  1.00 20.00    -0.284 OA
ENDBRANCH   7  11
TORSDOF 2
ENDMDL
MODEL 9
REMARK VINA RESULT:      -3.4      3.133      4.817
REMARK  2 active torsions:
REMARK  status: ('A' for Active; 'I' for Inactive)
REMARK    1  A    between atoms: C1_1  and  N11_11 
REMARK    2  A    between atoms: C7_7  and  C10_10 
ROOT
HETATM    1  C2  UNL     1     -32.993  16.233  -3.043  1.00 20.00     0.020 C 
HETATM    2  C3  UNL     1     -33.924  15.966  -4.226  1.00 20.00     0.006 C 
HETATM    3  C4  UNL     1     -34.464  18.473  -4.537  1.00 20.00     0.025 C 
HETATM    4  C5  UNL     1     -33.578  17.080  -1.921  1.00 20.00     0.125 C 
HETATM    5  C6  UNL     1     -34.481  19.081  -3.133  1.00 20.00     0.125 C 
HETATM    6  C7  UNL     1     -34.984  17.027  -4.573  1.00 20.00    -0.010 C 
HETATM    7  N11 UNL     1     -33.487  18.503  -2.239  1.00 20.00    -0.359 N 
ENDROOT
BRANCH   6   8
HETATM    8  C10 UNL     1     -35.565  16.713  -5.958  1.00 20.00    -0.019 C 
HETATM    9  C8  UNL     1     -37.018  16.268  -5.835  1.00 20.00     0.010 C 
HETATM   10  C9  UNL     1     -35.445  17.928  -6.871  1.00 20.00     0.010 C 
ENDBRANCH   6   8
BRANCH   7  11
HETATM   11  C1  UNL     1     -32.423  19.263  -1.772  1.00 20.00     0.350 C 
HETATM   12  O12 UNL     1     -31.446  18.870  -1.143  1.00 20.00    -0.284 OA
ENDBRANCH   7  11
TORSDOF 2
ENDMDL
