MODEL 1
REMARK VINA RESULT:      -4.9      0.000      0.000
REMARK  3 active torsions:
REMARK  status: ('A' for Active; 'I' for Inactive)
REMARK    1  A    between atoms: C1_1  and  C2_2 
REMARK    2  A    between atoms: C1_1  and  C3_3 
REMARK    3  A    between atoms: C2_2  and  C4_4 
ROOT
HETATM    1  C2  UNL     1     -34.232   6.938   4.809  1.00 20.00     0.196 C 
ENDROOT
BRANCH   1   2
HETATM    2  C1  UNL     1     -33.004   7.740   4.406  1.00 20.00     0.148 C 
HETATM    3  O5  UNL     1     -32.637   8.728   5.041  1.00 20.00    -0.296 OA
BRANCH   2   4
HETATM    4  C3  UNL     1     -32.275   7.227   3.183  1.00 20.00     0.193 C 
HETATM    5 CL9  UNL     1     -32.854   5.615   2.737  1.00 20.00    -0.123 Cl
ENDBRANCH   2   4
ENDBRANCH   1   2
BRANCH   1   6
HETATM    6  C4  UNL     1     -34.210   6.500   6.255  1.00 20.00     0.394 C 
HETATM    7  F6  UNL     1     -35.044   5.462   6.470  1.00 20.00    -0.171 F 
HETATM    8  F7  UNL     1     -34.606   7.514   7.058  1.00 20.00    -0.171 F 
HETATM    9  F8  UNL     1     -32.971   6.135   6.643  1.00 20.00    -0.171 F 
ENDBRANCH   1   6
TORSDOF 3
ENDMDL
MODEL 2
REMARK VINA RESULT:      -4.9      0.043      1.265
REMARK  3 active torsions:
REMARK  status: ('A' for Active; 'I' for Inactive)
REMARK    1  A    between atoms: C1_1  and  C2_2 
REMARK    2  A    between atoms: C1_1  and  C3_3 
REMARK    3  A    between atoms: C2_2  and  C4_4 
ROOT
HETATM    1  C2  UNL     1     -34.249   6.885   4.809  1.00 20.00     0.196 C 
ENDROOT
BRANCH   1   2
HETATM    2  C1  UNL     1     -33.037   7.713   4.411  1.00 20.00     0.148 C 
HETATM    3  O5  UNL     1     -32.697   8.712   5.043  1.00 20.00    -0.296 OA
BRANCH   2   4
HETATM    4  C3  UNL     1     -32.289   7.213   3.195  1.00 20.00     0.193 C 
HETATM    5 CL9  UNL     1     -32.856   5.603   2.727  1.00 20.00    -0.123 Cl
ENDBRANCH   2   4
ENDBRANCH   1   2
BRANCH   1   6
HETATM    6  C4  UNL     1     -34.237   6.472   6.263  1.00 20.00     0.394 C 
HETATM    7  F6  UNL     1     -34.606   7.489   7.069  1.00 20.00    -0.171 F 
HETATM    8  F7  UNL     1     -32.994   6.089   6.631  1.00 20.00    -0.171 F 
HETATM    9  F8  UNL     1     -35.066   5.432   6.488  1.00 20.00    -0.171 F 
ENDBRANCH   1   6
TORSDOF 3
ENDMDL
MODEL 3
REMARK VINA RESULT:      -4.9      1.969      2.377
REMARK  3 active torsions:
REMARK  status: ('A' for Active; 'I' for Inactive)
REMARK    1  A    between atoms: C1_1  and  C2_2 
REMARK    2  A    between atoms: C1_1  and  C3_3 
REMARK    3  A    between atoms: C2_2  and  C4_4 
ROOT
HETATM    1  C2  UNL     1     -34.455   6.458   4.787  1.00 20.00     0.196 C 
ENDROOT
BRANCH   1   2
HETATM    2  C1  UNL     1     -33.890   5.265   4.032  1.00 20.00     0.148 C 
HETATM    3  O5  UNL     1     -34.177   4.108   4.336  1.00 20.00    -0.296 OA
BRANCH   2   4
HETATM    4  C3  UNL     1     -32.963   5.611   2.887  1.00 20.00     0.193 C 
HETATM    5 CL9  UNL     1     -32.264   7.222   3.109  1.00 20.00    -0.123 Cl
ENDBRANCH   2   4
ENDBRANCH   1   2
BRANCH   1   6
HETATM    6  C4  UNL     1     -34.323   6.331   6.287  1.00 20.00     0.394 C 
HETATM    7  F6  UNL     1     -33.104   5.873   6.639  1.00 20.00    -0.171 F 
HETATM    8  F7  UNL     1     -35.240   5.460   6.767  1.00 20.00    -0.171 F 
HETATM    9  F8  UNL     1     -34.525   7.514   6.904  1.00 20.00    -0.171 F 
ENDBRANCH   1   6
TORSDOF 3
ENDMDL
MODEL 4
REMARK VINA RESULT:      -4.8      2.072      2.302
REMARK  3 active torsions:
REMARK  status: ('A' for Active; 'I' for Inactive)
REMARK    1  A    between atoms: C1_1  and  C2_2 
REMARK    2  A    between atoms: C1_1  and  C3_3 
REMARK    3  A    between atoms: C2_2  and  C4_4 
ROOT
HETATM    1  C2  UNL     1     -34.541   6.383   4.864  1.00 20.00     0.196 C 
ENDROOT
BRANCH   1   2
HETATM    2  C1  UNL     1     -33.952   5.221   4.080  1.00 20.00     0.148 C 
HETATM    3  O5  UNL     1     -34.181   4.051   4.383  1.00 20.00    -0.296 OA
BRANCH   2   4
HETATM    4  C3  UNL     1     -33.079   5.614   2.909  1.00 20.00     0.193 C 
HETATM    5 CL9  UNL     1     -32.352   7.206   3.172  1.00 20.00    -0.123 Cl
ENDBRANCH   2   4
ENDBRANCH   1   2
BRANCH   1   6
HETATM    6  C4  UNL     1     -34.021   6.471   6.281  1.00 20.00     0.394 C 
HETATM    7  F6  UNL     1     -34.854   7.180   7.070  1.00 20.00    -0.171 F 
HETATM    8  F7  UNL     1     -32.817   7.086   6.301  1.00 20.00    -0.171 F 
HETATM    9  F8  UNL     1     -33.862   5.247   6.826  1.00 20.00    -0.171 F 
ENDBRANCH   1   6
TORSDOF 3
ENDMDL
MODEL 5
REMARK VINA RESULT:      -4.8      2.657      3.369
REMARK  3 active torsions:
REMARK  status: ('A' for Active; 'I' for Inactive)
REMARK    1  A    between atoms: C1_1  and  C2_2 
REMARK    2  A    between atoms: C1_1  and  C3_3 
REMARK    3  A    between atoms: C2_2  and  C4_4 
ROOT
HETATM    1  C2  UNL     1     -33.835   8.096   4.637  1.00 20.00     0.196 C 
ENDROOT
BRANCH   1   2
HETATM    2  C1  UNL     1     -34.023   6.867   5.512  1.00 20.00     0.148 C 
HETATM    3  O5  UNL     1     -33.431   6.735   6.582  1.00 20.00    -0.296 OA
BRANCH   2   4
HETATM    4  C3  UNL     1     -34.989   5.836   4.971  1.00 20.00     0.193 C 
HETATM    5 CL9  UNL     1     -34.126   4.391   4.424  1.00 20.00    -0.123 Cl
ENDBRANCH   2   4
ENDBRANCH   1   2
BRANCH   1   6
HETATM    6  C4  UNL     1     -32.573   8.049   3.807  1.00 20.00     0.394 C 
HETATM    7  F6  UNL     1     -31.484   8.348   4.546  1.00 20.00    -0.171 F 
HETATM    8  F7  UNL     1     -32.641   8.948   2.799  1.00 20.00    -0.171 F 
HETATM    9  F8  UNL     1     -32.388   6.832   3.256  1.00 20.00    -0.171 F 
ENDBRANCH   1   6
TORSDOF 3
ENDMDL
MODEL 6
REMARK VINA RESULT:      -4.8      2.648      3.327
REMARK  3 active torsions:
REMARK  status: ('A' for Active; 'I' for Inactive)
REMARK    1  A    between atoms: C1_1  and  C2_2 
REMARK    2  A    between atoms: C1_1  and  C3_3 
REMARK    3  A    between atoms: C2_2  and  C4_4 
ROOT
HETATM    1  C2  UNL     1     -33.852   8.084   4.622  1.00 20.00     0.196 C 
ENDROOT
BRANCH   1   2
HETATM    2  C1  UNL     1     -34.008   6.873   5.529  1.00 20.00     0.148 C 
HETATM    3  O5  UNL     1     -33.388   6.769   6.586  1.00 20.00    -0.296 OA
BRANCH   2   4
HETATM    4  C3  UNL     1     -34.981   5.823   5.037  1.00 20.00     0.193 C 
HETATM    5 CL9  UNL     1     -34.118   4.406   4.423  1.00 20.00    -0.123 Cl
ENDBRANCH   2   4
ENDBRANCH   1   2
BRANCH   1   6
HETATM    6  C4  UNL     1     -32.587   8.050   3.796  1.00 20.00     0.394 C 
HETATM    7  F6  UNL     1     -32.379   6.829   3.260  1.00 20.00    -0.171 F 
HETATM    8  F7  UNL     1     -31.516   8.346   4.566  1.00 20.00    -0.171 F 
HETATM    9  F8  UNL     1     -32.628   8.951   2.793  1.00 20.00    -0.171 F 
ENDBRANCH   1   6
TORSDOF 3
ENDMDL
MODEL 7
REMARK VINA RESULT:      -4.7      2.639      3.385
REMARK  3 active torsions:
REMARK  status: ('A' for Active; 'I' for Inactive)
REMARK    1  A    between atoms: C1_1  and  C2_2 
REMARK    2  A    between atoms: C1_1  and  C3_3 
REMARK    3  A    between atoms: C2_2  and  C4_4 
ROOT
HETATM    1  C2  UNL     1     -33.884   8.063   4.610  1.00 20.00     0.196 C 
ENDROOT
BRANCH   1   2
HETATM    2  C1  UNL     1     -34.023   6.862   5.532  1.00 20.00     0.148 C 
HETATM    3  O5  UNL     1     -33.404   6.781   6.591  1.00 20.00    -0.296 OA
BRANCH   2   4
HETATM    4  C3  UNL     1     -34.978   5.791   5.051  1.00 20.00     0.193 C 
HETATM    5 CL9  UNL     1     -34.092   4.404   4.400  1.00 20.00    -0.123 Cl
ENDBRANCH   2   4
ENDBRANCH   1   2
BRANCH   1   6
HETATM    6  C4  UNL     1     -32.596   8.061   3.819  1.00 20.00     0.394 C 
HETATM    7  F6  UNL     1     -32.638   8.947   2.803  1.00 20.00    -0.171 F 
HETATM    8  F7  UNL     1     -32.374   6.839   3.286  1.00 20.00    -0.171 F 
HETATM    9  F8  UNL     1     -31.536   8.363   4.599  1.00 20.00    -0.171 F 
ENDBRANCH   1   6
TORSDOF 3
ENDMDL
MODEL 8
REMARK VINA RESULT:      -4.6      2.233      2.439
REMARK  3 active torsions:
REMARK  status: ('A' for Active; 'I' for Inactive)
REMARK    1  A    between atoms: C1_1  and  C2_2 
REMARK    2  A    between atoms: C1_1  and  C3_3 
REMARK    3  A    between atoms: C2_2  and  C4_4 
ROOT
HETATM    1  C2  UNL     1     -33.823   6.668   5.030  1.00 20.00     0.196 C 
ENDROOT
BRANCH   1   2
HETATM    2  C1  UNL     1     -33.050   6.650   3.721  1.00 20.00     0.148 C 
HETATM    3  O5  UNL     1     -33.113   5.700   2.942  1.00 20.00    -0.296 OA
BRANCH   2   4
HETATM    4  C3  UNL     1     -32.216   7.883   3.451  1.00 20.00     0.193 C 
HETATM    5 CL9  UNL     1     -32.272   8.994   4.828  1.00 20.00    -0.123 Cl
ENDBRANCH   2   4
ENDBRANCH   1   2
BRANCH   1   6
HETATM    6  C4  UNL     1     -34.813   5.532   5.153  1.00 20.00     0.394 C 
HETATM    7  F6  UNL     1     -35.906   5.744   4.391  1.00 20.00    -0.171 F 
HETATM    8  F7  UNL     1     -35.226   5.407   6.435  1.00 20.00    -0.171 F 
HETATM    9  F8  UNL     1     -34.264   4.356   4.787  1.00 20.00    -0.171 F 
ENDBRANCH   1   6
TORSDOF 3
ENDMDL
MODEL 9
REMARK VINA RESULT:      -4.5      3.100      3.569
REMARK  3 active torsions:
REMARK  status: ('A' for Active; 'I' for Inactive)
REMARK    1  A    between atoms: C1_1  and  C2_2 
REMARK    2  A    between atoms: C1_1  and  C3_3 
REMARK    3  A    between atoms: C2_2  and  C4_4 
ROOT
HETATM    1  C2  UNL     1     -33.608   7.506   4.670  1.00 20.00     0.196 C 
ENDROOT
BRANCH   1   2
HETATM    2  C1  UNL     1     -33.634   6.149   3.983  1.00 20.00     0.148 C 
HETATM    3  O5  UNL     1     -33.009   5.935   2.945  1.00 20.00    -0.296 OA
BRANCH   2   4
HETATM    4  C3  UNL     1     -34.474   5.096   4.672  1.00 20.00     0.193 C 
HETATM    5 CL9  UNL     1     -34.734   5.514   6.372  1.00 20.00    -0.123 Cl
ENDBRANCH   2   4
ENDBRANCH   1   2
BRANCH   1   6
HETATM    6  C4  UNL     1     -32.500   8.405   4.172  1.00 20.00     0.394 C 
HETATM    7  F6  UNL     1     -31.343   7.727   4.021  1.00 20.00    -0.171 F 
HETATM    8  F7  UNL     1     -32.275   9.404   5.055  1.00 20.00    -0.171 F 
HETATM    9  F8  UNL     1     -32.816   8.970   2.989  1.00 20.00    -0.171 F 
ENDBRANCH   1   6
TORSDOF 3
ENDMDL
