MODEL 1
REMARK VINA RESULT:      -6.0      0.000      0.000
REMARK  0 active torsions:
REMARK  status: ('A' for Active; 'I' for Inactive)
ROOT
HETATM    1  C1  UNL     1     -33.539   7.026   4.605  1.00 20.00    -0.074 C 
HETATM    2  C2  UNL     1     -32.662   7.850   4.026  1.00 20.00    -0.085 C 
HETATM    3  C3  UNL     1     -34.054   7.125   6.019  1.00 20.00     0.039 C 
HETATM    4  C4  UNL     1     -33.649   4.570   4.563  1.00 20.00     0.009 C 
HETATM    5  C5  UNL     1     -34.170   4.605   6.013  1.00 20.00     0.005 C 
HETATM    6  C6  UNL     1     -35.599   5.932   4.646  1.00 20.00     0.014 C 
HETATM    7  C7  UNL     1     -34.238   5.853   3.954  1.00 20.00     0.015 C 
HETATM    8  C8  UNL     1     -34.999   5.906   6.054  1.00 20.00    -0.010 C 
HETATM    9  C9  UNL     1     -32.211   7.665   2.604  1.00 20.00     0.043 C 
HETATM   10  C10 UNL     1     -32.065   9.020   4.754  1.00 20.00     0.043 C 
ENDROOT
TORSDOF 0
ENDMDL
MODEL 2
REMARK VINA RESULT:      -4.0      1.060      3.836
REMARK  0 active torsions:
REMARK  status: ('A' for Active; 'I' for Inactive)
ROOT
HETATM    1  C1  UNL     1     -33.376   6.845   4.071  1.00 20.00    -0.074 C 
HETATM    2  C2  UNL     1     -34.063   5.713   4.245  1.00 20.00    -0.085 C 
HETATM    3  C3  UNL     1     -33.628   8.156   4.771  1.00 20.00     0.039 C 
HETATM    4  C4  UNL     1     -32.616   7.915   1.991  1.00 20.00     0.009 C 
HETATM    5  C5  UNL     1     -32.863   9.286   2.650  1.00 20.00     0.005 C 
HETATM    6  C6  UNL     1     -31.368   8.031   4.015  1.00 20.00     0.014 C 
HETATM    7  C7  UNL     1     -32.173   7.039   3.174  1.00 20.00     0.015 C 
HETATM    8  C8  UNL     1     -32.526   9.026   4.133  1.00 20.00    -0.010 C 
HETATM    9  C9  UNL     1     -33.732   4.454   3.495  1.00 20.00     0.043 C 
HETATM   10  C10 UNL     1     -35.216   5.618   5.203  1.00 20.00     0.043 C 
ENDROOT
TORSDOF 0
ENDMDL
MODEL 3
REMARK VINA RESULT:      -3.8      0.669      2.225
REMARK  0 active torsions:
REMARK  status: ('A' for Active; 'I' for Inactive)
ROOT
HETATM    1  C1  UNL     1     -33.168   6.748   4.241  1.00 20.00    -0.074 C 
HETATM    2  C2  UNL     1     -32.487   7.817   3.822  1.00 20.00    -0.085 C 
HETATM    3  C3  UNL     1     -33.473   5.513   3.431  1.00 20.00     0.039 C 
HETATM    4  C4  UNL     1     -35.265   6.627   5.520  1.00 20.00     0.009 C 
HETATM    5  C5  UNL     1     -35.637   5.364   4.718  1.00 20.00     0.005 C 
HETATM    6  C6  UNL     1     -33.527   5.019   5.765  1.00 20.00     0.014 C 
HETATM    7  C7  UNL     1     -33.735   6.528   5.626  1.00 20.00     0.015 C 
HETATM    8  C8  UNL     1     -34.270   4.694   4.467  1.00 20.00    -0.010 C 
HETATM    9  C9  UNL     1     -32.235   9.003   4.710  1.00 20.00     0.043 C 
HETATM   10  C10 UNL     1     -31.923   7.910   2.432  1.00 20.00     0.043 C 
ENDROOT
TORSDOF 0
ENDMDL
MODEL 4
REMARK VINA RESULT:      -3.8      1.035      3.935
REMARK  0 active torsions:
REMARK  status: ('A' for Active; 'I' for Inactive)
ROOT
HETATM    1  C1  UNL     1     -33.624   6.566   4.370  1.00 20.00    -0.074 C 
HETATM    2  C2  UNL     1     -34.219   5.581   5.047  1.00 20.00    -0.085 C 
HETATM    3  C3  UNL     1     -32.818   6.416   3.104  1.00 20.00     0.039 C 
HETATM    4  C4  UNL     1     -32.276   8.448   5.200  1.00 20.00     0.009 C 
HETATM    5  C5  UNL     1     -31.410   8.338   3.930  1.00 20.00     0.005 C 
HETATM    6  C6  UNL     1     -33.684   8.632   3.289  1.00 20.00     0.014 C 
HETATM    7  C7  UNL     1     -33.672   8.041   4.700  1.00 20.00     0.015 C 
HETATM    8  C8  UNL     1     -32.420   7.885   2.855  1.00 20.00    -0.010 C 
HETATM    9  C9  UNL     1     -35.003   5.835   6.304  1.00 20.00     0.043 C 
HETATM   10  C10 UNL     1     -34.148   4.148   4.600  1.00 20.00     0.043 C 
ENDROOT
TORSDOF 0
ENDMDL
MODEL 5
REMARK VINA RESULT:      -3.8     12.127     13.837
REMARK  0 active torsions:
REMARK  status: ('A' for Active; 'I' for Inactive)
ROOT
HETATM    1  C1  UNL     1     -33.849  16.926  -3.582  1.00 20.00    -0.074 C 
HETATM    2  C2  UNL     1     -34.091  15.992  -4.504  1.00 20.00    -0.085 C 
HETATM    3  C3  UNL     1     -33.380  16.683  -2.169  1.00 20.00     0.039 C 
HETATM    4  C4  UNL     1     -35.169  18.911  -2.975  1.00 20.00     0.009 C 
HETATM    5  C5  UNL     1     -34.731  18.709  -1.511  1.00 20.00     0.005 C 
HETATM    6  C6  UNL     1     -32.791  18.884  -2.881  1.00 20.00     0.014 C 
HETATM    7  C7  UNL     1     -33.947  18.424  -3.770  1.00 20.00     0.015 C 
HETATM    8  C8  UNL     1     -33.306  18.134  -1.649  1.00 20.00    -0.010 C 
HETATM    9  C9  UNL     1     -34.558  16.339  -5.890  1.00 20.00     0.043 C 
HETATM   10  C10 UNL     1     -33.913  14.527  -4.222  1.00 20.00     0.043 C 
ENDROOT
TORSDOF 0
ENDMDL
MODEL 6
REMARK VINA RESULT:      -3.7      9.694     10.737
REMARK  0 active torsions:
REMARK  status: ('A' for Active; 'I' for Inactive)
ROOT
HETATM    1  C1  UNL     1     -40.893  13.212   5.635  1.00 20.00    -0.074 C 
HETATM    2  C2  UNL     1     -39.825  12.439   5.418  1.00 20.00    -0.085 C 
HETATM    3  C3  UNL     1     -41.761  13.847   4.579  1.00 20.00     0.039 C 
HETATM    4  C4  UNL     1     -41.192  15.063   7.227  1.00 20.00     0.009 C 
HETATM    5  C5  UNL     1     -42.082  15.766   6.184  1.00 20.00     0.005 C 
HETATM    6  C6  UNL     1     -42.970  13.601   6.622  1.00 20.00     0.014 C 
HETATM    7  C7  UNL     1     -41.484  13.574   6.980  1.00 20.00     0.015 C 
HETATM    8  C8  UNL     1     -42.779  14.590   5.469  1.00 20.00    -0.010 C 
HETATM    9  C9  UNL     1     -39.022  11.852   6.545  1.00 20.00     0.043 C 
HETATM   10  C10 UNL     1     -39.352  12.102   4.033  1.00 20.00     0.043 C 
ENDROOT
TORSDOF 0
ENDMDL
MODEL 7
REMARK VINA RESULT:      -3.7     12.110     13.609
REMARK  0 active torsions:
REMARK  status: ('A' for Active; 'I' for Inactive)
ROOT
HETATM    1  C1  UNL     1     -34.410  16.495  -4.486  1.00 20.00    -0.074 C 
HETATM    2  C2  UNL     1     -34.088  17.306  -3.474  1.00 20.00    -0.085 C 
HETATM    3  C3  UNL     1     -35.336  16.824  -5.630  1.00 20.00     0.039 C 
HETATM    4  C4  UNL     1     -35.031  14.116  -4.452  1.00 20.00     0.009 C 
HETATM    5  C5  UNL     1     -36.001  14.391  -5.617  1.00 20.00     0.005 C 
HETATM    6  C6  UNL     1     -33.816  15.092  -6.252  1.00 20.00     0.014 C 
HETATM    7  C7  UNL     1     -33.880  15.098  -4.724  1.00 20.00     0.015 C 
HETATM    8  C8  UNL     1     -35.283  15.498  -6.417  1.00 20.00    -0.010 C 
HETATM    9  C9  UNL     1     -33.152  16.882  -2.377  1.00 20.00     0.043 C 
HETATM   10  C10 UNL     1     -34.638  18.700  -3.362  1.00 20.00     0.043 C 
ENDROOT
TORSDOF 0
ENDMDL
MODEL 8
REMARK VINA RESULT:      -3.6     12.639     14.077
REMARK  0 active torsions:
REMARK  status: ('A' for Active; 'I' for Inactive)
ROOT
HETATM    1  C1  UNL     1     -34.468  16.569  -4.394  1.00 20.00    -0.074 C 
HETATM    2  C2  UNL     1     -34.078  17.389  -3.415  1.00 20.00    -0.085 C 
HETATM    3  C3  UNL     1     -34.097  15.114  -4.538  1.00 20.00     0.039 C 
HETATM    4  C4  UNL     1     -34.558  16.955  -6.821  1.00 20.00     0.009 C 
HETATM    5  C5  UNL     1     -34.172  15.478  -7.033  1.00 20.00     0.005 C 
HETATM    6  C6  UNL     1     -36.135  15.578  -5.690  1.00 20.00     0.014 C 
HETATM    7  C7  UNL     1     -35.400  16.910  -5.536  1.00 20.00     0.015 C 
HETATM    8  C8  UNL     1     -34.846  14.767  -5.841  1.00 20.00    -0.010 C 
HETATM    9  C9  UNL     1     -34.504  18.829  -3.361  1.00 20.00     0.043 C 
HETATM   10  C10 UNL     1     -33.186  16.930  -2.297  1.00 20.00     0.043 C 
ENDROOT
TORSDOF 0
ENDMDL
MODEL 9
REMARK VINA RESULT:      -3.6      9.215     10.094
REMARK  0 active torsions:
REMARK  status: ('A' for Active; 'I' for Inactive)
ROOT
HETATM    1  C1  UNL     1     -40.305  13.120   6.253  1.00 20.00    -0.074 C 
HETATM    2  C2  UNL     1     -39.362  12.391   5.651  1.00 20.00    -0.085 C 
HETATM    3  C3  UNL     1     -40.167  13.843   7.570  1.00 20.00     0.039 C 
HETATM    4  C4  UNL     1     -42.692  12.630   6.587  1.00 20.00     0.009 C 
HETATM    5  C5  UNL     1     -42.611  13.349   7.948  1.00 20.00     0.005 C 
HETATM    6  C6  UNL     1     -41.880  14.841   6.242  1.00 20.00     0.014 C 
HETATM    7  C7  UNL     1     -41.691  13.415   5.724  1.00 20.00     0.015 C 
HETATM    8  C8  UNL     1     -41.574  14.463   7.694  1.00 20.00    -0.010 C 
HETATM    9  C9  UNL     1     -39.601  11.707   4.334  1.00 20.00     0.043 C 
HETATM   10  C10 UNL     1     -37.996  12.204   6.246  1.00 20.00     0.043 C 
ENDROOT
TORSDOF 0
ENDMDL
