MODEL 1
REMARK VINA RESULT:      -3.8      0.000      0.000
REMARK  4 active torsions:
REMARK  status: ('A' for Active; 'I' for Inactive)
REMARK    1  A    between atoms: C3_3  and  C7_7 
REMARK    2  A    between atoms: C6_6  and  C7_7 
REMARK    3  A    between atoms: C6_6  and  N9_9 
REMARK    4  A    between atoms: C8_8  and  N9_9 
ROOT
HETATM    1  C6  UNL     1     -33.691  15.446  -4.018  1.00 20.00     0.290 C 
ENDROOT
BRANCH   1   2
HETATM    2  C7  UNL     1     -33.489  16.862  -3.477  1.00 20.00     0.114 C 
HETATM    3 CL10 UNL     1     -34.803  17.941  -4.040  1.00 20.00    -0.123 Cl
BRANCH   2   4
HETATM    4  C3  UNL     1     -33.395  16.920  -1.957  1.00 20.00     0.006 A 
HETATM    5  C1  UNL     1     -32.528  17.951  -1.291  1.00 20.00     0.006 A 
HETATM    6  C2  UNL     1     -34.025  18.057  -1.202  1.00 20.00     0.006 A 
ENDBRANCH   2   4
ENDBRANCH   1   2
BRANCH   1   7
HETATM    7  N9  UNL     1     -33.159  15.295  -5.353  1.00 20.00     0.088 N 
HETATM    8  H26 UNL     1     -32.490  14.521  -5.375  1.00 20.00     0.316 HD
BRANCH   7   9
HETATM    9  C8  UNL     1     -34.218  15.026  -6.322  1.00 20.00     0.212 C 
HETATM   10  C4  UNL     1     -34.409  16.251  -7.204  1.00 20.00     0.042 C 
HETATM   11  C5  UNL     1     -35.493  14.668  -5.573  1.00 20.00     0.042 C 
ENDBRANCH   7   9
ENDBRANCH   1   7
TORSDOF 4
ENDMDL
MODEL 2
REMARK VINA RESULT:      -3.6     12.380     13.080
REMARK  4 active torsions:
REMARK  status: ('A' for Active; 'I' for Inactive)
REMARK    1  A    between atoms: C3_3  and  C7_7 
REMARK    2  A    between atoms: C6_6  and  C7_7 
REMARK    3  A    between atoms: C6_6  and  N9_9 
REMARK    4  A    between atoms: C8_8  and  N9_9 
ROOT
HETATM    1  C6  UNL     1     -33.530   5.852   3.058  1.00 20.00     0.290 C 
ENDROOT
BRANCH   1   2
HETATM    2  C7  UNL     1     -32.541   7.000   3.263  1.00 20.00     0.114 C 
HETATM    3 CL10 UNL     1     -31.977   7.631   1.684  1.00 20.00    -0.123 Cl
BRANCH   2   4
HETATM    4  C3  UNL     1     -33.107   8.143   4.098  1.00 20.00     0.006 A 
HETATM    5  C1  UNL     1     -32.936   8.146   5.591  1.00 20.00     0.006 A 
HETATM    6  C2  UNL     1     -32.184   9.136   4.746  1.00 20.00     0.006 A 
ENDBRANCH   2   4
ENDBRANCH   1   2
BRANCH   1   7
HETATM    7  N9  UNL     1     -33.475   4.892   4.137  1.00 20.00     0.088 N 
HETATM    8  H26 UNL     1     -32.702   5.122   4.768  1.00 20.00     0.316 HD
BRANCH   7   9
HETATM    9  C8  UNL     1     -34.718   4.880   4.904  1.00 20.00     0.212 C 
HETATM   10  C4  UNL     1     -35.682   5.894   4.307  1.00 20.00     0.042 C 
HETATM   11  C5  UNL     1     -34.402   5.192   6.359  1.00 20.00     0.042 C 
ENDBRANCH   7   9
ENDBRANCH   1   7
TORSDOF 4
ENDMDL
MODEL 3
REMARK VINA RESULT:      -3.5      1.745      4.728
REMARK  4 active torsions:
REMARK  status: ('A' for Active; 'I' for Inactive)
REMARK    1  A    between atoms: C3_3  and  C7_7 
REMARK    2  A    between atoms: C6_6  and  C7_7 
REMARK    3  A    between atoms: C6_6  and  N9_9 
REMARK    4  A    between atoms: C8_8  and  N9_9 
ROOT
HETATM    1  C6  UNL     1     -33.246  15.040  -4.174  1.00 20.00     0.290 C 
ENDROOT
BRANCH   1   2
HETATM    2  C7  UNL     1     -34.136  14.616  -5.343  1.00 20.00     0.114 C 
HETATM    3 CL10 UNL     1     -35.668  13.912  -4.741  1.00 20.00    -0.123 Cl
BRANCH   2   4
HETATM    4  C3  UNL     1     -34.441  15.753  -6.313  1.00 20.00     0.006 A 
HETATM    5  C1  UNL     1     -34.010  15.658  -7.750  1.00 20.00     0.006 A 
HETATM    6  C2  UNL     1     -35.468  15.569  -7.395  1.00 20.00     0.006 A 
ENDBRANCH   2   4
ENDBRANCH   1   2
BRANCH   1   7
HETATM    7  N9  UNL     1     -33.974  15.807  -3.190  1.00 20.00     0.088 N 
HETATM    8  H26 UNL     1     -34.207  15.214  -2.390  1.00 20.00     0.316 HD
BRANCH   7   9
HETATM    9  C8  UNL     1     -33.192  16.947  -2.717  1.00 20.00     0.212 C 
HETATM   10  C4  UNL     1     -33.660  17.326  -1.319  1.00 20.00     0.042 C 
HETATM   11  C5  UNL     1     -33.356  18.098  -3.697  1.00 20.00     0.042 C 
ENDBRANCH   7   9
ENDBRANCH   1   7
TORSDOF 4
ENDMDL
MODEL 4
REMARK VINA RESULT:      -3.4      1.919      5.078
REMARK  4 active torsions:
REMARK  status: ('A' for Active; 'I' for Inactive)
REMARK    1  A    between atoms: C3_3  and  C7_7 
REMARK    2  A    between atoms: C6_6  and  C7_7 
REMARK    3  A    between atoms: C6_6  and  N9_9 
REMARK    4  A    between atoms: C8_8  and  N9_9 
ROOT
HETATM    1  C6  UNL     1     -33.305  17.061  -1.912  1.00 20.00     0.290 C 
ENDROOT
BRANCH   1   2
HETATM    2  C7  UNL     1     -33.866  16.801  -3.311  1.00 20.00     0.114 C 
HETATM    3 CL10 UNL     1     -33.539  18.195  -4.387  1.00 20.00    -0.123 Cl
BRANCH   2   4
HETATM    4  C3  UNL     1     -33.329  15.525  -3.949  1.00 20.00     0.006 A 
HETATM    5  C1  UNL     1     -34.228  14.333  -4.130  1.00 20.00     0.006 A 
HETATM    6  C2  UNL     1     -33.774  15.122  -5.327  1.00 20.00     0.006 A 
ENDBRANCH   2   4
ENDBRANCH   1   2
BRANCH   1   7
HETATM    7  N9  UNL     1     -32.559  18.296  -1.849  1.00 20.00     0.088 N 
HETATM    8  H26 UNL     1     -32.991  18.995  -2.459  1.00 20.00     0.316 HD
BRANCH   7   9
HETATM    9  C8  UNL     1     -32.516  18.825  -0.488  1.00 20.00     0.212 C 
HETATM   10  C4  UNL     1     -31.145  18.549   0.111  1.00 20.00     0.042 C 
HETATM   11  C5  UNL     1     -33.626  18.179   0.327  1.00 20.00     0.042 C 
ENDBRANCH   7   9
ENDBRANCH   1   7
TORSDOF 4
ENDMDL
MODEL 5
REMARK VINA RESULT:      -3.3     12.339     13.230
REMARK  4 active torsions:
REMARK  status: ('A' for Active; 'I' for Inactive)
REMARK    1  A    between atoms: C3_3  and  C7_7 
REMARK    2  A    between atoms: C6_6  and  C7_7 
REMARK    3  A    between atoms: C6_6  and  N9_9 
REMARK    4  A    between atoms: C8_8  and  N9_9 
ROOT
HETATM    1  C6  UNL     1     -33.631   7.313   5.243  1.00 20.00     0.290 C 
ENDROOT
BRANCH   1   2
HETATM    2  C7  UNL     1     -32.957   8.251   4.240  1.00 20.00     0.114 C 
HETATM    3 CL10 UNL     1     -32.057   9.541   5.095  1.00 20.00    -0.123 Cl
BRANCH   2   4
HETATM    4  C3  UNL     1     -32.024   7.531   3.273  1.00 20.00     0.006 A 
HETATM    5  C1  UNL     1     -32.575   6.535   2.290  1.00 20.00     0.006 A 
HETATM    6  C2  UNL     1     -32.054   7.859   1.807  1.00 20.00     0.006 A 
ENDBRANCH   2   4
ENDBRANCH   1   2
BRANCH   1   7
HETATM    7  N9  UNL     1     -34.780   6.648   4.674  1.00 20.00     0.088 N 
HETATM    8  H26 UNL     1     -34.687   6.602   3.656  1.00 20.00     0.316 HD
BRANCH   7   9
HETATM    9  C8  UNL     1     -34.922   5.291   5.193  1.00 20.00     0.212 C 
HETATM   10  C4  UNL     1     -34.498   5.269   6.654  1.00 20.00     0.042 C 
HETATM   11  C5  UNL     1     -34.078   4.349   4.348  1.00 20.00     0.042 C 
ENDBRANCH   7   9
ENDBRANCH   1   7
TORSDOF 4
ENDMDL
MODEL 6
REMARK VINA RESULT:      -3.3     12.099     13.955
REMARK  4 active torsions:
REMARK  status: ('A' for Active; 'I' for Inactive)
REMARK    1  A    between atoms: C3_3  and  C7_7 
REMARK    2  A    between atoms: C6_6  and  C7_7 
REMARK    3  A    between atoms: C6_6  and  N9_9 
REMARK    4  A    between atoms: C8_8  and  N9_9 
ROOT
HETATM    1  C6  UNL     1     -41.328  14.370   7.291  1.00 20.00     0.290 C 
ENDROOT
BRANCH   1   2
HETATM    2  C7  UNL     1     -41.285  13.404   6.106  1.00 20.00     0.114 C 
HETATM    3 CL10 UNL     1     -41.980  14.172   4.645  1.00 20.00    -0.123 Cl
BRANCH   2   4
HETATM    4  C3  UNL     1     -39.883  12.891   5.796  1.00 20.00     0.006 A 
HETATM    5  C1  UNL     1     -39.586  11.418   5.854  1.00 20.00     0.006 A 
HETATM    6  C2  UNL     1     -39.620  12.126   4.529  1.00 20.00     0.006 A 
ENDBRANCH   2   4
ENDBRANCH   1   2
BRANCH   1   7
HETATM    7  N9  UNL     1     -40.052  14.458   7.963  1.00 20.00     0.088 N 
HETATM    8  H26 UNL     1     -39.361  14.887   7.342  1.00 20.00     0.316 HD
BRANCH   7   9
HETATM    9  C8  UNL     1     -40.146  15.258   9.182  1.00 20.00     0.212 C 
HETATM   10  C4  UNL     1     -40.785  14.420  10.279  1.00 20.00     0.042 C 
HETATM   11  C5  UNL     1     -40.954  16.512   8.887  1.00 20.00     0.042 C 
ENDBRANCH   7   9
ENDBRANCH   1   7
TORSDOF 4
ENDMDL
MODEL 7
REMARK VINA RESULT:      -3.3      3.636      4.903
REMARK  4 active torsions:
REMARK  status: ('A' for Active; 'I' for Inactive)
REMARK    1  A    between atoms: C3_3  and  C7_7 
REMARK    2  A    between atoms: C6_6  and  C7_7 
REMARK    3  A    between atoms: C6_6  and  N9_9 
REMARK    4  A    between atoms: C8_8  and  N9_9 
ROOT
HETATM    1  C6  UNL     1     -31.850  18.335  -0.951  1.00 20.00     0.290 C 
ENDROOT
BRANCH   1   2
HETATM    2  C7  UNL     1     -31.913  18.997   0.426  1.00 20.00     0.114 C 
HETATM    3 CL10 UNL     1     -33.579  18.928   1.079  1.00 20.00    -0.123 Cl
BRANCH   2   4
HETATM    4  C3  UNL     1     -30.943  18.389   1.433  1.00 20.00     0.006 A 
HETATM    5  C1  UNL     1     -29.937  19.259   2.134  1.00 20.00     0.006 A 
HETATM    6  C2  UNL     1     -31.094  18.680   2.899  1.00 20.00     0.006 A 
ENDBRANCH   2   4
ENDBRANCH   1   2
BRANCH   1   7
HETATM    7  N9  UNL     1     -32.578  19.086  -1.947  1.00 20.00     0.088 N 
HETATM    8  H26 UNL     1     -31.930  19.445  -2.654  1.00 20.00     0.316 HD
BRANCH   7   9
HETATM    9  C8  UNL     1     -33.584  18.260  -2.610  1.00 20.00     0.212 C 
HETATM   10  C4  UNL     1     -34.969  18.767  -2.237  1.00 20.00     0.042 C 
HETATM   11  C5  UNL     1     -33.384  16.811  -2.192  1.00 20.00     0.042 C 
ENDBRANCH   7   9
ENDBRANCH   1   7
TORSDOF 4
ENDMDL
MODEL 8
REMARK VINA RESULT:      -3.3     12.699     13.401
REMARK  4 active torsions:
REMARK  status: ('A' for Active; 'I' for Inactive)
REMARK    1  A    between atoms: C3_3  and  C7_7 
REMARK    2  A    between atoms: C6_6  and  C7_7 
REMARK    3  A    between atoms: C6_6  and  N9_9 
REMARK    4  A    between atoms: C8_8  and  N9_9 
ROOT
HETATM    1  C6  UNL     1     -34.125   6.695   3.801  1.00 20.00     0.290 C 
ENDROOT
BRANCH   1   2
HETATM    2  C7  UNL     1     -34.761   5.482   4.481  1.00 20.00     0.114 C 
HETATM    3 CL10 UNL     1     -33.875   3.986   4.052  1.00 20.00    -0.123 Cl
BRANCH   2   4
HETATM    4  C3  UNL     1     -34.841   5.613   5.998  1.00 20.00     0.006 A 
HETATM    5  C1  UNL     1     -33.589   5.561   6.829  1.00 20.00     0.006 A 
HETATM    6  C2  UNL     1     -34.338   6.856   6.678  1.00 20.00     0.006 A 
ENDBRANCH   2   4
ENDBRANCH   1   2
BRANCH   1   7
HETATM    7  N9  UNL     1     -32.859   6.369   3.187  1.00 20.00     0.088 N 
HETATM    8  H26 UNL     1     -33.016   5.989   2.249  1.00 20.00     0.316 HD
BRANCH   7   9
HETATM    9  C8  UNL     1     -32.000   7.546   3.078  1.00 20.00     0.212 C 
HETATM   10  C4  UNL     1     -32.380   8.542   4.163  1.00 20.00     0.042 C 
HETATM   11  C5  UNL     1     -32.156   8.142   1.686  1.00 20.00     0.042 C 
ENDBRANCH   7   9
ENDBRANCH   1   7
TORSDOF 4
ENDMDL
MODEL 9
REMARK VINA RESULT:      -3.3     11.363     12.311
REMARK  4 active torsions:
REMARK  status: ('A' for Active; 'I' for Inactive)
REMARK    1  A    between atoms: C3_3  and  C7_7 
REMARK    2  A    between atoms: C6_6  and  C7_7 
REMARK    3  A    between atoms: C6_6  and  N9_9 
REMARK    4  A    between atoms: C8_8  and  N9_9 
ROOT
HETATM    1  C6  UNL     1     -32.455   8.011   4.145  1.00 20.00     0.290 C 
ENDROOT
BRANCH   1   2
HETATM    2  C7  UNL     1     -32.156   7.573   2.711  1.00 20.00     0.114 C 
HETATM    3 CL10 UNL     1     -32.447   5.817   2.518  1.00 20.00    -0.123 Cl
BRANCH   2   4
HETATM    4  C3  UNL     1     -32.956   8.342   1.666  1.00 20.00     0.006 A 
HETATM    5  C1  UNL     1     -32.688   9.803   1.432  1.00 20.00     0.006 A 
HETATM    6  C2  UNL     1     -32.301   8.791   0.390  1.00 20.00     0.006 A 
ENDBRANCH   2   4
ENDBRANCH   1   2
BRANCH   1   7
HETATM    7  N9  UNL     1     -33.847   7.830   4.488  1.00 20.00     0.088 N 
HETATM    8  H26 UNL     1     -34.417   7.834   3.638  1.00 20.00     0.316 HD
BRANCH   7   9
HETATM    9  C8  UNL     1     -34.064   6.569   5.192  1.00 20.00     0.212 C 
HETATM   10  C4  UNL     1     -35.308   5.894   4.634  1.00 20.00     0.042 C 
HETATM   11  C5  UNL     1     -34.197   6.853   6.681  1.00 20.00     0.042 C 
ENDBRANCH   7   9
ENDBRANCH   1   7
TORSDOF 4
ENDMDL
