MODEL 1
REMARK VINA RESULT:      -3.9      0.000      0.000
REMARK  1 active torsions:
REMARK  status: ('A' for Active; 'I' for Inactive)
REMARK    1  A    between atoms: C1_1  and  C4_4 
ROOT
HETATM    1  C2  UNL     1     -35.778   6.131   4.266  1.00 20.00     0.042 C 
HETATM    2  C3  UNL     1     -34.410   5.948   6.384  1.00 20.00     0.042 C 
HETATM    3  C4  UNL     1     -34.386   5.907   4.856  1.00 20.00     0.105 C 
HETATM    4 CL7  UNL     1     -33.848   4.254   4.366  1.00 20.00    -0.110 Cl
ENDROOT
BRANCH   3   5
HETATM    5  C1  UNL     1     -33.366   6.910   4.284  1.00 20.00     0.241 C 
HETATM    6  O5  UNL     1     -32.683   6.675   3.290  1.00 20.00    -0.278 OA
HETATM    7 CL6  UNL     1     -33.277   8.407   5.186  1.00 20.00    -0.042 Cl
ENDBRANCH   3   5
TORSDOF 1
ENDMDL
MODEL 2
REMARK VINA RESULT:      -3.9      1.246      1.729
REMARK  1 active torsions:
REMARK  status: ('A' for Active; 'I' for Inactive)
REMARK    1  A    between atoms: C1_1  and  C4_4 
ROOT
HETATM    1  C2  UNL     1     -34.470   5.930   6.384  1.00 20.00     0.042 C 
HETATM    2  C3  UNL     1     -33.940   4.434   4.416  1.00 20.00     0.042 C 
HETATM    3  C4  UNL     1     -34.356   5.836   4.862  1.00 20.00     0.105 C 
HETATM    4 CL7  UNL     1     -35.993   6.161   4.172  1.00 20.00    -0.110 Cl
ENDROOT
BRANCH   3   5
HETATM    5  C1  UNL     1     -33.400   6.908   4.304  1.00 20.00     0.241 C 
HETATM    6  O5  UNL     1     -32.694   6.725   3.316  1.00 20.00    -0.278 OA
HETATM    7 CL6  UNL     1     -33.421   8.403   5.214  1.00 20.00    -0.042 Cl
ENDBRANCH   3   5
TORSDOF 1
ENDMDL
MODEL 3
REMARK VINA RESULT:      -3.9      2.161      2.575
REMARK  1 active torsions:
REMARK  status: ('A' for Active; 'I' for Inactive)
REMARK    1  A    between atoms: C1_1  and  C4_4 
ROOT
HETATM    1  C2  UNL     1     -33.690   7.397   4.617  1.00 20.00     0.042 C 
HETATM    2  C3  UNL     1     -34.603   5.766   6.318  1.00 20.00     0.042 C 
HETATM    3  C4  UNL     1     -34.455   6.091   4.832  1.00 20.00     0.105 C 
HETATM    4 CL7  UNL     1     -36.114   6.314   4.156  1.00 20.00    -0.110 Cl
ENDROOT
BRANCH   3   5
HETATM    5  C1  UNL     1     -33.800   4.925   4.067  1.00 20.00     0.241 C 
HETATM    6  O5  UNL     1     -33.919   3.751   4.407  1.00 20.00    -0.278 OA
HETATM    7 CL6  UNL     1     -32.873   5.438   2.673  1.00 20.00    -0.042 Cl
ENDBRANCH   3   5
TORSDOF 1
ENDMDL
MODEL 4
REMARK VINA RESULT:      -3.9      1.893      2.269
REMARK  1 active torsions:
REMARK  status: ('A' for Active; 'I' for Inactive)
REMARK    1  A    between atoms: C1_1  and  C4_4 
ROOT
HETATM    1  C2  UNL     1     -34.522   5.419   6.244  1.00 20.00     0.042 C 
HETATM    2  C3  UNL     1     -33.759   4.738   3.932  1.00 20.00     0.042 C 
HETATM    3  C4  UNL     1     -34.373   5.849   4.784  1.00 20.00     0.105 C 
HETATM    4 CL7  UNL     1     -36.029   6.174   4.141  1.00 20.00    -0.110 Cl
ENDROOT
BRANCH   3   5
HETATM    5  C1  UNL     1     -33.569   7.157   4.664  1.00 20.00     0.241 C 
HETATM    6  O5  UNL     1     -33.711   8.102   5.436  1.00 20.00    -0.278 OA
HETATM    7 CL6  UNL     1     -32.441   7.164   3.326  1.00 20.00    -0.042 Cl
ENDBRANCH   3   5
TORSDOF 1
ENDMDL
MODEL 5
REMARK VINA RESULT:      -3.8      1.449      1.449
REMARK  1 active torsions:
REMARK  status: ('A' for Active; 'I' for Inactive)
REMARK    1  A    between atoms: C1_1  and  C4_4 
ROOT
HETATM    1  C2  UNL     1     -35.801   6.146   4.238  1.00 20.00     0.042 C 
HETATM    2  C3  UNL     1     -34.418   5.437   6.232  1.00 20.00     0.042 C 
HETATM    3  C4  UNL     1     -34.389   5.955   4.794  1.00 20.00     0.105 C 
HETATM    4 CL7  UNL     1     -33.572   4.703   3.781  1.00 20.00    -0.110 Cl
ENDROOT
BRANCH   3   5
HETATM    5  C1  UNL     1     -33.562   7.249   4.680  1.00 20.00     0.241 C 
HETATM    6  O5  UNL     1     -33.701   8.201   5.445  1.00 20.00    -0.278 OA
HETATM    7 CL6  UNL     1     -32.413   7.230   3.360  1.00 20.00    -0.042 Cl
ENDBRANCH   3   5
TORSDOF 1
ENDMDL
MODEL 6
REMARK VINA RESULT:      -3.8      1.776      2.136
REMARK  1 active torsions:
REMARK  status: ('A' for Active; 'I' for Inactive)
REMARK    1  A    between atoms: C1_1  and  C4_4 
ROOT
HETATM    1  C2  UNL     1     -33.660   4.821   3.843  1.00 20.00     0.042 C 
HETATM    2  C3  UNL     1     -35.780   6.132   4.267  1.00 20.00     0.042 C 
HETATM    3  C4  UNL     1     -34.325   5.913   4.682  1.00 20.00     0.105 C 
HETATM    4 CL7  UNL     1     -34.327   5.353   6.399  1.00 20.00    -0.110 Cl
ENDROOT
BRANCH   3   5
HETATM    5  C1  UNL     1     -33.523   7.228   4.628  1.00 20.00     0.241 C 
HETATM    6  O5  UNL     1     -33.692   8.147   5.426  1.00 20.00    -0.278 OA
HETATM    7 CL6  UNL     1     -32.355   7.281   3.326  1.00 20.00    -0.042 Cl
ENDBRANCH   3   5
TORSDOF 1
ENDMDL
MODEL 7
REMARK VINA RESULT:      -3.7      2.093      2.538
REMARK  1 active torsions:
REMARK  status: ('A' for Active; 'I' for Inactive)
REMARK    1  A    between atoms: C1_1  and  C4_4 
ROOT
HETATM    1  C2  UNL     1     -35.877   6.321   4.228  1.00 20.00     0.042 C 
HETATM    2  C3  UNL     1     -33.602   7.342   4.639  1.00 20.00     0.042 C 
HETATM    3  C4  UNL     1     -34.462   6.084   4.756  1.00 20.00     0.105 C 
HETATM    4 CL7  UNL     1     -34.597   5.681   6.511  1.00 20.00    -0.110 Cl
ENDROOT
BRANCH   3   5
HETATM    5  C1  UNL     1     -33.797   4.883   4.058  1.00 20.00     0.241 C 
HETATM    6  O5  UNL     1     -33.889   3.731   4.477  1.00 20.00    -0.278 OA
HETATM    7 CL6  UNL     1     -32.901   5.319   2.619  1.00 20.00    -0.042 Cl
ENDBRANCH   3   5
TORSDOF 1
ENDMDL
MODEL 8
REMARK VINA RESULT:      -3.7      1.710      2.806
REMARK  1 active torsions:
REMARK  status: ('A' for Active; 'I' for Inactive)
REMARK    1  A    between atoms: C1_1  and  C4_4 
ROOT
HETATM    1  C2  UNL     1     -34.575   5.766   6.306  1.00 20.00     0.042 C 
HETATM    2  C3  UNL     1     -35.907   6.282   4.221  1.00 20.00     0.042 C 
HETATM    3  C4  UNL     1     -34.517   6.023   4.800  1.00 20.00     0.105 C 
HETATM    4 CL7  UNL     1     -33.534   7.516   4.541  1.00 20.00    -0.110 Cl
ENDROOT
BRANCH   3   5
HETATM    5  C1  UNL     1     -33.807   4.872   4.062  1.00 20.00     0.241 C 
HETATM    6  O5  UNL     1     -33.878   3.701   4.425  1.00 20.00    -0.278 OA
HETATM    7 CL6  UNL     1     -32.894   5.397   2.664  1.00 20.00    -0.042 Cl
ENDBRANCH   3   5
TORSDOF 1
ENDMDL
MODEL 9
REMARK VINA RESULT:      -3.3      8.879      9.552
REMARK  1 active torsions:
REMARK  status: ('A' for Active; 'I' for Inactive)
REMARK    1  A    between atoms: C1_1  and  C4_4 
ROOT
HETATM    1  C2  UNL     1     -41.357  13.686   4.746  1.00 20.00     0.042 C 
HETATM    2  C3  UNL     1     -40.615  14.375   7.062  1.00 20.00     0.042 C 
HETATM    3  C4  UNL     1     -40.907  13.203   6.125  1.00 20.00     0.105 C 
HETATM    4 CL7  UNL     1     -42.271  12.261   6.843  1.00 20.00    -0.110 Cl
ENDROOT
BRANCH   3   5
HETATM    5  C1  UNL     1     -39.698  12.254   6.021  1.00 20.00     0.241 C 
HETATM    6  O5  UNL     1     -39.050  11.887   6.998  1.00 20.00    -0.278 OA
HETATM    7 CL6  UNL     1     -39.342  11.755   4.382  1.00 20.00    -0.042 Cl
ENDBRANCH   3   5
TORSDOF 1
ENDMDL
