MODEL 1
REMARK VINA RESULT:      -4.3      0.000      0.000
REMARK  1 active torsions:
REMARK  status: ('A' for Active; 'I' for Inactive)
REMARK    1  A    between atoms: C2_2  and  C3_3 
ROOT
HETATM    1  C1  UNL     1     -32.798   6.645   3.451  1.00 20.00     0.112 C 
HETATM    2  C2  UNL     1     -33.576   7.000   4.479  1.00 20.00     0.090 C 
HETATM    3 CL6  UNL     1     -32.886   5.153   2.605  1.00 20.00    -0.095 Cl
HETATM    4 CL7  UNL     1     -33.420   8.528   5.278  1.00 20.00    -0.080 Cl
ENDROOT
BRANCH   2   5
HETATM    5  C3  UNL     1     -34.643   6.094   5.013  1.00 20.00     0.167 C 
HETATM    6  C4  UNL     1     -34.446   5.431   6.354  1.00 20.00     0.097 C 
HETATM    7  O5  UNL     1     -35.672   5.888   4.367  1.00 20.00    -0.292 OA
ENDBRANCH   2   5
TORSDOF 1
ENDMDL
MODEL 2
REMARK VINA RESULT:      -4.2      0.524      2.383
REMARK  1 active torsions:
REMARK  status: ('A' for Active; 'I' for Inactive)
REMARK    1  A    between atoms: C2_2  and  C3_3 
ROOT
HETATM    1  C1  UNL     1     -32.892   7.427   4.104  1.00 20.00     0.112 C 
HETATM    2  C2  UNL     1     -33.509   6.255   3.918  1.00 20.00     0.090 C 
HETATM    3 CL6  UNL     1     -33.328   8.605   5.275  1.00 20.00    -0.095 Cl
HETATM    4 CL7  UNL     1     -33.004   5.121   2.710  1.00 20.00    -0.080 Cl
ENDROOT
BRANCH   2   5
HETATM    5  C3  UNL     1     -34.685   5.840   4.748  1.00 20.00     0.167 C 
HETATM    6  C4  UNL     1     -34.457   5.342   6.155  1.00 20.00     0.097 C 
HETATM    7  O5  UNL     1     -35.828   5.902   4.292  1.00 20.00    -0.292 OA
ENDBRANCH   2   5
TORSDOF 1
ENDMDL
MODEL 3
REMARK VINA RESULT:      -3.7      1.424      1.506
REMARK  1 active torsions:
REMARK  status: ('A' for Active; 'I' for Inactive)
REMARK    1  A    between atoms: C2_2  and  C3_3 
ROOT
HETATM    1  C1  UNL     1     -32.898   7.533   4.394  1.00 20.00     0.112 C 
HETATM    2  C2  UNL     1     -33.842   6.914   5.110  1.00 20.00     0.090 C 
HETATM    3 CL6  UNL     1     -32.457   7.141   2.781  1.00 20.00    -0.095 Cl
HETATM    4 CL7  UNL     1     -34.226   7.373   6.735  1.00 20.00    -0.080 Cl
ENDROOT
BRANCH   2   5
HETATM    5  C3  UNL     1     -34.639   5.774   4.551  1.00 20.00     0.167 C 
HETATM    6  C4  UNL     1     -33.985   4.423   4.393  1.00 20.00     0.097 C 
HETATM    7  O5  UNL     1     -35.816   5.933   4.223  1.00 20.00    -0.292 OA
ENDBRANCH   2   5
TORSDOF 1
ENDMDL
MODEL 4
REMARK VINA RESULT:      -3.6      1.921      3.282
REMARK  1 active torsions:
REMARK  status: ('A' for Active; 'I' for Inactive)
REMARK    1  A    between atoms: C2_2  and  C3_3 
ROOT
HETATM    1  C1  UNL     1     -34.343   5.044   4.860  1.00 20.00     0.112 C 
HETATM    2  C2  UNL     1     -33.633   5.830   4.044  1.00 20.00     0.090 C 
HETATM    3 CL6  UNL     1     -34.945   5.498   6.403  1.00 20.00    -0.095 Cl
HETATM    4 CL7  UNL     1     -33.063   5.293   2.500  1.00 20.00    -0.080 Cl
ENDROOT
BRANCH   2   5
HETATM    5  C3  UNL     1     -33.282   7.239   4.412  1.00 20.00     0.167 C 
HETATM    6  C4  UNL     1     -32.137   7.924   3.705  1.00 20.00     0.097 C 
HETATM    7  O5  UNL     1     -33.917   7.837   5.281  1.00 20.00    -0.292 OA
ENDBRANCH   2   5
TORSDOF 1
ENDMDL
MODEL 5
REMARK VINA RESULT:      -3.6      1.920      2.737
REMARK  1 active torsions:
REMARK  status: ('A' for Active; 'I' for Inactive)
REMARK    1  A    between atoms: C2_2  and  C3_3 
ROOT
HETATM    1  C1  UNL     1     -33.609   7.540   5.605  1.00 20.00     0.112 C 
HETATM    2  C2  UNL     1     -33.312   7.172   4.355  1.00 20.00     0.090 C 
HETATM    3 CL6  UNL     1     -34.492   6.597   6.736  1.00 20.00    -0.095 Cl
HETATM    4 CL7  UNL     1     -32.414   8.186   3.276  1.00 20.00    -0.080 Cl
ENDROOT
BRANCH   2   5
HETATM    5  C3  UNL     1     -33.737   5.848   3.798  1.00 20.00     0.167 C 
HETATM    6  C4  UNL     1     -32.924   5.214   2.696  1.00 20.00     0.097 C 
HETATM    7  O5  UNL     1     -34.740   5.278   4.232  1.00 20.00    -0.292 OA
ENDBRANCH   2   5
TORSDOF 1
ENDMDL
MODEL 6
REMARK VINA RESULT:      -3.5      2.040      2.829
REMARK  1 active torsions:
REMARK  status: ('A' for Active; 'I' for Inactive)
REMARK    1  A    between atoms: C2_2  and  C3_3 
ROOT
HETATM    1  C1  UNL     1     -33.927   7.025   6.229  1.00 20.00     0.112 C 
HETATM    2  C2  UNL     1     -33.288   7.454   5.136  1.00 20.00     0.090 C 
HETATM    3 CL6  UNL     1     -34.732   5.515   6.381  1.00 20.00    -0.095 Cl
HETATM    4 CL7  UNL     1     -32.499   8.995   5.066  1.00 20.00    -0.080 Cl
ENDROOT
BRANCH   2   5
HETATM    5  C3  UNL     1     -33.208   6.626   3.890  1.00 20.00     0.167 C 
HETATM    6  C4  UNL     1     -32.263   7.040   2.788  1.00 20.00     0.097 C 
HETATM    7  O5  UNL     1     -33.904   5.618   3.761  1.00 20.00    -0.292 OA
ENDBRANCH   2   5
TORSDOF 1
ENDMDL
MODEL 7
REMARK VINA RESULT:      -3.5      2.051      2.659
REMARK  1 active torsions:
REMARK  status: ('A' for Active; 'I' for Inactive)
REMARK    1  A    between atoms: C2_2  and  C3_3 
ROOT
HETATM    1  C1  UNL     1     -33.861   5.511   4.049  1.00 20.00     0.112 C 
HETATM    2  C2  UNL     1     -33.617   6.670   4.671  1.00 20.00     0.090 C 
HETATM    3 CL6  UNL     1     -33.186   5.029   2.546  1.00 20.00    -0.095 Cl
HETATM    4 CL7  UNL     1     -34.341   7.079   6.190  1.00 20.00    -0.080 Cl
ENDROOT
BRANCH   2   5
HETATM    5  C3  UNL     1     -32.695   7.699   4.093  1.00 20.00     0.167 C 
HETATM    6  C4  UNL     1     -32.383   8.942   4.890  1.00 20.00     0.097 C 
HETATM    7  O5  UNL     1     -32.194   7.537   2.979  1.00 20.00    -0.292 OA
ENDBRANCH   2   5
TORSDOF 1
ENDMDL
MODEL 8
REMARK VINA RESULT:      -3.5      2.275      3.302
REMARK  1 active torsions:
REMARK  status: ('A' for Active; 'I' for Inactive)
REMARK    1  A    between atoms: C2_2  and  C3_3 
ROOT
HETATM    1  C1  UNL     1     -33.527   7.927   5.252  1.00 20.00     0.112 C 
HETATM    2  C2  UNL     1     -33.763   6.864   4.477  1.00 20.00     0.090 C 
HETATM    3 CL6  UNL     1     -32.264   9.067   5.019  1.00 20.00    -0.095 Cl
HETATM    4 CL7  UNL     1     -35.062   5.760   4.783  1.00 20.00    -0.080 Cl
ENDROOT
BRANCH   2   5
HETATM    5  C3  UNL     1     -32.914   6.553   3.282  1.00 20.00     0.167 C 
HETATM    6  C4  UNL     1     -32.926   5.155   2.711  1.00 20.00     0.097 C 
HETATM    7  O5  UNL     1     -32.213   7.425   2.767  1.00 20.00    -0.292 OA
ENDBRANCH   2   5
TORSDOF 1
ENDMDL
MODEL 9
REMARK VINA RESULT:      -3.4      2.141      2.367
REMARK  1 active torsions:
REMARK  status: ('A' for Active; 'I' for Inactive)
REMARK    1  A    between atoms: C2_2  and  C3_3 
ROOT
HETATM    1  C1  UNL     1     -32.884   6.055   2.949  1.00 20.00     0.112 C 
HETATM    2  C2  UNL     1     -33.612   5.977   4.069  1.00 20.00     0.090 C 
HETATM    3 CL6  UNL     1     -32.085   7.463   2.379  1.00 20.00    -0.095 Cl
HETATM    4 CL7  UNL     1     -34.387   4.513   4.573  1.00 20.00    -0.080 Cl
ENDROOT
BRANCH   2   5
HETATM    5  C3  UNL     1     -33.805   7.158   4.969  1.00 20.00     0.167 C 
HETATM    6  C4  UNL     1     -34.078   6.931   6.437  1.00 20.00     0.097 C 
HETATM    7  O5  UNL     1     -33.743   8.305   4.522  1.00 20.00    -0.292 OA
ENDBRANCH   2   5
TORSDOF 1
ENDMDL
