MODEL 1
REMARK VINA RESULT:      -3.9      0.000      0.000
REMARK  2 active torsions:
REMARK  status: ('A' for Active; 'I' for Inactive)
REMARK    1  A    between atoms: C1_1  and  C3_3 
REMARK    2  A    between atoms: C2_2  and  C5_5 
ROOT
HETATM    1  C1  UNL     1     -29.856  18.977   2.233  1.00 20.00     0.004 C 
HETATM    2  C2  UNL     1     -30.915  18.292   1.779  1.00 20.00     0.049 C 
ENDROOT
BRANCH   1   3
HETATM    3  C3  UNL     1     -29.317  18.789   3.562  1.00 20.00     0.007 C 
HETATM    4  C4  UNL     1     -28.005  18.790   3.820  1.00 20.00     0.056 C 
HETATM    5 BR8  UNL     1     -27.276  18.552   5.510  1.00 20.00    -0.064 Br
ENDBRANCH   1   3
BRANCH   2   6
HETATM    6  C5  UNL     1     -31.432  18.523   0.401  1.00 20.00     0.145 C 
HETATM    7  C6  UNL     1     -32.923  18.413   0.214  1.00 20.00     0.096 C 
HETATM    8  O7  UNL     1     -30.688  18.763  -0.546  1.00 20.00    -0.294 OA
ENDBRANCH   2   6
TORSDOF 2
ENDMDL
MODEL 2
REMARK VINA RESULT:      -3.9      5.602      7.065
REMARK  2 active torsions:
REMARK  status: ('A' for Active; 'I' for Inactive)
REMARK    1  A    between atoms: C1_1  and  C3_3 
REMARK    2  A    between atoms: C2_2  and  C5_5 
ROOT
HETATM    1  C1  UNL     1     -33.146  17.038  -1.969  1.00 20.00     0.004 C 
HETATM    2  C2  UNL     1     -32.426  18.159  -1.828  1.00 20.00     0.049 C 
ENDROOT
BRANCH   1   3
HETATM    3  C3  UNL     1     -33.759  16.657  -3.222  1.00 20.00     0.007 C 
HETATM    4  C4  UNL     1     -33.367  15.592  -3.930  1.00 20.00     0.056 C 
HETATM    5 BR8  UNL     1     -34.128  15.073  -5.540  1.00 20.00    -0.064 Br
ENDBRANCH   1   3
BRANCH   2   6
HETATM    6  C5  UNL     1     -31.814  18.506  -0.514  1.00 20.00     0.145 C 
HETATM    7  C6  UNL     1     -32.754  18.609   0.659  1.00 20.00     0.096 C 
HETATM    8  O7  UNL     1     -30.613  18.726  -0.388  1.00 20.00    -0.294 OA
ENDBRANCH   2   6
TORSDOF 2
ENDMDL
MODEL 3
REMARK VINA RESULT:      -3.8      5.429      6.916
REMARK  2 active torsions:
REMARK  status: ('A' for Active; 'I' for Inactive)
REMARK    1  A    between atoms: C1_1  and  C3_3 
REMARK    2  A    between atoms: C2_2  and  C5_5 
ROOT
HETATM    1  C1  UNL     1     -33.679  16.416  -2.676  1.00 20.00     0.004 C 
HETATM    2  C2  UNL     1     -33.107  15.786  -3.711  1.00 20.00     0.049 C 
ENDROOT
BRANCH   1   3
HETATM    3  C3  UNL     1     -32.974  17.386  -1.868  1.00 20.00     0.007 C 
HETATM    4  C4  UNL     1     -33.456  17.860  -0.714  1.00 20.00     0.056 C 
HETATM    5 BR8  UNL     1     -32.582  19.105   0.348  1.00 20.00    -0.064 Br
ENDBRANCH   1   3
BRANCH   2   6
HETATM    6  C5  UNL     1     -33.878  14.794  -4.513  1.00 20.00     0.145 C 
HETATM    7  C6  UNL     1     -34.025  15.085  -5.984  1.00 20.00     0.096 C 
HETATM    8  O7  UNL     1     -34.396  13.802  -4.006  1.00 20.00    -0.294 OA
ENDBRANCH   2   6
TORSDOF 2
ENDMDL
MODEL 4
REMARK VINA RESULT:      -3.7      4.054      5.416
REMARK  2 active torsions:
REMARK  status: ('A' for Active; 'I' for Inactive)
REMARK    1  A    between atoms: C1_1  and  C3_3 
REMARK    2  A    between atoms: C2_2  and  C5_5 
ROOT
HETATM    1  C1  UNL     1     -33.019  17.862  -2.048  1.00 20.00     0.004 C 
HETATM    2  C2  UNL     1     -33.294  16.601  -2.410  1.00 20.00     0.049 C 
ENDROOT
BRANCH   1   3
HETATM    3  C3  UNL     1     -32.610  18.217  -0.708  1.00 20.00     0.007 C 
HETATM    4  C4  UNL     1     -31.338  18.469  -0.378  1.00 20.00     0.056 C 
HETATM    5 BR8  UNL     1     -30.776  18.926   1.330  1.00 20.00    -0.064 Br
ENDBRANCH   1   3
BRANCH   2   6
HETATM    6  C5  UNL     1     -33.711  16.289  -3.806  1.00 20.00     0.145 C 
HETATM    7  C6  UNL     1     -33.719  14.834  -4.197  1.00 20.00     0.096 C 
HETATM    8  O7  UNL     1     -34.009  17.165  -4.613  1.00 20.00    -0.294 OA
ENDBRANCH   2   6
TORSDOF 2
ENDMDL
MODEL 5
REMARK VINA RESULT:      -3.6     12.272     12.714
REMARK  2 active torsions:
REMARK  status: ('A' for Active; 'I' for Inactive)
REMARK    1  A    between atoms: C1_1  and  C3_3 
REMARK    2  A    between atoms: C2_2  and  C5_5 
ROOT
HETATM    1  C1  UNL     1     -32.833   7.832   4.553  1.00 20.00     0.004 C 
HETATM    2  C2  UNL     1     -33.976   7.153   4.722  1.00 20.00     0.049 C 
ENDROOT
BRANCH   1   3
HETATM    3  C3  UNL     1     -32.472   8.452   3.297  1.00 20.00     0.007 C 
HETATM    4  C4  UNL     1     -32.446   7.784   2.138  1.00 20.00     0.056 C 
HETATM    5 BR8  UNL     1     -31.988   8.544   0.508  1.00 20.00    -0.064 Br
ENDBRANCH   1   3
BRANCH   2   6
HETATM    6  C5  UNL     1     -34.301   6.534   6.037  1.00 20.00     0.145 C 
HETATM    7  C6  UNL     1     -34.515   5.042   6.044  1.00 20.00     0.096 C 
HETATM    8  O7  UNL     1     -34.418   7.198   7.064  1.00 20.00    -0.294 OA
ENDBRANCH   2   6
TORSDOF 2
ENDMDL
MODEL 6
REMARK VINA RESULT:      -3.6      3.607      5.255
REMARK  2 active torsions:
REMARK  status: ('A' for Active; 'I' for Inactive)
REMARK    1  A    between atoms: C1_1  and  C3_3 
REMARK    2  A    between atoms: C2_2  and  C5_5 
ROOT
HETATM    1  C1  UNL     1     -29.215  18.819   3.714  1.00 20.00     0.004 C 
HETATM    2  C2  UNL     1     -27.961  19.195   3.427  1.00 20.00     0.049 C 
ENDROOT
BRANCH   1   3
HETATM    3  C3  UNL     1     -30.330  19.087   2.833  1.00 20.00     0.007 C 
HETATM    4  C4  UNL     1     -30.624  18.319   1.778  1.00 20.00     0.056 C 
HETATM    5 BR8  UNL     1     -32.044  18.631   0.626  1.00 20.00    -0.064 Br
ENDBRANCH   1   3
BRANCH   2   6
HETATM    6  C5  UNL     1     -26.846  18.894   4.370  1.00 20.00     0.145 C 
HETATM    7  C6  UNL     1     -27.234  18.565   5.788  1.00 20.00     0.096 C 
HETATM    8  O7  UNL     1     -25.668  18.936   4.026  1.00 20.00    -0.294 OA
ENDBRANCH   2   6
TORSDOF 2
ENDMDL
MODEL 7
REMARK VINA RESULT:      -3.6      5.372      6.927
REMARK  2 active torsions:
REMARK  status: ('A' for Active; 'I' for Inactive)
REMARK    1  A    between atoms: C1_1  and  C3_3 
REMARK    2  A    between atoms: C2_2  and  C5_5 
ROOT
HETATM    1  C1  UNL     1     -32.973  17.417  -1.865  1.00 20.00     0.004 C 
HETATM    2  C2  UNL     1     -33.525  17.793  -0.702  1.00 20.00     0.049 C 
ENDROOT
BRANCH   1   3
HETATM    3  C3  UNL     1     -33.712  16.708  -2.885  1.00 20.00     0.007 C 
HETATM    4  C4  UNL     1     -33.157  15.780  -3.673  1.00 20.00     0.056 C 
HETATM    5 BR8  UNL     1     -34.072  14.850  -4.992  1.00 20.00    -0.064 Br
ENDBRANCH   1   3
BRANCH   2   6
HETATM    6  C5  UNL     1     -32.719  18.523   0.317  1.00 20.00     0.145 C 
HETATM    7  C6  UNL     1     -31.237  18.618   0.061  1.00 20.00     0.096 C 
HETATM    8  O7  UNL     1     -33.221  19.002   1.330  1.00 20.00    -0.294 OA
ENDBRANCH   2   6
TORSDOF 2
ENDMDL
MODEL 8
REMARK VINA RESULT:      -3.6      6.264      7.767
REMARK  2 active torsions:
REMARK  status: ('A' for Active; 'I' for Inactive)
REMARK    1  A    between atoms: C1_1  and  C3_3 
REMARK    2  A    between atoms: C2_2  and  C5_5 
ROOT
HETATM    1  C1  UNL     1     -33.498  15.842  -3.628  1.00 20.00     0.004 C 
HETATM    2  C2  UNL     1     -34.150  16.182  -4.749  1.00 20.00     0.049 C 
ENDROOT
BRANCH   1   3
HETATM    3  C3  UNL     1     -33.037  16.820  -2.668  1.00 20.00     0.007 C 
HETATM    4  C4  UNL     1     -33.706  17.109  -1.546  1.00 20.00     0.056 C 
HETATM    5 BR8  UNL     1     -33.147  18.357  -0.292  1.00 20.00    -0.064 Br
ENDBRANCH   1   3
BRANCH   2   6
HETATM    6  C5  UNL     1     -34.604  15.135  -5.707  1.00 20.00     0.145 C 
HETATM    7  C6  UNL     1     -35.868  14.398  -5.349  1.00 20.00     0.096 C 
HETATM    8  O7  UNL     1     -33.973  14.859  -6.724  1.00 20.00    -0.294 OA
ENDBRANCH   2   6
TORSDOF 2
ENDMDL
MODEL 9
REMARK VINA RESULT:      -3.5      2.243      3.040
REMARK  2 active torsions:
REMARK  status: ('A' for Active; 'I' for Inactive)
REMARK    1  A    between atoms: C1_1  and  C3_3 
REMARK    2  A    between atoms: C2_2  and  C5_5 
ROOT
HETATM    1  C1  UNL     1     -32.041  18.599   0.451  1.00 20.00     0.004 C 
HETATM    2  C2  UNL     1     -32.090  18.187  -0.823  1.00 20.00     0.049 C 
ENDROOT
BRANCH   1   3
HETATM    3  C3  UNL     1     -30.807  18.985   1.099  1.00 20.00     0.007 C 
HETATM    4  C4  UNL     1     -30.482  18.592   2.336  1.00 20.00     0.056 C 
HETATM    5 BR8  UNL     1     -28.911  19.067   3.200  1.00 20.00    -0.064 Br
ENDBRANCH   1   3
BRANCH   2   6
HETATM    6  C5  UNL     1     -33.388  17.800  -1.445  1.00 20.00     0.145 C 
HETATM    7  C6  UNL     1     -33.342  16.695  -2.467  1.00 20.00     0.096 C 
HETATM    8  O7  UNL     1     -34.442  18.366  -1.166  1.00 20.00    -0.294 OA
ENDBRANCH   2   6
TORSDOF 2
ENDMDL
