MODEL 1
REMARK VINA RESULT:      -4.4      0.000      0.000
REMARK  5 active torsions:
REMARK  status: ('A' for Active; 'I' for Inactive)
REMARK    1  A    between atoms: C2_2  and  C9_9 
REMARK    2  A    between atoms: C3_3  and  C8_8 
REMARK    3  A    between atoms: C4_4  and  C10_10 
REMARK    4  A    between atoms: C8_8  and  C9_9 
REMARK    5  A    between atoms: C10_10  and  O11_11 
ROOT
HETATM    1  C3  UNL     1     -34.021  17.386  -3.476  1.00 20.00    -0.027 C 
HETATM    2  C4  UNL     1     -34.203  16.748  -4.643  1.00 20.00     0.006 C 
ENDROOT
BRANCH   1   3
HETATM    3  C8  UNL     1     -33.394  16.748  -2.267  1.00 20.00     0.035 C 
BRANCH   3   4
HETATM    4  C9  UNL     1     -33.326  17.705  -1.062  1.00 20.00     0.006 C 
HETATM    5  C5  UNL     1     -34.505  18.682  -1.101  1.00 20.00     0.014 C 
BRANCH   4   6
HETATM    6  C2  UNL     1     -32.032  18.484  -1.047  1.00 20.00    -0.032 C 
HETATM    7  C1  UNL     1     -31.207  18.544   0.004  1.00 20.00     0.007 C 
ENDBRANCH   4   6
ENDBRANCH   3   4
ENDBRANCH   1   3
BRANCH   2   8
HETATM    8  C10 UNL     1     -33.831  15.317  -4.969  1.00 20.00     0.068 C 
HETATM    9  C6  UNL     1     -34.586  14.239  -4.184  1.00 20.00     0.050 C 
HETATM   10  C7  UNL     1     -34.011  15.079  -6.471  1.00 20.00     0.050 C 
BRANCH   8  11
HETATM   11  O11 UNL     1     -32.435  15.159  -4.687  1.00 20.00    -0.387 OA
HETATM   12  H29 UNL     1     -32.038  14.798  -5.492  1.00 20.00     0.211 HD
ENDBRANCH   8  11
ENDBRANCH   2   8
TORSDOF 5
ENDMDL
MODEL 2
REMARK VINA RESULT:      -4.1      1.637      2.262
REMARK  5 active torsions:
REMARK  status: ('A' for Active; 'I' for Inactive)
REMARK    1  A    between atoms: C2_2  and  C9_9 
REMARK    2  A    between atoms: C3_3  and  C8_8 
REMARK    3  A    between atoms: C4_4  and  C10_10 
REMARK    4  A    between atoms: C8_8  and  C9_9 
REMARK    5  A    between atoms: C10_10  and  O11_11 
ROOT
HETATM    1  C3  UNL     1     -33.697  15.041  -3.732  1.00 20.00    -0.027 C 
HETATM    2  C4  UNL     1     -34.488  14.423  -4.623  1.00 20.00     0.006 C 
ENDROOT
BRANCH   1   3
HETATM    3  C8  UNL     1     -33.315  16.494  -3.823  1.00 20.00     0.035 C 
BRANCH   3   4
HETATM    4  C9  UNL     1     -34.088  17.371  -2.819  1.00 20.00     0.006 C 
HETATM    5  C5  UNL     1     -34.181  18.808  -3.341  1.00 20.00     0.014 C 
BRANCH   4   6
HETATM    6  C2  UNL     1     -33.424  17.374  -1.463  1.00 20.00    -0.032 C 
HETATM    7  C1  UNL     1     -32.362  18.126  -1.153  1.00 20.00     0.007 C 
ENDBRANCH   4   6
ENDBRANCH   3   4
ENDBRANCH   1   3
BRANCH   2   8
HETATM    8  C10 UNL     1     -35.132  15.033  -5.850  1.00 20.00     0.068 C 
HETATM    9  C6  UNL     1     -36.066  16.220  -5.588  1.00 20.00     0.050 C 
HETATM   10  C7  UNL     1     -34.039  15.448  -6.839  1.00 20.00     0.050 C 
BRANCH   8  11
HETATM   11  O11 UNL     1     -35.904  14.009  -6.488  1.00 20.00    -0.387 OA
HETATM   12  H29 UNL     1     -36.679  14.451  -6.863  1.00 20.00     0.211 HD
ENDBRANCH   8  11
ENDBRANCH   2   8
TORSDOF 5
ENDMDL
MODEL 3
REMARK VINA RESULT:      -4.1     11.860     13.022
REMARK  5 active torsions:
REMARK  status: ('A' for Active; 'I' for Inactive)
REMARK    1  A    between atoms: C2_2  and  C9_9 
REMARK    2  A    between atoms: C3_3  and  C8_8 
REMARK    3  A    between atoms: C4_4  and  C10_10 
REMARK    4  A    between atoms: C8_8  and  C9_9 
REMARK    5  A    between atoms: C10_10  and  O11_11 
ROOT
HETATM    1  C3  UNL     1     -33.386   7.626   5.862  1.00 20.00    -0.027 C 
HETATM    2  C4  UNL     1     -33.783   6.401   6.243  1.00 20.00     0.006 C 
ENDROOT
BRANCH   1   3
HETATM    3  C8  UNL     1     -33.746   8.244   4.538  1.00 20.00     0.035 C 
BRANCH   3   4
HETATM    4  C9  UNL     1     -32.512   8.513   3.656  1.00 20.00     0.006 C 
HETATM    5  C5  UNL     1     -32.898   9.401   2.470  1.00 20.00     0.014 C 
BRANCH   4   6
HETATM    6  C2  UNL     1     -31.909   7.227   3.143  1.00 20.00    -0.032 C 
HETATM    7  C1  UNL     1     -32.533   6.392   2.305  1.00 20.00     0.007 C 
ENDBRANCH   4   6
ENDBRANCH   3   4
ENDBRANCH   1   3
BRANCH   2   8
HETATM    8  C10 UNL     1     -34.639   5.433   5.455  1.00 20.00     0.068 C 
HETATM    9  C6  UNL     1     -35.588   6.066   4.433  1.00 20.00     0.050 C 
HETATM   10  C7  UNL     1     -33.734   4.416   4.755  1.00 20.00     0.050 C 
BRANCH   8  11
HETATM   11  O11 UNL     1     -35.439   4.702   6.392  1.00 20.00    -0.387 OA
HETATM   12  H29 UNL     1     -35.782   3.935   5.912  1.00 20.00     0.211 HD
ENDBRANCH   8  11
ENDBRANCH   2   8
TORSDOF 5
ENDMDL
MODEL 4
REMARK VINA RESULT:      -4.1      1.969      2.751
REMARK  5 active torsions:
REMARK  status: ('A' for Active; 'I' for Inactive)
REMARK    1  A    between atoms: C2_2  and  C9_9 
REMARK    2  A    between atoms: C3_3  and  C8_8 
REMARK    3  A    between atoms: C4_4  and  C10_10 
REMARK    4  A    between atoms: C8_8  and  C9_9 
REMARK    5  A    between atoms: C10_10  and  O11_11 
ROOT
HETATM    1  C3  UNL     1     -33.204  15.335  -4.703  1.00 20.00    -0.027 C 
HETATM    2  C4  UNL     1     -33.989  14.920  -5.710  1.00 20.00     0.006 C 
ENDROOT
BRANCH   1   3
HETATM    3  C8  UNL     1     -33.717  15.653  -3.324  1.00 20.00     0.035 C 
BRANCH   3   4
HETATM    4  C9  UNL     1     -33.259  17.038  -2.829  1.00 20.00     0.006 C 
HETATM    5  C5  UNL     1     -33.662  17.232  -1.365  1.00 20.00     0.014 C 
BRANCH   4   6
HETATM    6  C2  UNL     1     -33.855  18.147  -3.664  1.00 20.00    -0.032 C 
HETATM    7  C1  UNL     1     -33.131  19.052  -4.331  1.00 20.00     0.007 C 
ENDBRANCH   4   6
ENDBRANCH   3   4
ENDBRANCH   1   3
BRANCH   2   8
HETATM    8  C10 UNL     1     -35.486  14.695  -5.668  1.00 20.00     0.068 C 
HETATM    9  C6  UNL     1     -35.983  13.741  -4.577  1.00 20.00     0.050 C 
HETATM   10  C7  UNL     1     -36.194  16.046  -5.532  1.00 20.00     0.050 C 
BRANCH   8  11
HETATM   11  O11 UNL     1     -35.876  14.146  -6.932  1.00 20.00    -0.387 OA
HETATM   12  H29 UNL     1     -35.463  13.273  -6.985  1.00 20.00     0.211 HD
ENDBRANCH   8  11
ENDBRANCH   2   8
TORSDOF 5
ENDMDL
MODEL 5
REMARK VINA RESULT:      -4.0      1.656      2.132
REMARK  5 active torsions:
REMARK  status: ('A' for Active; 'I' for Inactive)
REMARK    1  A    between atoms: C2_2  and  C9_9 
REMARK    2  A    between atoms: C3_3  and  C8_8 
REMARK    3  A    between atoms: C4_4  and  C10_10 
REMARK    4  A    between atoms: C8_8  and  C9_9 
REMARK    5  A    between atoms: C10_10  and  O11_11 
ROOT
HETATM    1  C3  UNL     1     -33.346  16.572  -2.449  1.00 20.00    -0.027 C 
HETATM    2  C4  UNL     1     -33.563  16.334  -3.752  1.00 20.00     0.006 C 
ENDROOT
BRANCH   1   3
HETATM    3  C8  UNL     1     -33.981  17.706  -1.691  1.00 20.00     0.035 C 
BRANCH   3   4
HETATM    4  C9  UNL     1     -33.283  17.982  -0.346  1.00 20.00     0.006 C 
HETATM    5  C5  UNL     1     -34.096  18.991   0.470  1.00 20.00     0.014 C 
BRANCH   4   6
HETATM    6  C2  UNL     1     -31.884  18.514  -0.549  1.00 20.00    -0.032 C 
HETATM    7  C1  UNL     1     -30.954  18.554   0.411  1.00 20.00     0.007 C 
ENDBRANCH   4   6
ENDBRANCH   3   4
ENDBRANCH   1   3
BRANCH   2   8
HETATM    8  C10 UNL     1     -34.453  17.124  -4.688  1.00 20.00     0.068 C 
HETATM    9  C6  UNL     1     -34.029  18.574  -4.943  1.00 20.00     0.050 C 
HETATM   10  C7  UNL     1     -34.568  16.381  -6.022  1.00 20.00     0.050 C 
BRANCH   8  11
HETATM   11  O11 UNL     1     -35.766  17.153  -4.114  1.00 20.00    -0.387 OA
HETATM   12  H29 UNL     1     -35.672  16.817  -3.212  1.00 20.00     0.211 HD
ENDBRANCH   8  11
ENDBRANCH   2   8
TORSDOF 5
ENDMDL
MODEL 6
REMARK VINA RESULT:      -4.0     11.402     12.768
REMARK  5 active torsions:
REMARK  status: ('A' for Active; 'I' for Inactive)
REMARK    1  A    between atoms: C2_2  and  C9_9 
REMARK    2  A    between atoms: C3_3  and  C8_8 
REMARK    3  A    between atoms: C4_4  and  C10_10 
REMARK    4  A    between atoms: C8_8  and  C9_9 
REMARK    5  A    between atoms: C10_10  and  O11_11 
ROOT
HETATM    1  C3  UNL     1     -33.085   5.140   3.190  1.00 20.00    -0.027 C 
HETATM    2  C4  UNL     1     -33.638   4.785   4.360  1.00 20.00     0.006 C 
ENDROOT
BRANCH   1   3
HETATM    3  C8  UNL     1     -33.378   6.439   2.490  1.00 20.00     0.035 C 
BRANCH   3   4
HETATM    4  C9  UNL     1     -32.197   7.427   2.559  1.00 20.00     0.006 C 
HETATM    5  C5  UNL     1     -32.437   8.455   3.667  1.00 20.00     0.014 C 
BRANCH   4   6
HETATM    6  C2  UNL     1     -32.000   8.144   1.244  1.00 20.00    -0.032 C 
HETATM    7  C1  UNL     1     -32.680   9.236   0.880  1.00 20.00     0.007 C 
ENDBRANCH   4   6
ENDBRANCH   3   4
ENDBRANCH   1   3
BRANCH   2   8
HETATM    8  C10 UNL     1     -34.627   5.584   5.182  1.00 20.00     0.068 C 
HETATM    9  C6  UNL     1     -34.033   6.738   5.997  1.00 20.00     0.050 C 
HETATM   10  C7  UNL     1     -35.730   6.117   4.264  1.00 20.00     0.050 C 
BRANCH   8  11
HETATM   11  O11 UNL     1     -35.252   4.682   6.104  1.00 20.00    -0.387 OA
HETATM   12  H29 UNL     1     -35.695   5.235   6.762  1.00 20.00     0.211 HD
ENDBRANCH   8  11
ENDBRANCH   2   8
TORSDOF 5
ENDMDL
MODEL 7
REMARK VINA RESULT:      -3.8     10.922     12.231
REMARK  5 active torsions:
REMARK  status: ('A' for Active; 'I' for Inactive)
REMARK    1  A    between atoms: C2_2  and  C9_9 
REMARK    2  A    between atoms: C3_3  and  C8_8 
REMARK    3  A    between atoms: C4_4  and  C10_10 
REMARK    4  A    between atoms: C8_8  and  C9_9 
REMARK    5  A    between atoms: C10_10  and  O11_11 
ROOT
HETATM    1  C3  UNL     1     -33.060   7.883   4.573  1.00 20.00    -0.027 C 
HETATM    2  C4  UNL     1     -33.967   7.169   5.259  1.00 20.00     0.006 C 
ENDROOT
BRANCH   1   3
HETATM    3  C8  UNL     1     -32.408   7.403   3.304  1.00 20.00     0.035 C 
BRANCH   3   4
HETATM    4  C9  UNL     1     -32.050   8.560   2.351  1.00 20.00     0.006 C 
HETATM    5  C5  UNL     1     -32.968   9.757   2.611  1.00 20.00     0.014 C 
BRANCH   4   6
HETATM    6  C2  UNL     1     -32.172   8.141   0.905  1.00 20.00    -0.032 C 
HETATM    7  C1  UNL     1     -32.744   8.889  -0.044  1.00 20.00     0.007 C 
ENDBRANCH   4   6
ENDBRANCH   3   4
ENDBRANCH   1   3
BRANCH   2   8
HETATM    8  C10 UNL     1     -34.498   5.795   4.912  1.00 20.00     0.068 C 
HETATM    9  C6  UNL     1     -33.748   5.054   3.799  1.00 20.00     0.050 C 
HETATM   10  C7  UNL     1     -34.526   4.931   6.175  1.00 20.00     0.050 C 
BRANCH   8  11
HETATM   11  O11 UNL     1     -35.857   5.952   4.485  1.00 20.00    -0.387 OA
HETATM   12  H29 UNL     1     -35.919   5.519   3.622  1.00 20.00     0.211 HD
ENDBRANCH   8  11
ENDBRANCH   2   8
TORSDOF 5
ENDMDL
MODEL 8
REMARK VINA RESULT:      -3.6      1.620      2.375
REMARK  5 active torsions:
REMARK  status: ('A' for Active; 'I' for Inactive)
REMARK    1  A    between atoms: C2_2  and  C9_9 
REMARK    2  A    between atoms: C3_3  and  C8_8 
REMARK    3  A    between atoms: C4_4  and  C10_10 
REMARK    4  A    between atoms: C8_8  and  C9_9 
REMARK    5  A    between atoms: C10_10  and  O11_11 
ROOT
HETATM    1  C3  UNL     1     -34.874  17.802  -5.621  1.00 20.00    -0.027 C 
HETATM    2  C4  UNL     1     -34.454  16.743  -6.332  1.00 20.00     0.006 C 
ENDROOT
BRANCH   1   3
HETATM    3  C8  UNL     1     -35.291  17.724  -4.178  1.00 20.00     0.035 C 
BRANCH   3   4
HETATM    4  C9  UNL     1     -34.525  18.721  -3.287  1.00 20.00     0.006 C 
HETATM    5  C5  UNL     1     -33.120  18.954  -3.849  1.00 20.00     0.014 C 
BRANCH   4   6
HETATM    6  C2  UNL     1     -34.418  18.222  -1.865  1.00 20.00    -0.032 C 
HETATM    7  C1  UNL     1     -33.565  17.272  -1.469  1.00 20.00     0.007 C 
ENDBRANCH   4   6
ENDBRANCH   3   4
ENDBRANCH   1   3
BRANCH   2   8
HETATM    8  C10 UNL     1     -34.319  15.315  -5.849  1.00 20.00     0.068 C 
HETATM    9  C6  UNL     1     -33.600  15.133  -4.508  1.00 20.00     0.050 C 
HETATM   10  C7  UNL     1     -35.707  14.673  -5.778  1.00 20.00     0.050 C 
BRANCH   8  11
HETATM   11  O11 UNL     1     -33.576  14.592  -6.838  1.00 20.00    -0.387 OA
HETATM   12  H29 UNL     1     -34.216  14.028  -7.295  1.00 20.00     0.211 HD
ENDBRANCH   8  11
ENDBRANCH   2   8
TORSDOF 5
ENDMDL
MODEL 9
REMARK VINA RESULT:      -3.6      1.895      5.270
REMARK  5 active torsions:
REMARK  status: ('A' for Active; 'I' for Inactive)
REMARK    1  A    between atoms: C2_2  and  C9_9 
REMARK    2  A    between atoms: C3_3  and  C8_8 
REMARK    3  A    between atoms: C4_4  and  C10_10 
REMARK    4  A    between atoms: C8_8  and  C9_9 
REMARK    5  A    between atoms: C10_10  and  O11_11 
ROOT
HETATM    1  C3  UNL     1     -33.405  15.714  -3.668  1.00 20.00    -0.027 C 
HETATM    2  C4  UNL     1     -33.374  16.426  -2.530  1.00 20.00     0.006 C 
ENDROOT
BRANCH   1   3
HETATM    3  C8  UNL     1     -34.005  16.220  -4.952  1.00 20.00     0.035 C 
BRANCH   3   4
HETATM    4  C9  UNL     1     -34.334  15.083  -5.939  1.00 20.00     0.006 C 
HETATM    5  C5  UNL     1     -34.002  15.519  -7.369  1.00 20.00     0.014 C 
BRANCH   4   6
HETATM    6  C2  UNL     1     -35.789  14.688  -5.861  1.00 20.00    -0.032 C 
HETATM    7  C1  UNL     1     -36.772  15.524  -5.510  1.00 20.00     0.007 C 
ENDBRANCH   4   6
ENDBRANCH   3   4
ENDBRANCH   1   3
BRANCH   2   8
HETATM    8  C10 UNL     1     -33.912  17.824  -2.314  1.00 20.00     0.068 C 
HETATM    9  C6  UNL     1     -33.987  18.288  -0.855  1.00 20.00     0.050 C 
HETATM   10  C7  UNL     1     -33.076  18.817  -3.125  1.00 20.00     0.050 C 
BRANCH   8  11
HETATM   11  O11 UNL     1     -35.240  17.864  -2.848  1.00 20.00    -0.387 OA
HETATM   12  H29 UNL     1     -35.179  17.509  -3.746  1.00 20.00     0.211 HD
ENDBRANCH   8  11
ENDBRANCH   2   8
TORSDOF 5
ENDMDL
