MODEL 1
REMARK VINA RESULT:      -3.8      0.000      0.000
REMARK  0 active torsions:
REMARK  status: ('A' for Active; 'I' for Inactive)
ROOT
HETATM    1  C1  UNL     1     -34.250   5.953   5.842  1.00 20.00     0.102 C 
HETATM    2  C2  UNL     1     -33.335   8.183   5.390  1.00 20.00     0.075 A 
HETATM    3  C3  UNL     1     -33.594   6.893   4.985  1.00 20.00     0.075 A 
HETATM    4  C4  UNL     1     -33.137   6.646   3.659  1.00 20.00     0.084 A 
HETATM    5  C5  UNL     1     -32.547   7.758   3.100  1.00 20.00     0.097 A 
HETATM    6  N6  UNL     1     -34.782   5.191   6.536  1.00 20.00    -0.191 NA
HETATM    7  S7  UNL     1     -32.545   9.092   4.172  1.00 20.00    -0.086 SA
HETATM    8 CL8  UNL     1     -33.314   5.130   2.871  1.00 20.00    -0.080 Cl
HETATM    9 CL9  UNL     1     -31.854   7.938   1.538  1.00 20.00    -0.074 Cl
ENDROOT
TORSDOF 0
ENDMDL
MODEL 2
REMARK VINA RESULT:      -3.6     12.727     13.298
REMARK  0 active torsions:
REMARK  status: ('A' for Active; 'I' for Inactive)
ROOT
HETATM    1  C1  UNL     1     -35.632  15.185  -6.425  1.00 20.00     0.102 C 
HETATM    2  C2  UNL     1     -35.814  17.335  -5.258  1.00 20.00     0.075 A 
HETATM    3  C3  UNL     1     -35.226  16.098  -5.400  1.00 20.00     0.075 A 
HETATM    4  C4  UNL     1     -34.207  15.874  -4.430  1.00 20.00     0.084 A 
HETATM    5  C5  UNL     1     -34.055  16.950  -3.582  1.00 20.00     0.097 A 
HETATM    6  N6  UNL     1     -35.961  14.445  -7.255  1.00 20.00    -0.191 NA
HETATM    7  S7  UNL     1     -35.138  18.221  -3.957  1.00 20.00    -0.086 SA
HETATM    8 CL8  UNL     1     -33.290  14.424  -4.348  1.00 20.00    -0.080 Cl
HETATM    9 CL9  UNL     1     -32.964  17.139  -2.269  1.00 20.00    -0.074 Cl
ENDROOT
TORSDOF 0
ENDMDL
MODEL 3
REMARK VINA RESULT:      -3.6      2.745      3.677
REMARK  0 active torsions:
REMARK  status: ('A' for Active; 'I' for Inactive)
ROOT
HETATM    1  C1  UNL     1     -32.274   7.900   2.191  1.00 20.00     0.102 C 
HETATM    2  C2  UNL     1     -32.884   8.542   4.479  1.00 20.00     0.075 A 
HETATM    3  C3  UNL     1     -32.825   7.598   3.477  1.00 20.00     0.075 A 
HETATM    4  C4  UNL     1     -33.362   6.345   3.890  1.00 20.00     0.084 A 
HETATM    5  C5  UNL     1     -33.811   6.379   5.192  1.00 20.00     0.097 A 
HETATM    6  N6  UNL     1     -31.828   8.144   1.149  1.00 20.00    -0.191 NA
HETATM    7  S7  UNL     1     -33.585   7.915   5.910  1.00 20.00    -0.086 SA
HETATM    8 CL8  UNL     1     -33.429   4.969   2.865  1.00 20.00    -0.080 Cl
HETATM    9 CL9  UNL     1     -34.531   5.121   6.114  1.00 20.00    -0.074 Cl
ENDROOT
TORSDOF 0
ENDMDL
MODEL 4
REMARK VINA RESULT:      -3.5      3.388      4.344
REMARK  0 active torsions:
REMARK  status: ('A' for Active; 'I' for Inactive)
ROOT
HETATM    1  C1  UNL     1     -32.343   7.517   2.191  1.00 20.00     0.102 C 
HETATM    2  C2  UNL     1     -33.227   5.350   2.923  1.00 20.00     0.075 A 
HETATM    3  C3  UNL     1     -32.985   6.685   3.161  1.00 20.00     0.075 A 
HETATM    4  C4  UNL     1     -33.444   7.091   4.446  1.00 20.00     0.084 A 
HETATM    5  C5  UNL     1     -34.022   6.052   5.142  1.00 20.00     0.097 A 
HETATM    6  N6  UNL     1     -31.822   8.192   1.404  1.00 20.00    -0.191 NA
HETATM    7  S7  UNL     1     -34.007   4.593   4.247  1.00 20.00    -0.086 SA
HETATM    8 CL8  UNL     1     -33.287   8.697   5.036  1.00 20.00    -0.080 Cl
HETATM    9 CL9  UNL     1     -34.711   6.061   6.716  1.00 20.00    -0.074 Cl
ENDROOT
TORSDOF 0
ENDMDL
MODEL 5
REMARK VINA RESULT:      -3.3     12.935     13.688
REMARK  0 active torsions:
REMARK  status: ('A' for Active; 'I' for Inactive)
ROOT
HETATM    1  C1  UNL     1     -35.478  14.937  -6.358  1.00 20.00     0.102 C 
HETATM    2  C2  UNL     1     -33.976  15.081  -4.424  1.00 20.00     0.075 A 
HETATM    3  C3  UNL     1     -34.823  15.684  -5.327  1.00 20.00     0.075 A 
HETATM    4  C4  UNL     1     -34.945  17.083  -5.095  1.00 20.00     0.084 A 
HETATM    5  C5  UNL     1     -34.186  17.498  -4.022  1.00 20.00     0.097 A 
HETATM    6  N6  UNL     1     -36.009  14.333  -7.193  1.00 20.00    -0.191 NA
HETATM    7  S7  UNL     1     -33.332  16.202  -3.301  1.00 20.00    -0.086 SA
HETATM    8 CL8  UNL     1     -35.930  18.113  -6.054  1.00 20.00    -0.080 Cl
HETATM    9 CL9  UNL     1     -34.015  19.079  -3.372  1.00 20.00    -0.074 Cl
ENDROOT
TORSDOF 0
ENDMDL
MODEL 6
REMARK VINA RESULT:      -3.3      2.767      3.348
REMARK  0 active torsions:
REMARK  status: ('A' for Active; 'I' for Inactive)
ROOT
HETATM    1  C1  UNL     1     -32.937   5.256   2.482  1.00 20.00     0.102 C 
HETATM    2  C2  UNL     1     -32.280   7.465   3.322  1.00 20.00     0.075 A 
HETATM    3  C3  UNL     1     -32.985   6.290   3.469  1.00 20.00     0.075 A 
HETATM    4  C4  UNL     1     -33.726   6.260   4.685  1.00 20.00     0.084 A 
HETATM    5  C5  UNL     1     -33.559   7.412   5.422  1.00 20.00     0.097 A 
HETATM    6  N6  UNL     1     -32.899   4.417   1.682  1.00 20.00    -0.191 NA
HETATM    7  S7  UNL     1     -32.513   8.524   4.647  1.00 20.00    -0.086 SA
HETATM    8 CL8  UNL     1     -34.704   4.929   5.156  1.00 20.00    -0.080 Cl
HETATM    9 CL9  UNL     1     -34.247   7.828   6.940  1.00 20.00    -0.074 Cl
ENDROOT
TORSDOF 0
ENDMDL
MODEL 7
REMARK VINA RESULT:      -3.2      3.173      3.821
REMARK  0 active torsions:
REMARK  status: ('A' for Active; 'I' for Inactive)
ROOT
HETATM    1  C1  UNL     1     -32.176   9.061   4.815  1.00 20.00     0.102 C 
HETATM    2  C2  UNL     1     -32.284   7.292   3.119  1.00 20.00     0.075 A 
HETATM    3  C3  UNL     1     -32.664   7.802   4.341  1.00 20.00     0.075 A 
HETATM    4  C4  UNL     1     -33.567   6.939   5.024  1.00 20.00     0.084 A 
HETATM    5  C5  UNL     1     -33.844   5.801   4.299  1.00 20.00     0.097 A 
HETATM    6  N6  UNL     1     -31.781  10.082   5.199  1.00 20.00    -0.191 NA
HETATM    7  S7  UNL     1     -33.015   5.777   2.801  1.00 20.00    -0.086 SA
HETATM    8 CL8  UNL     1     -34.222   7.298   6.571  1.00 20.00    -0.080 Cl
HETATM    9 CL9  UNL     1     -34.866   4.483   4.712  1.00 20.00    -0.074 Cl
ENDROOT
TORSDOF 0
ENDMDL
MODEL 8
REMARK VINA RESULT:      -3.2     12.347     13.401
REMARK  0 active torsions:
REMARK  status: ('A' for Active; 'I' for Inactive)
ROOT
HETATM    1  C1  UNL     1     -35.590  14.164  -4.808  1.00 20.00     0.102 C 
HETATM    2  C2  UNL     1     -35.974  16.042  -6.338  1.00 20.00     0.075 A 
HETATM    3  C3  UNL     1     -35.336  15.503  -5.242  1.00 20.00     0.075 A 
HETATM    4  C4  UNL     1     -34.435  16.427  -4.640  1.00 20.00     0.084 A 
HETATM    5  C5  UNL     1     -34.417  17.637  -5.298  1.00 20.00     0.097 A 
HETATM    6  N6  UNL     1     -35.795  13.078  -4.455  1.00 20.00    -0.191 NA
HETATM    7  S7  UNL     1     -35.485  17.656  -6.636  1.00 20.00    -0.086 SA
HETATM    8 CL8  UNL     1     -33.491  16.051  -3.255  1.00 20.00    -0.080 Cl
HETATM    9 CL9  UNL     1     -33.497  19.043  -4.941  1.00 20.00    -0.074 Cl
ENDROOT
TORSDOF 0
ENDMDL
MODEL 9
REMARK VINA RESULT:      -3.1     12.760     13.266
REMARK  0 active torsions:
REMARK  status: ('A' for Active; 'I' for Inactive)
ROOT
HETATM    1  C1  UNL     1     -33.145  17.282  -2.228  1.00 20.00     0.102 C 
HETATM    2  C2  UNL     1     -33.235  15.470  -3.879  1.00 20.00     0.075 A 
HETATM    3  C3  UNL     1     -33.659  16.701  -3.431  1.00 20.00     0.075 A 
HETATM    4  C4  UNL     1     -34.631  17.280  -4.296  1.00 20.00     0.084 A 
HETATM    5  C5  UNL     1     -34.913  16.469  -5.374  1.00 20.00     0.097 A 
HETATM    6  N6  UNL     1     -32.729  17.753  -1.254  1.00 20.00    -0.191 NA
HETATM    7  S7  UNL     1     -34.008  15.016  -5.338  1.00 20.00    -0.086 SA
HETATM    8 CL8  UNL     1     -35.352  18.812  -4.008  1.00 20.00    -0.080 Cl
HETATM    9 CL9  UNL     1     -36.010  16.741  -6.668  1.00 20.00    -0.074 Cl
ENDROOT
TORSDOF 0
ENDMDL
