MODEL 1
REMARK VINA RESULT:      -4.1      0.000      0.000
REMARK  1 active torsions:
REMARK  status: ('A' for Active; 'I' for Inactive)
REMARK    1  A    between atoms: C5_5  and  C8_8 
ROOT
HETATM    1  C1  UNL     1     -33.461  15.632  -3.751  1.00 20.00     0.047 C 
HETATM    2  C2  UNL     1     -33.355  16.691  -2.940  1.00 20.00    -0.009 C 
HETATM    3  C3  UNL     1     -34.200  15.739  -5.032  1.00 20.00     0.149 C 
HETATM    4  C6  UNL     1     -34.747  17.087  -5.437  1.00 20.00     0.084 C 
HETATM    5  C7  UNL     1     -35.140  17.910  -4.217  1.00 20.00     0.025 C 
HETATM    6  C8  UNL     1     -33.996  18.042  -3.186  1.00 20.00    -0.003 C 
HETATM    7  C11 UNL     1     -32.918  19.020  -3.681  1.00 20.00     0.024 C 
HETATM    8  O12 UNL     1     -34.300  14.754  -5.762  1.00 20.00    -0.293 OA
ENDROOT
BRANCH   6   9
HETATM    9  C5  UNL     1     -34.575  18.590  -1.904  1.00 20.00    -0.076 C 
HETATM   10  C4  UNL     1     -33.839  18.654  -0.778  1.00 20.00    -0.027 C 
HETATM   11  C9  UNL     1     -32.437  18.237  -0.591  1.00 20.00     0.036 C 
HETATM   12  C10 UNL     1     -36.005  19.043  -1.995  1.00 20.00     0.044 C 
ENDBRANCH   6   9
TORSDOF 1
ENDMDL
MODEL 2
REMARK VINA RESULT:      -3.9     12.135     13.632
REMARK  1 active torsions:
REMARK  status: ('A' for Active; 'I' for Inactive)
REMARK    1  A    between atoms: C5_5  and  C8_8 
ROOT
HETATM    1  C1  UNL     1     -40.395  14.949   8.524  1.00 20.00     0.047 C 
HETATM    2  C2  UNL     1     -40.509  14.014   7.574  1.00 20.00    -0.009 C 
HETATM    3  C3  UNL     1     -41.524  15.865   8.814  1.00 20.00     0.149 C 
HETATM    4  C6  UNL     1     -42.827  15.656   8.080  1.00 20.00     0.084 C 
HETATM    5  C7  UNL     1     -42.588  15.102   6.682  1.00 20.00     0.025 C 
HETATM    6  C8  UNL     1     -41.719  13.823   6.682  1.00 20.00    -0.003 C 
HETATM    7  C11 UNL     1     -42.520  12.611   7.185  1.00 20.00     0.024 C 
HETATM    8  O12 UNL     1     -41.401  16.729   9.681  1.00 20.00    -0.293 OA
ENDROOT
BRANCH   6   9
HETATM    9  C5  UNL     1     -41.287  13.545   5.262  1.00 20.00    -0.076 C 
HETATM   10  C4  UNL     1     -40.335  12.632   4.990  1.00 20.00    -0.027 C 
HETATM   11  C9  UNL     1     -39.589  11.793   5.946  1.00 20.00     0.036 C 
HETATM   12  C10 UNL     1     -41.992  14.356   4.212  1.00 20.00     0.044 C 
ENDBRANCH   6   9
TORSDOF 1
ENDMDL
MODEL 3
REMARK VINA RESULT:      -3.8      2.363      4.358
REMARK  1 active torsions:
REMARK  status: ('A' for Active; 'I' for Inactive)
REMARK    1  A    between atoms: C5_5  and  C8_8 
ROOT
HETATM    1  C1  UNL     1     -33.032  17.353  -1.663  1.00 20.00     0.047 C 
HETATM    2  C2  UNL     1     -33.847  16.694  -2.495  1.00 20.00    -0.009 C 
HETATM    3  C3  UNL     1     -32.449  18.658  -2.061  1.00 20.00     0.149 C 
HETATM    4  C6  UNL     1     -32.871  19.262  -3.379  1.00 20.00     0.084 C 
HETATM    5  C7  UNL     1     -33.182  18.180  -4.405  1.00 20.00     0.025 C 
HETATM    6  C8  UNL     1     -34.209  17.144  -3.896  1.00 20.00    -0.003 C 
HETATM    7  C11 UNL     1     -35.627  17.738  -3.875  1.00 20.00     0.024 C 
HETATM    8  O12 UNL     1     -31.692  19.247  -1.292  1.00 20.00    -0.293 OA
ENDROOT
BRANCH   6   9
HETATM    9  C5  UNL     1     -34.205  15.968  -4.843  1.00 20.00    -0.076 C 
HETATM   10  C4  UNL     1     -34.482  16.126  -6.151  1.00 20.00    -0.027 C 
HETATM   11  C9  UNL     1     -34.816  17.377  -6.858  1.00 20.00     0.036 C 
HETATM   12  C10 UNL     1     -33.876  14.645  -4.211  1.00 20.00     0.044 C 
ENDBRANCH   6   9
TORSDOF 1
ENDMDL
MODEL 4
REMARK VINA RESULT:      -3.8      1.822      3.294
REMARK  1 active torsions:
REMARK  status: ('A' for Active; 'I' for Inactive)
REMARK    1  A    between atoms: C5_5  and  C8_8 
ROOT
HETATM    1  C1  UNL     1     -36.040  14.498  -5.572  1.00 20.00     0.047 C 
HETATM    2  C2  UNL     1     -35.356  14.973  -4.525  1.00 20.00    -0.009 C 
HETATM    3  C3  UNL     1     -35.591  14.789  -6.955  1.00 20.00     0.149 C 
HETATM    4  C6  UNL     1     -34.300  15.549  -7.148  1.00 20.00     0.084 C 
HETATM    5  C7  UNL     1     -34.067  16.534  -6.009  1.00 20.00     0.025 C 
HETATM    6  C8  UNL     1     -34.138  15.869  -4.615  1.00 20.00    -0.003 C 
HETATM    7  C11 UNL     1     -32.881  15.028  -4.341  1.00 20.00     0.024 C 
HETATM    8  O12 UNL     1     -36.236  14.357  -7.909  1.00 20.00    -0.293 OA
ENDROOT
BRANCH   6   9
HETATM    9  C5  UNL     1     -34.210  16.960  -3.574  1.00 20.00    -0.076 C 
HETATM   10  C4  UNL     1     -35.094  17.969  -3.682  1.00 20.00    -0.027 C 
HETATM   11  C9  UNL     1     -36.086  18.190  -4.750  1.00 20.00     0.036 C 
HETATM   12  C10 UNL     1     -33.232  16.822  -2.440  1.00 20.00     0.044 C 
ENDBRANCH   6   9
TORSDOF 1
ENDMDL
MODEL 5
REMARK VINA RESULT:      -3.7      2.415      4.509
REMARK  1 active torsions:
REMARK  status: ('A' for Active; 'I' for Inactive)
REMARK    1  A    between atoms: C5_5  and  C8_8 
ROOT
HETATM    1  C1  UNL     1     -35.253  18.949  -1.361  1.00 20.00     0.047 C 
HETATM    2  C2  UNL     1     -35.026  18.595  -2.632  1.00 20.00    -0.009 C 
HETATM    3  C3  UNL     1     -34.220  18.718  -0.323  1.00 20.00     0.149 C 
HETATM    4  C6  UNL     1     -32.881  18.164  -0.750  1.00 20.00     0.084 C 
HETATM    5  C7  UNL     1     -33.027  17.238  -1.951  1.00 20.00     0.025 C 
HETATM    6  C8  UNL     1     -33.777  17.897  -3.131  1.00 20.00    -0.003 C 
HETATM    7  C11 UNL     1     -32.886  18.926  -3.846  1.00 20.00     0.024 C 
HETATM    8  O12 UNL     1     -34.446  19.035   0.843  1.00 20.00    -0.293 OA
ENDROOT
BRANCH   6   9
HETATM    9  C5  UNL     1     -34.139  16.818  -4.123  1.00 20.00    -0.076 C 
HETATM   10  C4  UNL     1     -34.918  17.084  -5.188  1.00 20.00    -0.027 C 
HETATM   11  C9  UNL     1     -35.522  18.376  -5.566  1.00 20.00     0.036 C 
HETATM   12  C10 UNL     1     -33.569  15.461  -3.822  1.00 20.00     0.044 C 
ENDBRANCH   6   9
TORSDOF 1
ENDMDL
MODEL 6
REMARK VINA RESULT:      -3.7      2.350      4.214
REMARK  1 active torsions:
REMARK  status: ('A' for Active; 'I' for Inactive)
REMARK    1  A    between atoms: C5_5  and  C8_8 
ROOT
HETATM    1  C1  UNL     1     -35.249  19.103  -1.403  1.00 20.00     0.047 C 
HETATM    2  C2  UNL     1     -35.148  18.809  -2.704  1.00 20.00    -0.009 C 
HETATM    3  C3  UNL     1     -34.269  18.558  -0.432  1.00 20.00     0.149 C 
HETATM    4  C6  UNL     1     -33.110  17.745  -0.960  1.00 20.00     0.084 C 
HETATM    5  C7  UNL     1     -33.504  16.977  -2.215  1.00 20.00     0.025 C 
HETATM    6  C8  UNL     1     -34.112  17.883  -3.309  1.00 20.00    -0.003 C 
HETATM    7  C11 UNL     1     -33.026  18.731  -3.991  1.00 20.00     0.024 C 
HETATM    8  O12 UNL     1     -34.381  18.825   0.763  1.00 20.00    -0.293 OA
ENDROOT
BRANCH   6   9
HETATM    9  C5  UNL     1     -34.745  16.999  -4.357  1.00 20.00    -0.076 C 
HETATM   10  C4  UNL     1     -34.199  15.816  -4.693  1.00 20.00    -0.027 C 
HETATM   11  C9  UNL     1     -32.974  15.199  -4.149  1.00 20.00     0.036 C 
HETATM   12  C10 UNL     1     -36.003  17.545  -4.973  1.00 20.00     0.044 C 
ENDBRANCH   6   9
TORSDOF 1
ENDMDL
MODEL 7
REMARK VINA RESULT:      -3.6      1.802      2.955
REMARK  1 active torsions:
REMARK  status: ('A' for Active; 'I' for Inactive)
REMARK    1  A    between atoms: C5_5  and  C8_8 
ROOT
HETATM    1  C1  UNL     1     -34.092  14.386  -4.541  1.00 20.00     0.047 C 
HETATM    2  C2  UNL     1     -33.662  15.581  -4.961  1.00 20.00    -0.009 C 
HETATM    3  C3  UNL     1     -35.519  14.010  -4.682  1.00 20.00     0.149 C 
HETATM    4  C6  UNL     1     -36.448  14.967  -5.392  1.00 20.00     0.084 C 
HETATM    5  C7  UNL     1     -36.021  16.412  -5.172  1.00 20.00     0.025 C 
HETATM    6  C8  UNL     1     -34.543  16.666  -5.546  1.00 20.00    -0.003 C 
HETATM    7  C11 UNL     1     -34.356  16.688  -7.072  1.00 20.00     0.024 C 
HETATM    8  O12 UNL     1     -35.904  12.913  -4.280  1.00 20.00    -0.293 OA
ENDROOT
BRANCH   6   9
HETATM    9  C5  UNL     1     -34.143  18.017  -5.004  1.00 20.00    -0.076 C 
HETATM   10  C4  UNL     1     -33.803  18.177  -3.711  1.00 20.00    -0.027 C 
HETATM   11  C9  UNL     1     -33.758  17.147  -2.656  1.00 20.00     0.036 C 
HETATM   12  C10 UNL     1     -34.160  19.135  -6.008  1.00 20.00     0.044 C 
ENDBRANCH   6   9
TORSDOF 1
ENDMDL
MODEL 8
REMARK VINA RESULT:      -3.6      2.990      4.689
REMARK  1 active torsions:
REMARK  status: ('A' for Active; 'I' for Inactive)
REMARK    1  A    between atoms: C5_5  and  C8_8 
ROOT
HETATM    1  C1  UNL     1     -31.624  18.835  -0.407  1.00 20.00     0.047 C 
HETATM    2  C2  UNL     1     -32.048  18.555  -1.645  1.00 20.00    -0.009 C 
HETATM    3  C3  UNL     1     -32.543  18.702   0.749  1.00 20.00     0.149 C 
HETATM    4  C6  UNL     1     -33.931  18.157   0.506  1.00 20.00     0.084 C 
HETATM    5  C7  UNL     1     -34.438  18.542  -0.878  1.00 20.00     0.025 C 
HETATM    6  C8  UNL     1     -33.462  18.147  -2.009  1.00 20.00    -0.003 C 
HETATM    7  C11 UNL     1     -33.492  16.630  -2.259  1.00 20.00     0.024 C 
HETATM    8  O12 UNL     1     -32.144  18.975   1.879  1.00 20.00    -0.293 OA
ENDROOT
BRANCH   6   9
HETATM    9  C5  UNL     1     -33.900  18.841  -3.276  1.00 20.00    -0.076 C 
HETATM   10  C4  UNL     1     -35.203  19.055  -3.539  1.00 20.00    -0.027 C 
HETATM   11  C9  UNL     1     -36.364  18.684  -2.709  1.00 20.00     0.036 C 
HETATM   12  C10 UNL     1     -32.782  19.258  -4.190  1.00 20.00     0.044 C 
ENDBRANCH   6   9
TORSDOF 1
ENDMDL
MODEL 9
REMARK VINA RESULT:      -3.6     11.337     12.639
REMARK  1 active torsions:
REMARK  status: ('A' for Active; 'I' for Inactive)
REMARK    1  A    between atoms: C5_5  and  C8_8 
ROOT
HETATM    1  C1  UNL     1     -40.690  13.237   4.276  1.00 20.00     0.047 C 
HETATM    2  C2  UNL     1     -41.425  13.815   5.233  1.00 20.00    -0.009 C 
HETATM    3  C3  UNL     1     -39.701  12.187   4.621  1.00 20.00     0.149 C 
HETATM    4  C6  UNL     1     -39.614  11.724   6.057  1.00 20.00     0.084 C 
HETATM    5  C7  UNL     1     -39.945  12.857   7.020  1.00 20.00     0.025 C 
HETATM    6  C8  UNL     1     -41.304  13.528   6.716  1.00 20.00    -0.003 C 
HETATM    7  C11 UNL     1     -42.473  12.626   7.144  1.00 20.00     0.024 C 
HETATM    8  O12 UNL     1     -39.023  11.672   3.734  1.00 20.00    -0.293 OA
ENDROOT
BRANCH   6   9
HETATM    9  C5  UNL     1     -41.385  14.811   7.508  1.00 20.00    -0.076 C 
HETATM   10  C4  UNL     1     -42.345  15.723   7.261  1.00 20.00    -0.027 C 
HETATM   11  C9  UNL     1     -43.417  15.653   6.251  1.00 20.00     0.036 C 
HETATM   12  C10 UNL     1     -40.329  14.974   8.565  1.00 20.00     0.044 C 
ENDBRANCH   6   9
TORSDOF 1
ENDMDL
