MODEL 1
REMARK VINA RESULT:      -5.2      0.000      0.000
REMARK  3 active torsions:
REMARK  status: ('A' for Active; 'I' for Inactive)
REMARK    1  A    between atoms: C2_2  and  C8_8 
REMARK    2  A    between atoms: C4_4  and  C7_7 
REMARK    3  A    between atoms: C7_7  and  C8_8 
ROOT
HETATM    1  C7  UNL     1     -33.980   7.760   5.079  1.00 20.00     0.034 C 
ENDROOT
BRANCH   1   2
HETATM    2  C4  UNL     1     -34.144   6.924   6.317  1.00 20.00    -0.030 C 
HETATM    3  C3  UNL     1     -34.481   5.626   6.302  1.00 20.00    -0.035 C 
HETATM    4  C5  UNL     1     -34.738   4.849   5.054  1.00 20.00     0.035 C 
ENDBRANCH   1   2
BRANCH   1   5
HETATM    5  C8  UNL     1     -32.506   7.921   4.659  1.00 20.00     0.007 C 
HETATM    6  C6  UNL     1     -32.065   9.375   4.844  1.00 20.00     0.014 C 
BRANCH   5   7
HETATM    7  C2  UNL     1     -32.292   7.513   3.221  1.00 20.00    -0.032 C 
HETATM    8  C1  UNL     1     -32.596   6.305   2.733  1.00 20.00     0.007 C 
ENDBRANCH   5   7
ENDBRANCH   1   5
TORSDOF 3
ENDMDL
MODEL 2
REMARK VINA RESULT:      -5.0      0.977      3.319
REMARK  3 active torsions:
REMARK  status: ('A' for Active; 'I' for Inactive)
REMARK    1  A    between atoms: C2_2  and  C8_8 
REMARK    2  A    between atoms: C4_4  and  C7_7 
REMARK    3  A    between atoms: C7_7  and  C8_8 
ROOT
HETATM    1  C7  UNL     1     -34.684   6.940   4.646  1.00 20.00     0.034 C 
ENDROOT
BRANCH   1   2
HETATM    2  C4  UNL     1     -33.686   7.669   5.502  1.00 20.00    -0.030 C 
HETATM    3  C3  UNL     1     -32.674   8.399   5.010  1.00 20.00    -0.035 C 
HETATM    4  C5  UNL     1     -32.411   8.579   3.552  1.00 20.00     0.035 C 
ENDBRANCH   1   2
BRANCH   1   5
HETATM    5  C8  UNL     1     -34.808   5.449   5.012  1.00 20.00     0.007 C 
HETATM    6  C6  UNL     1     -34.398   5.233   6.472  1.00 20.00     0.014 C 
BRANCH   5   7
HETATM    7  C2  UNL     1     -33.949   4.586   4.120  1.00 20.00    -0.032 C 
HETATM    8  C1  UNL     1     -33.328   5.031   3.022  1.00 20.00     0.007 C 
ENDBRANCH   5   7
ENDBRANCH   1   5
TORSDOF 3
ENDMDL
MODEL 3
REMARK VINA RESULT:      -4.5      1.157      3.764
REMARK  3 active torsions:
REMARK  status: ('A' for Active; 'I' for Inactive)
REMARK    1  A    between atoms: C2_2  and  C8_8 
REMARK    2  A    between atoms: C4_4  and  C7_7 
REMARK    3  A    between atoms: C7_7  and  C8_8 
ROOT
HETATM    1  C7  UNL     1     -32.758   8.030   4.361  1.00 20.00     0.034 C 
ENDROOT
BRANCH   1   2
HETATM    2  C4  UNL     1     -32.203   7.396   3.116  1.00 20.00    -0.030 C 
HETATM    3  C3  UNL     1     -32.224   7.980   1.909  1.00 20.00    -0.035 C 
HETATM    4  C5  UNL     1     -32.803   9.331   1.650  1.00 20.00     0.035 C 
ENDBRANCH   1   2
BRANCH   1   5
HETATM    5  C8  UNL     1     -33.992   7.287   4.908  1.00 20.00     0.007 C 
HETATM    6  C6  UNL     1     -33.874   7.122   6.427  1.00 20.00     0.014 C 
BRANCH   5   7
HETATM    7  C2  UNL     1     -34.150   5.928   4.269  1.00 20.00    -0.032 C 
HETATM    8  C1  UNL     1     -34.702   4.874   4.881  1.00 20.00     0.007 C 
ENDBRANCH   5   7
ENDBRANCH   1   5
TORSDOF 3
ENDMDL
MODEL 4
REMARK VINA RESULT:      -4.4      1.005      2.638
REMARK  3 active torsions:
REMARK  status: ('A' for Active; 'I' for Inactive)
REMARK    1  A    between atoms: C2_2  and  C8_8 
REMARK    2  A    between atoms: C4_4  and  C7_7 
REMARK    3  A    between atoms: C7_7  and  C8_8 
ROOT
HETATM    1  C7  UNL     1     -34.683   6.112   3.822  1.00 20.00     0.034 C 
ENDROOT
BRANCH   1   2
HETATM    2  C4  UNL     1     -34.558   5.075   4.904  1.00 20.00    -0.030 C 
HETATM    3  C3  UNL     1     -34.396   5.368   6.203  1.00 20.00    -0.035 C 
HETATM    4  C5  UNL     1     -34.317   6.759   6.737  1.00 20.00     0.035 C 
ENDBRANCH   1   2
BRANCH   1   5
HETATM    5  C8  UNL     1     -33.430   6.194   2.929  1.00 20.00     0.007 C 
HETATM    6  C6  UNL     1     -32.817   4.801   2.758  1.00 20.00     0.014 C 
BRANCH   5   7
HETATM    7  C2  UNL     1     -32.395   7.127   3.509  1.00 20.00    -0.032 C 
HETATM    8  C1  UNL     1     -32.650   8.387   3.883  1.00 20.00     0.007 C 
ENDBRANCH   5   7
ENDBRANCH   1   5
TORSDOF 3
ENDMDL
MODEL 5
REMARK VINA RESULT:      -4.4      1.165      2.646
REMARK  3 active torsions:
REMARK  status: ('A' for Active; 'I' for Inactive)
REMARK    1  A    between atoms: C2_2  and  C8_8 
REMARK    2  A    between atoms: C4_4  and  C7_7 
REMARK    3  A    between atoms: C7_7  and  C8_8 
ROOT
HETATM    1  C7  UNL     1     -34.710   6.378   4.682  1.00 20.00     0.034 C 
ENDROOT
BRANCH   1   2
HETATM    2  C4  UNL     1     -34.487   4.896   4.556  1.00 20.00    -0.030 C 
HETATM    3  C3  UNL     1     -33.697   4.337   3.628  1.00 20.00    -0.035 C 
HETATM    4  C5  UNL     1     -32.940   5.115   2.603  1.00 20.00     0.035 C 
ENDBRANCH   1   2
BRANCH   1   5
HETATM    5  C8  UNL     1     -33.661   7.064   5.576  1.00 20.00     0.007 C 
HETATM    6  C6  UNL     1     -34.240   7.304   6.974  1.00 20.00     0.014 C 
BRANCH   5   7
HETATM    7  C2  UNL     1     -33.210   8.381   4.991  1.00 20.00    -0.032 C 
HETATM    8  C1  UNL     1     -32.468   8.492   3.883  1.00 20.00     0.007 C 
ENDBRANCH   5   7
ENDBRANCH   1   5
TORSDOF 3
ENDMDL
MODEL 6
REMARK VINA RESULT:      -4.2      0.858      3.012
REMARK  3 active torsions:
REMARK  status: ('A' for Active; 'I' for Inactive)
REMARK    1  A    between atoms: C2_2  and  C8_8 
REMARK    2  A    between atoms: C4_4  and  C7_7 
REMARK    3  A    between atoms: C7_7  and  C8_8 
ROOT
HETATM    1  C7  UNL     1     -33.968   7.626   3.967  1.00 20.00     0.034 C 
ENDROOT
BRANCH   1   2
HETATM    2  C4  UNL     1     -32.682   7.494   3.200  1.00 20.00    -0.030 C 
HETATM    3  C3  UNL     1     -32.270   6.354   2.625  1.00 20.00    -0.035 C 
HETATM    4  C5  UNL     1     -33.036   5.074   2.676  1.00 20.00     0.035 C 
ENDBRANCH   1   2
BRANCH   1   5
HETATM    5  C8  UNL     1     -33.758   8.164   5.395  1.00 20.00     0.007 C 
HETATM    6  C6  UNL     1     -32.419   8.903   5.485  1.00 20.00     0.014 C 
BRANCH   5   7
HETATM    7  C2  UNL     1     -33.782   7.051   6.416  1.00 20.00    -0.032 C 
HETATM    8  C1  UNL     1     -34.454   5.906   6.257  1.00 20.00     0.007 C 
ENDBRANCH   5   7
ENDBRANCH   1   5
TORSDOF 3
ENDMDL
MODEL 7
REMARK VINA RESULT:      -4.2      0.991      2.433
REMARK  3 active torsions:
REMARK  status: ('A' for Active; 'I' for Inactive)
REMARK    1  A    between atoms: C2_2  and  C8_8 
REMARK    2  A    between atoms: C4_4  and  C7_7 
REMARK    3  A    between atoms: C7_7  and  C8_8 
ROOT
HETATM    1  C7  UNL     1     -33.117   5.959   3.666  1.00 20.00     0.034 C 
ENDROOT
BRANCH   1   2
HETATM    2  C4  UNL     1     -34.554   5.658   3.991  1.00 20.00    -0.030 C 
HETATM    3  C3  UNL     1     -35.047   5.637   5.238  1.00 20.00    -0.035 C 
HETATM    4  C5  UNL     1     -34.233   5.908   6.459  1.00 20.00     0.035 C 
ENDBRANCH   1   2
BRANCH   1   5
HETATM    5  C8  UNL     1     -32.891   7.431   3.271  1.00 20.00     0.007 C 
HETATM    6  C6  UNL     1     -32.147   7.507   1.935  1.00 20.00     0.014 C 
BRANCH   5   7
HETATM    7  C2  UNL     1     -32.104   8.173   4.324  1.00 20.00    -0.032 C 
HETATM    8  C1  UNL     1     -32.655   8.965   5.250  1.00 20.00     0.007 C 
ENDBRANCH   5   7
ENDBRANCH   1   5
TORSDOF 3
ENDMDL
MODEL 8
REMARK VINA RESULT:      -3.9      1.306      2.620
REMARK  3 active torsions:
REMARK  status: ('A' for Active; 'I' for Inactive)
REMARK    1  A    between atoms: C2_2  and  C8_8 
REMARK    2  A    between atoms: C4_4  and  C7_7 
REMARK    3  A    between atoms: C7_7  and  C8_8 
ROOT
HETATM    1  C7  UNL     1     -32.172   7.843   4.121  1.00 20.00     0.034 C 
ENDROOT
BRANCH   1   2
HETATM    2  C4  UNL     1     -33.173   8.571   4.974  1.00 20.00    -0.030 C 
HETATM    3  C3  UNL     1     -33.971   7.968   5.867  1.00 20.00    -0.035 C 
HETATM    4  C5  UNL     1     -33.967   6.499   6.126  1.00 20.00     0.035 C 
ENDBRANCH   1   2
BRANCH   1   5
HETATM    5  C8  UNL     1     -32.765   7.366   2.782  1.00 20.00     0.007 C 
HETATM    6  C6  UNL     1     -32.694   5.839   2.692  1.00 20.00     0.014 C 
BRANCH   5   7
HETATM    7  C2  UNL     1     -32.035   7.969   1.606  1.00 20.00    -0.032 C 
HETATM    8  C1  UNL     1     -32.541   8.930   0.825  1.00 20.00     0.007 C 
ENDBRANCH   5   7
ENDBRANCH   1   5
TORSDOF 3
ENDMDL
MODEL 9
REMARK VINA RESULT:      -3.9      0.974      3.792
REMARK  3 active torsions:
REMARK  status: ('A' for Active; 'I' for Inactive)
REMARK    1  A    between atoms: C2_2  and  C8_8 
REMARK    2  A    between atoms: C4_4  and  C7_7 
REMARK    3  A    between atoms: C7_7  and  C8_8 
ROOT
HETATM    1  C7  UNL     1     -33.939   8.060   4.720  1.00 20.00     0.034 C 
ENDROOT
BRANCH   1   2
HETATM    2  C4  UNL     1     -32.481   8.411   4.609  1.00 20.00    -0.030 C 
HETATM    3  C3  UNL     1     -31.714   8.092   3.557  1.00 20.00    -0.035 C 
HETATM    4  C5  UNL     1     -32.211   7.345   2.363  1.00 20.00     0.035 C 
ENDBRANCH   1   2
BRANCH   1   5
HETATM    5  C8  UNL     1     -34.175   6.548   4.906  1.00 20.00     0.007 C 
HETATM    6  C6  UNL     1     -35.481   6.134   4.222  1.00 20.00     0.014 C 
BRANCH   5   7
HETATM    7  C2  UNL     1     -34.236   6.173   6.368  1.00 20.00    -0.032 C 
HETATM    8  C1  UNL     1     -34.747   5.024   6.824  1.00 20.00     0.007 C 
ENDBRANCH   5   7
ENDBRANCH   1   5
TORSDOF 3
ENDMDL
