MODEL 1
REMARK VINA RESULT:      -4.6      0.000      0.000
REMARK  2 active torsions:
REMARK  status: ('A' for Active; 'I' for Inactive)
REMARK    1  A    between atoms: C1_1  and  C4_4 
REMARK    2  A    between atoms: C4_4  and  C6_6 
ROOT
HETATM    1  C2  UNL     1     -35.407   5.872   4.195  1.00 20.00     0.062 A 
HETATM    2  C3  UNL     1     -34.019   5.331   4.069  1.00 20.00     0.190 A 
HETATM    3  C4  UNL     1     -34.261   6.561   4.909  1.00 20.00     0.081 A 
HETATM    4  F9  UNL     1     -33.384   5.486   2.848  1.00 20.00    -0.248 F 
ENDROOT
BRANCH   3   5
HETATM    5  C1  UNL     1     -34.195   6.373   6.354  1.00 20.00     0.184 C 
HETATM    6  O7  UNL     1     -33.972   5.190   6.734  1.00 20.00    -0.647 OA
HETATM    7  O8  UNL     1     -34.370   7.423   7.033  1.00 20.00    -0.647 OA
ENDBRANCH   3   5
BRANCH   3   8
HETATM    8  C6  UNL     1     -33.802   7.886   4.358  1.00 20.00     0.019 C 
HETATM    9  C5  UNL     1     -32.311   8.048   4.422  1.00 20.00     0.006 C 
ENDBRANCH   3   8
TORSDOF 2
ENDMDL
MODEL 2
REMARK VINA RESULT:      -4.4      1.426      1.785
REMARK  2 active torsions:
REMARK  status: ('A' for Active; 'I' for Inactive)
REMARK    1  A    between atoms: C1_1  and  C4_4 
REMARK    2  A    between atoms: C4_4  and  C6_6 
ROOT
HETATM    1  C2  UNL     1     -35.427   5.893   4.447  1.00 20.00     0.062 A 
HETATM    2  C3  UNL     1     -34.416   4.978   5.060  1.00 20.00     0.190 A 
HETATM    3  C4  UNL     1     -33.982   6.339   4.573  1.00 20.00     0.081 A 
HETATM    4  F9  UNL     1     -34.036   3.867   4.327  1.00 20.00    -0.248 F 
ENDROOT
BRANCH   3   5
HETATM    5  C1  UNL     1     -33.701   7.330   5.605  1.00 20.00     0.184 C 
HETATM    6  O7  UNL     1     -33.963   8.524   5.291  1.00 20.00    -0.647 OA
HETATM    7  O8  UNL     1     -33.232   6.859   6.678  1.00 20.00    -0.647 OA
ENDBRANCH   3   5
BRANCH   3   8
HETATM    8  C6  UNL     1     -33.168   6.401   3.307  1.00 20.00     0.019 C 
HETATM    9  C5  UNL     1     -32.146   7.500   3.337  1.00 20.00     0.006 C 
ENDBRANCH   3   8
TORSDOF 2
ENDMDL
MODEL 3
REMARK VINA RESULT:      -4.2      2.685      3.562
REMARK  2 active torsions:
REMARK  status: ('A' for Active; 'I' for Inactive)
REMARK    1  A    between atoms: C1_1  and  C4_4 
REMARK    2  A    between atoms: C4_4  and  C6_6 
ROOT
HETATM    1  C2  UNL     1     -34.054   8.407   4.866  1.00 20.00     0.062 A 
HETATM    2  C3  UNL     1     -33.327   7.510   5.816  1.00 20.00     0.190 A 
HETATM    3  C4  UNL     1     -33.713   6.987   4.455  1.00 20.00     0.081 A 
HETATM    4  F9  UNL     1     -34.027   7.050   6.919  1.00 20.00    -0.248 F 
ENDROOT
BRANCH   3   5
HETATM    5  C1  UNL     1     -32.627   6.837   3.494  1.00 20.00     0.184 C 
HETATM    6  O7  UNL     1     -31.684   7.669   3.613  1.00 20.00    -0.647 OA
HETATM    7  O8  UNL     1     -32.774   5.892   2.670  1.00 20.00    -0.647 OA
ENDBRANCH   3   5
BRANCH   3   8
HETATM    8  C6  UNL     1     -34.848   6.000   4.382  1.00 20.00     0.019 C 
HETATM    9  C5  UNL     1     -34.529   4.706   5.073  1.00 20.00     0.006 C 
ENDBRANCH   3   8
TORSDOF 2
ENDMDL
MODEL 4
REMARK VINA RESULT:      -4.2      2.206      2.774
REMARK  2 active torsions:
REMARK  status: ('A' for Active; 'I' for Inactive)
REMARK    1  A    between atoms: C1_1  and  C4_4 
REMARK    2  A    between atoms: C4_4  and  C6_6 
ROOT
HETATM    1  C2  UNL     1     -33.356   6.741   6.254  1.00 20.00     0.062 A 
HETATM    2  C3  UNL     1     -34.233   7.808   5.685  1.00 20.00     0.190 A 
HETATM    3  C4  UNL     1     -33.879   6.612   4.837  1.00 20.00     0.081 A 
HETATM    4  F9  UNL     1     -33.643   9.024   5.383  1.00 20.00    -0.248 F 
ENDROOT
BRANCH   3   5
HETATM    5  C1  UNL     1     -34.943   5.636   4.629  1.00 20.00     0.184 C 
HETATM    6  O7  UNL     1     -34.649   4.445   4.929  1.00 20.00    -0.647 OA
HETATM    7  O8  UNL     1     -36.021   6.115   4.177  1.00 20.00    -0.647 OA
ENDBRANCH   3   5
BRANCH   3   8
HETATM    8  C6  UNL     1     -32.894   6.816   3.717  1.00 20.00     0.019 C 
HETATM    9  C5  UNL     1     -32.862   5.658   2.763  1.00 20.00     0.006 C 
ENDBRANCH   3   8
TORSDOF 2
ENDMDL
MODEL 5
REMARK VINA RESULT:      -4.1      2.205      2.931
REMARK  2 active torsions:
REMARK  status: ('A' for Active; 'I' for Inactive)
REMARK    1  A    between atoms: C1_1  and  C4_4 
REMARK    2  A    between atoms: C4_4  and  C6_6 
ROOT
HETATM    1  C2  UNL     1     -33.345   6.738   6.245  1.00 20.00     0.062 A 
HETATM    2  C3  UNL     1     -34.226   7.807   5.684  1.00 20.00     0.190 A 
HETATM    3  C4  UNL     1     -33.879   6.611   4.831  1.00 20.00     0.081 A 
HETATM    4  F9  UNL     1     -33.637   9.022   5.379  1.00 20.00    -0.248 F 
ENDROOT
BRANCH   3   5
HETATM    5  C1  UNL     1     -34.946   5.636   4.630  1.00 20.00     0.184 C 
HETATM    6  O7  UNL     1     -36.027   6.107   4.181  1.00 20.00    -0.647 OA
HETATM    7  O8  UNL     1     -34.642   4.449   4.932  1.00 20.00    -0.647 OA
ENDBRANCH   3   5
BRANCH   3   8
HETATM    8  C6  UNL     1     -32.902   6.815   3.704  1.00 20.00     0.019 C 
HETATM    9  C5  UNL     1     -32.856   5.646   2.765  1.00 20.00     0.006 C 
ENDBRANCH   3   8
TORSDOF 2
ENDMDL
MODEL 6
REMARK VINA RESULT:      -3.9      2.117      3.017
REMARK  2 active torsions:
REMARK  status: ('A' for Active; 'I' for Inactive)
REMARK    1  A    between atoms: C1_1  and  C4_4 
REMARK    2  A    between atoms: C4_4  and  C6_6 
ROOT
HETATM    1  C2  UNL     1     -34.068   8.429   4.311  1.00 20.00     0.062 A 
HETATM    2  C3  UNL     1     -32.723   7.785   4.206  1.00 20.00     0.190 A 
HETATM    3  C4  UNL     1     -33.859   7.025   4.847  1.00 20.00     0.081 A 
HETATM    4  F9  UNL     1     -31.718   8.274   5.023  1.00 20.00    -0.248 F 
ENDROOT
BRANCH   3   5
HETATM    5  C1  UNL     1     -34.431   5.941   4.057  1.00 20.00     0.184 C 
HETATM    6  O7  UNL     1     -33.610   5.305   3.341  1.00 20.00    -0.647 OA
HETATM    7  O8  UNL     1     -35.676   5.783   4.198  1.00 20.00    -0.647 OA
ENDBRANCH   3   5
BRANCH   3   8
HETATM    8  C6  UNL     1     -33.830   6.857   6.343  1.00 20.00     0.019 C 
HETATM    9  C5  UNL     1     -34.141   5.451   6.768  1.00 20.00     0.006 C 
ENDBRANCH   3   8
TORSDOF 2
ENDMDL
MODEL 7
REMARK VINA RESULT:      -3.8      8.657      9.742
REMARK  2 active torsions:
REMARK  status: ('A' for Active; 'I' for Inactive)
REMARK    1  A    between atoms: C1_1  and  C4_4 
REMARK    2  A    between atoms: C4_4  and  C6_6 
ROOT
HETATM    1  C2  UNL     1     -41.772   8.255  -0.413  1.00 20.00     0.062 A 
HETATM    2  C3  UNL     1     -40.769   7.673   0.530  1.00 20.00     0.190 A 
HETATM    3  C4  UNL     1     -41.990   6.867   0.159  1.00 20.00     0.081 A 
HETATM    4  F9  UNL     1     -40.703   8.214   1.802  1.00 20.00    -0.248 F 
ENDROOT
BRANCH   3   5
HETATM    5  C1  UNL     1     -41.769   5.752  -0.754  1.00 20.00     0.184 C 
HETATM    6  O7  UNL     1     -42.799   5.332  -1.352  1.00 20.00    -0.647 OA
HETATM    7  O8  UNL     1     -40.572   5.355  -0.826  1.00 20.00    -0.647 OA
ENDBRANCH   3   5
BRANCH   3   8
HETATM    8  C6  UNL     1     -43.068   6.712   1.199  1.00 20.00     0.019 C 
HETATM    9  C5  UNL     1     -42.927   5.442   1.986  1.00 20.00     0.006 C 
ENDBRANCH   3   8
TORSDOF 2
ENDMDL
MODEL 8
REMARK VINA RESULT:      -3.8      2.350      2.979
REMARK  2 active torsions:
REMARK  status: ('A' for Active; 'I' for Inactive)
REMARK    1  A    between atoms: C1_1  and  C4_4 
REMARK    2  A    between atoms: C4_4  and  C6_6 
ROOT
HETATM    1  C2  UNL     1     -33.450   6.928   6.321  1.00 20.00     0.062 A 
HETATM    2  C3  UNL     1     -34.350   7.936   5.682  1.00 20.00     0.190 A 
HETATM    3  C4  UNL     1     -33.537   7.012   4.809  1.00 20.00     0.081 A 
HETATM    4  F9  UNL     1     -33.973   9.266   5.759  1.00 20.00    -0.248 F 
ENDROOT
BRANCH   3   5
HETATM    5  C1  UNL     1     -34.275   5.943   4.145  1.00 20.00     0.184 C 
HETATM    6  O7  UNL     1     -35.514   5.914   4.386  1.00 20.00    -0.647 OA
HETATM    7  O8  UNL     1     -33.573   5.189   3.416  1.00 20.00    -0.647 OA
ENDBRANCH   3   5
BRANCH   3   8
HETATM    8  C6  UNL     1     -32.355   7.597   4.082  1.00 20.00     0.019 C 
HETATM    9  C5  UNL     1     -32.763   8.466   2.930  1.00 20.00     0.006 C 
ENDBRANCH   3   8
TORSDOF 2
ENDMDL
MODEL 9
REMARK VINA RESULT:      -3.7     15.891     16.641
REMARK  2 active torsions:
REMARK  status: ('A' for Active; 'I' for Inactive)
REMARK    1  A    between atoms: C1_1  and  C4_4 
REMARK    2  A    between atoms: C4_4  and  C6_6 
ROOT
HETATM    1  C2  UNL     1     -23.086  17.868  11.790  1.00 20.00     0.062 A 
HETATM    2  C3  UNL     1     -23.851  16.845  11.016  1.00 20.00     0.190 A 
HETATM    3  C4  UNL     1     -23.373  18.095  10.318  1.00 20.00     0.081 A 
HETATM    4  F9  UNL     1     -25.204  16.722  11.286  1.00 20.00    -0.248 F 
ENDROOT
BRANCH   3   5
HETATM    5  C1  UNL     1     -22.245  17.929   9.409  1.00 20.00     0.184 C 
HETATM    6  O7  UNL     1     -22.196  16.820   8.808  1.00 20.00    -0.647 OA
HETATM    7  O8  UNL     1     -21.468  18.922   9.342  1.00 20.00    -0.647 OA
ENDBRANCH   3   5
BRANCH   3   8
HETATM    8  C6  UNL     1     -24.402  19.138   9.969  1.00 20.00     0.019 C 
HETATM    9  C5  UNL     1     -24.798  19.091   8.523  1.00 20.00     0.006 C 
ENDBRANCH   3   8
TORSDOF 2
ENDMDL
