MODEL 1
REMARK VINA RESULT:      -3.8      0.000      0.000
REMARK  0 active torsions:
REMARK  status: ('A' for Active; 'I' for Inactive)
ROOT
HETATM    1  C1  UNL     1     -34.026   6.733   5.754  1.00 20.00     0.001 C 
HETATM    2  C2  UNL     1     -33.396   6.934   4.585  1.00 20.00     0.076 C 
HETATM    3  C3  UNL     1     -34.779   5.516   6.189  1.00 20.00     0.038 C 
HETATM    4 CL4  UNL     1     -33.359   5.743   3.330  1.00 20.00    -0.076 Cl
HETATM    5 BR5  UNL     1     -32.501   8.538   4.223  1.00 20.00    -0.038 Br
ENDROOT
TORSDOF 0
ENDMDL
MODEL 2
REMARK VINA RESULT:      -3.8      2.131      2.781
REMARK  0 active torsions:
REMARK  status: ('A' for Active; 'I' for Inactive)
ROOT
HETATM    1  C1  UNL     1     -33.246   7.755   5.137  1.00 20.00     0.001 C 
HETATM    2  C2  UNL     1     -33.679   6.530   4.799  1.00 20.00     0.076 C 
HETATM    3  C3  UNL     1     -32.404   8.685   4.322  1.00 20.00     0.038 C 
HETATM    4 CL4  UNL     1     -33.305   5.797   3.276  1.00 20.00    -0.076 Cl
HETATM    5 BR5  UNL     1     -34.732   5.511   5.965  1.00 20.00    -0.038 Br
ENDROOT
TORSDOF 0
ENDMDL
MODEL 3
REMARK VINA RESULT:      -3.7      2.687      3.281
REMARK  0 active torsions:
REMARK  status: ('A' for Active; 'I' for Inactive)
ROOT
HETATM    1  C1  UNL     1     -33.060   7.486   4.301  1.00 20.00     0.001 C 
HETATM    2  C2  UNL     1     -33.862   6.780   5.113  1.00 20.00     0.076 C 
HETATM    3  C3  UNL     1     -32.354   8.770   4.602  1.00 20.00     0.038 C 
HETATM    4 CL4  UNL     1     -34.222   7.279   6.732  1.00 20.00    -0.076 Cl
HETATM    5 BR5  UNL     1     -34.660   5.182   4.550  1.00 20.00    -0.038 Br
ENDROOT
TORSDOF 0
ENDMDL
MODEL 4
REMARK VINA RESULT:      -3.6      1.912      1.989
REMARK  0 active torsions:
REMARK  status: ('A' for Active; 'I' for Inactive)
ROOT
HETATM    1  C1  UNL     1     -33.914   6.110   4.295  1.00 20.00     0.001 C 
HETATM    2  C2  UNL     1     -33.566   7.173   5.036  1.00 20.00     0.076 C 
HETATM    3  C3  UNL     1     -34.781   4.959   4.697  1.00 20.00     0.038 C 
HETATM    4 CL4  UNL     1     -34.101   7.386   6.669  1.00 20.00    -0.076 Cl
HETATM    5 BR5  UNL     1     -32.462   8.521   4.351  1.00 20.00    -0.038 Br
ENDROOT
TORSDOF 0
ENDMDL
MODEL 5
REMARK VINA RESULT:      -3.4      2.607      3.315
REMARK  0 active torsions:
REMARK  status: ('A' for Active; 'I' for Inactive)
ROOT
HETATM    1  C1  UNL     1     -33.071   6.516   3.663  1.00 20.00     0.001 C 
HETATM    2  C2  UNL     1     -33.709   6.835   4.800  1.00 20.00     0.076 C 
HETATM    3  C3  UNL     1     -32.243   7.411   2.796  1.00 20.00     0.038 C 
HETATM    4 CL4  UNL     1     -33.666   8.428   5.476  1.00 20.00    -0.076 Cl
HETATM    5 BR5  UNL     1     -34.704   5.565   5.750  1.00 20.00    -0.038 Br
ENDROOT
TORSDOF 0
ENDMDL
MODEL 6
REMARK VINA RESULT:      -3.3      1.907      2.546
REMARK  0 active torsions:
REMARK  status: ('A' for Active; 'I' for Inactive)
ROOT
HETATM    1  C1  UNL     1     -32.933   6.297   3.332  1.00 20.00     0.001 C 
HETATM    2  C2  UNL     1     -33.693   6.567   4.405  1.00 20.00     0.076 C 
HETATM    3  C3  UNL     1     -32.952   5.065   2.483  1.00 20.00     0.038 C 
HETATM    4 CL4  UNL     1     -34.884   5.462   5.004  1.00 20.00    -0.076 Cl
HETATM    5 BR5  UNL     1     -33.521   8.178   5.343  1.00 20.00    -0.038 Br
ENDROOT
TORSDOF 0
ENDMDL
MODEL 7
REMARK VINA RESULT:      -3.3      2.082      2.104
REMARK  0 active torsions:
REMARK  status: ('A' for Active; 'I' for Inactive)
ROOT
HETATM    1  C1  UNL     1     -34.333   5.343   5.076  1.00 20.00     0.001 C 
HETATM    2  C2  UNL     1     -33.639   6.067   4.184  1.00 20.00     0.076 C 
HETATM    3  C3  UNL     1     -34.900   5.801   6.383  1.00 20.00     0.038 C 
HETATM    4 CL4  UNL     1     -33.273   7.742   4.426  1.00 20.00    -0.076 Cl
HETATM    5 BR5  UNL     1     -33.007   5.310   2.593  1.00 20.00    -0.038 Br
ENDROOT
TORSDOF 0
ENDMDL
MODEL 8
REMARK VINA RESULT:      -3.2      2.373      2.554
REMARK  0 active torsions:
REMARK  status: ('A' for Active; 'I' for Inactive)
ROOT
HETATM    1  C1  UNL     1     -33.208   7.457   4.439  1.00 20.00     0.001 C 
HETATM    2  C2  UNL     1     -33.694   6.240   4.146  1.00 20.00     0.076 C 
HETATM    3  C3  UNL     1     -33.643   8.375   5.537  1.00 20.00     0.038 C 
HETATM    4 CL4  UNL     1     -34.975   5.505   5.050  1.00 20.00    -0.076 Cl
HETATM    5 BR5  UNL     1     -33.013   5.235   2.720  1.00 20.00    -0.038 Br
ENDROOT
TORSDOF 0
ENDMDL
MODEL 9
REMARK VINA RESULT:      -2.9      2.838      3.161
REMARK  0 active torsions:
REMARK  status: ('A' for Active; 'I' for Inactive)
ROOT
HETATM    1  C1  UNL     1     -32.663   7.605   4.327  1.00 20.00     0.001 C 
HETATM    2  C2  UNL     1     -32.575   7.068   3.100  1.00 20.00     0.076 C 
HETATM    3  C3  UNL     1     -32.365   9.013   4.734  1.00 20.00     0.038 C 
HETATM    4 CL4  UNL     1     -32.071   7.982   1.718  1.00 20.00    -0.076 Cl
HETATM    5 BR5  UNL     1     -32.994   5.270   2.788  1.00 20.00    -0.038 Br
ENDROOT
TORSDOF 0
ENDMDL
