MODEL 1
REMARK VINA RESULT:      -4.8      0.000      0.000
REMARK  2 active torsions:
REMARK  status: ('A' for Active; 'I' for Inactive)
REMARK    1  A    between atoms: C8_8  and  C10_10 
REMARK    2  A    between atoms: C10_10  and  C11_11 
ROOT
HETATM    1  C1  UNL     1     -34.196  15.137  -6.719  1.00 20.00     0.064 C 
HETATM    2  C2  UNL     1     -34.856  17.700  -5.192  1.00 20.00     0.002 C 
HETATM    3  C3  UNL     1     -35.733  16.451  -5.263  1.00 20.00     0.019 C 
HETATM    4  C4  UNL     1     -34.099  14.696  -4.283  1.00 20.00     0.019 C 
HETATM    5  C5  UNL     1     -34.288  18.028  -3.814  1.00 20.00     0.005 C 
HETATM    6  C6  UNL     1     -33.121  15.737  -3.730  1.00 20.00     0.006 C 
HETATM    7  C7  UNL     1     -34.974  15.130  -5.464  1.00 20.00     0.093 C 
HETATM    8  C8  UNL     1     -33.825  16.853  -2.943  1.00 20.00    -0.014 C 
HETATM    9  N12 UNL     1     -33.585  15.143  -7.704  1.00 20.00    -0.197 NA
ENDROOT
BRANCH   8  10
HETATM   10  C10 UNL     1     -32.908  17.383  -1.833  1.00 20.00     0.004 C 
BRANCH  10  11
HETATM   11  C11 UNL     1     -33.715  17.795  -0.610  1.00 20.00    -0.004 C 
HETATM   12  C9  UNL     1     -32.843  18.526   0.398  1.00 20.00     0.005 C 
ENDBRANCH  10  11
ENDBRANCH   8  10
TORSDOF 2
ENDMDL
MODEL 2
REMARK VINA RESULT:      -4.6      1.619      2.451
REMARK  2 active torsions:
REMARK  status: ('A' for Active; 'I' for Inactive)
REMARK    1  A    between atoms: C8_8  and  C10_10 
REMARK    2  A    between atoms: C10_10  and  C11_11 
ROOT
HETATM    1  C1  UNL     1     -36.305  15.538  -5.679  1.00 20.00     0.064 C 
HETATM    2  C2  UNL     1     -33.912  15.059  -3.840  1.00 20.00     0.002 C 
HETATM    3  C3  UNL     1     -33.865  15.143  -5.365  1.00 20.00     0.019 C 
HETATM    4  C4  UNL     1     -34.824  17.524  -5.715  1.00 20.00     0.019 C 
HETATM    5  C5  UNL     1     -33.186  16.175  -3.096  1.00 20.00     0.005 C 
HETATM    6  C6  UNL     1     -34.672  17.933  -4.246  1.00 20.00     0.006 C 
HETATM    7  C7  UNL     1     -34.949  16.024  -6.005  1.00 20.00     0.093 C 
HETATM    8  C8  UNL     1     -33.287  17.592  -3.677  1.00 20.00    -0.014 C 
HETATM    9  N12 UNL     1     -37.369  15.156  -5.423  1.00 20.00    -0.197 NA
ENDROOT
BRANCH   8  10
HETATM   10  C10 UNL     1     -32.892  18.606  -2.595  1.00 20.00     0.004 C 
BRANCH  10  11
HETATM   11  C11 UNL     1     -32.685  17.918  -1.253  1.00 20.00    -0.004 C 
HETATM   12  C9  UNL     1     -31.488  18.502  -0.519  1.00 20.00     0.005 C 
ENDBRANCH  10  11
ENDBRANCH   8  10
TORSDOF 2
ENDMDL
MODEL 3
REMARK VINA RESULT:      -4.5      1.530      2.449
REMARK  2 active torsions:
REMARK  status: ('A' for Active; 'I' for Inactive)
REMARK    1  A    between atoms: C8_8  and  C10_10 
REMARK    2  A    between atoms: C10_10  and  C11_11 
ROOT
HETATM    1  C1  UNL     1     -36.223  16.231  -6.725  1.00 20.00     0.064 C 
HETATM    2  C2  UNL     1     -34.428  14.544  -4.918  1.00 20.00     0.002 C 
HETATM    3  C3  UNL     1     -34.002  15.222  -6.220  1.00 20.00     0.019 C 
HETATM    4  C4  UNL     1     -34.539  17.689  -5.640  1.00 20.00     0.019 C 
HETATM    5  C5  UNL     1     -33.768  15.080  -3.651  1.00 20.00     0.005 C 
HETATM    6  C6  UNL     1     -34.697  17.430  -4.139  1.00 20.00     0.006 C 
HETATM    7  C7  UNL     1     -34.779  16.499  -6.576  1.00 20.00     0.093 C 
HETATM    8  C8  UNL     1     -33.545  16.596  -3.558  1.00 20.00    -0.014 C 
HETATM    9  N12 UNL     1     -37.358  16.021  -6.841  1.00 20.00    -0.197 NA
ENDROOT
BRANCH   8  10
HETATM   10  C10 UNL     1     -33.299  16.977  -2.092  1.00 20.00     0.004 C 
BRANCH  10  11
HETATM   11  C11 UNL     1     -32.669  18.358  -1.986  1.00 20.00    -0.004 C 
HETATM   12  C9  UNL     1     -31.790  18.464  -0.749  1.00 20.00     0.005 C 
ENDBRANCH  10  11
ENDBRANCH   8  10
TORSDOF 2
ENDMDL
MODEL 4
REMARK VINA RESULT:      -4.1     12.017     13.862
REMARK  2 active torsions:
REMARK  status: ('A' for Active; 'I' for Inactive)
REMARK    1  A    between atoms: C8_8  and  C10_10 
REMARK    2  A    between atoms: C10_10  and  C11_11 
ROOT
HETATM    1  C1  UNL     1     -42.462  16.537   8.633  1.00 20.00     0.064 C 
HETATM    2  C2  UNL     1     -42.980  15.020   6.032  1.00 20.00     0.002 C 
HETATM    3  C3  UNL     1     -42.171  16.310   6.170  1.00 20.00     0.019 C 
HETATM    4  C4  UNL     1     -40.348  15.524   7.832  1.00 20.00     0.019 C 
HETATM    5  C5  UNL     1     -42.187  13.789   5.604  1.00 20.00     0.005 C 
HETATM    6  C6  UNL     1     -40.661  14.034   7.661  1.00 20.00     0.006 C 
HETATM    7  C7  UNL     1     -41.483  16.508   7.529  1.00 20.00     0.093 C 
HETATM    8  C8  UNL     1     -40.777  13.619   6.187  1.00 20.00    -0.014 C 
HETATM    9  N12 UNL     1     -43.231  16.559   9.501  1.00 20.00    -0.197 NA
ENDROOT
BRANCH   8  10
HETATM   10  C10 UNL     1     -40.333  12.161   6.006  1.00 20.00     0.004 C 
BRANCH  10  11
HETATM   11  C11 UNL     1     -38.927  12.087   5.429  1.00 20.00    -0.004 C 
HETATM   12  C9  UNL     1     -38.958  11.668   3.968  1.00 20.00     0.005 C 
ENDBRANCH  10  11
ENDBRANCH   8  10
TORSDOF 2
ENDMDL
MODEL 5
REMARK VINA RESULT:      -4.1     12.962     14.829
REMARK  2 active torsions:
REMARK  status: ('A' for Active; 'I' for Inactive)
REMARK    1  A    between atoms: C8_8  and  C10_10 
REMARK    2  A    between atoms: C10_10  and  C11_11 
ROOT
HETATM    1  C1  UNL     1     -41.589  14.104  10.375  1.00 20.00     0.064 C 
HETATM    2  C2  UNL     1     -43.157  12.807   8.096  1.00 20.00     0.002 C 
HETATM    3  C3  UNL     1     -43.329  14.241   8.597  1.00 20.00     0.019 C 
HETATM    4  C4  UNL     1     -40.928  15.139   8.223  1.00 20.00     0.019 C 
HETATM    5  C5  UNL     1     -42.616  12.666   6.676  1.00 20.00     0.005 C 
HETATM    6  C6  UNL     1     -40.497  13.968   7.335  1.00 20.00     0.006 C 
HETATM    7  C7  UNL     1     -42.070  14.874   9.210  1.00 20.00     0.093 C 
HETATM    8  C8  UNL     1     -41.522  13.649   6.237  1.00 20.00    -0.014 C 
HETATM    9  N12 UNL     1     -41.211  13.499  11.289  1.00 20.00    -0.197 NA
ENDROOT
BRANCH   8  10
HETATM   10  C10 UNL     1     -40.816  13.089   4.995  1.00 20.00     0.004 C 
BRANCH  10  11
HETATM   11  C11 UNL     1     -39.831  11.993   5.376  1.00 20.00    -0.004 C 
HETATM   12  C9  UNL     1     -38.965  11.601   4.189  1.00 20.00     0.005 C 
ENDBRANCH  10  11
ENDBRANCH   8  10
TORSDOF 2
ENDMDL
MODEL 6
REMARK VINA RESULT:      -4.0     11.491     13.313
REMARK  2 active torsions:
REMARK  status: ('A' for Active; 'I' for Inactive)
REMARK    1  A    between atoms: C8_8  and  C10_10 
REMARK    2  A    between atoms: C10_10  and  C11_11 
ROOT
HETATM    1  C1  UNL     1     -42.362  17.033   5.937  1.00 20.00     0.064 C 
HETATM    2  C2  UNL     1     -40.552  15.343   7.726  1.00 20.00     0.002 C 
HETATM    3  C3  UNL     1     -42.038  15.614   7.959  1.00 20.00     0.019 C 
HETATM    4  C4  UNL     1     -43.020  14.651   5.764  1.00 20.00     0.019 C 
HETATM    5  C5  UNL     1     -40.187  13.893   7.424  1.00 20.00     0.005 C 
HETATM    6  C6  UNL     1     -41.738  13.911   5.371  1.00 20.00     0.006 C 
HETATM    7  C7  UNL     1     -42.864  15.864   6.687  1.00 20.00     0.093 C 
HETATM    8  C8  UNL     1     -41.146  13.095   6.529  1.00 20.00    -0.014 C 
HETATM    9  N12 UNL     1     -41.969  17.950   5.347  1.00 20.00    -0.197 NA
ENDROOT
BRANCH   8  10
HETATM   10  C10 UNL     1     -40.415  11.858   5.991  1.00 20.00     0.004 C 
BRANCH  10  11
HETATM   11  C11 UNL     1     -39.078  12.241   5.372  1.00 20.00    -0.004 C 
HETATM   12  C9  UNL     1     -38.940  11.665   3.971  1.00 20.00     0.005 C 
ENDBRANCH  10  11
ENDBRANCH   8  10
TORSDOF 2
ENDMDL
MODEL 7
REMARK VINA RESULT:      -3.8      2.000      3.072
REMARK  2 active torsions:
REMARK  status: ('A' for Active; 'I' for Inactive)
REMARK    1  A    between atoms: C8_8  and  C10_10 
REMARK    2  A    between atoms: C10_10  and  C11_11 
ROOT
HETATM    1  C1  UNL     1     -36.127  17.717  -5.059  1.00 20.00     0.064 C 
HETATM    2  C2  UNL     1     -33.815  16.306  -3.645  1.00 20.00     0.002 C 
HETATM    3  C3  UNL     1     -33.685  17.460  -4.639  1.00 20.00     0.019 C 
HETATM    4  C4  UNL     1     -35.092  19.263  -3.423  1.00 20.00     0.019 C 
HETATM    5  C5  UNL     1     -33.387  16.619  -2.214  1.00 20.00     0.005 C 
HETATM    6  C6  UNL     1     -35.127  18.511  -2.089  1.00 20.00     0.006 C 
HETATM    7  C7  UNL     1     -34.884  18.420  -4.686  1.00 20.00     0.093 C 
HETATM    8  C8  UNL     1     -33.742  18.005  -1.659  1.00 20.00    -0.014 C 
HETATM    9  N12 UNL     1     -37.104  17.164  -5.351  1.00 20.00    -0.197 NA
ENDROOT
BRANCH   8  10
HETATM   10  C10 UNL     1     -33.639  17.972  -0.128  1.00 20.00     0.004 C 
BRANCH  10  11
HETATM   11  C11 UNL     1     -32.578  18.944   0.368  1.00 20.00    -0.004 C 
HETATM   12  C9  UNL     1     -31.196  18.539  -0.118  1.00 20.00     0.005 C 
ENDBRANCH  10  11
ENDBRANCH   8  10
TORSDOF 2
ENDMDL
MODEL 8
REMARK VINA RESULT:      -3.7     11.907     13.194
REMARK  2 active torsions:
REMARK  status: ('A' for Active; 'I' for Inactive)
REMARK    1  A    between atoms: C8_8  and  C10_10 
REMARK    2  A    between atoms: C10_10  and  C11_11 
ROOT
HETATM    1  C1  UNL     1     -34.155   5.623   6.437  1.00 20.00     0.064 C 
HETATM    2  C2  UNL     1     -33.654   4.961   3.497  1.00 20.00     0.002 C 
HETATM    3  C3  UNL     1     -34.945   5.539   4.076  1.00 20.00     0.019 C 
HETATM    4  C4  UNL     1     -34.029   7.722   5.127  1.00 20.00     0.019 C 
HETATM    5  C5  UNL     1     -32.890   5.878   2.546  1.00 20.00     0.005 C 
HETATM    6  C6  UNL     1     -32.684   7.654   4.396  1.00 20.00     0.006 C 
HETATM    7  C7  UNL     1     -34.768   6.396   5.339  1.00 20.00     0.093 C 
HETATM    8  C8  UNL     1     -32.839   7.371   2.895  1.00 20.00    -0.014 C 
HETATM    9  N12 UNL     1     -33.674   5.016   7.300  1.00 20.00    -0.197 NA
ENDROOT
BRANCH   8  10
HETATM   10  C10 UNL     1     -31.699   8.031   2.108  1.00 20.00     0.004 C 
BRANCH  10  11
HETATM   11  C11 UNL     1     -32.146   8.388   0.698  1.00 20.00    -0.004 C 
HETATM   12  C9  UNL     1     -32.896   9.710   0.681  1.00 20.00     0.005 C 
ENDBRANCH  10  11
ENDBRANCH   8  10
TORSDOF 2
ENDMDL
MODEL 9
REMARK VINA RESULT:      -3.7      2.433      5.014
REMARK  2 active torsions:
REMARK  status: ('A' for Active; 'I' for Inactive)
REMARK    1  A    between atoms: C8_8  and  C10_10 
REMARK    2  A    between atoms: C10_10  and  C11_11 
ROOT
HETATM    1  C1  UNL     1     -33.507  17.453  -1.591  1.00 20.00     0.064 C 
HETATM    2  C2  UNL     1     -35.337  18.222  -3.914  1.00 20.00     0.002 C 
HETATM    3  C3  UNL     1     -33.833  18.478  -3.838  1.00 20.00     0.019 C 
HETATM    4  C4  UNL     1     -32.976  16.049  -3.562  1.00 20.00     0.019 C 
HETATM    5  C5  UNL     1     -35.785  17.241  -4.993  1.00 20.00     0.005 C 
HETATM    6  C6  UNL     1     -34.307  15.404  -3.961  1.00 20.00     0.006 C 
HETATM    7  C7  UNL     1     -33.040  17.470  -2.991  1.00 20.00     0.093 C 
HETATM    8  C8  UNL     1     -34.899  16.013  -5.241  1.00 20.00    -0.014 C 
HETATM    9  N12 UNL     1     -33.875  17.439  -0.491  1.00 20.00    -0.197 NA
ENDROOT
BRANCH   8  10
HETATM   10  C10 UNL     1     -35.709  14.958  -6.007  1.00 20.00     0.004 C 
BRANCH  10  11
HETATM   11  C11 UNL     1     -35.636  15.199  -7.508  1.00 20.00    -0.004 C 
HETATM   12  C9  UNL     1     -34.251  15.677  -7.918  1.00 20.00     0.005 C 
ENDBRANCH  10  11
ENDBRANCH   8  10
TORSDOF 2
ENDMDL
