MODEL 1
REMARK VINA RESULT:      -4.8      0.000      0.000
REMARK  1 active torsions:
REMARK  status: ('A' for Active; 'I' for Inactive)
REMARK    1  A    between atoms: C4_4  and  C10_10 
ROOT
HETATM    1  C5  UNL     1     -34.618  19.238  -3.406  1.00 20.00     0.001 C 
HETATM    2  C6  UNL     1     -35.054  18.358  -4.574  1.00 20.00     0.001 C 
HETATM    3  C7  UNL     1     -34.932  18.619  -2.046  1.00 20.00     0.009 C 
HETATM    4  C8  UNL     1     -34.150  17.163  -4.856  1.00 20.00     0.020 C 
HETATM    5  C9  UNL     1     -33.119  16.787  -2.549  1.00 20.00     0.029 C 
HETATM    6  C10 UNL     1     -33.927  17.584  -1.507  1.00 20.00     0.020 C 
HETATM    7  C11 UNL     1     -33.963  16.196  -3.683  1.00 20.00     0.083 C 
HETATM    8 CL13 UNL     1     -33.118  14.735  -4.317  1.00 20.00    -0.125 Cl
ENDROOT
BRANCH   6   9
HETATM    9  C4  UNL     1     -32.997  18.200  -0.468  1.00 20.00    -0.047 A 
HETATM   10  C1  UNL     1     -31.614  18.461  -0.693  1.00 20.00     0.015 A 
HETATM   11  C2  UNL     1     -31.007  19.019   0.410  1.00 20.00     0.050 A 
HETATM   12  S12 UNL     1     -32.102  19.229   1.710  1.00 20.00    -0.113 SA
HETATM   13  C3  UNL     1     -33.393  18.570   0.799  1.00 20.00     0.057 A 
ENDBRANCH   6   9
TORSDOF 1
ENDMDL
MODEL 2
REMARK VINA RESULT:      -4.2      1.966      3.068
REMARK  1 active torsions:
REMARK  status: ('A' for Active; 'I' for Inactive)
REMARK    1  A    between atoms: C4_4  and  C10_10 
ROOT
HETATM    1  C5  UNL     1     -34.034  14.906  -3.723  1.00 20.00     0.001 C 
HETATM    2  C6  UNL     1     -34.698  14.747  -5.087  1.00 20.00     0.001 C 
HETATM    3  C7  UNL     1     -32.934  15.966  -3.717  1.00 20.00     0.009 C 
HETATM    4  C8  UNL     1     -35.689  15.845  -5.456  1.00 20.00     0.020 C 
HETATM    5  C9  UNL     1     -34.796  17.786  -4.056  1.00 20.00     0.029 C 
HETATM    6  C10 UNL     1     -33.384  17.430  -3.554  1.00 20.00     0.020 C 
HETATM    7  C11 UNL     1     -35.115  17.266  -5.462  1.00 20.00     0.083 C 
HETATM    8 CL13 UNL     1     -36.356  18.347  -6.199  1.00 20.00    -0.125 Cl
ENDROOT
BRANCH   6   9
HETATM    9  C4  UNL     1     -33.187  17.917  -2.123  1.00 20.00    -0.047 A 
HETATM   10  C1  UNL     1     -33.965  17.468  -1.016  1.00 20.00     0.015 A 
HETATM   11  C2  UNL     1     -33.581  18.067   0.163  1.00 20.00     0.050 A 
HETATM   12  S12 UNL     1     -32.286  19.164  -0.065  1.00 20.00    -0.113 SA
HETATM   13  C3  UNL     1     -32.238  18.841  -1.746  1.00 20.00     0.057 A 
ENDBRANCH   6   9
TORSDOF 1
ENDMDL
MODEL 3
REMARK VINA RESULT:      -4.1      1.956      2.920
REMARK  1 active torsions:
REMARK  status: ('A' for Active; 'I' for Inactive)
REMARK    1  A    between atoms: C4_4  and  C10_10 
ROOT
HETATM    1  C5  UNL     1     -34.043  14.895  -3.785  1.00 20.00     0.001 C 
HETATM    2  C6  UNL     1     -34.531  14.765  -5.224  1.00 20.00     0.001 C 
HETATM    3  C7  UNL     1     -32.912  15.910  -3.630  1.00 20.00     0.009 C 
HETATM    4  C8  UNL     1     -35.421  15.903  -5.711  1.00 20.00     0.020 C 
HETATM    5  C9  UNL     1     -34.640  17.805  -4.195  1.00 20.00     0.029 C 
HETATM    6  C10 UNL     1     -33.321  17.392  -3.517  1.00 20.00     0.020 C 
HETATM    7  C11 UNL     1     -34.796  17.300  -5.633  1.00 20.00     0.083 C 
HETATM    8 CL13 UNL     1     -35.887  18.430  -6.517  1.00 20.00    -0.125 Cl
ENDROOT
BRANCH   6   9
HETATM    9  C4  UNL     1     -33.291  17.868  -2.069  1.00 20.00    -0.047 A 
HETATM   10  C1  UNL     1     -32.094  18.085  -1.327  1.00 20.00     0.015 A 
HETATM   11  C2  UNL     1     -32.351  18.513  -0.043  1.00 20.00     0.050 A 
HETATM   12  S12 UNL     1     -34.030  18.651   0.264  1.00 20.00    -0.113 SA
HETATM   13  C3  UNL     1     -34.417  18.138  -1.323  1.00 20.00     0.057 A 
ENDBRANCH   6   9
TORSDOF 1
ENDMDL
MODEL 4
REMARK VINA RESULT:      -3.8      3.289      5.234
REMARK  1 active torsions:
REMARK  status: ('A' for Active; 'I' for Inactive)
REMARK    1  A    between atoms: C4_4  and  C10_10 
ROOT
HETATM    1  C5  UNL     1     -31.635  18.620  -0.958  1.00 20.00     0.001 C 
HETATM    2  C6  UNL     1     -31.594  18.650   0.567  1.00 20.00     0.001 C 
HETATM    3  C7  UNL     1     -32.540  17.518  -1.506  1.00 20.00     0.009 C 
HETATM    4  C8  UNL     1     -32.822  19.259   1.236  1.00 20.00     0.020 C 
HETATM    5  C9  UNL     1     -34.598  18.842  -0.552  1.00 20.00     0.029 C 
HETATM    6  C10 UNL     1     -34.047  17.829  -1.573  1.00 20.00     0.020 C 
HETATM    7  C11 UNL     1     -34.153  18.585   0.892  1.00 20.00     0.083 C 
HETATM    8 CL13 UNL     1     -35.404  19.263   2.000  1.00 20.00    -0.125 Cl
ENDROOT
BRANCH   6   9
HETATM    9  C4  UNL     1     -34.474  18.210  -2.987  1.00 20.00    -0.047 A 
HETATM   10  C1  UNL     1     -33.584  18.265  -4.098  1.00 20.00     0.015 A 
HETATM   11  C2  UNL     1     -34.227  18.637  -5.258  1.00 20.00     0.050 A 
HETATM   12  S12 UNL     1     -35.897  18.919  -5.005  1.00 20.00    -0.113 SA
HETATM   13  C3  UNL     1     -35.763  18.543  -3.340  1.00 20.00     0.057 A 
ENDBRANCH   6   9
TORSDOF 1
ENDMDL
MODEL 5
REMARK VINA RESULT:      -3.5     25.149     26.171
REMARK  1 active torsions:
REMARK  status: ('A' for Active; 'I' for Inactive)
REMARK    1  A    between atoms: C4_4  and  C10_10 
ROOT
HETATM    1  C5  UNL     1     -23.709  -4.151  12.332  1.00 20.00     0.001 C 
HETATM    2  C6  UNL     1     -22.363  -4.296  11.627  1.00 20.00     0.001 C 
HETATM    3  C7  UNL     1     -24.284  -2.740  12.232  1.00 20.00     0.009 C 
HETATM    4  C8  UNL     1     -22.435  -4.382  10.107  1.00 20.00     0.020 C 
HETATM    5  C9  UNL     1     -24.626  -3.147   9.660  1.00 20.00     0.029 C 
HETATM    6  C10 UNL     1     -25.040  -2.390  10.936  1.00 20.00     0.020 C 
HETATM    7  C11 UNL     1     -23.113  -3.194   9.418  1.00 20.00     0.083 C 
HETATM    8 CL13 UNL     1     -22.827  -3.361   7.646  1.00 20.00    -0.125 Cl
ENDROOT
BRANCH   6   9
HETATM    9  C4  UNL     1     -26.550  -2.467  11.136  1.00 20.00    -0.047 A 
HETATM   10  C1  UNL     1     -27.503  -2.087  10.147  1.00 20.00     0.015 A 
HETATM   11  C2  UNL     1     -28.798  -2.254  10.586  1.00 20.00     0.050 A 
HETATM   12  S12 UNL     1     -28.862  -2.867  12.183  1.00 20.00    -0.113 SA
HETATM   13  C3  UNL     1     -27.154  -2.910  12.292  1.00 20.00     0.057 A 
ENDBRANCH   6   9
TORSDOF 1
ENDMDL
MODEL 6
REMARK VINA RESULT:      -3.4     11.959     13.005
REMARK  1 active torsions:
REMARK  status: ('A' for Active; 'I' for Inactive)
REMARK    1  A    between atoms: C4_4  and  C10_10 
ROOT
HETATM    1  C5  UNL     1     -43.257  13.893   7.860  1.00 20.00     0.001 C 
HETATM    2  C6  UNL     1     -42.932  12.496   7.341  1.00 20.00     0.001 C 
HETATM    3  C7  UNL     1     -42.263  14.383   8.912  1.00 20.00     0.009 C 
HETATM    4  C8  UNL     1     -41.776  12.427   6.350  1.00 20.00     0.020 C 
HETATM    5  C9  UNL     1     -40.442  14.498   7.023  1.00 20.00     0.029 C 
HETATM    6  C10 UNL     1     -40.948  14.993   8.391  1.00 20.00     0.020 C 
HETATM    7  C11 UNL     1     -40.441  12.974   6.865  1.00 20.00     0.083 C 
HETATM    8 CL13 UNL     1     -39.174  12.529   5.662  1.00 20.00    -0.125 Cl
ENDROOT
BRANCH   6   9
HETATM    9  C4  UNL     1     -40.990  16.517   8.426  1.00 20.00    -0.047 A 
HETATM   10  C1  UNL     1     -40.614  17.348   7.332  1.00 20.00     0.015 A 
HETATM   11  C2  UNL     1     -40.746  18.687   7.630  1.00 20.00     0.050 A 
HETATM   12  S12 UNL     1     -41.322  18.937   9.222  1.00 20.00    -0.113 SA
HETATM   13  C3  UNL     1     -41.396  17.252   9.518  1.00 20.00     0.057 A 
ENDBRANCH   6   9
TORSDOF 1
ENDMDL
MODEL 7
REMARK VINA RESULT:      -3.3      3.571      4.685
REMARK  1 active torsions:
REMARK  status: ('A' for Active; 'I' for Inactive)
REMARK    1  A    between atoms: C4_4  and  C10_10 
ROOT
HETATM    1  C5  UNL     1     -33.659  16.071  -3.117  1.00 20.00     0.001 C 
HETATM    2  C6  UNL     1     -32.890  15.265  -4.160  1.00 20.00     0.001 C 
HETATM    3  C7  UNL     1     -33.938  17.505  -3.561  1.00 20.00     0.009 C 
HETATM    4  C8  UNL     1     -33.718  14.787  -5.348  1.00 20.00     0.020 C 
HETATM    5  C9  UNL     1     -35.575  16.541  -5.375  1.00 20.00     0.029 C 
HETATM    6  C10 UNL     1     -35.158  17.722  -4.478  1.00 20.00     0.020 C 
HETATM    7  C11 UNL     1     -34.417  15.894  -6.143  1.00 20.00     0.083 C 
HETATM    8 CL13 UNL     1     -35.080  15.145  -7.643  1.00 20.00    -0.125 Cl
ENDROOT
BRANCH   6   9
HETATM    9  C4  UNL     1     -36.356  18.247  -3.694  1.00 20.00    -0.047 A 
HETATM   10  C1  UNL     1     -36.257  18.887  -2.425  1.00 20.00     0.015 A 
HETATM   11  C2  UNL     1     -37.490  19.263  -1.938  1.00 20.00     0.050 A 
HETATM   12  S12 UNL     1     -38.759  18.846  -3.009  1.00 20.00    -0.113 SA
HETATM   13  C3  UNL     1     -37.660  18.159  -4.129  1.00 20.00     0.057 A 
ENDBRANCH   6   9
TORSDOF 1
ENDMDL
MODEL 8
REMARK VINA RESULT:      -3.3     11.969     13.188
REMARK  1 active torsions:
REMARK  status: ('A' for Active; 'I' for Inactive)
REMARK    1  A    between atoms: C4_4  and  C10_10 
ROOT
HETATM    1  C5  UNL     1     -42.714  15.301   6.041  1.00 20.00     0.001 C 
HETATM    2  C6  UNL     1     -42.556  14.347   4.862  1.00 20.00     0.001 C 
HETATM    3  C7  UNL     1     -43.102  14.589   7.335  1.00 20.00     0.009 C 
HETATM    4  C8  UNL     1     -41.266  13.534   4.856  1.00 20.00     0.020 C 
HETATM    5  C9  UNL     1     -40.717  13.489   7.351  1.00 20.00     0.029 C 
HETATM    6  C10 UNL     1     -41.957  13.946   8.142  1.00 20.00     0.020 C 
HETATM    7  C11 UNL     1     -41.036  12.666   6.098  1.00 20.00     0.083 C 
HETATM    8 CL13 UNL     1     -39.632  11.590   5.753  1.00 20.00    -0.125 Cl
ENDROOT
BRANCH   6   9
HETATM    9  C4  UNL     1     -41.546  14.822   9.320  1.00 20.00    -0.047 A 
HETATM   10  C1  UNL     1     -40.461  14.523  10.193  1.00 20.00     0.015 A 
HETATM   11  C2  UNL     1     -40.307  15.479  11.173  1.00 20.00     0.050 A 
HETATM   12  S12 UNL     1     -41.466  16.731  11.038  1.00 20.00    -0.113 SA
HETATM   13  C3  UNL     1     -42.179  15.996   9.665  1.00 20.00     0.057 A 
ENDBRANCH   6   9
TORSDOF 1
ENDMDL
MODEL 9
REMARK VINA RESULT:      -3.3     24.732     25.732
REMARK  1 active torsions:
REMARK  status: ('A' for Active; 'I' for Inactive)
REMARK    1  A    between atoms: C4_4  and  C10_10 
ROOT
HETATM    1  C5  UNL     1     -25.382  -1.366  12.332  1.00 20.00     0.001 C 
HETATM    2  C6  UNL     1     -23.942  -1.437  11.834  1.00 20.00     0.001 C 
HETATM    3  C7  UNL     1     -26.395  -1.214  11.199  1.00 20.00     0.009 C 
HETATM    4  C8  UNL     1     -23.533  -2.774  11.225  1.00 20.00     0.020 C 
HETATM    5  C9  UNL     1     -25.799  -3.657  10.443  1.00 20.00     0.029 C 
HETATM    6  C10 UNL     1     -26.819  -2.503  10.471  1.00 20.00     0.020 C 
HETATM    7  C11 UNL     1     -24.383  -3.236  10.037  1.00 20.00     0.083 C 
HETATM    8 CL13 UNL     1     -23.556  -4.660   9.303  1.00 20.00    -0.125 Cl
ENDROOT
BRANCH   6   9
HETATM    9  C4  UNL     1     -28.174  -3.000  10.963  1.00 20.00    -0.047 A 
HETATM   10  C1  UNL     1     -29.308  -2.159  11.154  1.00 20.00     0.015 A 
HETATM   11  C2  UNL     1     -30.404  -2.861  11.606  1.00 20.00     0.050 A 
HETATM   12  S12 UNL     1     -30.064  -4.528  11.796  1.00 20.00    -0.113 SA
HETATM   13  C3  UNL     1     -28.447  -4.314  11.275  1.00 20.00     0.057 A 
ENDBRANCH   6   9
TORSDOF 1
ENDMDL
