MODEL 1
REMARK VINA RESULT:      -4.8      0.000      0.000
REMARK  1 active torsions:
REMARK  status: ('A' for Active; 'I' for Inactive)
REMARK    1  A    between atoms: C3_3  and  C8_8 
ROOT
HETATM    1  C1  UNL     1     -30.264  18.748   1.832  1.00 20.00     0.022 A 
HETATM    2  C2  UNL     1     -32.224  19.262   2.972  1.00 20.00     0.057 A 
HETATM    3  C3  UNL     1     -31.667  18.983   1.743  1.00 20.00    -0.046 A 
HETATM    4  C4  UNL     1     -29.802  18.857   3.126  1.00 20.00    -0.021 A 
HETATM    5  C10 UNL     1     -28.422  18.687   3.628  1.00 20.00     0.056 C 
HETATM    6  S11 UNL     1     -31.057  19.241   4.226  1.00 20.00    -0.106 SA
ENDROOT
BRANCH   3   7
HETATM    7  C8  UNL     1     -32.451  18.930   0.450  1.00 20.00     0.020 C 
HETATM    8  C5  UNL     1     -31.622  18.495  -0.770  1.00 20.00     0.010 C 
HETATM    9  C6  UNL     1     -32.623  17.988  -1.813  1.00 20.00     0.016 C 
HETATM   10  C9  UNL     1     -33.955  17.834  -1.090  1.00 20.00     0.058 C 
HETATM   11  C7  UNL     1     -33.633  17.950   0.393  1.00 20.00     0.025 C 
HETATM   12 BR12 UNL     1     -35.184  19.259  -1.625  1.00 20.00    -0.091 Br
ENDBRANCH   3   7
TORSDOF 1
ENDMDL
MODEL 2
REMARK VINA RESULT:      -4.2      2.493      3.609
REMARK  1 active torsions:
REMARK  status: ('A' for Active; 'I' for Inactive)
REMARK    1  A    between atoms: C3_3  and  C8_8 
ROOT
HETATM    1  C1  UNL     1     -31.774  18.342  -0.800  1.00 20.00     0.022 A 
HETATM    2  C2  UNL     1     -34.045  18.609  -0.379  1.00 20.00     0.057 A 
HETATM    3  C3  UNL     1     -33.097  18.283  -1.325  1.00 20.00    -0.046 A 
HETATM    4  C4  UNL     1     -31.761  18.712   0.527  1.00 20.00    -0.021 A 
HETATM    5  C10 UNL     1     -30.596  18.886   1.423  1.00 20.00     0.056 C 
HETATM    6  S11 UNL     1     -33.338  18.985   1.134  1.00 20.00    -0.106 SA
ENDROOT
BRANCH   3   7
HETATM    7  C8  UNL     1     -33.423  17.905  -2.754  1.00 20.00     0.020 C 
HETATM    8  C5  UNL     1     -33.248  16.409  -3.063  1.00 20.00     0.010 C 
HETATM    9  C6  UNL     1     -34.096  16.122  -4.306  1.00 20.00     0.016 C 
HETATM   10  C9  UNL     1     -34.984  17.343  -4.509  1.00 20.00     0.058 C 
HETATM   11  C7  UNL     1     -34.862  18.158  -3.230  1.00 20.00     0.025 C 
HETATM   12 BR12 UNL     1     -34.355  18.391  -6.036  1.00 20.00    -0.091 Br
ENDBRANCH   3   7
TORSDOF 1
ENDMDL
MODEL 3
REMARK VINA RESULT:      -4.2      3.928      5.504
REMARK  1 active torsions:
REMARK  status: ('A' for Active; 'I' for Inactive)
REMARK    1  A    between atoms: C3_3  and  C8_8 
ROOT
HETATM    1  C1  UNL     1     -32.944  17.448  -1.806  1.00 20.00     0.022 A 
HETATM    2  C2  UNL     1     -34.891  18.505  -2.513  1.00 20.00     0.057 A 
HETATM    3  C3  UNL     1     -33.940  17.556  -2.820  1.00 20.00    -0.046 A 
HETATM    4  C4  UNL     1     -33.172  18.320  -0.763  1.00 20.00    -0.021 A 
HETATM    5  C10 UNL     1     -32.373  18.511   0.466  1.00 20.00     0.056 C 
HETATM    6  S11 UNL     1     -34.580  19.262  -1.009  1.00 20.00    -0.106 SA
ENDROOT
BRANCH   3   7
HETATM    7  C8  UNL     1     -33.952  16.724  -4.085  1.00 20.00     0.020 C 
HETATM    8  C5  UNL     1     -33.640  15.236  -3.859  1.00 20.00     0.010 C 
HETATM    9  C6  UNL     1     -34.205  14.488  -5.071  1.00 20.00     0.016 C 
HETATM   10  C9  UNL     1     -35.098  15.478  -5.807  1.00 20.00     0.058 C 
HETATM   11  C7  UNL     1     -35.278  16.654  -4.858  1.00 20.00     0.025 C 
HETATM   12 BR12 UNL     1     -34.231  16.073  -7.457  1.00 20.00    -0.091 Br
ENDBRANCH   3   7
TORSDOF 1
ENDMDL
MODEL 4
REMARK VINA RESULT:      -3.9      4.658      7.366
REMARK  1 active torsions:
REMARK  status: ('A' for Active; 'I' for Inactive)
REMARK    1  A    between atoms: C3_3  and  C8_8 
ROOT
HETATM    1  C1  UNL     1     -35.025  17.075  -4.907  1.00 20.00     0.022 A 
HETATM    2  C2  UNL     1     -33.457  15.526  -4.166  1.00 20.00     0.057 A 
HETATM    3  C3  UNL     1     -34.037  16.755  -3.932  1.00 20.00    -0.046 A 
HETATM    4  C4  UNL     1     -35.164  16.079  -5.849  1.00 20.00    -0.021 A 
HETATM    5  C10 UNL     1     -36.075  16.033  -7.013  1.00 20.00     0.056 C 
HETATM    6  S11 UNL     1     -34.105  14.765  -5.556  1.00 20.00    -0.106 SA
ENDROOT
BRANCH   3   7
HETATM    7  C8  UNL     1     -33.667  17.659  -2.776  1.00 20.00     0.020 C 
HETATM    8  C5  UNL     1     -34.658  18.810  -2.538  1.00 20.00     0.010 C 
HETATM    9  C6  UNL     1     -34.455  19.263  -1.089  1.00 20.00     0.016 C 
HETATM   10  C9  UNL     1     -33.603  18.191  -0.421  1.00 20.00     0.058 C 
HETATM   11  C7  UNL     1     -33.596  17.012  -1.383  1.00 20.00     0.025 C 
HETATM   12 BR12 UNL     1     -31.781  18.847  -0.147  1.00 20.00    -0.091 Br
ENDBRANCH   3   7
TORSDOF 1
ENDMDL
MODEL 5
REMARK VINA RESULT:      -3.8      4.831      7.469
REMARK  1 active torsions:
REMARK  status: ('A' for Active; 'I' for Inactive)
REMARK    1  A    between atoms: C3_3  and  C8_8 
ROOT
HETATM    1  C1  UNL     1     -34.664  16.255  -4.600  1.00 20.00     0.022 A 
HETATM    2  C2  UNL     1     -34.361  18.391  -5.467  1.00 20.00     0.057 A 
HETATM    3  C3  UNL     1     -34.260  17.598  -4.345  1.00 20.00    -0.046 A 
HETATM    4  C4  UNL     1     -35.058  16.073  -5.908  1.00 20.00    -0.021 A 
HETATM    5  C10 UNL     1     -35.541  14.837  -6.560  1.00 20.00     0.056 C 
HETATM    6  S11 UNL     1     -34.941  17.517  -6.821  1.00 20.00    -0.106 SA
ENDROOT
BRANCH   3   7
HETATM    7  C8  UNL     1     -33.777  18.094  -2.999  1.00 20.00     0.020 C 
HETATM    8  C5  UNL     1     -34.798  18.964  -2.248  1.00 20.00     0.010 C 
HETATM    9  C6  UNL     1     -34.399  18.919  -0.769  1.00 20.00     0.016 C 
HETATM   10  C9  UNL     1     -33.377  17.797  -0.636  1.00 20.00     0.058 C 
HETATM   11  C7  UNL     1     -33.439  17.026  -1.946  1.00 20.00     0.025 C 
HETATM   12 BR12 UNL     1     -31.586  18.540  -0.376  1.00 20.00    -0.091 Br
ENDBRANCH   3   7
TORSDOF 1
ENDMDL
MODEL 6
REMARK VINA RESULT:      -3.7      3.449      4.698
REMARK  1 active torsions:
REMARK  status: ('A' for Active; 'I' for Inactive)
REMARK    1  A    between atoms: C3_3  and  C8_8 
ROOT
HETATM    1  C1  UNL     1     -34.385  18.313  -0.965  1.00 20.00     0.022 A 
HETATM    2  C2  UNL     1     -32.096  18.201  -1.360  1.00 20.00     0.057 A 
HETATM    3  C3  UNL     1     -33.351  17.996  -1.892  1.00 20.00    -0.046 A 
HETATM    4  C4  UNL     1     -33.882  18.748   0.242  1.00 20.00    -0.021 A 
HETATM    5  C10 UNL     1     -34.623  19.168   1.451  1.00 20.00     0.056 C 
HETATM    6  S11 UNL     1     -32.170  18.773   0.253  1.00 20.00    -0.106 SA
ENDROOT
BRANCH   3   7
HETATM    7  C8  UNL     1     -33.602  17.493  -3.298  1.00 20.00     0.020 C 
HETATM    8  C5  UNL     1     -33.367  15.984  -3.476  1.00 20.00     0.010 C 
HETATM    9  C6  UNL     1     -34.151  15.570  -4.725  1.00 20.00     0.016 C 
HETATM   10  C9  UNL     1     -35.068  16.739  -5.063  1.00 20.00     0.058 C 
HETATM   11  C7  UNL     1     -35.027  17.657  -3.850  1.00 20.00     0.025 C 
HETATM   12 BR12 UNL     1     -34.407  17.682  -6.644  1.00 20.00    -0.091 Br
ENDBRANCH   3   7
TORSDOF 1
ENDMDL
MODEL 7
REMARK VINA RESULT:      -3.6     23.238     24.553
REMARK  1 active torsions:
REMARK  status: ('A' for Active; 'I' for Inactive)
REMARK    1  A    between atoms: C3_3  and  C8_8 
ROOT
HETATM    1  C1  UNL     1     -24.206  -3.122   9.315  1.00 20.00     0.022 A 
HETATM    2  C2  UNL     1     -23.609  -3.794  11.459  1.00 20.00     0.057 A 
HETATM    3  C3  UNL     1     -24.534  -3.109  10.701  1.00 20.00    -0.046 A 
HETATM    4  C4  UNL     1     -23.041  -3.816   9.066  1.00 20.00    -0.021 A 
HETATM    5  C10 UNL     1     -22.371  -4.054   7.769  1.00 20.00     0.056 C 
HETATM    6  S11 UNL     1     -22.350  -4.447  10.499  1.00 20.00    -0.106 SA
ENDROOT
BRANCH   3   7
HETATM    7  C8  UNL     1     -25.757  -2.424  11.273  1.00 20.00     0.020 C 
HETATM    8  C5  UNL     1     -25.460  -1.084  11.965  1.00 20.00     0.010 C 
HETATM    9  C6  UNL     1     -26.780  -0.309  11.990  1.00 20.00     0.016 C 
HETATM   10  C9  UNL     1     -27.728  -1.046  11.052  1.00 20.00     0.058 C 
HETATM   11  C7  UNL     1     -26.860  -2.027  10.278  1.00 20.00     0.025 C 
HETATM   12 BR12 UNL     1     -29.082  -2.013  12.081  1.00 20.00    -0.091 Br
ENDBRANCH   3   7
TORSDOF 1
ENDMDL
MODEL 8
REMARK VINA RESULT:      -3.4     11.751     13.024
REMARK  1 active torsions:
REMARK  status: ('A' for Active; 'I' for Inactive)
REMARK    1  A    between atoms: C3_3  and  C8_8 
ROOT
HETATM    1  C1  UNL     1     -39.865  13.139   6.895  1.00 20.00     0.022 A 
HETATM    2  C2  UNL     1     -41.636  14.578   6.449  1.00 20.00     0.057 A 
HETATM    3  C3  UNL     1     -40.707  14.179   7.385  1.00 20.00    -0.046 A 
HETATM    4  C4  UNL     1     -40.184  12.782   5.602  1.00 20.00    -0.021 A 
HETATM    5  C10 UNL     1     -39.552  11.753   4.749  1.00 20.00     0.056 C 
HETATM    6  S11 UNL     1     -41.492  13.700   4.986  1.00 20.00    -0.106 SA
ENDROOT
BRANCH   3   7
HETATM    7  C8  UNL     1     -40.591  14.775   8.772  1.00 20.00     0.020 C 
HETATM    8  C5  UNL     1     -40.804  16.297   8.820  1.00 20.00     0.010 C 
HETATM    9  C6  UNL     1     -41.185  16.634  10.265  1.00 20.00     0.016 C 
HETATM   10  C9  UNL     1     -41.498  15.307  10.946  1.00 20.00     0.058 C 
HETATM   11  C7  UNL     1     -41.597  14.283   9.826  1.00 20.00     0.025 C 
HETATM   12 BR12 UNL     1     -40.056  14.821  12.176  1.00 20.00    -0.091 Br
ENDBRANCH   3   7
TORSDOF 1
ENDMDL
MODEL 9
REMARK VINA RESULT:      -3.2     11.739     13.276
REMARK  1 active torsions:
REMARK  status: ('A' for Active; 'I' for Inactive)
REMARK    1  A    between atoms: C3_3  and  C8_8 
ROOT
HETATM    1  C1  UNL     1     -40.387  13.337   7.001  1.00 20.00     0.022 A 
HETATM    2  C2  UNL     1     -42.105  14.751   6.328  1.00 20.00     0.057 A 
HETATM    3  C3  UNL     1     -41.331  14.331   7.388  1.00 20.00    -0.046 A 
HETATM    4  C4  UNL     1     -40.475  13.034   5.660  1.00 20.00    -0.021 A 
HETATM    5  C10 UNL     1     -39.677  12.063   4.881  1.00 20.00     0.056 C 
HETATM    6  S11 UNL     1     -41.692  13.947   4.874  1.00 20.00    -0.106 SA
ENDROOT
BRANCH   3   7
HETATM    7  C8  UNL     1     -41.466  14.864   8.799  1.00 20.00     0.020 C 
HETATM    8  C5  UNL     1     -42.077  13.861   9.792  1.00 20.00     0.010 C 
HETATM    9  C6  UNL     1     -41.654  14.326  11.189  1.00 20.00     0.016 C 
HETATM   10  C9  UNL     1     -40.567  15.372  10.982  1.00 20.00     0.058 C 
HETATM   11  C7  UNL     1     -40.168  15.267   9.517  1.00 20.00     0.025 C 
HETATM   12 BR12 UNL     1     -41.266  17.159  11.362  1.00 20.00    -0.091 Br
ENDBRANCH   3   7
TORSDOF 1
ENDMDL
