MODEL 1
REMARK VINA RESULT:      -4.2      0.000      0.000
REMARK  3 active torsions:
REMARK  status: ('A' for Active; 'I' for Inactive)
REMARK    1  A    between atoms: C4_4  and  C9_9 
REMARK    2  A    between atoms: C8_8  and  C9_9 
REMARK    3  A    between atoms: C9_9  and  O10_10 
ROOT
HETATM    1  C9  UNL     1     -34.066  17.908  -2.826  1.00 20.00     0.155 C 
ENDROOT
BRANCH   1   2
HETATM    2  C4  UNL     1     -34.040  16.774  -3.827  1.00 20.00    -0.022 A 
HETATM    3  C1  UNL     1     -33.315  15.563  -3.638  1.00 20.00     0.017 A 
HETATM    4  C2  UNL     1     -33.462  14.700  -4.701  1.00 20.00     0.050 A 
HETATM    5  S11 UNL     1     -34.473  15.351  -5.921  1.00 20.00    -0.113 SA
HETATM    6  C3  UNL     1     -34.715  16.791  -5.028  1.00 20.00     0.059 A 
ENDBRANCH   1   2
BRANCH   1   7
HETATM    7  C8  UNL     1     -33.294  17.588  -1.561  1.00 20.00     0.019 C 
HETATM    8  C6  UNL     1     -33.916  18.072  -0.226  1.00 20.00     0.007 C 
HETATM    9  C5  UNL     1     -32.479  18.363   0.253  1.00 20.00     0.001 C 
HETATM   10  C7  UNL     1     -32.089  18.507  -1.233  1.00 20.00     0.007 C 
ENDBRANCH   1   7
BRANCH   1  11
HETATM   11  O10 UNL     1     -35.429  18.171  -2.488  1.00 20.00    -0.391 OA
HETATM   12  H23 UNL     1     -35.952  17.463  -2.893  1.00 20.00     0.210 HD
ENDBRANCH   1  11
TORSDOF 3
ENDMDL
MODEL 2
REMARK VINA RESULT:      -4.2      2.328      3.180
REMARK  3 active torsions:
REMARK  status: ('A' for Active; 'I' for Inactive)
REMARK    1  A    between atoms: C4_4  and  C9_9 
REMARK    2  A    between atoms: C8_8  and  C9_9 
REMARK    3  A    between atoms: C9_9  and  O10_10 
ROOT
HETATM    1  C9  UNL     1     -33.985  14.945  -4.259  1.00 20.00     0.155 C 
ENDROOT
BRANCH   1   2
HETATM    2  C4  UNL     1     -34.662  15.323  -5.558  1.00 20.00    -0.022 A 
HETATM    3  C1  UNL     1     -34.006  15.332  -6.822  1.00 20.00     0.017 A 
HETATM    4  C2  UNL     1     -34.851  15.715  -7.841  1.00 20.00     0.050 A 
HETATM    5  S11 UNL     1     -36.429  16.061  -7.271  1.00 20.00    -0.113 SA
HETATM    6  C3  UNL     1     -35.984  15.699  -5.658  1.00 20.00     0.059 A 
ENDBRANCH   1   2
BRANCH   1   7
HETATM    7  C8  UNL     1     -33.171  16.080  -3.673  1.00 20.00     0.019 C 
HETATM    8  C6  UNL     1     -33.505  16.495  -2.217  1.00 20.00     0.007 C 
HETATM    9  C5  UNL     1     -33.234  17.951  -2.647  1.00 20.00     0.001 C 
HETATM   10  C7  UNL     1     -33.586  17.516  -4.085  1.00 20.00     0.007 C 
ENDBRANCH   1   7
BRANCH   1  11
HETATM   11  O10 UNL     1     -33.123  13.834  -4.516  1.00 20.00    -0.391 OA
HETATM   12  H23 UNL     1     -32.282  14.034  -4.078  1.00 20.00     0.210 HD
ENDBRANCH   1  11
TORSDOF 3
ENDMDL
MODEL 3
REMARK VINA RESULT:      -4.1     11.148     11.746
REMARK  3 active torsions:
REMARK  status: ('A' for Active; 'I' for Inactive)
REMARK    1  A    between atoms: C4_4  and  C9_9 
REMARK    2  A    between atoms: C8_8  and  C9_9 
REMARK    3  A    between atoms: C9_9  and  O10_10 
ROOT
HETATM    1  C9  UNL     1     -32.519   7.855   4.473  1.00 20.00     0.155 C 
ENDROOT
BRANCH   1   2
HETATM    2  C4  UNL     1     -32.528   8.311   3.031  1.00 20.00    -0.022 A 
HETATM    3  C1  UNL     1     -32.980   9.593   2.606  1.00 20.00     0.017 A 
HETATM    4  C2  UNL     1     -32.881   9.750   1.241  1.00 20.00     0.050 A 
HETATM    5  S11 UNL     1     -32.246   8.355   0.478  1.00 20.00    -0.113 SA
HETATM    6  C3  UNL     1     -32.101   7.536   1.974  1.00 20.00     0.059 A 
ENDBRANCH   1   2
BRANCH   1   7
HETATM    7  C8  UNL     1     -33.861   7.317   4.924  1.00 20.00     0.019 C 
HETATM    8  C6  UNL     1     -33.948   6.799   6.383  1.00 20.00     0.007 C 
HETATM    9  C5  UNL     1     -34.890   5.697   5.858  1.00 20.00     0.001 C 
HETATM   10  C7  UNL     1     -34.214   5.873   4.483  1.00 20.00     0.007 C 
ENDBRANCH   1   7
BRANCH   1  11
HETATM   11  O10 UNL     1     -32.163   8.972   5.289  1.00 20.00    -0.391 OA
HETATM   12  H23 UNL     1     -32.810   9.668   5.097  1.00 20.00     0.210 HD
ENDBRANCH   1  11
TORSDOF 3
ENDMDL
MODEL 4
REMARK VINA RESULT:      -3.9      2.477      4.939
REMARK  3 active torsions:
REMARK  status: ('A' for Active; 'I' for Inactive)
REMARK    1  A    between atoms: C4_4  and  C9_9 
REMARK    2  A    between atoms: C8_8  and  C9_9 
REMARK    3  A    between atoms: C9_9  and  O10_10 
ROOT
HETATM    1  C9  UNL     1     -33.760  15.595  -4.391  1.00 20.00     0.155 C 
ENDROOT
BRANCH   1   2
HETATM    2  C4  UNL     1     -33.501  16.782  -3.489  1.00 20.00    -0.022 A 
HETATM    3  C1  UNL     1     -33.447  16.702  -2.068  1.00 20.00     0.017 A 
HETATM    4  C2  UNL     1     -33.198  17.928  -1.490  1.00 20.00     0.050 A 
HETATM    5  S11 UNL     1     -33.031  19.167  -2.660  1.00 20.00    -0.113 SA
HETATM    6  C3  UNL     1     -33.292  18.065  -3.944  1.00 20.00     0.059 A 
ENDBRANCH   1   2
BRANCH   1   7
HETATM    7  C8  UNL     1     -34.709  15.920  -5.526  1.00 20.00     0.019 C 
HETATM    8  C6  UNL     1     -35.912  14.962  -5.723  1.00 20.00     0.007 C 
HETATM    9  C5  UNL     1     -35.733  15.167  -7.241  1.00 20.00     0.001 C 
HETATM   10  C7  UNL     1     -34.256  15.503  -6.950  1.00 20.00     0.007 C 
ENDBRANCH   1   7
BRANCH   1  11
HETATM   11  O10 UNL     1     -34.321  14.548  -3.597  1.00 20.00    -0.391 OA
HETATM   12  H23 UNL     1     -33.860  13.735  -3.852  1.00 20.00     0.210 HD
ENDBRANCH   1  11
TORSDOF 3
ENDMDL
MODEL 5
REMARK VINA RESULT:      -3.9     11.392     12.177
REMARK  3 active torsions:
REMARK  status: ('A' for Active; 'I' for Inactive)
REMARK    1  A    between atoms: C4_4  and  C9_9 
REMARK    2  A    between atoms: C8_8  and  C9_9 
REMARK    3  A    between atoms: C9_9  and  O10_10 
ROOT
HETATM    1  C9  UNL     1     -32.683   8.344   3.971  1.00 20.00     0.155 C 
ENDROOT
BRANCH   1   2
HETATM    2  C4  UNL     1     -33.450   7.263   4.698  1.00 20.00    -0.022 A 
HETATM    3  C1  UNL     1     -33.697   7.271   6.101  1.00 20.00     0.017 A 
HETATM    4  C2  UNL     1     -34.417   6.168   6.506  1.00 20.00     0.050 A 
HETATM    5  S11 UNL     1     -34.792   5.130   5.197  1.00 20.00    -0.113 SA
HETATM    6  C3  UNL     1     -33.990   6.154   4.084  1.00 20.00     0.059 A 
ENDBRANCH   1   2
BRANCH   1   7
HETATM    7  C8  UNL     1     -33.108   8.489   2.523  1.00 20.00     0.019 C 
HETATM    8  C6  UNL     1     -32.120   7.959   1.452  1.00 20.00     0.007 C 
HETATM    9  C5  UNL     1     -32.543   9.156   0.576  1.00 20.00     0.001 C 
HETATM   10  C7  UNL     1     -32.918   9.888   1.882  1.00 20.00     0.007 C 
ENDBRANCH   1   7
BRANCH   1  11
HETATM   11  O10 UNL     1     -31.294   8.013   4.020  1.00 20.00    -0.391 OA
HETATM   12  H23 UNL     1     -30.967   8.067   3.110  1.00 20.00     0.210 HD
ENDBRANCH   1  11
TORSDOF 3
ENDMDL
MODEL 6
REMARK VINA RESULT:      -3.7      1.361      1.984
REMARK  3 active torsions:
REMARK  status: ('A' for Active; 'I' for Inactive)
REMARK    1  A    between atoms: C4_4  and  C9_9 
REMARK    2  A    between atoms: C8_8  and  C9_9 
REMARK    3  A    between atoms: C9_9  and  O10_10 
ROOT
HETATM    1  C9  UNL     1     -33.200  16.970  -3.642  1.00 20.00     0.155 C 
ENDROOT
BRANCH   1   2
HETATM    2  C4  UNL     1     -34.302  16.300  -4.432  1.00 20.00    -0.022 A 
HETATM    3  C1  UNL     1     -35.367  17.003  -5.064  1.00 20.00     0.017 A 
HETATM    4  C2  UNL     1     -36.233  16.153  -5.717  1.00 20.00     0.050 A 
HETATM    5  S11 UNL     1     -35.760  14.514  -5.566  1.00 20.00    -0.113 SA
HETATM    6  C3  UNL     1     -34.394  14.939  -4.626  1.00 20.00     0.059 A 
ENDBRANCH   1   2
BRANCH   1   7
HETATM    7  C8  UNL     1     -33.536  17.107  -2.171  1.00 20.00     0.019 C 
HETATM    8  C6  UNL     1     -34.528  18.234  -1.786  1.00 20.00     0.007 C 
HETATM    9  C5  UNL     1     -33.686  18.440  -0.510  1.00 20.00     0.001 C 
HETATM   10  C7  UNL     1     -32.495  17.840  -1.286  1.00 20.00     0.007 C 
ENDBRANCH   1   7
BRANCH   1  11
HETATM   11  O10 UNL     1     -32.985  18.270  -4.195  1.00 20.00    -0.391 OA
HETATM   12  H23 UNL     1     -33.358  18.902  -3.563  1.00 20.00     0.210 HD
ENDBRANCH   1  11
TORSDOF 3
ENDMDL
MODEL 7
REMARK VINA RESULT:      -3.6     11.662     12.949
REMARK  3 active torsions:
REMARK  status: ('A' for Active; 'I' for Inactive)
REMARK    1  A    between atoms: C4_4  and  C9_9 
REMARK    2  A    between atoms: C8_8  and  C9_9 
REMARK    3  A    between atoms: C9_9  and  O10_10 
ROOT
HETATM    1  C9  UNL     1     -40.720  13.601   7.414  1.00 20.00     0.155 C 
ENDROOT
BRANCH   1   2
HETATM    2  C4  UNL     1     -41.193  15.038   7.402  1.00 20.00    -0.022 A 
HETATM    3  C1  UNL     1     -40.410  16.136   7.862  1.00 20.00     0.017 A 
HETATM    4  C2  UNL     1     -41.078  17.334   7.740  1.00 20.00     0.050 A 
HETATM    5  S11 UNL     1     -42.643  17.134   7.074  1.00 20.00    -0.113 SA
HETATM    6  C3  UNL     1     -42.430  15.440   6.946  1.00 20.00     0.059 A 
ENDBRANCH   1   2
BRANCH   1   7
HETATM    7  C8  UNL     1     -39.851  13.262   6.220  1.00 20.00     0.019 C 
HETATM    8  C6  UNL     1     -40.586  12.857   4.917  1.00 20.00     0.007 C 
HETATM    9  C5  UNL     1     -39.447  11.845   4.676  1.00 20.00     0.001 C 
HETATM   10  C7  UNL     1     -39.219  11.846   6.202  1.00 20.00     0.007 C 
ENDBRANCH   1   7
BRANCH   1  11
HETATM   11  O10 UNL     1     -41.872  12.756   7.409  1.00 20.00    -0.391 OA
HETATM   12  H23 UNL     1     -41.557  11.863   7.616  1.00 20.00     0.210 HD
ENDBRANCH   1  11
TORSDOF 3
ENDMDL
MODEL 8
REMARK VINA RESULT:      -3.5     12.411     14.016
REMARK  3 active torsions:
REMARK  status: ('A' for Active; 'I' for Inactive)
REMARK    1  A    between atoms: C4_4  and  C9_9 
REMARK    2  A    between atoms: C8_8  and  C9_9 
REMARK    3  A    between atoms: C9_9  and  O10_10 
ROOT
HETATM    1  C9  UNL     1     -41.017  14.228   7.122  1.00 20.00     0.155 C 
ENDROOT
BRANCH   1   2
HETATM    2  C4  UNL     1     -41.443  14.059   8.564  1.00 20.00    -0.022 A 
HETATM    3  C1  UNL     1     -40.609  14.360   9.678  1.00 20.00     0.017 A 
HETATM    4  C2  UNL     1     -41.241  14.116  10.878  1.00 20.00     0.050 A 
HETATM    5  S11 UNL     1     -42.833  13.526  10.657  1.00 20.00    -0.113 SA
HETATM    6  C3  UNL     1     -42.680  13.596   8.954  1.00 20.00     0.059 A 
ENDBRANCH   1   2
BRANCH   1   7
HETATM    7  C8  UNL     1     -40.843  12.904   6.405  1.00 20.00     0.019 C 
HETATM    8  C6  UNL     1     -39.438  12.254   6.479  1.00 20.00     0.007 C 
HETATM    9  C5  UNL     1     -39.658  11.787   5.026  1.00 20.00     0.001 C 
HETATM   10  C7  UNL     1     -40.637  12.969   4.870  1.00 20.00     0.007 C 
ENDBRANCH   1   7
BRANCH   1  11
HETATM   11  O10 UNL     1     -39.777  14.936   7.106  1.00 20.00    -0.391 OA
HETATM   12  H23 UNL     1     -39.384  14.780   6.234  1.00 20.00     0.210 HD
ENDBRANCH   1  11
TORSDOF 3
ENDMDL
MODEL 9
REMARK VINA RESULT:      -3.5      3.403      4.783
REMARK  3 active torsions:
REMARK  status: ('A' for Active; 'I' for Inactive)
REMARK    1  A    between atoms: C4_4  and  C9_9 
REMARK    2  A    between atoms: C8_8  and  C9_9 
REMARK    3  A    between atoms: C9_9  and  O10_10 
ROOT
HETATM    1  C9  UNL     1     -35.937  14.937  -5.668  1.00 20.00     0.155 C 
ENDROOT
BRANCH   1   2
HETATM    2  C4  UNL     1     -36.796  16.125  -6.041  1.00 20.00    -0.022 A 
HETATM    3  C1  UNL     1     -36.589  16.920  -7.204  1.00 20.00     0.017 A 
HETATM    4  C2  UNL     1     -37.512  17.938  -7.306  1.00 20.00     0.050 A 
HETATM    5  S11 UNL     1     -38.622  17.931  -6.002  1.00 20.00    -0.113 SA
HETATM    6  C3  UNL     1     -37.870  16.564  -5.298  1.00 20.00     0.059 A 
ENDBRANCH   1   2
BRANCH   1   7
HETATM    7  C8  UNL     1     -34.525  15.333  -5.288  1.00 20.00     0.019 C 
HETATM    8  C6  UNL     1     -33.857  14.521  -4.149  1.00 20.00     0.007 C 
HETATM    9  C5  UNL     1     -33.203  15.841  -3.691  1.00 20.00     0.001 C 
HETATM   10  C7  UNL     1     -34.376  16.575  -4.372  1.00 20.00     0.007 C 
ENDBRANCH   1   7
BRANCH   1  11
HETATM   11  O10 UNL     1     -35.890  14.054  -6.790  1.00 20.00    -0.391 OA
HETATM   12  H23 UNL     1     -35.603  13.193  -6.449  1.00 20.00     0.210 HD
ENDBRANCH   1  11
TORSDOF 3
ENDMDL
