MODEL 1
REMARK VINA RESULT:      -4.3      0.000      0.000
REMARK  1 active torsions:
REMARK  status: ('A' for Active; 'I' for Inactive)
REMARK    1  A    between atoms: C3_3  and  C8_8 
ROOT
HETATM    1  C1  UNL     1     -33.234  16.639  -2.310  1.00 20.00     0.022 A 
HETATM    2  C2  UNL     1     -33.963  18.607  -3.307  1.00 20.00     0.057 A 
HETATM    3  C3  UNL     1     -33.398  18.048  -2.183  1.00 20.00    -0.045 A 
HETATM    4  C4  UNL     1     -33.680  16.173  -3.528  1.00 20.00    -0.021 A 
HETATM    5  C10 UNL     1     -33.682  14.786  -4.039  1.00 20.00     0.056 C 
HETATM    6  S11 UNL     1     -34.293  17.434  -4.511  1.00 20.00    -0.106 SA
ENDROOT
BRANCH   3   7
HETATM    7  C8  UNL     1     -32.999  18.837  -0.954  1.00 20.00     0.033 C 
HETATM    8  C6  UNL     1     -31.477  19.025  -0.833  1.00 20.00     0.010 C 
HETATM    9  C5  UNL     1     -31.250  19.185   0.663  1.00 20.00     0.002 C 
HETATM   10  C7  UNL     1     -32.183  18.143   1.261  1.00 20.00     0.016 C 
HETATM   11  C9  UNL     1     -33.427  18.180   0.375  1.00 20.00     0.066 C 
HETATM   12 BR12 UNL     1     -34.818  19.262   1.234  1.00 20.00    -0.090 Br
ENDBRANCH   3   7
TORSDOF 1
ENDMDL
MODEL 2
REMARK VINA RESULT:      -4.2      2.491      4.785
REMARK  1 active torsions:
REMARK  status: ('A' for Active; 'I' for Inactive)
REMARK    1  A    between atoms: C3_3  and  C8_8 
ROOT
HETATM    1  C1  UNL     1     -31.941  18.384  -0.262  1.00 20.00     0.022 A 
HETATM    2  C2  UNL     1     -34.041  18.664   0.691  1.00 20.00     0.057 A 
HETATM    3  C3  UNL     1     -33.348  18.227  -0.416  1.00 20.00    -0.045 A 
HETATM    4  C4  UNL     1     -31.611  18.936   0.956  1.00 20.00    -0.021 A 
HETATM    5  C10 UNL     1     -30.270  19.255   1.490  1.00 20.00     0.056 C 
HETATM    6  S11 UNL     1     -32.996  19.261   1.909  1.00 20.00    -0.106 SA
ENDROOT
BRANCH   3   7
HETATM    7  C8  UNL     1     -34.004  17.648  -1.652  1.00 20.00     0.033 C 
HETATM    8  C6  UNL     1     -33.119  16.613  -2.367  1.00 20.00     0.010 C 
HETATM    9  C5  UNL     1     -33.584  16.679  -3.815  1.00 20.00     0.002 C 
HETATM   10  C7  UNL     1     -33.768  18.172  -4.044  1.00 20.00     0.016 C 
HETATM   11  C9  UNL     1     -34.339  18.700  -2.730  1.00 20.00     0.066 C 
HETATM   12 BR12 UNL     1     -36.283  18.895  -2.886  1.00 20.00    -0.090 Br
ENDBRANCH   3   7
TORSDOF 1
ENDMDL
MODEL 3
REMARK VINA RESULT:      -4.0      2.778      4.921
REMARK  1 active torsions:
REMARK  status: ('A' for Active; 'I' for Inactive)
REMARK    1  A    between atoms: C3_3  and  C8_8 
ROOT
HETATM    1  C1  UNL     1     -31.720  18.291  -0.932  1.00 20.00     0.022 A 
HETATM    2  C2  UNL     1     -34.041  18.263  -0.826  1.00 20.00     0.057 A 
HETATM    3  C3  UNL     1     -32.942  18.135  -1.647  1.00 20.00    -0.045 A 
HETATM    4  C4  UNL     1     -31.930  18.534   0.408  1.00 20.00    -0.021 A 
HETATM    5  C10 UNL     1     -30.928  18.751   1.473  1.00 20.00     0.056 C 
HETATM    6  S11 UNL     1     -33.597  18.571   0.799  1.00 20.00    -0.106 SA
ENDROOT
BRANCH   3   7
HETATM    7  C8  UNL     1     -33.023  17.861  -3.133  1.00 20.00     0.033 C 
HETATM    8  C6  UNL     1     -33.282  19.131  -3.961  1.00 20.00     0.010 C 
HETATM    9  C5  UNL     1     -33.979  18.612  -5.210  1.00 20.00     0.002 C 
HETATM   10  C7  UNL     1     -34.932  17.562  -4.656  1.00 20.00     0.016 C 
HETATM   11  C9  UNL     1     -34.154  16.889  -3.527  1.00 20.00     0.066 C 
HETATM   12 BR12 UNL     1     -33.388  15.202  -4.169  1.00 20.00    -0.090 Br
ENDBRANCH   3   7
TORSDOF 1
ENDMDL
MODEL 4
REMARK VINA RESULT:      -3.8      2.717      5.320
REMARK  1 active torsions:
REMARK  status: ('A' for Active; 'I' for Inactive)
REMARK    1  A    between atoms: C3_3  and  C8_8 
ROOT
HETATM    1  C1  UNL     1     -33.668  17.009  -1.717  1.00 20.00     0.022 A 
HETATM    2  C2  UNL     1     -33.166  18.402  -3.508  1.00 20.00     0.057 A 
HETATM    3  C3  UNL     1     -33.750  17.215  -3.125  1.00 20.00    -0.045 A 
HETATM    4  C4  UNL     1     -33.024  18.046  -1.078  1.00 20.00    -0.021 A 
HETATM    5  C10 UNL     1     -32.742  18.205   0.364  1.00 20.00     0.056 C 
HETATM    6  S11 UNL     1     -32.524  19.263  -2.174  1.00 20.00    -0.106 SA
ENDROOT
BRANCH   3   7
HETATM    7  C8  UNL     1     -34.400  16.242  -4.084  1.00 20.00     0.033 C 
HETATM    8  C6  UNL     1     -33.428  15.164  -4.592  1.00 20.00     0.010 C 
HETATM    9  C5  UNL     1     -34.000  14.770  -5.946  1.00 20.00     0.002 C 
HETATM   10  C7  UNL     1     -34.415  16.107  -6.541  1.00 20.00     0.016 C 
HETATM   11  C9  UNL     1     -34.962  16.906  -5.359  1.00 20.00     0.066 C 
HETATM   12 BR12 UNL     1     -36.920  16.813  -5.349  1.00 20.00    -0.090 Br
ENDBRANCH   3   7
TORSDOF 1
ENDMDL
MODEL 5
REMARK VINA RESULT:      -3.5     24.550     25.527
REMARK  1 active torsions:
REMARK  status: ('A' for Active; 'I' for Inactive)
REMARK    1  A    between atoms: C3_3  and  C8_8 
ROOT
HETATM    1  C1  UNL     1     -24.479  -3.249   9.423  1.00 20.00     0.022 A 
HETATM    2  C2  UNL     1     -23.915  -3.782  11.613  1.00 20.00     0.057 A 
HETATM    3  C3  UNL     1     -24.913  -3.334  10.777  1.00 20.00    -0.045 A 
HETATM    4  C4  UNL     1     -23.164  -3.635   9.275  1.00 20.00    -0.021 A 
HETATM    5  C10 UNL     1     -22.353  -3.688   8.040  1.00 20.00     0.056 C 
HETATM    6  S11 UNL     1     -22.461  -4.099  10.766  1.00 20.00    -0.106 SA
ENDROOT
BRANCH   3   7
HETATM    7  C8  UNL     1     -26.308  -2.973  11.241  1.00 20.00     0.033 C 
HETATM    8  C6  UNL     1     -27.354  -4.038  10.873  1.00 20.00     0.010 C 
HETATM    9  C5  UNL     1     -28.654  -3.252  10.783  1.00 20.00     0.002 C 
HETATM   10  C7  UNL     1     -28.230  -1.974  10.073  1.00 20.00     0.016 C 
HETATM   11  C9  UNL     1     -26.845  -1.659  10.636  1.00 20.00     0.066 C 
HETATM   12 BR12 UNL     1     -26.997  -0.295  12.036  1.00 20.00    -0.090 Br
ENDBRANCH   3   7
TORSDOF 1
ENDMDL
MODEL 6
REMARK VINA RESULT:      -3.3      3.442      5.046
REMARK  1 active torsions:
REMARK  status: ('A' for Active; 'I' for Inactive)
REMARK    1  A    between atoms: C3_3  and  C8_8 
ROOT
HETATM    1  C1  UNL     1     -37.007  18.175  -4.210  1.00 20.00     0.022 A 
HETATM    2  C2  UNL     1     -36.888  16.645  -5.954  1.00 20.00     0.057 A 
HETATM    3  C3  UNL     1     -36.181  17.295  -4.967  1.00 20.00    -0.045 A 
HETATM    4  C4  UNL     1     -38.314  18.164  -4.647  1.00 20.00    -0.021 A 
HETATM    5  C10 UNL     1     -39.466  18.931  -4.127  1.00 20.00     0.056 C 
HETATM    6  S11 UNL     1     -38.540  17.095  -5.965  1.00 20.00    -0.106 SA
ENDROOT
BRANCH   3   7
HETATM    7  C8  UNL     1     -34.701  17.101  -4.716  1.00 20.00     0.033 C 
HETATM    8  C6  UNL     1     -34.288  15.619  -4.701  1.00 20.00     0.010 C 
HETATM    9  C5  UNL     1     -33.053  15.597  -3.812  1.00 20.00     0.002 C 
HETATM   10  C7  UNL     1     -33.430  16.546  -2.684  1.00 20.00     0.016 C 
HETATM   11  C9  UNL     1     -34.220  17.664  -3.363  1.00 20.00     0.066 C 
HETATM   12 BR12 UNL     1     -33.050  19.208  -3.664  1.00 20.00    -0.090 Br
ENDBRANCH   3   7
TORSDOF 1
ENDMDL
MODEL 7
REMARK VINA RESULT:      -3.3     11.557     12.545
REMARK  1 active torsions:
REMARK  status: ('A' for Active; 'I' for Inactive)
REMARK    1  A    between atoms: C3_3  and  C8_8 
ROOT
HETATM    1  C1  UNL     1     -39.958  13.654   7.067  1.00 20.00     0.022 A 
HETATM    2  C2  UNL     1     -41.681  15.056   6.386  1.00 20.00     0.057 A 
HETATM    3  C3  UNL     1     -40.716  14.829   7.341  1.00 20.00    -0.045 A 
HETATM    4  C4  UNL     1     -40.374  13.027   5.912  1.00 20.00    -0.021 A 
HETATM    5  C10 UNL     1     -39.845  11.792   5.294  1.00 20.00     0.056 C 
HETATM    6  S11 UNL     1     -41.671  13.856   5.164  1.00 20.00    -0.106 SA
ENDROOT
BRANCH   3   7
HETATM    7  C8  UNL     1     -40.486  15.720   8.542  1.00 20.00     0.033 C 
HETATM    8  C6  UNL     1     -40.242  14.927   9.837  1.00 20.00     0.010 C 
HETATM    9  C5  UNL     1     -40.708  15.873  10.934  1.00 20.00     0.002 C 
HETATM   10  C7  UNL     1     -41.978  16.473  10.349  1.00 20.00     0.016 C 
HETATM   11  C9  UNL     1     -41.674  16.652   8.862  1.00 20.00     0.066 C 
HETATM   12 BR12 UNL     1     -41.171  18.514   8.511  1.00 20.00    -0.090 Br
ENDBRANCH   3   7
TORSDOF 1
ENDMDL
MODEL 8
REMARK VINA RESULT:      -3.2     12.627     14.187
REMARK  1 active torsions:
REMARK  status: ('A' for Active; 'I' for Inactive)
REMARK    1  A    between atoms: C3_3  and  C8_8 
ROOT
HETATM    1  C1  UNL     1     -40.103  14.942   9.799  1.00 20.00     0.022 A 
HETATM    2  C2  UNL     1     -42.212  13.974   9.678  1.00 20.00     0.057 A 
HETATM    3  C3  UNL     1     -41.150  14.471   8.956  1.00 20.00    -0.045 A 
HETATM    4  C4  UNL     1     -40.405  14.788  11.135  1.00 20.00    -0.021 A 
HETATM    5  C10 UNL     1     -39.586  15.150  12.311  1.00 20.00     0.056 C 
HETATM    6  S11 UNL     1     -41.944  14.076  11.367  1.00 20.00    -0.106 SA
ENDROOT
BRANCH   3   7
HETATM    7  C8  UNL     1     -41.101  14.514   7.444  1.00 20.00     0.033 C 
HETATM    8  C6  UNL     1     -41.958  15.644   6.850  1.00 20.00     0.010 C 
HETATM    9  C5  UNL     1     -42.324  15.132   5.465  1.00 20.00     0.002 C 
HETATM   10  C7  UNL     1     -42.633  13.663   5.717  1.00 20.00     0.016 C 
HETATM   11  C9  UNL     1     -41.614  13.226   6.767  1.00 20.00     0.066 C 
HETATM   12 BR12 UNL     1     -40.125  12.296   5.894  1.00 20.00    -0.090 Br
ENDBRANCH   3   7
TORSDOF 1
ENDMDL
MODEL 9
REMARK VINA RESULT:      -3.2     24.348     25.429
REMARK  1 active torsions:
REMARK  status: ('A' for Active; 'I' for Inactive)
REMARK    1  A    between atoms: C3_3  and  C8_8 
ROOT
HETATM    1  C1  UNL     1     -25.839  -1.477  11.378  1.00 20.00     0.022 A 
HETATM    2  C2  UNL     1     -27.257  -2.828  10.127  1.00 20.00     0.057 A 
HETATM    3  C3  UNL     1     -25.966  -2.644  10.571  1.00 20.00    -0.045 A 
HETATM    4  C4  UNL     1     -27.038  -0.813  11.520  1.00 20.00    -0.021 A 
HETATM    5  C10 UNL     1     -27.319   0.428  12.275  1.00 20.00     0.056 C 
HETATM    6  S11 UNL     1     -28.310  -1.597  10.684  1.00 20.00    -0.106 SA
ENDROOT
BRANCH   3   7
HETATM    7  C8  UNL     1     -24.817  -3.571  10.240  1.00 20.00     0.033 C 
HETATM    8  C6  UNL     1     -24.385  -4.438  11.435  1.00 20.00     0.010 C 
HETATM    9  C5  UNL     1     -22.920  -4.737  11.155  1.00 20.00     0.002 C 
HETATM   10  C7  UNL     1     -22.394  -3.405  10.638  1.00 20.00     0.016 C 
HETATM   11  C9  UNL     1     -23.534  -2.839   9.794  1.00 20.00     0.066 C 
HETATM   12 BR12 UNL     1     -23.191  -3.196   7.897  1.00 20.00    -0.090 Br
ENDBRANCH   3   7
TORSDOF 1
ENDMDL
