MODEL 1
REMARK VINA RESULT:      -4.7      0.000      0.000
REMARK  2 active torsions:
REMARK  status: ('A' for Active; 'I' for Inactive)
REMARK    1  A    between atoms: C8_8  and  C10_10 
REMARK    2  A    between atoms: C10_10  and  C11_11 
ROOT
HETATM    1  C1  UNL     1     -34.076  15.249  -6.748  1.00 20.00     0.064 C 
HETATM    2  C2  UNL     1     -34.474  18.026  -5.010  1.00 20.00     0.002 C 
HETATM    3  C3  UNL     1     -35.323  16.782  -5.263  1.00 20.00     0.019 C 
HETATM    4  C4  UNL     1     -33.352  15.319  -4.403  1.00 20.00     0.019 C 
HETATM    5  C5  UNL     1     -34.235  18.286  -3.523  1.00 20.00     0.005 C 
HETATM    6  C6  UNL     1     -33.591  15.845  -2.987  1.00 20.00     0.006 C 
HETATM    7  C7  UNL     1     -34.541  15.465  -5.361  1.00 20.00     0.093 C 
HETATM    8  C8  UNL     1     -33.245  17.336  -2.835  1.00 20.00    -0.014 C 
HETATM    9  N12 UNL     1     -33.711  15.081  -7.835  1.00 20.00    -0.197 NA
ENDROOT
BRANCH   8  10
HETATM   10  C10 UNL     1     -33.158  17.694  -1.346  1.00 20.00     0.004 C 
BRANCH  10  11
HETATM   11  C11 UNL     1     -32.173  18.831  -1.113  1.00 20.00    -0.004 C 
HETATM   12  C9  UNL     1     -31.191  18.483  -0.006  1.00 20.00     0.005 C 
ENDBRANCH  10  11
ENDBRANCH   8  10
TORSDOF 2
ENDMDL
MODEL 2
REMARK VINA RESULT:      -4.5      1.133      2.077
REMARK  2 active torsions:
REMARK  status: ('A' for Active; 'I' for Inactive)
REMARK    1  A    between atoms: C8_8  and  C10_10 
REMARK    2  A    between atoms: C10_10  and  C11_11 
ROOT
HETATM    1  C1  UNL     1     -35.377  15.101  -6.682  1.00 20.00     0.064 C 
HETATM    2  C2  UNL     1     -33.800  15.028  -3.785  1.00 20.00     0.002 C 
HETATM    3  C3  UNL     1     -33.367  15.134  -5.246  1.00 20.00     0.019 C 
HETATM    4  C4  UNL     1     -34.917  17.206  -5.507  1.00 20.00     0.019 C 
HETATM    5  C5  UNL     1     -33.283  16.185  -2.930  1.00 20.00     0.005 C 
HETATM    6  C6  UNL     1     -33.975  18.014  -4.614  1.00 20.00     0.006 C 
HETATM    7  C7  UNL     1     -34.298  15.957  -6.146  1.00 20.00     0.093 C 
HETATM    8  C8  UNL     1     -33.977  17.536  -3.152  1.00 20.00    -0.014 C 
HETATM    9  N12 UNL     1     -36.224  14.429  -7.102  1.00 20.00    -0.197 NA
ENDROOT
BRANCH   8  10
HETATM   10  C10 UNL     1     -33.310  18.595  -2.264  1.00 20.00     0.004 C 
BRANCH  10  11
HETATM   11  C11 UNL     1     -32.911  18.006  -0.918  1.00 20.00    -0.004 C 
HETATM   12  C9  UNL     1     -31.507  18.440  -0.529  1.00 20.00     0.005 C 
ENDBRANCH  10  11
ENDBRANCH   8  10
TORSDOF 2
ENDMDL
MODEL 3
REMARK VINA RESULT:      -4.3      3.699      6.502
REMARK  2 active torsions:
REMARK  status: ('A' for Active; 'I' for Inactive)
REMARK    1  A    between atoms: C8_8  and  C10_10 
REMARK    2  A    between atoms: C10_10  and  C11_11 
ROOT
HETATM    1  C1  UNL     1     -31.000  18.859   2.200  1.00 20.00     0.064 C 
HETATM    2  C2  UNL     1     -33.819  17.920   0.766  1.00 20.00     0.002 C 
HETATM    3  C3  UNL     1     -33.144  19.263   1.040  1.00 20.00     0.019 C 
HETATM    4  C4  UNL     1     -31.033  18.404  -0.212  1.00 20.00     0.019 C 
HETATM    5  C5  UNL     1     -34.134  17.709  -0.715  1.00 20.00     0.005 C 
HETATM    6  C6  UNL     1     -31.803  18.458  -1.531  1.00 20.00     0.006 C 
HETATM    7  C7  UNL     1     -31.614  19.263   0.917  1.00 20.00     0.093 C 
HETATM    8  C8  UNL     1     -32.926  17.410  -1.614  1.00 20.00    -0.014 C 
HETATM    9  N12 UNL     1     -30.518  18.542   3.206  1.00 20.00    -0.197 NA
ENDROOT
BRANCH   8  10
HETATM   10  C10 UNL     1     -33.401  17.278  -3.066  1.00 20.00     0.004 C 
BRANCH  10  11
HETATM   11  C11 UNL     1     -33.370  15.826  -3.522  1.00 20.00    -0.004 C 
HETATM   12  C9  UNL     1     -34.232  15.625  -4.759  1.00 20.00     0.005 C 
ENDBRANCH  10  11
ENDBRANCH   8  10
TORSDOF 2
ENDMDL
MODEL 4
REMARK VINA RESULT:      -4.3      2.740      5.466
REMARK  2 active torsions:
REMARK  status: ('A' for Active; 'I' for Inactive)
REMARK    1  A    between atoms: C8_8  and  C10_10 
REMARK    2  A    between atoms: C10_10  and  C11_11 
ROOT
HETATM    1  C1  UNL     1     -31.750  18.548  -0.906  1.00 20.00     0.064 C 
HETATM    2  C2  UNL     1     -33.246  16.295  -2.796  1.00 20.00     0.002 C 
HETATM    3  C3  UNL     1     -33.673  17.171  -1.619  1.00 20.00     0.019 C 
HETATM    4  C4  UNL     1     -32.898  19.262  -2.956  1.00 20.00     0.019 C 
HETATM    5  C5  UNL     1     -34.129  16.490  -4.029  1.00 20.00     0.005 C 
HETATM    6  C6  UNL     1     -34.065  19.068  -3.923  1.00 20.00     0.006 C 
HETATM    7  C7  UNL     1     -33.059  18.576  -1.594  1.00 20.00     0.093 C 
HETATM    8  C8  UNL     1     -33.921  17.806  -4.791  1.00 20.00    -0.014 C 
HETATM    9  N12 UNL     1     -30.723  18.526  -0.368  1.00 20.00    -0.197 NA
ENDROOT
BRANCH   8  10
HETATM   10  C10 UNL     1     -34.912  17.870  -5.960  1.00 20.00     0.004 C 
BRANCH  10  11
HETATM   11  C11 UNL     1     -35.134  16.491  -6.565  1.00 20.00    -0.004 C 
HETATM   12  C9  UNL     1     -34.218  16.264  -7.757  1.00 20.00     0.005 C 
ENDBRANCH  10  11
ENDBRANCH   8  10
TORSDOF 2
ENDMDL
MODEL 5
REMARK VINA RESULT:      -4.2      1.574      2.425
REMARK  2 active torsions:
REMARK  status: ('A' for Active; 'I' for Inactive)
REMARK    1  A    between atoms: C8_8  and  C10_10 
REMARK    2  A    between atoms: C10_10  and  C11_11 
ROOT
HETATM    1  C1  UNL     1     -36.296  16.362  -5.446  1.00 20.00     0.064 C 
HETATM    2  C2  UNL     1     -33.813  15.821  -3.340  1.00 20.00     0.002 C 
HETATM    3  C3  UNL     1     -33.936  16.464  -4.721  1.00 20.00     0.019 C 
HETATM    4  C4  UNL     1     -35.749  18.064  -3.763  1.00 20.00     0.019 C 
HETATM    5  C5  UNL     1     -33.194  16.759  -2.305  1.00 20.00     0.005 C 
HETATM    6  C6  UNL     1     -34.674  18.775  -2.941  1.00 20.00     0.006 C 
HETATM    7  C7  UNL     1     -35.227  17.259  -4.960  1.00 20.00     0.093 C 
HETATM    8  C8  UNL     1     -34.101  17.897  -1.815  1.00 20.00    -0.014 C 
HETATM    9  N12 UNL     1     -37.136  15.658  -5.826  1.00 20.00    -0.197 NA
ENDROOT
BRANCH   8  10
HETATM   10  C10 UNL     1     -33.319  18.773  -0.828  1.00 20.00     0.004 C 
BRANCH  10  11
HETATM   11  C11 UNL     1     -31.823  18.509  -0.930  1.00 20.00    -0.004 C 
HETATM   12  C9  UNL     1     -31.171  18.530   0.443  1.00 20.00     0.005 C 
ENDBRANCH  10  11
ENDBRANCH   8  10
TORSDOF 2
ENDMDL
MODEL 6
REMARK VINA RESULT:      -4.2      2.784      5.201
REMARK  2 active torsions:
REMARK  status: ('A' for Active; 'I' for Inactive)
REMARK    1  A    between atoms: C8_8  and  C10_10 
REMARK    2  A    between atoms: C10_10  and  C11_11 
ROOT
HETATM    1  C1  UNL     1     -33.486  18.118  -0.639  1.00 20.00     0.064 C 
HETATM    2  C2  UNL     1     -34.404  18.850  -3.722  1.00 20.00     0.002 C 
HETATM    3  C3  UNL     1     -33.076  18.838  -2.967  1.00 20.00     0.019 C 
HETATM    4  C4  UNL     1     -33.508  16.351  -2.342  1.00 20.00     0.019 C 
HETATM    5  C5  UNL     1     -34.377  17.979  -4.978  1.00 20.00     0.005 C 
HETATM    6  C6  UNL     1     -33.291  15.955  -3.802  1.00 20.00     0.006 C 
HETATM    7  C7  UNL     1     -32.918  17.708  -1.940  1.00 20.00     0.093 C 
HETATM    8  C8  UNL     1     -34.404  16.463  -4.734  1.00 20.00    -0.014 C 
HETATM    9  N12 UNL     1     -33.932  18.440   0.382  1.00 20.00    -0.197 NA
ENDROOT
BRANCH   8  10
HETATM   10  C10 UNL     1     -34.318  15.737  -6.082  1.00 20.00     0.004 C 
BRANCH  10  11
HETATM   11  C11 UNL     1     -35.574  14.917  -6.342  1.00 20.00    -0.004 C 
HETATM   12  C9  UNL     1     -36.000  14.160  -5.094  1.00 20.00     0.005 C 
ENDBRANCH  10  11
ENDBRANCH   8  10
TORSDOF 2
ENDMDL
MODEL 7
REMARK VINA RESULT:      -4.0     12.364     13.739
REMARK  2 active torsions:
REMARK  status: ('A' for Active; 'I' for Inactive)
REMARK    1  A    between atoms: C8_8  and  C10_10 
REMARK    2  A    between atoms: C10_10  and  C11_11 
ROOT
HETATM    1  C1  UNL     1     -42.734  17.642   6.488  1.00 20.00     0.064 C 
HETATM    2  C2  UNL     1     -40.665  15.513   7.928  1.00 20.00     0.002 C 
HETATM    3  C3  UNL     1     -42.156  15.821   8.055  1.00 20.00     0.019 C 
HETATM    4  C4  UNL     1     -42.409  15.419   5.498  1.00 20.00     0.019 C 
HETATM    5  C5  UNL     1     -40.391  14.046   7.595  1.00 20.00     0.005 C 
HETATM    6  C6  UNL     1     -42.156  13.927   5.716  1.00 20.00     0.006 C 
HETATM    7  C7  UNL     1     -42.861  16.192   6.744  1.00 20.00     0.093 C 
HETATM    8  C8  UNL     1     -40.714  13.621   6.156  1.00 20.00    -0.014 C 
HETATM    9  N12 UNL     1     -42.633  18.780   6.288  1.00 20.00    -0.197 NA
ENDROOT
BRANCH   8  10
HETATM   10  C10 UNL     1     -40.437  12.121   6.001  1.00 20.00     0.004 C 
BRANCH  10  11
HETATM   11  C11 UNL     1     -39.019  11.875   5.505  1.00 20.00    -0.004 C 
HETATM   12  C9  UNL     1     -38.995  11.671   3.999  1.00 20.00     0.005 C 
ENDBRANCH  10  11
ENDBRANCH   8  10
TORSDOF 2
ENDMDL
MODEL 8
REMARK VINA RESULT:      -3.9     12.997     14.492
REMARK  2 active torsions:
REMARK  status: ('A' for Active; 'I' for Inactive)
REMARK    1  A    between atoms: C8_8  and  C10_10 
REMARK    2  A    between atoms: C10_10  and  C11_11 
ROOT
HETATM    1  C1  UNL     1     -41.174  16.624   9.915  1.00 20.00     0.064 C 
HETATM    2  C2  UNL     1     -42.104  15.707   6.884  1.00 20.00     0.002 C 
HETATM    3  C3  UNL     1     -40.904  16.454   7.464  1.00 20.00     0.019 C 
HETATM    4  C4  UNL     1     -40.473  14.436   9.047  1.00 20.00     0.019 C 
HETATM    5  C5  UNL     1     -41.699  14.477   6.072  1.00 20.00     0.005 C 
HETATM    6  C6  UNL     1     -40.044  13.595   7.845  1.00 20.00     0.006 C 
HETATM    7  C7  UNL     1     -40.421  15.954   8.833  1.00 20.00     0.093 C 
HETATM    8  C8  UNL     1     -41.207  13.275   6.891  1.00 20.00    -0.014 C 
HETATM    9  N12 UNL     1     -41.764  17.148  10.764  1.00 20.00    -0.197 NA
ENDROOT
BRANCH   8  10
HETATM   10  C10 UNL     1     -40.791  12.152   5.933  1.00 20.00     0.004 C 
BRANCH  10  11
HETATM   11  C11 UNL     1     -39.285  12.146   5.718  1.00 20.00    -0.004 C 
HETATM   12  C9  UNL     1     -38.939  11.764   4.287  1.00 20.00     0.005 C 
ENDBRANCH  10  11
ENDBRANCH   8  10
TORSDOF 2
ENDMDL
MODEL 9
REMARK VINA RESULT:      -3.9     13.749     15.208
REMARK  2 active torsions:
REMARK  status: ('A' for Active; 'I' for Inactive)
REMARK    1  A    between atoms: C8_8  and  C10_10 
REMARK    2  A    between atoms: C10_10  and  C11_11 
ROOT
HETATM    1  C1  UNL     1     -41.655  14.722  10.879  1.00 20.00     0.064 C 
HETATM    2  C2  UNL     1     -42.985  13.065   8.354  1.00 20.00     0.002 C 
HETATM    3  C3  UNL     1     -42.946  14.531   8.781  1.00 20.00     0.019 C 
HETATM    4  C4  UNL     1     -40.349  14.402   8.825  1.00 20.00     0.019 C 
HETATM    5  C5  UNL     1     -42.444  12.847   6.941  1.00 20.00     0.005 C 
HETATM    6  C6  UNL     1     -40.337  14.293   7.300  1.00 20.00     0.006 C 
HETATM    7  C7  UNL     1     -41.631  14.991   9.426  1.00 20.00     0.093 C 
HETATM    8  C8  UNL     1     -40.921  12.965   6.789  1.00 20.00    -0.014 C 
HETATM    9  N12 UNL     1     -41.672  14.510  12.019  1.00 20.00    -0.197 NA
ENDROOT
BRANCH   8  10
HETATM   10  C10 UNL     1     -40.549  12.774   5.313  1.00 20.00     0.004 C 
BRANCH  10  11
HETATM   11  C11 UNL     1     -39.539  11.648   5.146  1.00 20.00    -0.004 C 
HETATM   12  C9  UNL     1     -38.912  11.678   3.761  1.00 20.00     0.005 C 
ENDBRANCH  10  11
ENDBRANCH   8  10
TORSDOF 2
ENDMDL
