MODEL 1
REMARK VINA RESULT:      -4.3      0.000      0.000
REMARK  2 active torsions:
REMARK  status: ('A' for Active; 'I' for Inactive)
REMARK    1  A    between atoms: C6_6  and  C9_9 
REMARK    2  A    between atoms: C9_9  and  C10_10 
ROOT
HETATM    1  C1  UNL     1     -33.318   5.414   2.982  1.00 20.00     0.002 C 
HETATM    2  C2  UNL     1     -32.477   6.641   2.650  1.00 20.00     0.005 C 
HETATM    3  C3  UNL     1     -32.636   7.997   4.791  1.00 20.00     0.006 C 
HETATM    4  C4  UNL     1     -33.482   5.098   4.469  1.00 20.00     0.020 C 
HETATM    5  C5  UNL     1     -33.678   7.349   5.703  1.00 20.00     0.020 C 
HETATM    6  C6  UNL     1     -32.946   7.960   3.289  1.00 20.00    -0.014 C 
HETATM    7  C7  UNL     1     -34.391   6.101   5.179  1.00 20.00     0.082 C 
HETATM    8 CL11 UNL     1     -35.198   5.296   6.572  1.00 20.00    -0.125 Cl
ENDROOT
BRANCH   6   9
HETATM    9  C9  UNL     1     -32.225   9.125   2.596  1.00 20.00     0.004 C 
BRANCH   9  10
HETATM   10  C10 UNL     1     -33.081   9.714   1.484  1.00 20.00    -0.004 C 
HETATM   11  C8  UNL     1     -32.649   9.186   0.125  1.00 20.00     0.005 C 
ENDBRANCH   9  10
ENDBRANCH   6   9
TORSDOF 2
ENDMDL
MODEL 2
REMARK VINA RESULT:      -4.3     11.820     12.511
REMARK  2 active torsions:
REMARK  status: ('A' for Active; 'I' for Inactive)
REMARK    1  A    between atoms: C6_6  and  C9_9 
REMARK    2  A    between atoms: C9_9  and  C10_10 
ROOT
HETATM    1  C1  UNL     1     -34.367  18.782   0.797  1.00 20.00     0.002 C 
HETATM    2  C2  UNL     1     -33.277  19.259   1.752  1.00 20.00     0.005 C 
HETATM    3  C3  UNL     1     -31.180  19.008   0.342  1.00 20.00     0.006 C 
HETATM    4  C4  UNL     1     -34.032  18.862  -0.692  1.00 20.00     0.020 C 
HETATM    5  C5  UNL     1     -31.541  18.260  -0.941  1.00 20.00     0.020 C 
HETATM    6  C6  UNL     1     -31.916  18.556   1.610  1.00 20.00    -0.014 C 
HETATM    7  C7  UNL     1     -32.996  17.820  -1.111  1.00 20.00     0.082 C 
HETATM    8 CL11 UNL     1     -33.247  17.388  -2.841  1.00 20.00    -0.125 Cl
ENDROOT
BRANCH   6   9
HETATM    9  C9  UNL     1     -31.059  18.893   2.839  1.00 20.00     0.004 C 
BRANCH   9  10
HETATM   10  C10 UNL     1     -29.610  19.139   2.443  1.00 20.00    -0.004 C 
HETATM   11  C8  UNL     1     -28.658  18.651   3.524  1.00 20.00     0.005 C 
ENDBRANCH   9  10
ENDBRANCH   6   9
TORSDOF 2
ENDMDL
MODEL 3
REMARK VINA RESULT:      -4.2     11.594     12.835
REMARK  2 active torsions:
REMARK  status: ('A' for Active; 'I' for Inactive)
REMARK    1  A    between atoms: C6_6  and  C9_9 
REMARK    2  A    between atoms: C9_9  and  C10_10 
ROOT
HETATM    1  C1  UNL     1     -34.761  18.351  -4.906  1.00 20.00     0.002 C 
HETATM    2  C2  UNL     1     -33.880  18.372  -3.661  1.00 20.00     0.005 C 
HETATM    3  C3  UNL     1     -33.256  15.924  -3.405  1.00 20.00     0.006 C 
HETATM    4  C4  UNL     1     -34.554  17.168  -5.852  1.00 20.00     0.020 C 
HETATM    5  C5  UNL     1     -34.089  15.102  -4.389  1.00 20.00     0.020 C 
HETATM    6  C6  UNL     1     -33.967  17.124  -2.766  1.00 20.00    -0.014 C 
HETATM    7  C7  UNL     1     -35.084  15.859  -5.269  1.00 20.00     0.082 C 
HETATM    8 CL11 UNL     1     -35.583  14.766  -6.610  1.00 20.00    -0.125 Cl
ENDROOT
BRANCH   6   9
HETATM    9  C9  UNL     1     -33.309  17.442  -1.416  1.00 20.00     0.004 C 
BRANCH   9  10
HETATM   10  C10 UNL     1     -32.301  18.574  -1.552  1.00 20.00    -0.004 C 
HETATM   11  C8  UNL     1     -31.329  18.584  -0.383  1.00 20.00     0.005 C 
ENDBRANCH   9  10
ENDBRANCH   6   9
TORSDOF 2
ENDMDL
MODEL 4
REMARK VINA RESULT:      -4.2     11.536     12.762
REMARK  2 active torsions:
REMARK  status: ('A' for Active; 'I' for Inactive)
REMARK    1  A    between atoms: C6_6  and  C9_9 
REMARK    2  A    between atoms: C9_9  and  C10_10 
ROOT
HETATM    1  C1  UNL     1     -33.434  14.858  -4.183  1.00 20.00     0.002 C 
HETATM    2  C2  UNL     1     -33.320  16.019  -3.200  1.00 20.00     0.005 C 
HETATM    3  C3  UNL     1     -34.962  17.700  -4.162  1.00 20.00     0.006 C 
HETATM    4  C4  UNL     1     -34.735  14.785  -4.983  1.00 20.00     0.020 C 
HETATM    5  C5  UNL     1     -35.421  17.204  -5.534  1.00 20.00     0.020 C 
HETATM    6  C6  UNL     1     -33.495  17.422  -3.807  1.00 20.00    -0.014 C 
HETATM    7  C7  UNL     1     -34.830  15.887  -6.038  1.00 20.00     0.082 C 
HETATM    8 CL11 UNL     1     -35.842  15.314  -7.412  1.00 20.00    -0.125 Cl
ENDROOT
BRANCH   6   9
HETATM    9  C9  UNL     1     -33.018  18.463  -2.784  1.00 20.00     0.004 C 
BRANCH   9  10
HETATM   10  C10 UNL     1     -32.840  17.835  -1.409  1.00 20.00    -0.004 C 
HETATM   11  C8  UNL     1     -31.673  18.468  -0.667  1.00 20.00     0.005 C 
ENDBRANCH   9  10
ENDBRANCH   6   9
TORSDOF 2
ENDMDL
MODEL 5
REMARK VINA RESULT:      -4.1     10.497     11.445
REMARK  2 active torsions:
REMARK  status: ('A' for Active; 'I' for Inactive)
REMARK    1  A    between atoms: C6_6  and  C9_9 
REMARK    2  A    between atoms: C9_9  and  C10_10 
ROOT
HETATM    1  C1  UNL     1     -42.504  15.452   5.591  1.00 20.00     0.002 C 
HETATM    2  C2  UNL     1     -42.138  13.976   5.704  1.00 20.00     0.005 C 
HETATM    3  C3  UNL     1     -40.637  13.951   7.752  1.00 20.00     0.006 C 
HETATM    4  C4  UNL     1     -42.394  16.269   6.878  1.00 20.00     0.020 C 
HETATM    5  C5  UNL     1     -40.336  15.395   8.154  1.00 20.00     0.020 C 
HETATM    6  C6  UNL     1     -40.728  13.681   6.244  1.00 20.00    -0.014 C 
HETATM    7  C7  UNL     1     -40.942  16.504   7.293  1.00 20.00     0.082 C 
HETATM    8 CL11 UNL     1     -40.826  18.048   8.213  1.00 20.00    -0.125 Cl
ENDROOT
BRANCH   6   9
HETATM    9  C9  UNL     1     -40.396  12.207   5.974  1.00 20.00     0.004 C 
BRANCH   9  10
HETATM   10  C10 UNL     1     -38.968  12.051   5.473  1.00 20.00    -0.004 C 
HETATM   11  C8  UNL     1     -38.945  11.676   3.999  1.00 20.00     0.005 C 
ENDBRANCH   9  10
ENDBRANCH   6   9
TORSDOF 2
ENDMDL
MODEL 6
REMARK VINA RESULT:      -4.0      0.901      2.077
REMARK  2 active torsions:
REMARK  status: ('A' for Active; 'I' for Inactive)
REMARK    1  A    between atoms: C6_6  and  C9_9 
REMARK    2  A    between atoms: C9_9  and  C10_10 
ROOT
HETATM    1  C1  UNL     1     -32.924   8.500   5.406  1.00 20.00     0.002 C 
HETATM    2  C2  UNL     1     -32.704   8.644   3.904  1.00 20.00     0.005 C 
HETATM    3  C3  UNL     1     -33.746   6.511   3.002  1.00 20.00     0.006 C 
HETATM    4  C4  UNL     1     -34.064   7.573   5.829  1.00 20.00     0.020 C 
HETATM    5  C5  UNL     1     -34.084   5.597   4.180  1.00 20.00     0.020 C 
HETATM    6  C6  UNL     1     -32.456   7.331   3.140  1.00 20.00    -0.014 C 
HETATM    7  C7  UNL     1     -33.738   6.101   5.581  1.00 20.00     0.082 C 
HETATM    8 CL11 UNL     1     -34.625   5.083   6.773  1.00 20.00    -0.125 Cl
ENDROOT
BRANCH   6   9
HETATM    9  C9  UNL     1     -31.921   7.670   1.742  1.00 20.00     0.004 C 
BRANCH   9  10
HETATM   10  C10 UNL     1     -32.457   9.011   1.262  1.00 20.00    -0.004 C 
HETATM   11  C8  UNL     1     -32.925   8.926  -0.183  1.00 20.00     0.005 C 
ENDBRANCH   9  10
ENDBRANCH   6   9
TORSDOF 2
ENDMDL
MODEL 7
REMARK VINA RESULT:      -4.0     11.364     12.091
REMARK  2 active torsions:
REMARK  status: ('A' for Active; 'I' for Inactive)
REMARK    1  A    between atoms: C6_6  and  C9_9 
REMARK    2  A    between atoms: C9_9  and  C10_10 
ROOT
HETATM    1  C1  UNL     1     -30.859  18.368  -0.212  1.00 20.00     0.002 C 
HETATM    2  C2  UNL     1     -31.982  18.397  -1.244  1.00 20.00     0.005 C 
HETATM    3  C3  UNL     1     -33.960  19.187   0.139  1.00 20.00     0.006 C 
HETATM    4  C4  UNL     1     -31.052  19.263   1.012  1.00 20.00     0.020 C 
HETATM    5  C5  UNL     1     -33.554  19.193   1.612  1.00 20.00     0.020 C 
HETATM    6  C6  UNL     1     -33.383  18.047  -0.710  1.00 20.00    -0.014 C 
HETATM    7  C7  UNL     1     -32.135  18.735   1.952  1.00 20.00     0.082 C 
HETATM    8 CL11 UNL     1     -31.771  19.256   3.636  1.00 20.00    -0.125 Cl
ENDROOT
BRANCH   6   9
HETATM    9  C9  UNL     1     -34.312  17.785  -1.904  1.00 20.00     0.004 C 
BRANCH   9  10
HETATM   10  C10 UNL     1     -33.518  17.369  -3.133  1.00 20.00    -0.004 C 
HETATM   11  C8  UNL     1     -33.682  15.883  -3.412  1.00 20.00     0.005 C 
ENDBRANCH   9  10
ENDBRANCH   6   9
TORSDOF 2
ENDMDL
MODEL 8
REMARK VINA RESULT:      -3.8     10.366     11.318
REMARK  2 active torsions:
REMARK  status: ('A' for Active; 'I' for Inactive)
REMARK    1  A    between atoms: C6_6  and  C9_9 
REMARK    2  A    between atoms: C9_9  and  C10_10 
ROOT
HETATM    1  C1  UNL     1     -43.326  13.387   8.167  1.00 20.00     0.002 C 
HETATM    2  C2  UNL     1     -42.481  12.784   7.049  1.00 20.00     0.005 C 
HETATM    3  C3  UNL     1     -40.209  13.840   7.465  1.00 20.00     0.006 C 
HETATM    4  C4  UNL     1     -42.558  13.886   9.390  1.00 20.00     0.020 C 
HETATM    5  C5  UNL     1     -40.362  14.922   8.533  1.00 20.00     0.020 C 
HETATM    6  C6  UNL     1     -41.380  13.698   6.483  1.00 20.00    -0.014 C 
HETATM    7  C7  UNL     1     -41.764  15.159   9.097  1.00 20.00     0.082 C 
HETATM    8 CL11 UNL     1     -41.599  16.123  10.609  1.00 20.00    -0.125 Cl
ENDROOT
BRANCH   6   9
HETATM    9  C9  UNL     1     -40.867  13.093   5.169  1.00 20.00     0.004 C 
BRANCH   9  10
HETATM   10  C10 UNL     1     -39.928  11.926   5.435  1.00 20.00    -0.004 C 
HETATM   11  C8  UNL     1     -39.017  11.675   4.244  1.00 20.00     0.005 C 
ENDBRANCH   9  10
ENDBRANCH   6   9
TORSDOF 2
ENDMDL
MODEL 9
REMARK VINA RESULT:      -3.7     10.325     11.350
REMARK  2 active torsions:
REMARK  status: ('A' for Active; 'I' for Inactive)
REMARK    1  A    between atoms: C6_6  and  C9_9 
REMARK    2  A    between atoms: C9_9  and  C10_10 
ROOT
HETATM    1  C1  UNL     1     -40.417  15.115   8.606  1.00 20.00     0.002 C 
HETATM    2  C2  UNL     1     -40.443  14.641   7.157  1.00 20.00     0.005 C 
HETATM    3  C3  UNL     1     -42.632  13.357   7.051  1.00 20.00     0.006 C 
HETATM    4  C4  UNL     1     -41.774  15.203   9.306  1.00 20.00     0.020 C 
HETATM    5  C5  UNL     1     -43.185  13.219   8.469  1.00 20.00     0.020 C 
HETATM    6  C6  UNL     1     -41.105  13.273   6.918  1.00 20.00    -0.014 C 
HETATM    7  C7  UNL     1     -42.362  13.825   9.607  1.00 20.00     0.082 C 
HETATM    8 CL11 UNL     1     -43.417  13.930  11.062  1.00 20.00    -0.125 Cl
ENDROOT
BRANCH   6   9
HETATM    9  C9  UNL     1     -40.748  12.795   5.503  1.00 20.00     0.004 C 
BRANCH   9  10
HETATM   10  C10 UNL     1     -39.554  11.852   5.531  1.00 20.00    -0.004 C 
HETATM   11  C8  UNL     1     -38.968  11.671   4.139  1.00 20.00     0.005 C 
ENDBRANCH   9  10
ENDBRANCH   6   9
TORSDOF 2
ENDMDL
