MODEL 1
REMARK VINA RESULT:      -3.8      0.000      0.000
REMARK  2 active torsions:
REMARK  status: ('A' for Active; 'I' for Inactive)
REMARK    1  A    between atoms: C4_4  and  C9_9 
REMARK    2  A    between atoms: C5_5  and  S11_11 
ROOT
HETATM    1  C1  UNL     1     -31.798  18.538  -0.981  1.00 20.00     0.080 C 
HETATM    2  C2  UNL     1     -33.295  16.913  -2.229  1.00 20.00     0.041 C 
HETATM    3  C3  UNL     1     -32.895  18.783  -3.254  1.00 20.00     0.041 C 
HETATM    4  C4  UNL     1     -33.452  17.407  -3.685  1.00 20.00    -0.006 C 
HETATM    5  C5  UNL     1     -32.991  18.357  -1.773  1.00 20.00     0.097 C 
HETATM    6  N10 UNL     1     -30.839  18.684  -0.344  1.00 20.00    -0.196 NA
ENDROOT
BRANCH   5   7
HETATM    7  S11 UNL     1     -34.424  19.132  -0.925  1.00 20.00    -0.148 SA
HETATM    8  C8  UNL     1     -34.073  18.544   0.745  1.00 20.00     0.091 C 
ENDBRANCH   5   7
BRANCH   4   9
HETATM    9  C9  UNL     1     -34.864  17.399  -4.248  1.00 20.00    -0.019 C 
HETATM   10  C6  UNL     1     -35.239  18.774  -4.808  1.00 20.00     0.010 C 
HETATM   11  C7  UNL     1     -35.018  16.329  -5.331  1.00 20.00     0.010 C 
ENDBRANCH   4   9
TORSDOF 2
ENDMDL
MODEL 2
REMARK VINA RESULT:      -3.6      2.271      4.495
REMARK  2 active torsions:
REMARK  status: ('A' for Active; 'I' for Inactive)
REMARK    1  A    between atoms: C4_4  and  C9_9 
REMARK    2  A    between atoms: C5_5  and  S11_11 
ROOT
HETATM    1  C1  UNL     1     -34.398  16.989  -4.478  1.00 20.00     0.080 C 
HETATM    2  C2  UNL     1     -32.917  18.564  -3.149  1.00 20.00     0.041 C 
HETATM    3  C3  UNL     1     -33.668  16.848  -2.054  1.00 20.00     0.041 C 
HETATM    4  C4  UNL     1     -32.540  17.878  -1.817  1.00 20.00    -0.006 C 
HETATM    5  C5  UNL     1     -34.190  17.693  -3.236  1.00 20.00     0.097 C 
HETATM    6  N10 UNL     1     -34.565  16.422  -5.477  1.00 20.00    -0.196 NA
ENDROOT
BRANCH   5   7
HETATM    7  S11 UNL     1     -35.704  18.634  -2.794  1.00 20.00    -0.148 SA
HETATM    8  C8  UNL     1     -36.133  19.209  -4.451  1.00 20.00     0.091 C 
ENDBRANCH   5   7
BRANCH   4   9
HETATM    9  C9  UNL     1     -32.661  18.732  -0.565  1.00 20.00    -0.019 C 
HETATM   10  C6  UNL     1     -33.683  18.138   0.408  1.00 20.00     0.010 C 
HETATM   11  C7  UNL     1     -31.305  18.888   0.127  1.00 20.00     0.010 C 
ENDBRANCH   4   9
TORSDOF 2
ENDMDL
MODEL 3
REMARK VINA RESULT:      -3.3      3.468      5.277
REMARK  2 active torsions:
REMARK  status: ('A' for Active; 'I' for Inactive)
REMARK    1  A    between atoms: C4_4  and  C9_9 
REMARK    2  A    between atoms: C5_5  and  S11_11 
ROOT
HETATM    1  C1  UNL     1     -34.046  15.512  -6.799  1.00 20.00     0.080 C 
HETATM    2  C2  UNL     1     -34.015  17.432  -5.140  1.00 20.00     0.041 C 
HETATM    3  C3  UNL     1     -33.701  15.462  -4.287  1.00 20.00     0.041 C 
HETATM    4  C4  UNL     1     -33.474  16.908  -3.790  1.00 20.00    -0.006 C 
HETATM    5  C5  UNL     1     -34.471  16.003  -5.511  1.00 20.00     0.097 C 
HETATM    6  N10 UNL     1     -33.703  15.116  -7.835  1.00 20.00    -0.196 NA
ENDROOT
BRANCH   5   7
HETATM    7  S11 UNL     1     -36.286  15.789  -5.332  1.00 20.00    -0.148 SA
HETATM    8  C8  UNL     1     -36.769  16.370  -6.972  1.00 20.00     0.091 C 
ENDBRANCH   5   7
BRANCH   4   9
HETATM    9  C9  UNL     1     -34.250  17.323  -2.551  1.00 20.00    -0.019 C 
HETATM   10  C6  UNL     1     -33.306  17.568  -1.370  1.00 20.00     0.010 C 
HETATM   11  C7  UNL     1     -35.091  18.573  -2.821  1.00 20.00     0.010 C 
ENDBRANCH   4   9
TORSDOF 2
ENDMDL
MODEL 4
REMARK VINA RESULT:      -3.2      2.617      4.654
REMARK  2 active torsions:
REMARK  status: ('A' for Active; 'I' for Inactive)
REMARK    1  A    between atoms: C4_4  and  C9_9 
REMARK    2  A    between atoms: C5_5  and  S11_11 
ROOT
HETATM    1  C1  UNL     1     -34.352  18.172  -5.007  1.00 20.00     0.080 C 
HETATM    2  C2  UNL     1     -34.757  18.163  -2.502  1.00 20.00     0.041 C 
HETATM    3  C3  UNL     1     -32.757  18.735  -3.117  1.00 20.00     0.041 C 
HETATM    4  C4  UNL     1     -33.568  18.865  -1.808  1.00 20.00    -0.006 C 
HETATM    5  C5  UNL     1     -33.850  17.814  -3.702  1.00 20.00     0.097 C 
HETATM    6  N10 UNL     1     -34.756  18.461  -6.056  1.00 20.00    -0.196 NA
ENDROOT
BRANCH   5   7
HETATM    7  S11 UNL     1     -33.340  16.050  -3.695  1.00 20.00    -0.148 SA
HETATM    8  C8  UNL     1     -34.550  15.436  -4.886  1.00 20.00     0.091 C 
ENDBRANCH   5   7
BRANCH   4   9
HETATM    9  C9  UNL     1     -32.993  18.163  -0.589  1.00 20.00    -0.019 C 
HETATM   10  C6  UNL     1     -31.517  18.520  -0.395  1.00 20.00     0.010 C 
HETATM   11  C7  UNL     1     -33.788  18.511   0.672  1.00 20.00     0.010 C 
ENDBRANCH   4   9
TORSDOF 2
ENDMDL
MODEL 5
REMARK VINA RESULT:      -3.2     11.657     13.120
REMARK  2 active torsions:
REMARK  status: ('A' for Active; 'I' for Inactive)
REMARK    1  A    between atoms: C4_4  and  C9_9 
REMARK    2  A    between atoms: C5_5  and  S11_11 
ROOT
HETATM    1  C1  UNL     1     -42.862  15.359   6.949  1.00 20.00     0.080 C 
HETATM    2  C2  UNL     1     -40.637  14.143   6.848  1.00 20.00     0.041 C 
HETATM    3  C3  UNL     1     -41.982  13.757   5.191  1.00 20.00     0.041 C 
HETATM    4  C4  UNL     1     -40.473  13.531   5.439  1.00 20.00    -0.006 C 
HETATM    5  C5  UNL     1     -42.172  14.120   6.679  1.00 20.00     0.097 C 
HETATM    6  N10 UNL     1     -43.417  16.355   7.165  1.00 20.00    -0.196 NA
ENDROOT
BRANCH   5   7
HETATM    7  S11 UNL     1     -42.952  12.754   7.627  1.00 20.00    -0.148 SA
HETATM    8  C8  UNL     1     -43.138  13.619   9.202  1.00 20.00     0.091 C 
ENDBRANCH   5   7
BRANCH   4   9
HETATM    9  C9  UNL     1     -39.991  12.090   5.385  1.00 20.00    -0.019 C 
HETATM   10  C6  UNL     1     -39.289  11.796   4.057  1.00 20.00     0.010 C 
HETATM   11  C7  UNL     1     -39.055  11.779   6.556  1.00 20.00     0.010 C 
ENDBRANCH   4   9
TORSDOF 2
ENDMDL
MODEL 6
REMARK VINA RESULT:      -2.9     24.813     25.780
REMARK  2 active torsions:
REMARK  status: ('A' for Active; 'I' for Inactive)
REMARK    1  A    between atoms: C4_4  and  C9_9 
REMARK    2  A    between atoms: C5_5  and  S11_11 
ROOT
HETATM    1  C1  UNL     1     -25.081  -1.627  11.827  1.00 20.00     0.080 C 
HETATM    2  C2  UNL     1     -26.958  -2.180  10.212  1.00 20.00     0.041 C 
HETATM    3  C3  UNL     1     -27.589  -1.438  12.150  1.00 20.00     0.041 C 
HETATM    4  C4  UNL     1     -28.279  -1.611  10.777  1.00 20.00    -0.006 C 
HETATM    5  C5  UNL     1     -26.373  -2.241  11.640  1.00 20.00     0.097 C 
HETATM    6  N10 UNL     1     -24.041  -1.133  11.978  1.00 20.00    -0.196 NA
ENDROOT
BRANCH   5   7
HETATM    7  S11 UNL     1     -26.351  -3.953  12.305  1.00 20.00    -0.148 SA
HETATM    8  C8  UNL     1     -24.781  -4.480  11.585  1.00 20.00     0.091 C 
ENDBRANCH   5   7
BRANCH   4   9
HETATM    9  C9  UNL     1     -29.480  -2.540  10.741  1.00 20.00    -0.019 C 
HETATM   10  C6  UNL     1     -29.150  -3.835   9.993  1.00 20.00     0.010 C 
HETATM   11  C7  UNL     1     -29.971  -2.860  12.155  1.00 20.00     0.010 C 
ENDBRANCH   4   9
TORSDOF 2
ENDMDL
MODEL 7
REMARK VINA RESULT:      -2.8      3.693      5.578
REMARK  2 active torsions:
REMARK  status: ('A' for Active; 'I' for Inactive)
REMARK    1  A    between atoms: C4_4  and  C9_9 
REMARK    2  A    between atoms: C5_5  and  S11_11 
ROOT
HETATM    1  C1  UNL     1     -36.356  18.098  -6.715  1.00 20.00     0.080 C 
HETATM    2  C2  UNL     1     -35.893  17.946  -4.224  1.00 20.00     0.041 C 
HETATM    3  C3  UNL     1     -34.209  17.483  -5.512  1.00 20.00     0.041 C 
HETATM    4  C4  UNL     1     -34.366  17.827  -4.013  1.00 20.00    -0.006 C 
HETATM    5  C5  UNL     1     -35.742  17.353  -5.642  1.00 20.00     0.097 C 
HETATM    6  N10 UNL     1     -36.849  18.699  -7.577  1.00 20.00    -0.196 NA
ENDROOT
BRANCH   5   7
HETATM    7  S11 UNL     1     -36.280  15.598  -5.718  1.00 20.00    -0.148 SA
HETATM    8  C8  UNL     1     -35.913  15.300  -7.461  1.00 20.00     0.091 C 
ENDBRANCH   5   7
BRANCH   4   9
HETATM    9  C9  UNL     1     -33.906  16.765  -3.028  1.00 20.00    -0.019 C 
HETATM   10  C6  UNL     1     -33.075  15.688  -3.731  1.00 20.00     0.010 C 
HETATM   11  C7  UNL     1     -33.101  17.388  -1.885  1.00 20.00     0.010 C 
ENDBRANCH   4   9
TORSDOF 2
ENDMDL
MODEL 8
REMARK VINA RESULT:      -2.8     12.577     13.785
REMARK  2 active torsions:
REMARK  status: ('A' for Active; 'I' for Inactive)
REMARK    1  A    between atoms: C4_4  and  C9_9 
REMARK    2  A    between atoms: C5_5  and  S11_11 
ROOT
HETATM    1  C1  UNL     1     -41.504  16.229   9.761  1.00 20.00     0.080 C 
HETATM    2  C2  UNL     1     -40.314  14.256   8.698  1.00 20.00     0.041 C 
HETATM    3  C3  UNL     1     -41.467  15.489   7.336  1.00 20.00     0.041 C 
HETATM    4  C4  UNL     1     -40.366  14.419   7.162  1.00 20.00    -0.006 C 
HETATM    5  C5  UNL     1     -41.582  15.127   8.832  1.00 20.00     0.097 C 
HETATM    6  N10 UNL     1     -41.440  17.115  10.508  1.00 20.00    -0.196 NA
ENDROOT
BRANCH   5   7
HETATM    7  S11 UNL     1     -43.078  14.122   9.184  1.00 20.00    -0.148 SA
HETATM    8  C8  UNL     1     -42.856  13.962  10.969  1.00 20.00     0.091 C 
ENDBRANCH   5   7
BRANCH   4   9
HETATM    9  C9  UNL     1     -40.750  13.181   6.368  1.00 20.00    -0.019 C 
HETATM   10  C6  UNL     1     -41.466  13.563   5.069  1.00 20.00     0.010 C 
HETATM   11  C7  UNL     1     -39.522  12.322   6.059  1.00 20.00     0.010 C 
ENDBRANCH   4   9
TORSDOF 2
ENDMDL
MODEL 9
REMARK VINA RESULT:      -2.8      4.252      5.350
REMARK  2 active torsions:
REMARK  status: ('A' for Active; 'I' for Inactive)
REMARK    1  A    between atoms: C4_4  and  C9_9 
REMARK    2  A    between atoms: C5_5  and  S11_11 
ROOT
HETATM    1  C1  UNL     1     -35.714  14.288  -5.034  1.00 20.00     0.080 C 
HETATM    2  C2  UNL     1     -36.701  16.335  -6.163  1.00 20.00     0.041 C 
HETATM    3  C3  UNL     1     -34.920  15.524  -7.101  1.00 20.00     0.041 C 
HETATM    4  C4  UNL     1     -36.026  16.510  -7.542  1.00 20.00    -0.006 C 
HETATM    5  C5  UNL     1     -35.461  15.565  -5.655  1.00 20.00     0.097 C 
HETATM    6  N10 UNL     1     -35.917  13.260  -4.534  1.00 20.00    -0.196 NA
ENDROOT
BRANCH   5   7
HETATM    7  S11 UNL     1     -34.411  16.595  -4.556  1.00 20.00    -0.148 SA
HETATM    8  C8  UNL     1     -33.206  15.328  -4.104  1.00 20.00     0.091 C 
ENDBRANCH   5   7
BRANCH   4   9
HETATM    9  C9  UNL     1     -35.572  17.917  -7.893  1.00 20.00    -0.019 C 
HETATM   10  C6  UNL     1     -36.147  18.941  -6.911  1.00 20.00     0.010 C 
HETATM   11  C7  UNL     1     -34.044  18.012  -7.918  1.00 20.00     0.010 C 
ENDBRANCH   4   9
TORSDOF 2
ENDMDL
