MODEL 1
REMARK VINA RESULT:      -3.6      0.000      0.000
REMARK  1 active torsions:
REMARK  status: ('A' for Active; 'I' for Inactive)
REMARK    1  A    between atoms: C6_6  and  S9_9 
ROOT
HETATM    1  C1  UNL     1     -42.879   5.434  -0.645  1.00 20.00     0.080 C 
HETATM    2  C2  UNL     1     -40.777   7.626  -0.166  1.00 20.00     0.003 C 
HETATM    3  C3  UNL     1     -42.073   8.389  -0.438  1.00 20.00     0.003 C 
HETATM    4  C4  UNL     1     -41.144   6.485   0.787  1.00 20.00     0.036 C 
HETATM    5  C5  UNL     1     -43.162   7.681   0.372  1.00 20.00     0.036 C 
HETATM    6  C6  UNL     1     -42.641   6.253   0.558  1.00 20.00     0.096 C 
HETATM    7  N8  UNL     1     -43.066   4.790  -1.592  1.00 20.00    -0.196 NA
ENDROOT
BRANCH   6   8
HETATM    8  S9  UNL     1     -43.414   5.462   2.010  1.00 20.00    -0.148 SA
HETATM    9  C7  UNL     1     -43.417   3.762   1.399  1.00 20.00     0.091 C 
ENDBRANCH   6   8
TORSDOF 1
ENDMDL
MODEL 2
REMARK VINA RESULT:      -3.5     12.760     13.747
REMARK  1 active torsions:
REMARK  status: ('A' for Active; 'I' for Inactive)
REMARK    1  A    between atoms: C6_6  and  S9_9 
ROOT
HETATM    1  C1  UNL     1     -34.235  15.386  -6.950  1.00 20.00     0.080 C 
HETATM    2  C2  UNL     1     -34.076  14.335  -4.066  1.00 20.00     0.003 C 
HETATM    3  C3  UNL     1     -33.476  15.739  -3.997  1.00 20.00     0.003 C 
HETATM    4  C4  UNL     1     -35.334  14.449  -4.930  1.00 20.00     0.036 C 
HETATM    5  C5  UNL     1     -34.405  16.639  -4.814  1.00 20.00     0.036 C 
HETATM    6  C6  UNL     1     -35.100  15.691  -5.796  1.00 20.00     0.096 C 
HETATM    7  N8  UNL     1     -33.554  15.145  -7.858  1.00 20.00    -0.196 NA
ENDROOT
BRANCH   6   8
HETATM    8  S9  UNL     1     -36.680  16.397  -6.374  1.00 20.00    -0.148 SA
HETATM    9  C7  UNL     1     -37.010  17.471  -4.960  1.00 20.00     0.091 C 
ENDBRANCH   6   8
TORSDOF 1
ENDMDL
MODEL 3
REMARK VINA RESULT:      -3.5      9.162      9.924
REMARK  1 active torsions:
REMARK  status: ('A' for Active; 'I' for Inactive)
REMARK    1  A    between atoms: C6_6  and  S9_9 
ROOT
HETATM    1  C1  UNL     1     -42.246  12.522   6.875  1.00 20.00     0.080 C 
HETATM    2  C2  UNL     1     -39.260  12.092   6.284  1.00 20.00     0.003 C 
HETATM    3  C3  UNL     1     -39.932  12.061   4.911  1.00 20.00     0.003 C 
HETATM    4  C4  UNL     1     -39.884  13.268   7.039  1.00 20.00     0.036 C 
HETATM    5  C5  UNL     1     -40.923  13.227   4.896  1.00 20.00     0.036 C 
HETATM    6  C6  UNL     1     -41.246  13.481   6.372  1.00 20.00     0.096 C 
HETATM    7  N8  UNL     1     -43.032  11.766   7.271  1.00 20.00    -0.196 NA
ENDROOT
BRANCH   6   8
HETATM    8  S9  UNL     1     -41.842  15.188   6.623  1.00 20.00    -0.148 SA
HETATM    9  C7  UNL     1     -40.484  15.781   7.654  1.00 20.00     0.091 C 
ENDBRANCH   6   8
TORSDOF 1
ENDMDL
MODEL 4
REMARK VINA RESULT:      -3.4     12.871     13.873
REMARK  1 active torsions:
REMARK  status: ('A' for Active; 'I' for Inactive)
REMARK    1  A    between atoms: C6_6  and  S9_9 
ROOT
HETATM    1  C1  UNL     1     -34.096  15.320  -6.874  1.00 20.00     0.080 C 
HETATM    2  C2  UNL     1     -36.102  17.479  -6.000  1.00 20.00     0.003 C 
HETATM    3  C3  UNL     1     -36.945  16.214  -6.165  1.00 20.00     0.003 C 
HETATM    4  C4  UNL     1     -34.833  17.053  -5.257  1.00 20.00     0.036 C 
HETATM    5  C5  UNL     1     -36.152  15.085  -5.504  1.00 20.00     0.036 C 
HETATM    6  C6  UNL     1     -34.695  15.555  -5.548  1.00 20.00     0.096 C 
HETATM    7  N8  UNL     1     -33.624  15.135  -7.918  1.00 20.00    -0.196 NA
ENDROOT
BRANCH   6   8
HETATM    8  S9  UNL     1     -33.703  14.723  -4.262  1.00 20.00    -0.148 SA
HETATM    9  C7  UNL     1     -33.367  16.166  -3.229  1.00 20.00     0.091 C 
ENDBRANCH   6   8
TORSDOF 1
ENDMDL
MODEL 5
REMARK VINA RESULT:      -3.4     13.893     14.960
REMARK  1 active torsions:
REMARK  status: ('A' for Active; 'I' for Inactive)
REMARK    1  A    between atoms: C6_6  and  S9_9 
ROOT
HETATM    1  C1  UNL     1     -35.342  18.430  -2.777  1.00 20.00     0.080 C 
HETATM    2  C2  UNL     1     -32.463  19.140  -1.968  1.00 20.00     0.003 C 
HETATM    3  C3  UNL     1     -32.826  17.946  -1.086  1.00 20.00     0.003 C 
HETATM    4  C4  UNL     1     -32.961  18.800  -3.375  1.00 20.00     0.036 C 
HETATM    5  C5  UNL     1     -33.518  16.934  -2.003  1.00 20.00     0.036 C 
HETATM    6  C6  UNL     1     -34.077  17.774  -3.156  1.00 20.00     0.096 C 
HETATM    7  N8  UNL     1     -36.337  18.947  -2.478  1.00 20.00    -0.196 NA
ENDROOT
BRANCH   6   8
HETATM    8  S9  UNL     1     -34.331  16.750  -4.644  1.00 20.00    -0.148 SA
HETATM    9  C7  UNL     1     -33.477  15.264  -4.076  1.00 20.00     0.091 C 
ENDBRANCH   6   8
TORSDOF 1
ENDMDL
MODEL 6
REMARK VINA RESULT:      -3.4     12.077     13.429
REMARK  1 active torsions:
REMARK  status: ('A' for Active; 'I' for Inactive)
REMARK    1  A    between atoms: C6_6  and  S9_9 
ROOT
HETATM    1  C1  UNL     1     -35.435  14.155  -4.820  1.00 20.00     0.080 C 
HETATM    2  C2  UNL     1     -35.384  15.863  -7.375  1.00 20.00     0.003 C 
HETATM    3  C3  UNL     1     -36.039  16.760  -6.325  1.00 20.00     0.003 C 
HETATM    4  C4  UNL     1     -34.183  15.207  -6.687  1.00 20.00     0.036 C 
HETATM    5  C5  UNL     1     -35.198  16.615  -5.055  1.00 20.00     0.036 C 
HETATM    6  C6  UNL     1     -34.519  15.248  -5.194  1.00 20.00     0.096 C 
HETATM    7  N8  UNL     1     -36.156  13.294  -4.526  1.00 20.00    -0.196 NA
ENDROOT
BRANCH   6   8
HETATM    8  S9  UNL     1     -33.007  15.166  -4.175  1.00 20.00    -0.148 SA
HETATM    9  C7  UNL     1     -33.412  16.491  -3.016  1.00 20.00     0.091 C 
ENDBRANCH   6   8
TORSDOF 1
ENDMDL
MODEL 7
REMARK VINA RESULT:      -3.3      9.130      9.946
REMARK  1 active torsions:
REMARK  status: ('A' for Active; 'I' for Inactive)
REMARK    1  A    between atoms: C6_6  and  S9_9 
ROOT
HETATM    1  C1  UNL     1     -40.544  14.425   7.154  1.00 20.00     0.080 C 
HETATM    2  C2  UNL     1     -43.330  13.432   6.317  1.00 20.00     0.003 C 
HETATM    3  C3  UNL     1     -42.805  14.181   5.093  1.00 20.00     0.003 C 
HETATM    4  C4  UNL     1     -42.167  12.576   6.826  1.00 20.00     0.036 C 
HETATM    5  C5  UNL     1     -41.352  13.734   4.911  1.00 20.00     0.036 C 
HETATM    6  C6  UNL     1     -40.909  13.277   6.305  1.00 20.00     0.096 C 
HETATM    7  N8  UNL     1     -40.257  15.329   7.823  1.00 20.00    -0.196 NA
ENDROOT
BRANCH   6   8
HETATM    8  S9  UNL     1     -39.506  12.116   6.193  1.00 20.00    -0.148 SA
HETATM    9  C7  UNL     1     -39.475  11.929   4.398  1.00 20.00     0.091 C 
ENDBRANCH   6   8
TORSDOF 1
ENDMDL
MODEL 8
REMARK VINA RESULT:      -3.3      8.832      9.605
REMARK  1 active torsions:
REMARK  status: ('A' for Active; 'I' for Inactive)
REMARK    1  A    between atoms: C6_6  and  S9_9 
ROOT
HETATM    1  C1  UNL     1     -42.144  12.415   6.863  1.00 20.00     0.080 C 
HETATM    2  C2  UNL     1     -42.271  14.929   5.098  1.00 20.00     0.003 C 
HETATM    3  C3  UNL     1     -41.847  15.445   6.473  1.00 20.00     0.003 C 
HETATM    4  C4  UNL     1     -41.441  13.670   4.839  1.00 20.00     0.036 C 
HETATM    5  C5  UNL     1     -40.771  14.481   6.977  1.00 20.00     0.036 C 
HETATM    6  C6  UNL     1     -41.045  13.170   6.232  1.00 20.00     0.096 C 
HETATM    7  N8  UNL     1     -43.009  11.822   7.359  1.00 20.00    -0.196 NA
ENDROOT
BRANCH   6   8
HETATM    8  S9  UNL     1     -39.544  12.136   6.159  1.00 20.00    -0.148 SA
HETATM    9  C7  UNL     1     -39.465  11.932   4.366  1.00 20.00     0.091 C 
ENDBRANCH   6   8
TORSDOF 1
ENDMDL
MODEL 9
REMARK VINA RESULT:      -3.2     13.076     14.219
REMARK  1 active torsions:
REMARK  status: ('A' for Active; 'I' for Inactive)
REMARK    1  A    between atoms: C6_6  and  S9_9 
ROOT
HETATM    1  C1  UNL     1     -36.116  15.473  -5.642  1.00 20.00     0.080 C 
HETATM    2  C2  UNL     1     -34.082  16.865  -3.805  1.00 20.00     0.003 C 
HETATM    3  C3  UNL     1     -33.660  15.395  -3.803  1.00 20.00     0.003 C 
HETATM    4  C4  UNL     1     -34.392  17.218  -5.262  1.00 20.00     0.036 C 
HETATM    5  C5  UNL     1     -33.724  14.932  -5.260  1.00 20.00     0.036 C 
HETATM    6  C6  UNL     1     -34.728  15.879  -5.925  1.00 20.00     0.096 C 
HETATM    7  N8  UNL     1     -37.210  15.155  -5.419  1.00 20.00    -0.196 NA
ENDROOT
BRANCH   6   8
HETATM    8  S9  UNL     1     -34.458  15.951  -7.728  1.00 20.00    -0.148 SA
HETATM    9  C7  UNL     1     -34.362  17.746  -7.898  1.00 20.00     0.091 C 
ENDBRANCH   6   8
TORSDOF 1
ENDMDL
