MODEL 1
REMARK VINA RESULT:      -3.8      0.000      0.000
REMARK  2 active torsions:
REMARK  status: ('A' for Active; 'I' for Inactive)
REMARK    1  A    between atoms: C7_7  and  C10_10 
REMARK    2  A    between atoms: C10_10  and  C11_11 
ROOT
HETATM    1  C1  UNL     1     -33.368  16.423  -3.874  1.00 20.00     0.004 C 
HETATM    2  C2  UNL     1     -33.542  16.420  -2.356  1.00 20.00     0.005 C 
HETATM    3  C3  UNL     1     -35.048  18.473  -2.095  1.00 20.00     0.007 C 
HETATM    4  C4  UNL     1     -34.544  17.027  -4.638  1.00 20.00     0.040 C 
HETATM    5  C5  UNL     1     -35.030  19.263  -3.403  1.00 20.00     0.040 C 
HETATM    6  C6  UNL     1     -33.593  19.257  -5.572  1.00 20.00     0.207 A 
HETATM    7  C7  UNL     1     -33.740  17.784  -1.674  1.00 20.00    -0.014 C 
HETATM    8  C8  UNL     1     -34.516  18.528  -4.611  1.00 20.00     0.082 A 
HETATM    9  O12 UNL     1     -34.987  19.115  -5.841  1.00 20.00    -0.375 OA
ENDROOT
BRANCH   7  10
HETATM   10  C10 UNL     1     -32.510  18.684  -1.795  1.00 20.00     0.004 C 
BRANCH  10  11
HETATM   11  C11 UNL     1     -31.624  18.566  -0.563  1.00 20.00    -0.004 C 
HETATM   12  C9  UNL     1     -32.458  18.522   0.708  1.00 20.00     0.005 C 
ENDBRANCH  10  11
ENDBRANCH   7  10
TORSDOF 2
ENDMDL
MODEL 2
REMARK VINA RESULT:      -3.7     11.564     13.215
REMARK  2 active torsions:
REMARK  status: ('A' for Active; 'I' for Inactive)
REMARK    1  A    between atoms: C7_7  and  C10_10 
REMARK    2  A    between atoms: C10_10  and  C11_11 
ROOT
HETATM    1  C1  UNL     1     -32.908   5.767   2.646  1.00 20.00     0.004 C 
HETATM    2  C2  UNL     1     -31.861   6.878   2.632  1.00 20.00     0.005 C 
HETATM    3  C3  UNL     1     -32.424   8.023   4.850  1.00 20.00     0.007 C 
HETATM    4  C4  UNL     1     -33.318   5.311   4.044  1.00 20.00     0.040 C 
HETATM    5  C5  UNL     1     -33.786   7.523   5.328  1.00 20.00     0.040 C 
HETATM    6  C6  UNL     1     -35.755   6.178   4.286  1.00 20.00     0.207 A 
HETATM    7  C7  UNL     1     -32.232   8.195   3.334  1.00 20.00    -0.014 C 
HETATM    8  C8  UNL     1     -34.291   6.262   4.680  1.00 20.00     0.082 A 
HETATM    9  O12 UNL     1     -35.273   5.592   5.495  1.00 20.00    -0.375 OA
ENDROOT
BRANCH   7  10
HETATM   10  C10 UNL     1     -33.393   8.918   2.651  1.00 20.00     0.004 C 
BRANCH  10  11
HETATM   11  C11 UNL     1     -32.887   9.859   1.566  1.00 20.00    -0.004 C 
HETATM   12  C9  UNL     1     -32.817   9.154   0.221  1.00 20.00     0.005 C 
ENDBRANCH  10  11
ENDBRANCH   7  10
TORSDOF 2
ENDMDL
MODEL 3
REMARK VINA RESULT:      -3.7      2.801      4.190
REMARK  2 active torsions:
REMARK  status: ('A' for Active; 'I' for Inactive)
REMARK    1  A    between atoms: C7_7  and  C10_10 
REMARK    2  A    between atoms: C10_10  and  C11_11 
ROOT
HETATM    1  C1  UNL     1     -34.470  16.034  -7.546  1.00 20.00     0.004 C 
HETATM    2  C2  UNL     1     -33.674  15.120  -6.617  1.00 20.00     0.005 C 
HETATM    3  C3  UNL     1     -35.564  14.304  -5.097  1.00 20.00     0.007 C 
HETATM    4  C4  UNL     1     -35.928  15.620  -7.732  1.00 20.00     0.040 C 
HETATM    5  C5  UNL     1     -36.786  15.194  -5.314  1.00 20.00     0.040 C 
HETATM    6  C6  UNL     1     -37.258  17.470  -6.483  1.00 20.00     0.207 A 
HETATM    7  C7  UNL     1     -34.184  14.977  -5.173  1.00 20.00    -0.014 C 
HETATM    8  C8  UNL     1     -36.779  16.031  -6.564  1.00 20.00     0.082 A 
HETATM    9  O12 UNL     1     -38.109  16.427  -6.958  1.00 20.00    -0.375 OA
ENDROOT
BRANCH   7  10
HETATM   10  C10 UNL     1     -34.100  16.286  -4.389  1.00 20.00     0.004 C 
BRANCH  10  11
HETATM   11  C11 UNL     1     -33.309  16.101  -3.101  1.00 20.00    -0.004 C 
HETATM   12  C9  UNL     1     -33.628  17.201  -2.101  1.00 20.00     0.005 C 
ENDBRANCH  10  11
ENDBRANCH   7  10
TORSDOF 2
ENDMDL
MODEL 4
REMARK VINA RESULT:      -3.7     12.283     13.691
REMARK  2 active torsions:
REMARK  status: ('A' for Active; 'I' for Inactive)
REMARK    1  A    between atoms: C7_7  and  C10_10 
REMARK    2  A    between atoms: C10_10  and  C11_11 
ROOT
HETATM    1  C1  UNL     1     -42.188  15.556   5.666  1.00 20.00     0.004 C 
HETATM    2  C2  UNL     1     -42.404  14.096   5.270  1.00 20.00     0.005 C 
HETATM    3  C3  UNL     1     -42.485  13.032   7.596  1.00 20.00     0.007 C 
HETATM    4  C4  UNL     1     -42.775  15.929   7.024  1.00 20.00     0.040 C 
HETATM    5  C5  UNL     1     -41.960  14.041   8.615  1.00 20.00     0.040 C 
HETATM    6  C6  UNL     1     -40.683  16.306   8.518  1.00 20.00     0.207 A 
HETATM    7  C7  UNL     1     -41.822  13.026   6.209  1.00 20.00    -0.014 C 
HETATM    8  C8  UNL     1     -41.900  15.472   8.156  1.00 20.00     0.082 A 
HETATM    9  O12 UNL     1     -41.897  16.395   9.264  1.00 20.00    -0.375 OA
ENDROOT
BRANCH   7  10
HETATM   10  C10 UNL     1     -40.294  13.061   6.263  1.00 20.00     0.004 C 
BRANCH  10  11
HETATM   11  C11 UNL     1     -39.703  11.717   5.860  1.00 20.00    -0.004 C 
HETATM   12  C9  UNL     1     -39.238  11.738   4.412  1.00 20.00     0.005 C 
ENDBRANCH  10  11
ENDBRANCH   7  10
TORSDOF 2
ENDMDL
MODEL 5
REMARK VINA RESULT:      -3.5     12.836     14.240
REMARK  2 active torsions:
REMARK  status: ('A' for Active; 'I' for Inactive)
REMARK    1  A    between atoms: C7_7  and  C10_10 
REMARK    2  A    between atoms: C10_10  and  C11_11 
ROOT
HETATM    1  C1  UNL     1     -42.242  15.719   6.519  1.00 20.00     0.004 C 
HETATM    2  C2  UNL     1     -42.169  14.675   5.407  1.00 20.00     0.005 C 
HETATM    3  C3  UNL     1     -42.804  12.586   6.742  1.00 20.00     0.007 C 
HETATM    4  C4  UNL     1     -43.237  15.385   7.627  1.00 20.00     0.040 C 
HETATM    5  C5  UNL     1     -42.714  12.911   8.232  1.00 20.00     0.040 C 
HETATM    6  C6  UNL     1     -41.725  14.841   9.669  1.00 20.00     0.207 A 
HETATM    7  C7  UNL     1     -41.770  13.247   5.817  1.00 20.00    -0.014 C 
HETATM    8  C8  UNL     1     -42.683  14.372   8.588  1.00 20.00     0.082 A 
HETATM    9  O12 UNL     1     -43.105  14.606   9.947  1.00 20.00    -0.375 OA
ENDROOT
BRANCH   7  10
HETATM   10  C10 UNL     1     -40.338  13.168   6.346  1.00 20.00     0.004 C 
BRANCH  10  11
HETATM   11  C11 UNL     1     -39.709  11.821   6.020  1.00 20.00    -0.004 C 
HETATM   12  C9  UNL     1     -39.267  11.762   4.566  1.00 20.00     0.005 C 
ENDBRANCH  10  11
ENDBRANCH   7  10
TORSDOF 2
ENDMDL
MODEL 6
REMARK VINA RESULT:      -3.5      2.049      3.480
REMARK  2 active torsions:
REMARK  status: ('A' for Active; 'I' for Inactive)
REMARK    1  A    between atoms: C7_7  and  C10_10 
REMARK    2  A    between atoms: C10_10  and  C11_11 
ROOT
HETATM    1  C1  UNL     1     -34.678  17.662  -5.196  1.00 20.00     0.004 C 
HETATM    2  C2  UNL     1     -33.358  17.755  -4.434  1.00 20.00     0.005 C 
HETATM    3  C3  UNL     1     -32.809  15.264  -4.226  1.00 20.00     0.007 C 
HETATM    4  C4  UNL     1     -34.798  16.433  -6.093  1.00 20.00     0.040 C 
HETATM    5  C5  UNL     1     -34.059  14.457  -4.574  1.00 20.00     0.040 C 
HETATM    6  C6  UNL     1     -36.588  14.973  -4.903  1.00 20.00     0.207 A 
HETATM    7  C7  UNL     1     -33.018  16.594  -3.484  1.00 20.00    -0.014 C 
HETATM    8  C8  UNL     1     -35.142  15.199  -5.308  1.00 20.00     0.082 A 
HETATM    9  O12 UNL     1     -36.015  14.307  -6.029  1.00 20.00    -0.375 OA
ENDROOT
BRANCH   7  10
HETATM   10  C10 UNL     1     -33.992  16.491  -2.310  1.00 20.00     0.004 C 
BRANCH  10  11
HETATM   11  C11 UNL     1     -33.948  17.748  -1.453  1.00 20.00    -0.004 C 
HETATM   12  C9  UNL     1     -32.533  18.034  -0.975  1.00 20.00     0.005 C 
ENDBRANCH  10  11
ENDBRANCH   7  10
TORSDOF 2
ENDMDL
MODEL 7
REMARK VINA RESULT:      -3.4     24.709     26.275
REMARK  2 active torsions:
REMARK  status: ('A' for Active; 'I' for Inactive)
REMARK    1  A    between atoms: C7_7  and  C10_10 
REMARK    2  A    between atoms: C10_10  and  C11_11 
ROOT
HETATM    1  C1  UNL     1     -26.907  -3.981  11.717  1.00 20.00     0.004 C 
HETATM    2  C2  UNL     1     -25.405  -4.087  11.971  1.00 20.00     0.005 C 
HETATM    3  C3  UNL     1     -24.821  -1.600  12.122  1.00 20.00     0.007 C 
HETATM    4  C4  UNL     1     -27.556  -2.735  12.314  1.00 20.00     0.040 C 
HETATM    5  C5  UNL     1     -25.997  -0.788  11.582  1.00 20.00     0.040 C 
HETATM    6  C6  UNL     1     -28.163  -1.300  10.236  1.00 20.00     0.207 A 
HETATM    7  C7  UNL     1     -24.525  -2.945  11.437  1.00 20.00    -0.014 C 
HETATM    8  C8  UNL     1     -27.308  -1.517  11.471  1.00 20.00     0.082 A 
HETATM    9  O12 UNL     1     -28.430  -0.612  11.458  1.00 20.00    -0.375 OA
ENDROOT
BRANCH   7  10
HETATM   10  C10 UNL     1     -24.529  -2.865   9.910  1.00 20.00     0.004 C 
BRANCH  10  11
HETATM   11  C11 UNL     1     -23.131  -3.084   9.349  1.00 20.00    -0.004 C 
HETATM   12  C9  UNL     1     -23.168  -3.237   7.836  1.00 20.00     0.005 C 
ENDBRANCH  10  11
ENDBRANCH   7  10
TORSDOF 2
ENDMDL
MODEL 8
REMARK VINA RESULT:      -3.4      2.805      4.421
REMARK  2 active torsions:
REMARK  status: ('A' for Active; 'I' for Inactive)
REMARK    1  A    between atoms: C7_7  and  C10_10 
REMARK    2  A    between atoms: C10_10  and  C11_11 
ROOT
HETATM    1  C1  UNL     1     -35.747  17.661  -7.138  1.00 20.00     0.004 C 
HETATM    2  C2  UNL     1     -34.442  16.884  -6.977  1.00 20.00     0.005 C 
HETATM    3  C3  UNL     1     -35.335  14.785  -5.817  1.00 20.00     0.007 C 
HETATM    4  C4  UNL     1     -36.988  16.781  -7.264  1.00 20.00     0.040 C 
HETATM    5  C5  UNL     1     -36.755  15.063  -5.326  1.00 20.00     0.040 C 
HETATM    6  C6  UNL     1     -38.251  17.171  -5.028  1.00 20.00     0.207 A 
HETATM    7  C7  UNL     1     -34.333  15.949  -5.761  1.00 20.00    -0.014 C 
HETATM    8  C8  UNL     1     -37.441  16.258  -5.931  1.00 20.00     0.082 A 
HETATM    9  O12 UNL     1     -38.876  16.167  -5.828  1.00 20.00    -0.375 OA
ENDROOT
BRANCH   7  10
HETATM   10  C10 UNL     1     -34.353  16.707  -4.433  1.00 20.00     0.004 C 
BRANCH  10  11
HETATM   11  C11 UNL     1     -33.411  16.066  -3.424  1.00 20.00    -0.004 C 
HETATM   12  C9  UNL     1     -33.379  16.859  -2.127  1.00 20.00     0.005 C 
ENDBRANCH  10  11
ENDBRANCH   7  10
TORSDOF 2
ENDMDL
MODEL 9
REMARK VINA RESULT:      -3.4      2.471      4.040
REMARK  2 active torsions:
REMARK  status: ('A' for Active; 'I' for Inactive)
REMARK    1  A    between atoms: C7_7  and  C10_10 
REMARK    2  A    between atoms: C10_10  and  C11_11 
ROOT
HETATM    1  C1  UNL     1     -37.119  17.234  -4.937  1.00 20.00     0.004 C 
HETATM    2  C2  UNL     1     -36.237  18.480  -4.899  1.00 20.00     0.005 C 
HETATM    3  C3  UNL     1     -34.441  17.783  -6.583  1.00 20.00     0.007 C 
HETATM    4  C4  UNL     1     -37.093  16.490  -6.270  1.00 20.00     0.040 C 
HETATM    5  C5  UNL     1     -34.564  16.282  -6.838  1.00 20.00     0.040 C 
HETATM    6  C6  UNL     1     -35.818  14.293  -5.725  1.00 20.00     0.207 A 
HETATM    7  C7  UNL     1     -34.735  18.279  -5.158  1.00 20.00    -0.014 C 
HETATM    8  C8  UNL     1     -35.860  15.645  -6.415  1.00 20.00     0.082 A 
HETATM    9  O12 UNL     1     -36.110  14.411  -7.117  1.00 20.00    -0.375 OA
ENDROOT
BRANCH   7  10
HETATM   10  C10 UNL     1     -34.058  17.444  -4.071  1.00 20.00     0.004 C 
BRANCH  10  11
HETATM   11  C11 UNL     1     -34.286  18.052  -2.694  1.00 20.00    -0.004 C 
HETATM   12  C9  UNL     1     -33.591  17.237  -1.615  1.00 20.00     0.005 C 
ENDBRANCH  10  11
ENDBRANCH   7  10
TORSDOF 2
ENDMDL
