MODEL 1
REMARK VINA RESULT:      -4.2      0.000      0.000
REMARK  1 active torsions:
REMARK  status: ('A' for Active; 'I' for Inactive)
REMARK    1  A    between atoms: C4_4  and  C8_8 
ROOT
HETATM    1  C5  UNL     1     -34.292  18.301  -3.393  1.00 20.00     0.011 C 
HETATM    2  C6  UNL     1     -34.888  17.288  -4.375  1.00 20.00     0.021 C 
HETATM    3  C7  UNL     1     -33.361  16.116  -2.962  1.00 20.00     0.029 C 
HETATM    4  C8  UNL     1     -33.090  17.607  -2.715  1.00 20.00     0.020 C 
HETATM    5  C9  UNL     1     -33.915  16.117  -4.379  1.00 20.00     0.083 C 
HETATM    6 CL11 UNL     1     -34.698  14.588  -4.799  1.00 20.00    -0.125 Cl
ENDROOT
BRANCH   4   7
HETATM    7  C4  UNL     1     -32.848  18.039  -1.283  1.00 20.00    -0.047 A 
HETATM    8  C1  UNL     1     -33.862  18.074  -0.283  1.00 20.00     0.015 A 
HETATM    9  C2  UNL     1     -33.375  18.504   0.932  1.00 20.00     0.050 A 
HETATM   10  S10 UNL     1     -31.702  18.864   0.862  1.00 20.00    -0.113 SA
HETATM   11  C3  UNL     1     -31.625  18.445  -0.796  1.00 20.00     0.057 A 
ENDBRANCH   4   7
TORSDOF 1
ENDMDL
MODEL 2
REMARK VINA RESULT:      -4.1      1.508      2.263
REMARK  1 active torsions:
REMARK  status: ('A' for Active; 'I' for Inactive)
REMARK    1  A    between atoms: C4_4  and  C8_8 
ROOT
HETATM    1  C5  UNL     1     -33.345  16.570  -2.449  1.00 20.00     0.011 C 
HETATM    2  C6  UNL     1     -33.866  16.717  -3.882  1.00 20.00     0.021 C 
HETATM    3  C7  UNL     1     -34.321  18.759  -2.732  1.00 20.00     0.029 C 
HETATM    4  C8  UNL     1     -33.926  17.752  -1.641  1.00 20.00     0.020 C 
HETATM    5  C9  UNL     1     -34.874  17.856  -3.823  1.00 20.00     0.083 C 
HETATM    6 CL11 UNL     1     -35.039  18.694  -5.372  1.00 20.00    -0.125 Cl
ENDROOT
BRANCH   4   7
HETATM    7  C4  UNL     1     -33.024  18.251  -0.532  1.00 20.00    -0.047 A 
HETATM    8  C1  UNL     1     -31.614  18.409  -0.664  1.00 20.00     0.015 A 
HETATM    9  C2  UNL     1     -31.035  18.877   0.494  1.00 20.00     0.050 A 
HETATM   10  S10 UNL     1     -32.189  19.124   1.735  1.00 20.00    -0.113 SA
HETATM   11  C3  UNL     1     -33.468  18.603   0.724  1.00 20.00     0.057 A 
ENDBRANCH   4   7
TORSDOF 1
ENDMDL
MODEL 3
REMARK VINA RESULT:      -4.1      3.419      4.965
REMARK  1 active torsions:
REMARK  status: ('A' for Active; 'I' for Inactive)
REMARK    1  A    between atoms: C4_4  and  C8_8 
ROOT
HETATM    1  C5  UNL     1     -32.733  18.844  -2.871  1.00 20.00     0.011 C 
HETATM    2  C6  UNL     1     -32.247  19.263  -1.480  1.00 20.00     0.021 C 
HETATM    3  C7  UNL     1     -33.674  17.368  -1.210  1.00 20.00     0.029 C 
HETATM    4  C8  UNL     1     -33.889  17.842  -2.655  1.00 20.00     0.020 C 
HETATM    5  C9  UNL     1     -33.245  18.647  -0.509  1.00 20.00     0.083 C 
HETATM    6 CL11 UNL     1     -32.537  18.339   1.083  1.00 20.00    -0.125 Cl
ENDROOT
BRANCH   4   7
HETATM    7  C4  UNL     1     -33.996  16.775  -3.725  1.00 20.00    -0.047 A 
HETATM    8  C1  UNL     1     -33.259  15.556  -3.708  1.00 20.00     0.015 A 
HETATM    9  C2  UNL     1     -33.544  14.765  -4.799  1.00 20.00     0.050 A 
HETATM   10  S10 UNL     1     -34.695  15.492  -5.837  1.00 20.00    -0.113 SA
HETATM   11  C3  UNL     1     -34.815  16.870  -4.828  1.00 20.00     0.057 A 
ENDBRANCH   4   7
TORSDOF 1
ENDMDL
MODEL 4
REMARK VINA RESULT:      -3.9      3.345      4.968
REMARK  1 active torsions:
REMARK  status: ('A' for Active; 'I' for Inactive)
REMARK    1  A    between atoms: C4_4  and  C8_8 
ROOT
HETATM    1  C5  UNL     1     -34.320  18.564  -0.414  1.00 20.00     0.011 C 
HETATM    2  C6  UNL     1     -33.376  19.194   0.614  1.00 20.00     0.021 C 
HETATM    3  C7  UNL     1     -32.049  17.901  -0.892  1.00 20.00     0.029 C 
HETATM    4  C8  UNL     1     -33.503  17.491  -1.169  1.00 20.00     0.020 C 
HETATM    5  C9  UNL     1     -32.109  18.352   0.560  1.00 20.00     0.083 C 
HETATM    6 CL11 UNL     1     -30.671  19.261   1.044  1.00 20.00    -0.125 Cl
ENDROOT
BRANCH   4   7
HETATM    7  C4  UNL     1     -33.907  17.306  -2.617  1.00 20.00    -0.047 A 
HETATM    8  C1  UNL     1     -33.545  16.175  -3.403  1.00 20.00     0.015 A 
HETATM    9  C2  UNL     1     -34.041  16.257  -4.686  1.00 20.00     0.050 A 
HETATM   10  S10 UNL     1     -34.939  17.694  -4.936  1.00 20.00    -0.113 SA
HETATM   11  C3  UNL     1     -34.665  18.210  -3.327  1.00 20.00     0.057 A 
ENDBRANCH   4   7
TORSDOF 1
ENDMDL
MODEL 5
REMARK VINA RESULT:      -3.8      3.779      5.570
REMARK  1 active torsions:
REMARK  status: ('A' for Active; 'I' for Inactive)
REMARK    1  A    between atoms: C4_4  and  C8_8 
ROOT
HETATM    1  C5  UNL     1     -33.384  16.311  -3.035  1.00 20.00     0.011 C 
HETATM    2  C6  UNL     1     -33.508  17.070  -1.711  1.00 20.00     0.021 C 
HETATM    3  C7  UNL     1     -34.858  18.200  -3.324  1.00 20.00     0.029 C 
HETATM    4  C8  UNL     1     -33.990  17.220  -4.127  1.00 20.00     0.020 C 
HETATM    5  C9  UNL     1     -34.002  18.458  -2.093  1.00 20.00     0.083 C 
HETATM    6 CL11 UNL     1     -34.912  19.235  -0.790  1.00 20.00    -0.125 Cl
ENDROOT
BRANCH   4   7
HETATM    7  C4  UNL     1     -34.660  16.472  -5.260  1.00 20.00    -0.047 A 
HETATM    8  C1  UNL     1     -35.101  15.120  -5.168  1.00 20.00     0.015 A 
HETATM    9  C2  UNL     1     -35.675  14.682  -6.341  1.00 20.00     0.050 A 
HETATM   10  S10 UNL     1     -35.680  15.898  -7.547  1.00 20.00    -0.113 SA
HETATM   11  C3  UNL     1     -34.912  17.015  -6.501  1.00 20.00     0.057 A 
ENDBRANCH   4   7
TORSDOF 1
ENDMDL
MODEL 6
REMARK VINA RESULT:      -3.6      3.626      5.417
REMARK  1 active torsions:
REMARK  status: ('A' for Active; 'I' for Inactive)
REMARK    1  A    between atoms: C4_4  and  C8_8 
ROOT
HETATM    1  C5  UNL     1     -30.959  18.510  -0.168  1.00 20.00     0.011 C 
HETATM    2  C6  UNL     1     -30.535  18.509   1.304  1.00 20.00     0.021 C 
HETATM    3  C7  UNL     1     -32.882  18.937   1.225  1.00 20.00     0.029 C 
HETATM    4  C8  UNL     1     -32.386  19.099  -0.219  1.00 20.00     0.020 C 
HETATM    5  C9  UNL     1     -31.637  19.263   2.035  1.00 20.00     0.083 C 
HETATM    6 CL11 UNL     1     -31.785  18.770   3.728  1.00 20.00    -0.125 Cl
ENDROOT
BRANCH   4   7
HETATM    7  C4  UNL     1     -33.256  18.527  -1.319  1.00 20.00    -0.047 A 
HETATM    8  C1  UNL     1     -32.972  17.312  -2.007  1.00 20.00     0.015 A 
HETATM    9  C2  UNL     1     -33.923  17.022  -2.959  1.00 20.00     0.050 A 
HETATM   10  S10 UNL     1     -35.154  18.211  -3.021  1.00 20.00    -0.113 SA
HETATM   11  C3  UNL     1     -34.415  19.119  -1.772  1.00 20.00     0.057 A 
ENDBRANCH   4   7
TORSDOF 1
ENDMDL
MODEL 7
REMARK VINA RESULT:      -3.5      3.474      5.118
REMARK  1 active torsions:
REMARK  status: ('A' for Active; 'I' for Inactive)
REMARK    1  A    between atoms: C4_4  and  C8_8 
ROOT
HETATM    1  C5  UNL     1     -34.581  18.642  -2.868  1.00 20.00     0.011 C 
HETATM    2  C6  UNL     1     -33.731  19.217  -1.730  1.00 20.00     0.021 C 
HETATM    3  C7  UNL     1     -32.830  17.081  -2.301  1.00 20.00     0.029 C 
HETATM    4  C8  UNL     1     -34.195  17.152  -3.002  1.00 20.00     0.020 C 
HETATM    5  C9  UNL     1     -33.023  18.017  -1.117  1.00 20.00     0.083 C 
HETATM    6 CL11 UNL     1     -31.492  18.456  -0.348  1.00 20.00    -0.125 Cl
ENDROOT
BRANCH   4   7
HETATM    7  C4  UNL     1     -34.277  16.613  -4.414  1.00 20.00    -0.047 A 
HETATM    8  C1  UNL     1     -33.956  15.272  -4.772  1.00 20.00     0.015 A 
HETATM    9  C2  UNL     1     -34.116  15.044  -6.121  1.00 20.00     0.050 A 
HETATM   10  S10 UNL     1     -34.650  16.445  -6.950  1.00 20.00    -0.113 SA
HETATM   11  C3  UNL     1     -34.669  17.360  -5.503  1.00 20.00     0.057 A 
ENDBRANCH   4   7
TORSDOF 1
ENDMDL
MODEL 8
REMARK VINA RESULT:      -3.5     10.838     11.898
REMARK  1 active torsions:
REMARK  status: ('A' for Active; 'I' for Inactive)
REMARK    1  A    between atoms: C4_4  and  C8_8 
ROOT
HETATM    1  C5  UNL     1     -38.914  12.409   6.668  1.00 20.00     0.011 C 
HETATM    2  C6  UNL     1     -38.276  11.889   5.376  1.00 20.00     0.021 C 
HETATM    3  C7  UNL     1     -40.402  12.820   4.813  1.00 20.00     0.029 C 
HETATM    4  C8  UNL     1     -40.395  12.708   6.345  1.00 20.00     0.020 C 
HETATM    5  C9  UNL     1     -39.434  11.721   4.402  1.00 20.00     0.083 C 
HETATM    6 CL11 UNL     1     -38.924  11.867   2.714  1.00 20.00    -0.125 Cl
ENDROOT
BRANCH   4   7
HETATM    7  C4  UNL     1     -40.982  13.863   7.127  1.00 20.00    -0.047 A 
HETATM    8  C1  UNL     1     -40.444  14.348   8.353  1.00 20.00     0.015 A 
HETATM    9  C2  UNL     1     -41.170  15.406   8.855  1.00 20.00     0.050 A 
HETATM   10  S10 UNL     1     -42.494  15.810   7.847  1.00 20.00    -0.113 SA
HETATM   11  C3  UNL     1     -42.099  14.569   6.737  1.00 20.00     0.057 A 
ENDBRANCH   4   7
TORSDOF 1
ENDMDL
MODEL 9
REMARK VINA RESULT:      -3.5     11.035     11.716
REMARK  1 active torsions:
REMARK  status: ('A' for Active; 'I' for Inactive)
REMARK    1  A    between atoms: C4_4  and  C8_8 
ROOT
HETATM    1  C5  UNL     1     -32.878   9.264   3.307  1.00 20.00     0.011 C 
HETATM    2  C6  UNL     1     -32.702   9.652   1.836  1.00 20.00     0.021 C 
HETATM    3  C7  UNL     1     -32.670   7.268   1.966  1.00 20.00     0.029 C 
HETATM    4  C8  UNL     1     -32.537   7.761   3.415  1.00 20.00     0.020 C 
HETATM    5  C9  UNL     1     -32.087   8.427   1.173  1.00 20.00     0.083 C 
HETATM    6 CL11 UNL     1     -32.471   8.326  -0.551  1.00 20.00    -0.125 Cl
ENDROOT
BRANCH   4   7
HETATM    7  C4  UNL     1     -33.322   7.018   4.475  1.00 20.00    -0.047 A 
HETATM    8  C1  UNL     1     -33.515   7.497   5.802  1.00 20.00     0.015 A 
HETATM    9  C2  UNL     1     -34.267   6.628   6.562  1.00 20.00     0.050 A 
HETATM   10  S10 UNL     1     -34.736   5.240   5.674  1.00 20.00    -0.113 SA
HETATM   11  C3  UNL     1     -33.933   5.800   4.270  1.00 20.00     0.057 A 
ENDBRANCH   4   7
TORSDOF 1
ENDMDL
