MODEL 1
REMARK VINA RESULT:      -3.7      0.000      0.000
REMARK  5 active torsions:
REMARK  status: ('A' for Active; 'I' for Inactive)
REMARK    1  A    between atoms: C5_5  and  C7_7 
REMARK    2  A    between atoms: C6_6  and  C8_8 
REMARK    3  A    between atoms: C7_7  and  C9_9 
REMARK    4  A    between atoms: C8_8  and  C9_9 
REMARK    5  A    between atoms: C9_9  and  S11_11 
ROOT
HETATM    1  C1  UNL     1     -41.792  14.043   4.812  1.00 20.00     0.080 C 
HETATM    2  C9  UNL     1     -41.481  13.572   6.180  1.00 20.00     0.096 C 
HETATM    3  N10 UNL     1     -42.032  14.412   3.737  1.00 20.00    -0.196 NA
ENDROOT
BRANCH   2   4
HETATM    4  C7  UNL     1     -40.503  14.565   6.868  1.00 20.00     0.035 C 
BRANCH   4   5
HETATM    5  C5  UNL     1     -40.411  14.440   8.396  1.00 20.00    -0.002 C 
HETATM    6  C2  UNL     1     -40.435  15.808   9.065  1.00 20.00     0.005 C 
ENDBRANCH   4   5
ENDBRANCH   2   4
BRANCH   2   7
HETATM    7  C8  UNL     1     -40.898  12.136   6.140  1.00 20.00     0.035 C 
BRANCH   7   8
HETATM    8  C6  UNL     1     -39.393  12.021   5.838  1.00 20.00    -0.002 C 
HETATM    9  C3  UNL     1     -39.152  11.693   4.370  1.00 20.00     0.005 C 
ENDBRANCH   7   8
ENDBRANCH   2   7
BRANCH   2  10
HETATM   10  S11 UNL     1     -43.037  13.610   7.181  1.00 20.00    -0.148 SA
HETATM   11  C4  UNL     1     -43.287  11.828   7.281  1.00 20.00     0.091 C 
ENDBRANCH   2  10
TORSDOF 5
ENDMDL
MODEL 2
REMARK VINA RESULT:      -3.6      1.736      4.070
REMARK  5 active torsions:
REMARK  status: ('A' for Active; 'I' for Inactive)
REMARK    1  A    between atoms: C5_5  and  C7_7 
REMARK    2  A    between atoms: C6_6  and  C8_8 
REMARK    3  A    between atoms: C7_7  and  C9_9 
REMARK    4  A    between atoms: C8_8  and  C9_9 
REMARK    5  A    between atoms: C9_9  and  S11_11 
ROOT
HETATM    1  C1  UNL     1     -42.357  12.586   6.968  1.00 20.00     0.080 C 
HETATM    2  C9  UNL     1     -41.410  13.587   6.428  1.00 20.00     0.096 C 
HETATM    3  N10 UNL     1     -43.097  11.798   7.393  1.00 20.00    -0.196 NA
ENDROOT
BRANCH   2   4
HETATM    4  C7  UNL     1     -40.754  13.042   5.128  1.00 20.00     0.035 C 
BRANCH   4   5
HETATM    5  C5  UNL     1     -39.760  11.889   5.331  1.00 20.00    -0.002 C 
HETATM    6  C2  UNL     1     -38.944  11.636   4.071  1.00 20.00     0.005 C 
ENDBRANCH   4   5
ENDBRANCH   2   4
BRANCH   2   7
HETATM    7  C8  UNL     1     -40.344  13.955   7.491  1.00 20.00     0.035 C 
BRANCH   7   8
HETATM    8  C6  UNL     1     -40.391  15.394   8.032  1.00 20.00    -0.002 C 
HETATM    9  C3  UNL     1     -40.255  15.414   9.550  1.00 20.00     0.005 C 
ENDBRANCH   7   8
ENDBRANCH   2   7
BRANCH   2  10
HETATM   10  S11 UNL     1     -42.368  15.089   5.927  1.00 20.00    -0.148 SA
HETATM   11  C4  UNL     1     -42.478  14.712   4.168  1.00 20.00     0.091 C 
ENDBRANCH   2  10
TORSDOF 5
ENDMDL
MODEL 3
REMARK VINA RESULT:      -3.5      1.860      3.261
REMARK  5 active torsions:
REMARK  status: ('A' for Active; 'I' for Inactive)
REMARK    1  A    between atoms: C5_5  and  C7_7 
REMARK    2  A    between atoms: C6_6  and  C8_8 
REMARK    3  A    between atoms: C7_7  and  C9_9 
REMARK    4  A    between atoms: C8_8  and  C9_9 
REMARK    5  A    between atoms: C9_9  and  S11_11 
ROOT
HETATM    1  C1  UNL     1     -42.221  12.651   6.865  1.00 20.00     0.080 C 
HETATM    2  C9  UNL     1     -41.304  13.603   6.200  1.00 20.00     0.096 C 
HETATM    3  N10 UNL     1     -42.940  11.902   7.385  1.00 20.00    -0.196 NA
ENDROOT
BRANCH   2   4
HETATM    4  C7  UNL     1     -41.844  13.951   4.784  1.00 20.00     0.035 C 
BRANCH   4   5
HETATM    5  C5  UNL     1     -42.621  15.273   4.687  1.00 20.00    -0.002 C 
HETATM    6  C2  UNL     1     -42.654  15.790   3.255  1.00 20.00     0.005 C 
ENDBRANCH   4   5
ENDBRANCH   2   4
BRANCH   2   7
HETATM    7  C8  UNL     1     -39.870  13.019   6.133  1.00 20.00     0.035 C 
BRANCH   7   8
HETATM    8  C6  UNL     1     -39.738  11.604   5.544  1.00 20.00    -0.002 C 
HETATM    9  C3  UNL     1     -39.027  11.635   4.197  1.00 20.00     0.005 C 
ENDBRANCH   7   8
ENDBRANCH   2   7
BRANCH   2  10
HETATM   10  S11 UNL     1     -41.312  15.189   7.154  1.00 20.00    -0.148 SA
HETATM   11  C4  UNL     1     -40.364  14.607   8.571  1.00 20.00     0.091 C 
ENDBRANCH   2  10
TORSDOF 5
ENDMDL
MODEL 4
REMARK VINA RESULT:      -3.4     12.065     12.580
REMARK  5 active torsions:
REMARK  status: ('A' for Active; 'I' for Inactive)
REMARK    1  A    between atoms: C5_5  and  C7_7 
REMARK    2  A    between atoms: C6_6  and  C8_8 
REMARK    3  A    between atoms: C7_7  and  C9_9 
REMARK    4  A    between atoms: C8_8  and  C9_9 
REMARK    5  A    between atoms: C9_9  and  S11_11 
ROOT
HETATM    1  C1  UNL     1     -33.182  18.882  -3.569  1.00 20.00     0.080 C 
HETATM    2  C9  UNL     1     -33.376  18.395  -2.186  1.00 20.00     0.096 C 
HETATM    3  N10 UNL     1     -33.026  19.263  -4.655  1.00 20.00    -0.196 NA
ENDROOT
BRANCH   2   4
HETATM    4  C7  UNL     1     -32.201  18.875  -1.289  1.00 20.00     0.035 C 
BRANCH   4   5
HETATM    5  C5  UNL     1     -32.303  18.477   0.191  1.00 20.00    -0.002 C 
HETATM    6  C2  UNL     1     -30.937  18.497   0.863  1.00 20.00     0.005 C 
ENDBRANCH   4   5
ENDBRANCH   2   4
BRANCH   2   7
HETATM    7  C8  UNL     1     -33.510  16.850  -2.168  1.00 20.00     0.035 C 
BRANCH   7   8
HETATM    8  C6  UNL     1     -32.971  16.106  -3.402  1.00 20.00    -0.002 C 
HETATM    9  C3  UNL     1     -33.934  15.012  -3.846  1.00 20.00     0.005 C 
ENDBRANCH   7   8
ENDBRANCH   2   7
BRANCH   2  10
HETATM   10  S11 UNL     1     -34.902  19.183  -1.496  1.00 20.00    -0.148 SA
HETATM   11  C4  UNL     1     -36.012  18.753  -2.848  1.00 20.00     0.091 C 
ENDBRANCH   2  10
TORSDOF 5
ENDMDL
MODEL 5
REMARK VINA RESULT:      -3.4      1.262      3.543
REMARK  5 active torsions:
REMARK  status: ('A' for Active; 'I' for Inactive)
REMARK    1  A    between atoms: C5_5  and  C7_7 
REMARK    2  A    between atoms: C6_6  and  C8_8 
REMARK    3  A    between atoms: C7_7  and  C9_9 
REMARK    4  A    between atoms: C8_8  and  C9_9 
REMARK    5  A    between atoms: C9_9  and  S11_11 
ROOT
HETATM    1  C1  UNL     1     -42.048  14.304   4.409  1.00 20.00     0.080 C 
HETATM    2  C9  UNL     1     -41.996  14.068   5.869  1.00 20.00     0.096 C 
HETATM    3  N10 UNL     1     -42.089  14.484   3.263  1.00 20.00    -0.196 NA
ENDROOT
BRANCH   2   4
HETATM    4  C7  UNL     1     -40.717  13.258   6.226  1.00 20.00     0.035 C 
BRANCH   4   5
HETATM    5  C5  UNL     1     -40.150  12.397   5.087  1.00 20.00    -0.002 C 
HETATM    6  C2  UNL     1     -38.686  12.056   5.330  1.00 20.00     0.005 C 
ENDBRANCH   4   5
ENDBRANCH   2   4
BRANCH   2   7
HETATM    7  C8  UNL     1     -43.279  13.343   6.348  1.00 20.00     0.035 C 
BRANCH   7   8
HETATM    8  C6  UNL     1     -43.082  12.225   7.387  1.00 20.00    -0.002 C 
HETATM    9  C3  UNL     1     -43.417  12.716   8.790  1.00 20.00     0.005 C 
ENDBRANCH   7   8
ENDBRANCH   2   7
BRANCH   2  10
HETATM   10  S11 UNL     1     -41.821  15.702   6.720  1.00 20.00    -0.148 SA
HETATM   11  C4  UNL     1     -40.393  15.278   7.735  1.00 20.00     0.091 C 
ENDBRANCH   2  10
TORSDOF 5
ENDMDL
MODEL 6
REMARK VINA RESULT:      -3.3     12.363     13.553
REMARK  5 active torsions:
REMARK  status: ('A' for Active; 'I' for Inactive)
REMARK    1  A    between atoms: C5_5  and  C7_7 
REMARK    2  A    between atoms: C6_6  and  C8_8 
REMARK    3  A    between atoms: C7_7  and  C9_9 
REMARK    4  A    between atoms: C8_8  and  C9_9 
REMARK    5  A    between atoms: C9_9  and  S11_11 
ROOT
HETATM    1  C1  UNL     1     -35.594  14.218  -4.956  1.00 20.00     0.080 C 
HETATM    2  C9  UNL     1     -35.363  15.529  -5.602  1.00 20.00     0.096 C 
HETATM    3  N10 UNL     1     -35.779  13.191  -4.445  1.00 20.00    -0.196 NA
ENDROOT
BRANCH   2   4
HETATM    4  C7  UNL     1     -34.692  16.502  -4.591  1.00 20.00     0.035 C 
BRANCH   4   5
HETATM    5  C5  UNL     1     -33.564  15.892  -3.746  1.00 20.00    -0.002 C 
HETATM    6  C2  UNL     1     -33.377  16.654  -2.442  1.00 20.00     0.005 C 
ENDBRANCH   4   5
ENDBRANCH   2   4
BRANCH   2   7
HETATM    7  C8  UNL     1     -36.692  16.106  -6.150  1.00 20.00     0.035 C 
BRANCH   7   8
HETATM    8  C6  UNL     1     -37.540  16.924  -5.160  1.00 20.00    -0.002 C 
HETATM    9  C3  UNL     1     -38.819  16.182  -4.792  1.00 20.00     0.005 C 
ENDBRANCH   7   8
ENDBRANCH   2   7
BRANCH   2  10
HETATM   10  S11 UNL     1     -34.143  15.298  -6.974  1.00 20.00    -0.148 SA
HETATM   11  C4  UNL     1     -34.330  16.926  -7.722  1.00 20.00     0.091 C 
ENDBRANCH   2  10
TORSDOF 5
ENDMDL
MODEL 7
REMARK VINA RESULT:      -3.3     12.108     13.275
REMARK  5 active torsions:
REMARK  status: ('A' for Active; 'I' for Inactive)
REMARK    1  A    between atoms: C5_5  and  C7_7 
REMARK    2  A    between atoms: C6_6  and  C8_8 
REMARK    3  A    between atoms: C7_7  and  C9_9 
REMARK    4  A    between atoms: C8_8  and  C9_9 
REMARK    5  A    between atoms: C9_9  and  S11_11 
ROOT
HETATM    1  C1  UNL     1     -35.352  18.508  -2.937  1.00 20.00     0.080 C 
HETATM    2  C9  UNL     1     -34.023  17.927  -3.231  1.00 20.00     0.096 C 
HETATM    3  N10 UNL     1     -36.396  18.960  -2.705  1.00 20.00    -0.196 NA
ENDROOT
BRANCH   2   4
HETATM    4  C7  UNL     1     -34.153  16.861  -4.355  1.00 20.00     0.035 C 
BRANCH   4   5
HETATM    5  C5  UNL     1     -33.344  15.573  -4.132  1.00 20.00    -0.002 C 
HETATM    6  C2  UNL     1     -34.241  14.344  -4.174  1.00 20.00     0.005 C 
ENDBRANCH   4   5
ENDBRANCH   2   4
BRANCH   2   7
HETATM    7  C8  UNL     1     -33.396  17.326  -1.947  1.00 20.00     0.035 C 
BRANCH   7   8
HETATM    8  C6  UNL     1     -33.257  18.279  -0.748  1.00 20.00    -0.002 C 
HETATM    9  C3  UNL     1     -31.792  18.534  -0.417  1.00 20.00     0.005 C 
ENDBRANCH   7   8
ENDBRANCH   2   7
BRANCH   2  10
HETATM   10  S11 UNL     1     -32.939  19.262  -3.916  1.00 20.00    -0.148 SA
HETATM   11  C4  UNL     1     -33.608  19.263  -5.589  1.00 20.00     0.091 C 
ENDBRANCH   2  10
TORSDOF 5
ENDMDL
MODEL 8
REMARK VINA RESULT:      -3.3     12.585     13.609
REMARK  5 active torsions:
REMARK  status: ('A' for Active; 'I' for Inactive)
REMARK    1  A    between atoms: C5_5  and  C7_7 
REMARK    2  A    between atoms: C6_6  and  C8_8 
REMARK    3  A    between atoms: C7_7  and  C9_9 
REMARK    4  A    between atoms: C8_8  and  C9_9 
REMARK    5  A    between atoms: C9_9  and  S11_11 
ROOT
HETATM    1  C1  UNL     1     -35.912  14.279  -5.011  1.00 20.00     0.080 C 
HETATM    2  C9  UNL     1     -35.628  15.608  -5.596  1.00 20.00     0.096 C 
HETATM    3  N10 UNL     1     -36.135  13.238  -4.548  1.00 20.00    -0.196 NA
ENDROOT
BRANCH   2   4
HETATM    4  C7  UNL     1     -34.195  16.061  -5.201  1.00 20.00     0.035 C 
BRANCH   4   5
HETATM    5  C5  UNL     1     -33.650  15.448  -3.901  1.00 20.00    -0.002 C 
HETATM    6  C2  UNL     1     -33.362  16.523  -2.863  1.00 20.00     0.005 C 
ENDBRANCH   4   5
ENDBRANCH   2   4
BRANCH   2   7
HETATM    7  C8  UNL     1     -36.694  16.639  -5.146  1.00 20.00     0.035 C 
BRANCH   7   8
HETATM    8  C6  UNL     1     -36.210  18.089  -4.976  1.00 20.00    -0.002 C 
HETATM    9  C3  UNL     1     -36.472  18.593  -3.562  1.00 20.00     0.005 C 
ENDBRANCH   7   8
ENDBRANCH   2   7
BRANCH   2  10
HETATM   10  S11 UNL     1     -35.623  15.447  -7.440  1.00 20.00    -0.148 SA
HETATM   11  C4  UNL     1     -33.838  15.542  -7.672  1.00 20.00     0.091 C 
ENDBRANCH   2  10
TORSDOF 5
ENDMDL
MODEL 9
REMARK VINA RESULT:      -3.0     12.582     13.768
REMARK  5 active torsions:
REMARK  status: ('A' for Active; 'I' for Inactive)
REMARK    1  A    between atoms: C5_5  and  C7_7 
REMARK    2  A    between atoms: C6_6  and  C8_8 
REMARK    3  A    between atoms: C7_7  and  C9_9 
REMARK    4  A    between atoms: C8_8  and  C9_9 
REMARK    5  A    between atoms: C9_9  and  S11_11 
ROOT
HETATM    1  C1  UNL     1     -34.161  15.491  -6.722  1.00 20.00     0.080 C 
HETATM    2  C9  UNL     1     -34.865  16.042  -5.544  1.00 20.00     0.096 C 
HETATM    3  N10 UNL     1     -33.604  15.060  -7.646  1.00 20.00    -0.196 NA
ENDROOT
BRANCH   2   4
HETATM    4  C7  UNL     1     -34.730  17.590  -5.527  1.00 20.00     0.035 C 
BRANCH   4   5
HETATM    5  C5  UNL     1     -35.829  18.335  -4.752  1.00 20.00    -0.002 C 
HETATM    6  C2  UNL     1     -35.232  19.259  -3.700  1.00 20.00     0.005 C 
ENDBRANCH   4   5
ENDBRANCH   2   4
BRANCH   2   7
HETATM    7  C8  UNL     1     -34.318  15.410  -4.239  1.00 20.00     0.035 C 
BRANCH   7   8
HETATM    8  C6  UNL     1     -33.097  16.101  -3.607  1.00 20.00    -0.002 C 
HETATM    9  C3  UNL     1     -33.422  16.620  -2.212  1.00 20.00     0.005 C 
ENDBRANCH   7   8
ENDBRANCH   2   7
BRANCH   2  10
HETATM   10  S11 UNL     1     -36.673  15.688  -5.724  1.00 20.00    -0.148 SA
HETATM   11  C4  UNL     1     -36.851  16.273  -7.419  1.00 20.00     0.091 C 
ENDBRANCH   2  10
TORSDOF 5
ENDMDL
