MODEL 1
REMARK VINA RESULT:      -4.0      0.000      0.000
REMARK  1 active torsions:
REMARK  status: ('A' for Active; 'I' for Inactive)
REMARK    1  A    between atoms: C4_4  and  C8_8 
ROOT
HETATM    1  C5  UNL     1     -33.998  16.152  -4.387  1.00 20.00     0.002 C 
HETATM    2  C6  UNL     1     -33.293  16.222  -3.030  1.00 20.00     0.011 C 
HETATM    3  C7  UNL     1     -34.878  17.397  -4.479  1.00 20.00     0.021 C 
HETATM    4  C8  UNL     1     -33.975  17.371  -2.266  1.00 20.00     0.037 C 
HETATM    5  C9  UNL     1     -34.358  18.343  -3.399  1.00 20.00     0.090 C 
HETATM    6 CL11 UNL     1     -32.950  19.263  -4.020  1.00 20.00    -0.124 Cl
ENDROOT
BRANCH   4   7
HETATM    7  C4  UNL     1     -33.229  17.966  -1.089  1.00 20.00    -0.046 A 
HETATM    8  C1  UNL     1     -31.813  18.117  -1.040  1.00 20.00     0.015 A 
HETATM    9  C2  UNL     1     -31.393  18.684   0.143  1.00 20.00     0.050 A 
HETATM   10  S10 UNL     1     -32.704  19.031   1.189  1.00 20.00    -0.113 SA
HETATM   11  C3  UNL     1     -33.838  18.422   0.060  1.00 20.00     0.057 A 
ENDBRANCH   4   7
TORSDOF 1
ENDMDL
MODEL 2
REMARK VINA RESULT:      -3.7      3.137      4.961
REMARK  1 active torsions:
REMARK  status: ('A' for Active; 'I' for Inactive)
REMARK    1  A    between atoms: C4_4  and  C8_8 
ROOT
HETATM    1  C5  UNL     1     -32.820  17.859  -1.533  1.00 20.00     0.002 C 
HETATM    2  C6  UNL     1     -33.293  16.637  -2.327  1.00 20.00     0.011 C 
HETATM    3  C7  UNL     1     -32.920  19.053  -2.482  1.00 20.00     0.021 C 
HETATM    4  C8  UNL     1     -33.412  17.111  -3.787  1.00 20.00     0.037 C 
HETATM    5  C9  UNL     1     -33.820  18.589  -3.624  1.00 20.00     0.090 C 
HETATM    6 CL11 UNL     1     -35.541  18.780  -3.163  1.00 20.00    -0.124 Cl
ENDROOT
BRANCH   4   7
HETATM    7  C4  UNL     1     -34.260  16.276  -4.725  1.00 20.00    -0.046 A 
HETATM    8  C1  UNL     1     -34.595  14.911  -4.488  1.00 20.00     0.015 A 
HETATM    9  C2  UNL     1     -35.375  14.388  -5.497  1.00 20.00     0.050 A 
HETATM   10  S10 UNL     1     -35.698  15.541  -6.722  1.00 20.00    -0.113 SA
HETATM   11  C3  UNL     1     -34.794  16.743  -5.905  1.00 20.00     0.057 A 
ENDBRANCH   4   7
TORSDOF 1
ENDMDL
MODEL 3
REMARK VINA RESULT:      -3.7      2.332      3.324
REMARK  1 active torsions:
REMARK  status: ('A' for Active; 'I' for Inactive)
REMARK    1  A    between atoms: C4_4  and  C8_8 
ROOT
HETATM    1  C5  UNL     1     -35.805  15.752  -6.664  1.00 20.00     0.002 C 
HETATM    2  C6  UNL     1     -35.860  16.723  -5.482  1.00 20.00     0.011 C 
HETATM    3  C7  UNL     1     -34.418  15.112  -6.631  1.00 20.00     0.021 C 
HETATM    4  C8  UNL     1     -34.418  16.808  -4.948  1.00 20.00     0.037 C 
HETATM    5  C9  UNL     1     -33.874  15.395  -5.234  1.00 20.00     0.090 C 
HETATM    6 CL11 UNL     1     -34.492  14.173  -4.078  1.00 20.00    -0.124 Cl
ENDROOT
BRANCH   4   7
HETATM    7  C4  UNL     1     -34.226  17.334  -3.539  1.00 20.00    -0.046 A 
HETATM    8  C1  UNL     1     -33.261  16.821  -2.625  1.00 20.00     0.015 A 
HETATM    9  C2  UNL     1     -33.296  17.476  -1.414  1.00 20.00     0.050 A 
HETATM   10  S10 UNL     1     -34.491  18.704  -1.382  1.00 20.00    -0.113 SA
HETATM   11  C3  UNL     1     -34.963  18.361  -2.992  1.00 20.00     0.057 A 
ENDBRANCH   4   7
TORSDOF 1
ENDMDL
MODEL 4
REMARK VINA RESULT:      -3.6      1.532      1.946
REMARK  1 active torsions:
REMARK  status: ('A' for Active; 'I' for Inactive)
REMARK    1  A    between atoms: C4_4  and  C8_8 
ROOT
HETATM    1  C5  UNL     1     -35.634  18.608  -3.411  1.00 20.00     0.002 C 
HETATM    2  C6  UNL     1     -35.175  18.964  -1.994  1.00 20.00     0.011 C 
HETATM    3  C7  UNL     1     -34.371  18.271  -4.200  1.00 20.00     0.021 C 
HETATM    4  C8  UNL     1     -33.641  19.070  -2.069  1.00 20.00     0.037 C 
HETATM    5  C9  UNL     1     -33.289  18.030  -3.152  1.00 20.00     0.090 C 
HETATM    6 CL11 UNL     1     -33.389  16.346  -2.546  1.00 20.00    -0.124 Cl
ENDROOT
BRANCH   4   7
HETATM    7  C4  UNL     1     -32.871  18.977  -0.767  1.00 20.00    -0.046 A 
HETATM    8  C1  UNL     1     -31.489  18.638  -0.684  1.00 20.00     0.015 A 
HETATM    9  C2  UNL     1     -31.037  18.624   0.617  1.00 20.00     0.050 A 
HETATM   10  S10 UNL     1     -32.277  19.017   1.732  1.00 20.00    -0.113 SA
HETATM   11  C3  UNL     1     -33.423  19.207   0.474  1.00 20.00     0.057 A 
ENDBRANCH   4   7
TORSDOF 1
ENDMDL
MODEL 5
REMARK VINA RESULT:      -3.3      3.644      5.566
REMARK  1 active torsions:
REMARK  status: ('A' for Active; 'I' for Inactive)
REMARK    1  A    between atoms: C4_4  and  C8_8 
ROOT
HETATM    1  C5  UNL     1     -32.913  17.990  -2.534  1.00 20.00     0.002 C 
HETATM    2  C6  UNL     1     -33.447  18.223  -3.950  1.00 20.00     0.011 C 
HETATM    3  C7  UNL     1     -33.462  16.637  -2.084  1.00 20.00     0.021 C 
HETATM    4  C8  UNL     1     -34.495  17.120  -4.185  1.00 20.00     0.037 C 
HETATM    5  C9  UNL     1     -33.932  15.945  -3.361  1.00 20.00     0.090 C 
HETATM    6 CL11 UNL     1     -32.547  15.142  -4.166  1.00 20.00    -0.124 Cl
ENDROOT
BRANCH   4   7
HETATM    7  C4  UNL     1     -34.879  16.817  -5.619  1.00 20.00    -0.046 A 
HETATM    8  C1  UNL     1     -34.531  17.644  -6.726  1.00 20.00     0.015 A 
HETATM    9  C2  UNL     1     -35.004  17.139  -7.918  1.00 20.00     0.050 A 
HETATM   10  S10 UNL     1     -35.864  15.673  -7.698  1.00 20.00    -0.113 SA
HETATM   11  C3  UNL     1     -35.605  15.712  -6.006  1.00 20.00     0.057 A 
ENDBRANCH   4   7
TORSDOF 1
ENDMDL
MODEL 6
REMARK VINA RESULT:      -3.2     24.901     25.570
REMARK  1 active torsions:
REMARK  status: ('A' for Active; 'I' for Inactive)
REMARK    1  A    between atoms: C4_4  and  C8_8 
ROOT
HETATM    1  C5  UNL     1     -28.996  -2.076  10.633  1.00 20.00     0.002 C 
HETATM    2  C6  UNL     1     -27.704  -2.674  10.071  1.00 20.00     0.011 C 
HETATM    3  C7  UNL     1     -28.729  -1.789  12.110  1.00 20.00     0.021 C 
HETATM    4  C8  UNL     1     -26.809  -2.954  11.292  1.00 20.00     0.037 C 
HETATM    5  C9  UNL     1     -27.211  -1.826  12.263  1.00 20.00     0.090 C 
HETATM    6 CL11 UNL     1     -26.512  -0.241  11.805  1.00 20.00    -0.124 Cl
ENDROOT
BRANCH   4   7
HETATM    7  C4  UNL     1     -25.325  -3.133  11.043  1.00 20.00    -0.046 A 
HETATM    8  C1  UNL     1     -24.376  -3.414  12.068  1.00 20.00     0.015 A 
HETATM    9  C2  UNL     1     -23.096  -3.529  11.572  1.00 20.00     0.050 A 
HETATM   10  S10 UNL     1     -23.043  -3.297   9.875  1.00 20.00    -0.113 SA
HETATM   11  C3  UNL     1     -24.734  -3.042   9.802  1.00 20.00     0.057 A 
ENDBRANCH   4   7
TORSDOF 1
ENDMDL
MODEL 7
REMARK VINA RESULT:      -3.2     24.955     25.640
REMARK  1 active torsions:
REMARK  status: ('A' for Active; 'I' for Inactive)
REMARK    1  A    between atoms: C4_4  and  C8_8 
ROOT
HETATM    1  C5  UNL     1     -28.057  -0.954  11.670  1.00 20.00     0.002 C 
HETATM    2  C6  UNL     1     -26.557  -1.234  11.800  1.00 20.00     0.011 C 
HETATM    3  C7  UNL     1     -28.540  -1.756  10.463  1.00 20.00     0.021 C 
HETATM    4  C8  UNL     1     -26.162  -1.988  10.517  1.00 20.00     0.037 C 
HETATM    5  C9  UNL     1     -27.442  -2.781  10.190  1.00 20.00     0.090 C 
HETATM    6 CL11 UNL     1     -27.659  -4.206  11.255  1.00 20.00    -0.124 Cl
ENDROOT
BRANCH   4   7
HETATM    7  C4  UNL     1     -24.867  -2.775  10.541  1.00 20.00    -0.046 A 
HETATM    8  C1  UNL     1     -24.203  -3.247   9.372  1.00 20.00     0.015 A 
HETATM    9  C2  UNL     1     -23.048  -3.934   9.676  1.00 20.00     0.050 A 
HETATM   10  S10 UNL     1     -22.769  -4.008  11.364  1.00 20.00    -0.113 SA
HETATM   11  C3  UNL     1     -24.195  -3.120  11.694  1.00 20.00     0.057 A 
ENDBRANCH   4   7
TORSDOF 1
ENDMDL
MODEL 8
REMARK VINA RESULT:      -3.2      4.416      5.919
REMARK  1 active torsions:
REMARK  status: ('A' for Active; 'I' for Inactive)
REMARK    1  A    between atoms: C4_4  and  C8_8 
ROOT
HETATM    1  C5  UNL     1     -33.309  15.766  -3.694  1.00 20.00     0.002 C 
HETATM    2  C6  UNL     1     -34.073  16.957  -4.279  1.00 20.00     0.011 C 
HETATM    3  C7  UNL     1     -33.968  14.511  -4.264  1.00 20.00     0.021 C 
HETATM    4  C8  UNL     1     -35.311  16.357  -4.971  1.00 20.00     0.037 C 
HETATM    5  C9  UNL     1     -34.791  14.990  -5.457  1.00 20.00     0.090 C 
HETATM    6 CL11 UNL     1     -33.744  15.129  -6.905  1.00 20.00    -0.124 Cl
ENDROOT
BRANCH   4   7
HETATM    7  C4  UNL     1     -36.020  17.215  -5.999  1.00 20.00    -0.046 A 
HETATM    8  C1  UNL     1     -35.486  18.425  -6.528  1.00 20.00     0.015 A 
HETATM    9  C2  UNL     1     -36.333  19.008  -7.446  1.00 20.00     0.050 A 
HETATM   10  S10 UNL     1     -37.767  18.096  -7.664  1.00 20.00    -0.113 SA
HETATM   11  C3  UNL     1     -37.256  16.919  -6.531  1.00 20.00     0.057 A 
ENDBRANCH   4   7
TORSDOF 1
ENDMDL
MODEL 9
REMARK VINA RESULT:      -3.1      1.941      2.866
REMARK  1 active torsions:
REMARK  status: ('A' for Active; 'I' for Inactive)
REMARK    1  A    between atoms: C4_4  and  C8_8 
ROOT
HETATM    1  C5  UNL     1     -34.599  15.185  -6.829  1.00 20.00     0.002 C 
HETATM    2  C6  UNL     1     -33.995  15.404  -5.438  1.00 20.00     0.011 C 
HETATM    3  C7  UNL     1     -35.692  16.239  -6.993  1.00 20.00     0.021 C 
HETATM    4  C8  UNL     1     -34.923  16.411  -4.736  1.00 20.00     0.037 C 
HETATM    5  C9  UNL     1     -35.420  17.279  -5.910  1.00 20.00     0.090 C 
HETATM    6 CL11 UNL     1     -34.180  18.442  -6.478  1.00 20.00    -0.124 Cl
ENDROOT
BRANCH   4   7
HETATM    7  C4  UNL     1     -34.369  17.152  -3.536  1.00 20.00    -0.046 A 
HETATM    8  C1  UNL     1     -33.255  16.701  -2.770  1.00 20.00     0.015 A 
HETATM    9  C2  UNL     1     -32.958  17.560  -1.734  1.00 20.00     0.050 A 
HETATM   10  S10 UNL     1     -34.022  18.902  -1.687  1.00 20.00    -0.113 SA
HETATM   11  C3  UNL     1     -34.883  18.336  -3.055  1.00 20.00     0.057 A 
ENDBRANCH   4   7
TORSDOF 1
ENDMDL
