MODEL 1
REMARK VINA RESULT:      -5.8      0.000      0.000
REMARK  0 active torsions:
REMARK  status: ('A' for Active; 'I' for Inactive)
ROOT
HETATM    1  C1  UNL     1     -32.233   8.099   1.610  1.00 20.00     0.064 C 
HETATM    2  C2  UNL     1     -33.489   8.369   4.651  1.00 20.00     0.002 C 
HETATM    3  C3  UNL     1     -32.099   8.096   4.075  1.00 20.00     0.019 C 
HETATM    4  C4  UNL     1     -33.087   6.093   2.741  1.00 20.00     0.020 C 
HETATM    5  C5  UNL     1     -33.942   7.283   5.629  1.00 20.00     0.008 C 
HETATM    6  C6  UNL     1     -33.304   5.334   4.052  1.00 20.00     0.010 C 
HETATM    7  C7  UNL     1     -32.072   7.242   2.803  1.00 20.00     0.093 C 
HETATM    8  C8  UNL     1     -34.360   5.922   5.022  1.00 20.00    -0.048 C 
HETATM    9  C9  UNL     1     -35.740   6.052   4.343  1.00 20.00     0.015 C 
HETATM   10  C10 UNL     1     -34.522   4.923   6.193  1.00 20.00     0.015 C 
HETATM   11  N11 UNL     1     -32.359   8.771   0.673  1.00 20.00    -0.197 NA
ENDROOT
TORSDOF 0
ENDMDL
MODEL 2
REMARK VINA RESULT:      -4.4     11.858     13.169
REMARK  0 active torsions:
REMARK  status: ('A' for Active; 'I' for Inactive)
ROOT
HETATM    1  C1  UNL     1     -34.166  15.369  -6.860  1.00 20.00     0.064 C 
HETATM    2  C2  UNL     1     -33.037  15.610  -3.768  1.00 20.00     0.002 C 
HETATM    3  C3  UNL     1     -34.241  14.941  -4.430  1.00 20.00     0.019 C 
HETATM    4  C4  UNL     1     -34.908  17.239  -5.452  1.00 20.00     0.020 C 
HETATM    5  C5  UNL     1     -33.442  16.566  -2.644  1.00 20.00     0.008 C 
HETATM    6  C6  UNL     1     -35.257  17.753  -4.053  1.00 20.00     0.010 C 
HETATM    7  C7  UNL     1     -34.859  15.713  -5.601  1.00 20.00     0.093 C 
HETATM    8  C8  UNL     1     -34.076  17.914  -3.063  1.00 20.00    -0.048 C 
HETATM    9  C9  UNL     1     -32.989  18.852  -3.629  1.00 20.00     0.015 C 
HETATM   10  C10 UNL     1     -34.631  18.583  -1.782  1.00 20.00     0.015 C 
HETATM   11  N11 UNL     1     -33.622  15.100  -7.849  1.00 20.00    -0.197 NA
ENDROOT
TORSDOF 0
ENDMDL
MODEL 3
REMARK VINA RESULT:      -4.3     15.347     16.417
REMARK  0 active torsions:
REMARK  status: ('A' for Active; 'I' for Inactive)
ROOT
HETATM    1  C1  UNL     1     -21.418  17.496   6.931  1.00 20.00     0.064 C 
HETATM    2  C2  UNL     1     -24.132  18.651   8.415  1.00 20.00     0.002 C 
HETATM    3  C3  UNL     1     -22.809  19.262   7.952  1.00 20.00     0.019 C 
HETATM    4  C4  UNL     1     -21.539  17.499   9.384  1.00 20.00     0.020 C 
HETATM    5  C5  UNL     1     -24.409  18.907   9.897  1.00 20.00     0.008 C 
HETATM    6  C6  UNL     1     -22.048  18.175  10.658  1.00 20.00     0.010 C 
HETATM    7  C7  UNL     1     -21.579  18.363   8.117  1.00 20.00     0.093 C 
HETATM    8  C8  UNL     1     -23.574  18.098  10.918  1.00 20.00    -0.048 C 
HETATM    9  C9  UNL     1     -24.066  16.636  10.957  1.00 20.00     0.015 C 
HETATM   10  C10 UNL     1     -23.839  18.703  12.318  1.00 20.00     0.015 C 
HETATM   11  N11 UNL     1     -21.293  16.815   6.000  1.00 20.00    -0.197 NA
ENDROOT
TORSDOF 0
ENDMDL
MODEL 4
REMARK VINA RESULT:      -4.1     11.373     13.064
REMARK  0 active torsions:
REMARK  status: ('A' for Active; 'I' for Inactive)
ROOT
HETATM    1  C1  UNL     1     -33.557  17.162  -2.121  1.00 20.00     0.064 C 
HETATM    2  C2  UNL     1     -34.224  14.613  -4.111  1.00 20.00     0.002 C 
HETATM    3  C3  UNL     1     -33.019  15.528  -3.892  1.00 20.00     0.019 C 
HETATM    4  C4  UNL     1     -34.550  17.586  -4.328  1.00 20.00     0.020 C 
HETATM    5  C5  UNL     1     -34.691  14.598  -5.568  1.00 20.00     0.008 C 
HETATM    6  C6  UNL     1     -34.676  17.174  -5.796  1.00 20.00     0.010 C 
HETATM    7  C7  UNL     1     -33.354  16.989  -3.575  1.00 20.00     0.093 C 
HETATM    8  C8  UNL     1     -35.436  15.854  -6.080  1.00 20.00    -0.048 C 
HETATM    9  C9  UNL     1     -36.865  15.890  -5.498  1.00 20.00     0.015 C 
HETATM   10  C10 UNL     1     -35.574  15.718  -7.615  1.00 20.00     0.015 C 
HETATM   11  N11 UNL     1     -33.718  17.298  -0.980  1.00 20.00    -0.197 NA
ENDROOT
TORSDOF 0
ENDMDL
MODEL 5
REMARK VINA RESULT:      -3.9     12.468     13.941
REMARK  0 active torsions:
REMARK  status: ('A' for Active; 'I' for Inactive)
ROOT
HETATM    1  C1  UNL     1     -29.372  -2.146  10.867  1.00 20.00     0.064 C 
HETATM    2  C2  UNL     1     -26.640  -0.935  12.269  1.00 20.00     0.002 C 
HETATM    3  C3  UNL     1     -27.443  -0.611  11.010  1.00 20.00     0.019 C 
HETATM    4  C4  UNL     1     -27.188  -3.088  10.256  1.00 20.00     0.020 C 
HETATM    5  C5  UNL     1     -25.168  -1.223  11.967  1.00 20.00     0.008 C 
HETATM    6  C6  UNL     1     -25.691  -2.860  10.034  1.00 20.00     0.010 C 
HETATM    7  C7  UNL     1     -28.050  -1.821  10.291  1.00 20.00     0.093 C 
HETATM    8  C8  UNL     1     -24.841  -2.580  11.300  1.00 20.00    -0.048 C 
HETATM    9  C9  UNL     1     -24.974  -3.719  12.332  1.00 20.00     0.015 C 
HETATM   10  C10 UNL     1     -23.357  -2.535  10.862  1.00 20.00     0.015 C 
HETATM   11  N11 UNL     1     -30.409  -2.403  11.320  1.00 20.00    -0.197 NA
ENDROOT
TORSDOF 0
ENDMDL
MODEL 6
REMARK VINA RESULT:      -3.8     12.140     13.343
REMARK  0 active torsions:
REMARK  status: ('A' for Active; 'I' for Inactive)
ROOT
HETATM    1  C1  UNL     1     -31.978  18.255  -1.031  1.00 20.00     0.064 C 
HETATM    2  C2  UNL     1     -34.848  19.262  -2.313  1.00 20.00     0.002 C 
HETATM    3  C3  UNL     1     -34.439  18.265  -1.230  1.00 20.00     0.019 C 
HETATM    4  C4  UNL     1     -32.915  17.065  -2.964  1.00 20.00     0.020 C 
HETATM    5  C5  UNL     1     -35.719  18.625  -3.398  1.00 20.00     0.008 C 
HETATM    6  C6  UNL     1     -34.158  16.588  -3.718  1.00 20.00     0.010 C 
HETATM    7  C7  UNL     1     -33.147  17.488  -1.508  1.00 20.00     0.093 C 
HETATM    8  C8  UNL     1     -35.013  17.685  -4.403  1.00 20.00    -0.048 C 
HETATM    9  C9  UNL     1     -34.174  18.515  -5.397  1.00 20.00     0.015 C 
HETATM   10  C10 UNL     1     -36.115  16.971  -5.223  1.00 20.00     0.015 C 
HETATM   11  N11 UNL     1     -31.059  18.858  -0.657  1.00 20.00    -0.197 NA
ENDROOT
TORSDOF 0
ENDMDL
MODEL 7
REMARK VINA RESULT:      -3.7     11.306     13.015
REMARK  0 active torsions:
REMARK  status: ('A' for Active; 'I' for Inactive)
ROOT
HETATM    1  C1  UNL     1     -35.264  14.007  -4.618  1.00 20.00     0.064 C 
HETATM    2  C2  UNL     1     -35.291  17.241  -5.283  1.00 20.00     0.002 C 
HETATM    3  C3  UNL     1     -34.484  16.041  -5.780  1.00 20.00     0.019 C 
HETATM    4  C4  UNL     1     -33.824  15.514  -3.319  1.00 20.00     0.020 C 
HETATM    5  C5  UNL     1     -34.401  18.364  -4.746  1.00 20.00     0.008 C 
HETATM    6  C6  UNL     1     -32.969  16.783  -3.284  1.00 20.00     0.010 C 
HETATM    7  C7  UNL     1     -34.160  14.984  -4.719  1.00 20.00     0.093 C 
HETATM    8  C8  UNL     1     -33.729  18.131  -3.372  1.00 20.00    -0.048 C 
HETATM    9  C9  UNL     1     -34.777  18.262  -2.247  1.00 20.00     0.015 C 
HETATM   10  C10 UNL     1     -32.694  19.263  -3.164  1.00 20.00     0.015 C 
HETATM   11  N11 UNL     1     -36.132  13.241  -4.537  1.00 20.00    -0.197 NA
ENDROOT
TORSDOF 0
ENDMDL
MODEL 8
REMARK VINA RESULT:      -3.6     11.789     13.334
REMARK  0 active torsions:
REMARK  status: ('A' for Active; 'I' for Inactive)
ROOT
HETATM    1  C1  UNL     1     -34.919  18.850  -2.225  1.00 20.00     0.064 C 
HETATM    2  C2  UNL     1     -33.663  15.923  -3.093  1.00 20.00     0.002 C 
HETATM    3  C3  UNL     1     -33.134  17.356  -3.048  1.00 20.00     0.019 C 
HETATM    4  C4  UNL     1     -35.123  18.097  -4.554  1.00 20.00     0.020 C 
HETATM    5  C5  UNL     1     -33.516  15.287  -4.476  1.00 20.00     0.008 C 
HETATM    6  C6  UNL     1     -34.519  17.318  -5.724  1.00 20.00     0.010 C 
HETATM    7  C7  UNL     1     -34.150  18.442  -3.419  1.00 20.00     0.093 C 
HETATM    8  C8  UNL     1     -34.483  15.775  -5.580  1.00 20.00    -0.048 C 
HETATM    9  C9  UNL     1     -35.894  15.199  -5.335  1.00 20.00     0.015 C 
HETATM   10  C10 UNL     1     -33.983  15.195  -6.926  1.00 20.00     0.015 C 
HETATM   11  N11 UNL     1     -35.524  19.170  -1.288  1.00 20.00    -0.197 NA
ENDROOT
TORSDOF 0
ENDMDL
MODEL 9
REMARK VINA RESULT:      -3.5     11.899     13.125
REMARK  0 active torsions:
REMARK  status: ('A' for Active; 'I' for Inactive)
ROOT
HETATM    1  C1  UNL     1     -32.933  18.414  -2.461  1.00 20.00     0.064 C 
HETATM    2  C2  UNL     1     -35.424  18.070  -4.600  1.00 20.00     0.002 C 
HETATM    3  C3  UNL     1     -35.268  17.913  -3.087  1.00 20.00     0.019 C 
HETATM    4  C4  UNL     1     -33.331  16.225  -3.501  1.00 20.00     0.020 C 
HETATM    5  C5  UNL     1     -35.983  16.810  -5.265  1.00 20.00     0.008 C 
HETATM    6  C6  UNL     1     -34.337  15.218  -4.063  1.00 20.00     0.010 C 
HETATM    7  C7  UNL     1     -33.927  17.333  -2.623  1.00 20.00     0.093 C 
HETATM    8  C8  UNL     1     -35.026  15.603  -5.398  1.00 20.00    -0.048 C 
HETATM    9  C9  UNL     1     -33.991  15.873  -6.509  1.00 20.00     0.015 C 
HETATM   10  C10 UNL     1     -35.872  14.388  -5.850  1.00 20.00     0.015 C 
HETATM   11  N11 UNL     1     -32.151  19.263  -2.335  1.00 20.00    -0.197 NA
ENDROOT
TORSDOF 0
ENDMDL
