MODEL 1
REMARK VINA RESULT:      -4.0      0.000      0.000
REMARK  1 active torsions:
REMARK  status: ('A' for Active; 'I' for Inactive)
REMARK    1  A    between atoms: C8_8  and  C11_11 
ROOT
HETATM    1  C1  UNL     1     -34.268  15.358  -6.363  1.00 20.00     0.064 C 
HETATM    2  C2  UNL     1     -34.236  18.276  -5.401  1.00 20.00     0.002 C 
HETATM    3  C3  UNL     1     -35.390  17.284  -5.263  1.00 20.00     0.019 C 
HETATM    4  C4  UNL     1     -34.179  15.462  -3.889  1.00 20.00     0.019 C 
HETATM    5  C5  UNL     1     -33.663  18.773  -4.079  1.00 20.00     0.005 C 
HETATM    6  C6  UNL     1     -32.939  16.314  -3.606  1.00 20.00     0.006 C 
HETATM    7  C7  UNL     1     -34.976  15.812  -5.149  1.00 20.00     0.093 C 
HETATM    8  C8  UNL     1     -33.192  17.727  -3.054  1.00 20.00    -0.011 C 
HETATM    9  N12 UNL     1     -33.711  15.001  -7.316  1.00 20.00    -0.197 NA
ENDROOT
BRANCH   8  10
HETATM   10  C11 UNL     1     -34.099  17.725  -1.818  1.00 20.00    -0.019 C 
HETATM   11  C9  UNL     1     -33.268  17.890  -0.550  1.00 20.00     0.010 C 
HETATM   12  C10 UNL     1     -35.146  18.827  -1.928  1.00 20.00     0.010 C 
ENDBRANCH   8  10
TORSDOF 1
ENDMDL
MODEL 2
REMARK VINA RESULT:      -3.8      2.576      4.556
REMARK  1 active torsions:
REMARK  status: ('A' for Active; 'I' for Inactive)
REMARK    1  A    between atoms: C8_8  and  C11_11 
ROOT
HETATM    1  C1  UNL     1     -32.176  18.505  -1.095  1.00 20.00     0.064 C 
HETATM    2  C2  UNL     1     -32.985  16.282  -3.056  1.00 20.00     0.002 C 
HETATM    3  C3  UNL     1     -33.756  16.727  -1.815  1.00 20.00     0.019 C 
HETATM    4  C4  UNL     1     -34.128  19.203  -2.451  1.00 20.00     0.019 C 
HETATM    5  C5  UNL     1     -33.728  16.480  -4.372  1.00 20.00     0.005 C 
HETATM    6  C6  UNL     1     -33.644  19.041  -3.895  1.00 20.00     0.006 C 
HETATM    7  C7  UNL     1     -33.582  18.201  -1.430  1.00 20.00     0.093 C 
HETATM    8  C8  UNL     1     -34.263  17.885  -4.697  1.00 20.00    -0.011 C 
HETATM    9  N12 UNL     1     -31.071  18.743  -0.833  1.00 20.00    -0.197 NA
ENDROOT
BRANCH   8  10
HETATM   10  C11 UNL     1     -35.796  17.905  -4.675  1.00 20.00    -0.019 C 
HETATM   11  C9  UNL     1     -36.323  19.088  -5.480  1.00 20.00     0.010 C 
HETATM   12  C10 UNL     1     -36.350  16.592  -5.216  1.00 20.00     0.010 C 
ENDBRANCH   8  10
TORSDOF 1
ENDMDL
MODEL 3
REMARK VINA RESULT:      -3.6     11.840     13.167
REMARK  1 active torsions:
REMARK  status: ('A' for Active; 'I' for Inactive)
REMARK    1  A    between atoms: C8_8  and  C11_11 
ROOT
HETATM    1  C1  UNL     1     -32.218   8.246   1.606  1.00 20.00     0.064 C 
HETATM    2  C2  UNL     1     -33.478   5.611   2.559  1.00 20.00     0.002 C 
HETATM    3  C3  UNL     1     -32.068   6.110   2.867  1.00 20.00     0.019 C 
HETATM    4  C4  UNL     1     -32.683   8.329   4.038  1.00 20.00     0.019 C 
HETATM    5  C5  UNL     1     -34.374   5.441   3.781  1.00 20.00     0.005 C 
HETATM    6  C6  UNL     1     -34.179   8.017   4.132  1.00 20.00     0.006 C 
HETATM    7  C7  UNL     1     -31.909   7.634   2.914  1.00 20.00     0.093 C 
HETATM    8  C8  UNL     1     -34.555   6.647   4.719  1.00 20.00    -0.011 C 
HETATM    9  N12 UNL     1     -32.460   8.726   0.578  1.00 20.00    -0.197 NA
ENDROOT
BRANCH   8  10
HETATM   10  C11 UNL     1     -33.896   6.385   6.078  1.00 20.00    -0.019 C 
HETATM   11  C9  UNL     1     -34.169   7.543   7.032  1.00 20.00     0.010 C 
HETATM   12  C10 UNL     1     -34.396   5.070   6.665  1.00 20.00     0.010 C 
ENDBRANCH   8  10
TORSDOF 1
ENDMDL
MODEL 4
REMARK VINA RESULT:      -3.4     11.801     13.173
REMARK  1 active torsions:
REMARK  status: ('A' for Active; 'I' for Inactive)
REMARK    1  A    between atoms: C8_8  and  C11_11 
ROOT
HETATM    1  C1  UNL     1     -34.366   5.789   6.047  1.00 20.00     0.064 C 
HETATM    2  C2  UNL     1     -33.178   5.301   3.256  1.00 20.00     0.002 C 
HETATM    3  C3  UNL     1     -34.595   5.776   3.572  1.00 20.00     0.019 C 
HETATM    4  C4  UNL     1     -34.006   7.935   4.862  1.00 20.00     0.019 C 
HETATM    5  C5  UNL     1     -32.338   6.292   2.458  1.00 20.00     0.005 C 
HETATM    6  C6  UNL     1     -32.519   7.904   4.499  1.00 20.00     0.006 C 
HETATM    7  C7  UNL     1     -34.738   6.591   4.863  1.00 20.00     0.093 C 
HETATM    8  C8  UNL     1     -32.184   7.720   3.010  1.00 20.00    -0.011 C 
HETATM    9  N12 UNL     1     -34.073   5.160   6.977  1.00 20.00    -0.197 NA
ENDROOT
BRANCH   8  10
HETATM   10  C11 UNL     1     -32.905   8.733   2.112  1.00 20.00    -0.019 C 
HETATM   11  C9  UNL     1     -32.736  10.144   2.664  1.00 20.00     0.010 C 
HETATM   12  C10 UNL     1     -32.380   8.642   0.684  1.00 20.00     0.010 C 
ENDBRANCH   8  10
TORSDOF 1
ENDMDL
MODEL 5
REMARK VINA RESULT:      -3.3     12.941     14.489
REMARK  1 active torsions:
REMARK  status: ('A' for Active; 'I' for Inactive)
REMARK    1  A    between atoms: C8_8  and  C11_11 
ROOT
HETATM    1  C1  UNL     1     -41.507  13.575   5.051  1.00 20.00     0.064 C 
HETATM    2  C2  UNL     1     -43.406  14.085   7.412  1.00 20.00     0.002 C 
HETATM    3  C3  UNL     1     -42.621  12.804   7.135  1.00 20.00     0.019 C 
HETATM    4  C4  UNL     1     -40.235  13.794   7.166  1.00 20.00     0.019 C 
HETATM    5  C5  UNL     1     -43.041  14.787   8.715  1.00 20.00     0.005 C 
HETATM    6  C6  UNL     1     -40.666  15.159   7.709  1.00 20.00     0.006 C 
HETATM    7  C7  UNL     1     -41.292  13.000   6.395  1.00 20.00     0.093 C 
HETATM    8  C8  UNL     1     -41.565  15.145   8.956  1.00 20.00    -0.011 C 
HETATM    9  N12 UNL     1     -41.675  14.027   3.997  1.00 20.00    -0.197 NA
ENDROOT
BRANCH   8  10
HETATM   10  C11 UNL     1     -40.978  14.306  10.098  1.00 20.00    -0.019 C 
HETATM   11  C9  UNL     1     -40.129  15.179  11.015  1.00 20.00     0.010 C 
HETATM   12  C10 UNL     1     -42.094  13.623  10.880  1.00 20.00     0.010 C 
ENDBRANCH   8  10
TORSDOF 1
ENDMDL
MODEL 6
REMARK VINA RESULT:      -3.3     12.699     14.384
REMARK  1 active torsions:
REMARK  status: ('A' for Active; 'I' for Inactive)
REMARK    1  A    between atoms: C8_8  and  C11_11 
ROOT
HETATM    1  C1  UNL     1     -42.234  17.004   8.848  1.00 20.00     0.064 C 
HETATM    2  C2  UNL     1     -43.305  14.600   7.262  1.00 20.00     0.002 C 
HETATM    3  C3  UNL     1     -42.693  15.873   6.682  1.00 20.00     0.019 C 
HETATM    4  C4  UNL     1     -40.372  15.741   7.809  1.00 20.00     0.019 C 
HETATM    5  C5  UNL     1     -42.534  13.323   6.949  1.00 20.00     0.005 C 
HETATM    6  C6  UNL     1     -40.563  14.316   8.335  1.00 20.00     0.006 C 
HETATM    7  C7  UNL     1     -41.645  16.557   7.569  1.00 20.00     0.093 C 
HETATM    8  C8  UNL     1     -41.041  13.270   7.315  1.00 20.00    -0.011 C 
HETATM    9  N12 UNL     1     -42.697  17.354   9.852  1.00 20.00    -0.197 NA
ENDROOT
BRANCH   8  10
HETATM   10  C11 UNL     1     -40.170  13.234   6.054  1.00 20.00    -0.019 C 
HETATM   11  C9  UNL     1     -39.296  11.984   6.048  1.00 20.00     0.010 C 
HETATM   12  C10 UNL     1     -41.043  13.291   4.805  1.00 20.00     0.010 C 
ENDBRANCH   8  10
TORSDOF 1
ENDMDL
MODEL 7
REMARK VINA RESULT:      -3.2      2.214      3.239
REMARK  1 active torsions:
REMARK  status: ('A' for Active; 'I' for Inactive)
REMARK    1  A    between atoms: C8_8  and  C11_11 
ROOT
HETATM    1  C1  UNL     1     -38.015  17.030  -6.810  1.00 20.00     0.064 C 
HETATM    2  C2  UNL     1     -36.146  18.614  -4.955  1.00 20.00     0.002 C 
HETATM    3  C3  UNL     1     -37.206  17.600  -4.529  1.00 20.00     0.019 C 
HETATM    4  C4  UNL     1     -36.311  15.539  -5.804  1.00 20.00     0.019 C 
HETATM    5  C5  UNL     1     -34.717  18.232  -4.590  1.00 20.00     0.005 C 
HETATM    6  C6  UNL     1     -34.982  16.193  -6.193  1.00 20.00     0.006 C 
HETATM    7  C7  UNL     1     -37.487  16.484  -5.543  1.00 20.00     0.093 C 
HETATM    8  C8  UNL     1     -34.192  16.862  -5.056  1.00 20.00    -0.011 C 
HETATM    9  N12 UNL     1     -38.429  17.459  -7.804  1.00 20.00    -0.197 NA
ENDROOT
BRANCH   8  10
HETATM   10  C11 UNL     1     -33.968  15.928  -3.862  1.00 20.00    -0.019 C 
HETATM   11  C9  UNL     1     -33.046  14.778  -4.254  1.00 20.00     0.010 C 
HETATM   12  C10 UNL     1     -33.394  16.705  -2.682  1.00 20.00     0.010 C 
ENDBRANCH   8  10
TORSDOF 1
ENDMDL
MODEL 8
REMARK VINA RESULT:      -3.2     24.963     26.323
REMARK  1 active torsions:
REMARK  status: ('A' for Active; 'I' for Inactive)
REMARK    1  A    between atoms: C8_8  and  C11_11 
ROOT
HETATM    1  C1  UNL     1     -30.277  -2.549  11.200  1.00 20.00     0.064 C 
HETATM    2  C2  UNL     1     -28.063  -4.561  11.900  1.00 20.00     0.002 C 
HETATM    3  C3  UNL     1     -28.443  -4.075  10.503  1.00 20.00     0.019 C 
HETATM    4  C4  UNL     1     -28.039  -1.547  10.844  1.00 20.00     0.019 C 
HETATM    5  C5  UNL     1     -26.643  -4.212  12.331  1.00 20.00     0.005 C 
HETATM    6  C6  UNL     1     -27.350  -1.706  12.202  1.00 20.00     0.006 C 
HETATM    7  C7  UNL     1     -29.015  -2.654  10.439  1.00 20.00     0.093 C 
HETATM    8  C8  UNL     1     -26.211  -2.737  12.273  1.00 20.00    -0.011 C 
HETATM    9  N12 UNL     1     -31.267  -2.466  11.799  1.00 20.00    -0.197 NA
ENDROOT
BRANCH   8  10
HETATM   10  C11 UNL     1     -25.150  -2.521  11.188  1.00 20.00    -0.019 C 
HETATM   11  C9  UNL     1     -23.989  -1.699  11.737  1.00 20.00     0.010 C 
HETATM   12  C10 UNL     1     -24.660  -3.861  10.652  1.00 20.00     0.010 C 
ENDBRANCH   8  10
TORSDOF 1
ENDMDL
MODEL 9
REMARK VINA RESULT:      -3.1     12.219     13.609
REMARK  1 active torsions:
REMARK  status: ('A' for Active; 'I' for Inactive)
REMARK    1  A    between atoms: C8_8  and  C11_11 
ROOT
HETATM    1  C1  UNL     1     -42.297  14.431   4.437  1.00 20.00     0.064 C 
HETATM    2  C2  UNL     1     -41.890  16.858   6.278  1.00 20.00     0.002 C 
HETATM    3  C3  UNL     1     -43.081  15.900   6.283  1.00 20.00     0.019 C 
HETATM    4  C4  UNL     1     -41.813  13.700   6.754  1.00 20.00     0.019 C 
HETATM    5  C5  UNL     1     -41.081  16.872   7.569  1.00 20.00     0.005 C 
HETATM    6  C6  UNL     1     -40.482  14.383   7.079  1.00 20.00     0.006 C 
HETATM    7  C7  UNL     1     -42.769  14.467   5.837  1.00 20.00     0.093 C 
HETATM    8  C8  UNL     1     -40.535  15.534   8.097  1.00 20.00    -0.011 C 
HETATM    9  N12 UNL     1     -41.927  14.404   3.338  1.00 20.00    -0.197 NA
ENDROOT
BRANCH   8  10
HETATM   10  C11 UNL     1     -41.234  15.136   9.403  1.00 20.00    -0.019 C 
HETATM   11  C9  UNL     1     -40.209  14.684  10.437  1.00 20.00     0.010 C 
HETATM   12  C10 UNL     1     -42.065  16.299   9.934  1.00 20.00     0.010 C 
ENDBRANCH   8  10
TORSDOF 1
ENDMDL
