MODEL 1
REMARK VINA RESULT:      -4.8      0.000      0.000
REMARK  1 active torsions:
REMARK  status: ('A' for Active; 'I' for Inactive)
REMARK    1  A    between atoms: C8_8  and  C11_11 
ROOT
HETATM    1  C1  UNL     1     -35.081  14.149  -4.626  1.00 20.00     0.064 C 
HETATM    2  C2  UNL     1     -34.371  17.875  -5.161  1.00 20.00     0.002 C 
HETATM    3  C3  UNL     1     -35.121  16.545  -5.165  1.00 20.00     0.019 C 
HETATM    4  C4  UNL     1     -33.064  15.441  -4.017  1.00 20.00     0.019 C 
HETATM    5  C5  UNL     1     -34.187  18.444  -3.755  1.00 20.00     0.005 C 
HETATM    6  C6  UNL     1     -33.365  16.220  -2.735  1.00 20.00     0.006 C 
HETATM    7  C7  UNL     1     -34.236  15.304  -4.998  1.00 20.00     0.093 C 
HETATM    8  C8  UNL     1     -33.140  17.734  -2.885  1.00 20.00    -0.011 C 
HETATM    9  N12 UNL     1     -35.744  13.243  -4.335  1.00 20.00    -0.197 NA
ENDROOT
BRANCH   8  10
HETATM   10  C11 UNL     1     -33.111  18.390  -1.499  1.00 20.00    -0.019 C 
HETATM   11  C9  UNL     1     -34.019  17.632  -0.535  1.00 20.00     0.010 C 
HETATM   12  C10 UNL     1     -31.683  18.446  -0.968  1.00 20.00     0.010 C 
ENDBRANCH   8  10
TORSDOF 1
ENDMDL
MODEL 2
REMARK VINA RESULT:      -4.8     10.988     12.254
REMARK  1 active torsions:
REMARK  status: ('A' for Active; 'I' for Inactive)
REMARK    1  A    between atoms: C8_8  and  C11_11 
ROOT
HETATM    1  C1  UNL     1     -32.485   8.647   0.988  1.00 20.00     0.064 C 
HETATM    2  C2  UNL     1     -32.455   8.646   4.818  1.00 20.00     0.002 C 
HETATM    3  C3  UNL     1     -32.623   9.152   3.388  1.00 20.00     0.019 C 
HETATM    4  C4  UNL     1     -31.989   6.780   2.529  1.00 20.00     0.019 C 
HETATM    5  C5  UNL     1     -33.533   7.639   5.218  1.00 20.00     0.005 C 
HETATM    6  C6  UNL     1     -33.316   6.235   3.062  1.00 20.00     0.006 C 
HETATM    7  C7  UNL     1     -31.936   8.298   2.316  1.00 20.00     0.093 C 
HETATM    8  C8  UNL     1     -33.395   6.241   4.599  1.00 20.00    -0.011 C 
HETATM    9  N12 UNL     1     -32.915   8.921  -0.054  1.00 20.00    -0.197 NA
ENDROOT
BRANCH   8  10
HETATM   10  C11 UNL     1     -34.571   5.370   5.057  1.00 20.00    -0.019 C 
HETATM   11  C9  UNL     1     -34.726   5.445   6.573  1.00 20.00     0.010 C 
HETATM   12  C10 UNL     1     -35.856   5.803   4.359  1.00 20.00     0.010 C 
ENDBRANCH   8  10
TORSDOF 1
ENDMDL
MODEL 3
REMARK VINA RESULT:      -4.8      2.544      4.714
REMARK  1 active torsions:
REMARK  status: ('A' for Active; 'I' for Inactive)
REMARK    1  A    between atoms: C8_8  and  C11_11 
ROOT
HETATM    1  C1  UNL     1     -31.717  18.543  -0.912  1.00 20.00     0.064 C 
HETATM    2  C2  UNL     1     -34.135  19.034  -3.841  1.00 20.00     0.002 C 
HETATM    3  C3  UNL     1     -32.945  19.263  -2.914  1.00 20.00     0.019 C 
HETATM    4  C4  UNL     1     -33.686  17.185  -1.535  1.00 20.00     0.019 C 
HETATM    5  C5  UNL     1     -33.992  17.767  -4.684  1.00 20.00     0.005 C 
HETATM    6  C6  UNL     1     -33.289  16.274  -2.699  1.00 20.00     0.006 C 
HETATM    7  C7  UNL     1     -33.053  18.583  -1.544  1.00 20.00     0.093 C 
HETATM    8  C8  UNL     1     -34.194  16.444  -3.931  1.00 20.00    -0.011 C 
HETATM    9  N12 UNL     1     -30.669  18.512  -0.416  1.00 20.00    -0.197 NA
ENDROOT
BRANCH   8  10
HETATM   10  C11 UNL     1     -33.971  15.276  -4.899  1.00 20.00    -0.019 C 
HETATM   11  C9  UNL     1     -34.723  14.039  -4.419  1.00 20.00     0.010 C 
HETATM   12  C10 UNL     1     -34.407  15.664  -6.308  1.00 20.00     0.010 C 
ENDBRANCH   8  10
TORSDOF 1
ENDMDL
MODEL 4
REMARK VINA RESULT:      -3.9      2.316      4.782
REMARK  1 active torsions:
REMARK  status: ('A' for Active; 'I' for Inactive)
REMARK    1  A    between atoms: C8_8  and  C11_11 
ROOT
HETATM    1  C1  UNL     1     -33.534  17.074  -2.095  1.00 20.00     0.064 C 
HETATM    2  C2  UNL     1     -33.809  14.846  -5.199  1.00 20.00     0.002 C 
HETATM    3  C3  UNL     1     -33.627  15.250  -3.739  1.00 20.00     0.019 C 
HETATM    4  C4  UNL     1     -34.021  17.728  -4.428  1.00 20.00     0.019 C 
HETATM    5  C5  UNL     1     -35.245  15.032  -5.688  1.00 20.00     0.005 C 
HETATM    6  C6  UNL     1     -35.490  17.411  -4.716  1.00 20.00     0.006 C 
HETATM    7  C7  UNL     1     -33.297  16.731  -3.514  1.00 20.00     0.093 C 
HETATM    8  C8  UNL     1     -35.679  16.485  -5.929  1.00 20.00    -0.011 C 
HETATM    9  N12 UNL     1     -33.719  17.343  -0.982  1.00 20.00    -0.197 NA
ENDROOT
BRANCH   8  10
HETATM   10  C11 UNL     1     -37.149  16.503  -6.367  1.00 20.00    -0.019 C 
HETATM   11  C9  UNL     1     -38.063  16.305  -5.162  1.00 20.00     0.010 C 
HETATM   12  C10 UNL     1     -37.473  17.809  -7.084  1.00 20.00     0.010 C 
ENDBRANCH   8  10
TORSDOF 1
ENDMDL
MODEL 5
REMARK VINA RESULT:      -3.9      2.372      5.000
REMARK  1 active torsions:
REMARK  status: ('A' for Active; 'I' for Inactive)
REMARK    1  A    between atoms: C8_8  and  C11_11 
ROOT
HETATM    1  C1  UNL     1     -34.116  18.639  -1.920  1.00 20.00     0.064 C 
HETATM    2  C2  UNL     1     -33.001  15.507  -3.823  1.00 20.00     0.002 C 
HETATM    3  C3  UNL     1     -33.332  16.429  -2.652  1.00 20.00     0.019 C 
HETATM    4  C4  UNL     1     -34.063  18.250  -4.360  1.00 20.00     0.019 C 
HETATM    5  C5  UNL     1     -34.246  15.046  -4.580  1.00 20.00     0.005 C 
HETATM    6  C6  UNL     1     -35.282  17.405  -4.736  1.00 20.00     0.006 C 
HETATM    7  C7  UNL     1     -33.420  17.918  -3.007  1.00 20.00     0.093 C 
HETATM    8  C8  UNL     1     -34.910  16.106  -5.471  1.00 20.00    -0.011 C 
HETATM    9  N12 UNL     1     -34.661  19.205  -1.067  1.00 20.00    -0.197 NA
ENDROOT
BRANCH   8  10
HETATM   10  C11 UNL     1     -36.163  15.504  -6.119  1.00 20.00    -0.019 C 
HETATM   11  C9  UNL     1     -37.401  16.301  -5.718  1.00 20.00     0.010 C 
HETATM   12  C10 UNL     1     -36.010  15.467  -7.636  1.00 20.00     0.010 C 
ENDBRANCH   8  10
TORSDOF 1
ENDMDL
MODEL 6
REMARK VINA RESULT:      -3.9     11.208     13.006
REMARK  1 active torsions:
REMARK  status: ('A' for Active; 'I' for Inactive)
REMARK    1  A    between atoms: C8_8  and  C11_11 
ROOT
HETATM    1  C1  UNL     1     -41.418  16.502   7.988  1.00 20.00     0.064 C 
HETATM    2  C2  UNL     1     -42.466  14.324   5.016  1.00 20.00     0.002 C 
HETATM    3  C3  UNL     1     -42.083  15.566   5.816  1.00 20.00     0.019 C 
HETATM    4  C4  UNL     1     -41.724  14.051   7.900  1.00 20.00     0.019 C 
HETATM    5  C5  UNL     1     -41.284  13.384   4.784  1.00 20.00     0.005 C 
HETATM    6  C6  UNL     1     -40.488  13.439   7.239  1.00 20.00     0.006 C 
HETATM    7  C7  UNL     1     -42.170  15.408   7.339  1.00 20.00     0.093 C 
HETATM    8  C8  UNL     1     -40.827  12.579   6.009  1.00 20.00    -0.011 C 
HETATM    9  N12 UNL     1     -40.828  17.361   8.497  1.00 20.00    -0.197 NA
ENDROOT
BRANCH   8  10
HETATM   10  C11 UNL     1     -39.611  11.727   5.625  1.00 20.00    -0.019 C 
HETATM   11  C9  UNL     1     -39.357  11.813   4.123  1.00 20.00     0.010 C 
HETATM   12  C10 UNL     1     -38.382  12.173   6.409  1.00 20.00     0.010 C 
ENDBRANCH   8  10
TORSDOF 1
ENDMDL
MODEL 7
REMARK VINA RESULT:      -3.9     24.098     25.077
REMARK  1 active torsions:
REMARK  status: ('A' for Active; 'I' for Inactive)
REMARK    1  A    between atoms: C8_8  and  C11_11 
ROOT
HETATM    1  C1  UNL     1     -29.858  -2.611  11.251  1.00 20.00     0.064 C 
HETATM    2  C2  UNL     1     -26.886  -0.265  11.829  1.00 20.00     0.002 C 
HETATM    3  C3  UNL     1     -28.210  -0.985  12.071  1.00 20.00     0.019 C 
HETATM    4  C4  UNL     1     -27.840  -2.303   9.859  1.00 20.00     0.019 C 
HETATM    5  C5  UNL     1     -25.678  -1.192  11.966  1.00 20.00     0.005 C 
HETATM    6  C6  UNL     1     -26.688  -3.070  10.512  1.00 20.00     0.006 C 
HETATM    7  C7  UNL     1     -28.826  -1.640  10.830  1.00 20.00     0.093 C 
HETATM    8  C8  UNL     1     -25.468  -2.182  10.812  1.00 20.00    -0.011 C 
HETATM    9  N12 UNL     1     -30.669  -3.373  11.582  1.00 20.00    -0.197 NA
ENDROOT
BRANCH   8  10
HETATM   10  C11 UNL     1     -24.253  -3.064  11.123  1.00 20.00    -0.019 C 
HETATM   11  C9  UNL     1     -24.668  -4.530  11.199  1.00 20.00     0.010 C 
HETATM   12  C10 UNL     1     -23.168  -2.862  10.070  1.00 20.00     0.010 C 
ENDBRANCH   8  10
TORSDOF 1
ENDMDL
MODEL 8
REMARK VINA RESULT:      -3.9      2.300      4.549
REMARK  1 active torsions:
REMARK  status: ('A' for Active; 'I' for Inactive)
REMARK    1  A    between atoms: C8_8  and  C11_11 
ROOT
HETATM    1  C1  UNL     1     -36.619  19.167  -2.478  1.00 20.00     0.064 C 
HETATM    2  C2  UNL     1     -33.120  17.662  -2.071  1.00 20.00     0.002 C 
HETATM    3  C3  UNL     1     -34.509  18.176  -1.703  1.00 20.00     0.019 C 
HETATM    4  C4  UNL     1     -34.944  18.656  -4.222  1.00 20.00     0.019 C 
HETATM    5  C5  UNL     1     -33.165  16.351  -2.855  1.00 20.00     0.005 C 
HETATM    6  C6  UNL     1     -34.986  17.152  -4.499  1.00 20.00     0.006 C 
HETATM    7  C7  UNL     1     -35.172  19.066  -2.761  1.00 20.00     0.093 C 
HETATM    8  C8  UNL     1     -33.621  16.468  -4.317  1.00 20.00    -0.011 C 
HETATM    9  N12 UNL     1     -37.755  19.247  -2.256  1.00 20.00    -0.197 NA
ENDROOT
BRANCH   8  10
HETATM   10  C11 UNL     1     -33.657  15.070  -4.945  1.00 20.00    -0.019 C 
HETATM   11  C9  UNL     1     -34.592  14.158  -4.156  1.00 20.00     0.010 C 
HETATM   12  C10 UNL     1     -34.088  15.155  -6.405  1.00 20.00     0.010 C 
ENDBRANCH   8  10
TORSDOF 1
ENDMDL
MODEL 9
REMARK VINA RESULT:      -3.9     24.196     25.218
REMARK  1 active torsions:
REMARK  status: ('A' for Active; 'I' for Inactive)
REMARK    1  A    between atoms: C8_8  and  C11_11 
ROOT
HETATM    1  C1  UNL     1     -23.425  -3.556   8.937  1.00 20.00     0.064 C 
HETATM    2  C2  UNL     1     -24.278  -1.759  12.211  1.00 20.00     0.002 C 
HETATM    3  C3  UNL     1     -23.543  -2.111  10.921  1.00 20.00     0.019 C 
HETATM    4  C4  UNL     1     -25.338  -3.936  10.456  1.00 20.00     0.019 C 
HETATM    5  C5  UNL     1     -25.637  -1.106  11.956  1.00 20.00     0.005 C 
HETATM    6  C6  UNL     1     -26.377  -2.844  10.197  1.00 20.00     0.006 C 
HETATM    7  C7  UNL     1     -23.873  -3.494  10.345  1.00 20.00     0.093 C 
HETATM    8  C8  UNL     1     -26.743  -2.049  11.463  1.00 20.00    -0.011 C 
HETATM    9  N12 UNL     1     -23.074  -3.605   7.833  1.00 20.00    -0.197 NA
ENDROOT
BRANCH   8  10
HETATM   10  C11 UNL     1     -28.019  -1.238  11.211  1.00 20.00    -0.019 C 
HETATM   11  C9  UNL     1     -27.796  -0.236  10.082  1.00 20.00     0.010 C 
HETATM   12  C10 UNL     1     -29.184  -2.168  10.888  1.00 20.00     0.010 C 
ENDBRANCH   8  10
TORSDOF 1
ENDMDL
