MODEL 1
REMARK VINA RESULT:      -3.4      0.000      0.000
REMARK  2 active torsions:
REMARK  status: ('A' for Active; 'I' for Inactive)
REMARK    1  A    between atoms: C5_5  and  S11_11 
REMARK    2  A    between atoms: C9_9  and  S11_11 
ROOT
HETATM    1  C1  UNL     1     -34.062  15.224  -6.634  1.00 20.00     0.080 C 
HETATM    2  C2  UNL     1     -33.189  15.666  -3.790  1.00 20.00     0.005 C 
HETATM    3  C3  UNL     1     -34.047  14.453  -4.207  1.00 20.00     0.036 C 
HETATM    4  C4  UNL     1     -34.235  16.568  -4.478  1.00 20.00     0.036 C 
HETATM    5  C5  UNL     1     -34.657  15.339  -5.322  1.00 20.00     0.097 C 
HETATM    6  N10 UNL     1     -33.585  15.131  -7.687  1.00 20.00    -0.196 NA
ENDROOT
BRANCH   5   7
HETATM    7  S11 UNL     1     -36.473  15.162  -5.435  1.00 20.00    -0.135 SA
BRANCH   7   8
HETATM    8  C9  UNL     1     -36.806  16.662  -6.439  1.00 20.00    -0.001 C 
HETATM    9  C6  UNL     1     -36.839  16.263  -7.918  1.00 20.00     0.026 C 
HETATM   10  C7  UNL     1     -38.159  17.237  -6.013  1.00 20.00     0.026 C 
HETATM   11  C8  UNL     1     -35.691  17.680  -6.184  1.00 20.00     0.026 C 
ENDBRANCH   7   8
ENDBRANCH   5   7
TORSDOF 2
ENDMDL
MODEL 2
REMARK VINA RESULT:      -3.4      0.009      1.311
REMARK  2 active torsions:
REMARK  status: ('A' for Active; 'I' for Inactive)
REMARK    1  A    between atoms: C5_5  and  S11_11 
REMARK    2  A    between atoms: C9_9  and  S11_11 
ROOT
HETATM    1  C1  UNL     1     -34.060  15.223  -6.636  1.00 20.00     0.080 C 
HETATM    2  C2  UNL     1     -33.189  15.670  -3.793  1.00 20.00     0.005 C 
HETATM    3  C3  UNL     1     -34.049  14.457  -4.207  1.00 20.00     0.036 C 
HETATM    4  C4  UNL     1     -34.233  16.572  -4.483  1.00 20.00     0.036 C 
HETATM    5  C5  UNL     1     -34.656  15.343  -5.324  1.00 20.00     0.097 C 
HETATM    6  N10 UNL     1     -33.582  15.128  -7.688  1.00 20.00    -0.196 NA
ENDROOT
BRANCH   5   7
HETATM    7  S11 UNL     1     -36.472  15.168  -5.439  1.00 20.00    -0.135 SA
BRANCH   7   8
HETATM    8  C9  UNL     1     -36.802  16.670  -6.441  1.00 20.00    -0.001 C 
HETATM    9  C6  UNL     1     -35.678  17.680  -6.195  1.00 20.00     0.026 C 
HETATM   10  C7  UNL     1     -36.840  16.265  -7.918  1.00 20.00     0.026 C 
HETATM   11  C8  UNL     1     -38.152  17.256  -6.016  1.00 20.00     0.026 C 
ENDBRANCH   7   8
ENDBRANCH   5   7
TORSDOF 2
ENDMDL
MODEL 3
REMARK VINA RESULT:      -3.4     13.347     14.111
REMARK  2 active torsions:
REMARK  status: ('A' for Active; 'I' for Inactive)
REMARK    1  A    between atoms: C5_5  and  S11_11 
REMARK    2  A    between atoms: C9_9  and  S11_11 
ROOT
HETATM    1  C1  UNL     1     -42.012  12.369   6.863  1.00 20.00     0.080 C 
HETATM    2  C2  UNL     1     -39.765  11.877   4.927  1.00 20.00     0.005 C 
HETATM    3  C3  UNL     1     -39.510  12.234   6.407  1.00 20.00     0.036 C 
HETATM    4  C4  UNL     1     -40.664  13.128   4.840  1.00 20.00     0.036 C 
HETATM    5  C5  UNL     1     -40.830  13.045   6.378  1.00 20.00     0.097 C 
HETATM    6  N10 UNL     1     -42.961  11.827   7.252  1.00 20.00    -0.196 NA
ENDROOT
BRANCH   5   7
HETATM    7  S11 UNL     1     -40.661  14.676   7.186  1.00 20.00    -0.135 SA
BRANCH   7   8
HETATM    8  C9  UNL     1     -42.211  15.428   6.554  1.00 20.00    -0.001 C 
HETATM    9  C6  UNL     1     -43.326  15.183   7.575  1.00 20.00     0.026 C 
HETATM   10  C7  UNL     1     -41.979  16.930   6.371  1.00 20.00     0.026 C 
HETATM   11  C8  UNL     1     -42.561  14.776   5.213  1.00 20.00     0.026 C 
ENDBRANCH   7   8
ENDBRANCH   5   7
TORSDOF 2
ENDMDL
MODEL 4
REMARK VINA RESULT:      -3.2      1.930      2.377
REMARK  2 active torsions:
REMARK  status: ('A' for Active; 'I' for Inactive)
REMARK    1  A    between atoms: C5_5  and  S11_11 
REMARK    2  A    between atoms: C9_9  and  S11_11 
ROOT
HETATM    1  C1  UNL     1     -35.092  14.125  -4.675  1.00 20.00     0.080 C 
HETATM    2  C2  UNL     1     -33.384  16.066  -3.139  1.00 20.00     0.005 C 
HETATM    3  C3  UNL     1     -34.393  16.529  -4.211  1.00 20.00     0.036 C 
HETATM    4  C4  UNL     1     -32.792  15.107  -4.194  1.00 20.00     0.036 C 
HETATM    5  C5  UNL     1     -34.147  15.185  -4.941  1.00 20.00     0.097 C 
HETATM    6  N10 UNL     1     -35.850  13.273  -4.460  1.00 20.00    -0.196 NA
ENDROOT
BRANCH   5   7
HETATM    7  S11 UNL     1     -33.936  15.402  -6.744  1.00 20.00    -0.135 SA
BRANCH   7   8
HETATM    8  C9  UNL     1     -35.586  16.123  -7.101  1.00 20.00    -0.001 C 
HETATM    9  C6  UNL     1     -35.394  17.414  -7.902  1.00 20.00     0.026 C 
HETATM   10  C7  UNL     1     -36.390  15.106  -7.918  1.00 20.00     0.026 C 
HETATM   11  C8  UNL     1     -36.291  16.416  -5.774  1.00 20.00     0.026 C 
ENDBRANCH   7   8
ENDBRANCH   5   7
TORSDOF 2
ENDMDL
MODEL 5
REMARK VINA RESULT:      -3.1     14.071     14.903
REMARK  2 active torsions:
REMARK  status: ('A' for Active; 'I' for Inactive)
REMARK    1  A    between atoms: C5_5  and  S11_11 
REMARK    2  A    between atoms: C9_9  and  S11_11 
ROOT
HETATM    1  C1  UNL     1     -42.295  12.622   7.007  1.00 20.00     0.080 C 
HETATM    2  C2  UNL     1     -39.766  12.315   5.411  1.00 20.00     0.005 C 
HETATM    3  C3  UNL     1     -39.826  13.163   6.699  1.00 20.00     0.036 C 
HETATM    4  C4  UNL     1     -40.972  13.126   4.891  1.00 20.00     0.036 C 
HETATM    5  C5  UNL     1     -41.309  13.461   6.365  1.00 20.00     0.097 C 
HETATM    6  N10 UNL     1     -43.087  11.949   7.522  1.00 20.00    -0.196 NA
ENDROOT
BRANCH   5   7
HETATM    7  S11 UNL     1     -41.733  15.224   6.599  1.00 20.00    -0.135 SA
BRANCH   7   8
HETATM    8  C9  UNL     1     -41.427  15.315   8.406  1.00 20.00    -0.001 C 
HETATM    9  C6  UNL     1     -40.329  14.311   8.768  1.00 20.00     0.026 C 
HETATM   10  C7  UNL     1     -40.979  16.739   8.748  1.00 20.00     0.026 C 
HETATM   11  C8  UNL     1     -42.727  14.975   9.141  1.00 20.00     0.026 C 
ENDBRANCH   7   8
ENDBRANCH   5   7
TORSDOF 2
ENDMDL
MODEL 6
REMARK VINA RESULT:      -3.1      3.694      5.397
REMARK  2 active torsions:
REMARK  status: ('A' for Active; 'I' for Inactive)
REMARK    1  A    between atoms: C5_5  and  S11_11 
REMARK    2  A    between atoms: C9_9  and  S11_11 
ROOT
HETATM    1  C1  UNL     1     -35.645  18.537  -3.415  1.00 20.00     0.080 C 
HETATM    2  C2  UNL     1     -34.581  16.902  -5.704  1.00 20.00     0.005 C 
HETATM    3  C3  UNL     1     -34.015  16.778  -4.273  1.00 20.00     0.036 C 
HETATM    4  C4  UNL     1     -34.345  18.424  -5.603  1.00 20.00     0.036 C 
HETATM    5  C5  UNL     1     -34.380  18.269  -4.062  1.00 20.00     0.097 C 
HETATM    6  N10 UNL     1     -36.660  18.752  -2.897  1.00 20.00    -0.196 NA
ENDROOT
BRANCH   5   7
HETATM    7  S11 UNL     1     -33.041  19.203  -3.238  1.00 20.00    -0.135 SA
BRANCH   7   8
HETATM    8  C9  UNL     1     -33.168  18.412  -1.587  1.00 20.00    -0.001 C 
HETATM    9  C6  UNL     1     -33.567  16.945  -1.775  1.00 20.00     0.026 C 
HETATM   10  C7  UNL     1     -31.802  18.507  -0.900  1.00 20.00     0.026 C 
HETATM   11  C8  UNL     1     -34.228  19.154  -0.767  1.00 20.00     0.026 C 
ENDBRANCH   7   8
ENDBRANCH   5   7
TORSDOF 2
ENDMDL
MODEL 7
REMARK VINA RESULT:      -3.0      1.407      2.092
REMARK  2 active torsions:
REMARK  status: ('A' for Active; 'I' for Inactive)
REMARK    1  A    between atoms: C5_5  and  S11_11 
REMARK    2  A    between atoms: C9_9  and  S11_11 
ROOT
HETATM    1  C1  UNL     1     -34.147  15.272  -6.736  1.00 20.00     0.080 C 
HETATM    2  C2  UNL     1     -35.722  13.681  -4.729  1.00 20.00     0.005 C 
HETATM    3  C3  UNL     1     -36.245  15.009  -5.317  1.00 20.00     0.036 C 
HETATM    4  C4  UNL     1     -34.425  14.427  -4.350  1.00 20.00     0.036 C 
HETATM    5  C5  UNL     1     -34.770  15.465  -5.446  1.00 20.00     0.097 C 
HETATM    6  N10 UNL     1     -33.646  15.117  -7.771  1.00 20.00    -0.196 NA
ENDROOT
BRANCH   5   7
HETATM    7  S11 UNL     1     -34.522  17.185  -4.878  1.00 20.00    -0.135 SA
BRANCH   7   8
HETATM    8  C9  UNL     1     -35.429  18.027  -6.234  1.00 20.00    -0.001 C 
HETATM    9  C6  UNL     1     -36.459  17.053  -6.813  1.00 20.00     0.026 C 
HETATM   10  C7  UNL     1     -36.129  19.259  -5.654  1.00 20.00     0.026 C 
HETATM   11  C8  UNL     1     -34.423  18.444  -7.311  1.00 20.00     0.026 C 
ENDBRANCH   7   8
ENDBRANCH   5   7
TORSDOF 2
ENDMDL
MODEL 8
REMARK VINA RESULT:      -3.0      2.551      3.389
REMARK  2 active torsions:
REMARK  status: ('A' for Active; 'I' for Inactive)
REMARK    1  A    between atoms: C5_5  and  S11_11 
REMARK    2  A    between atoms: C9_9  and  S11_11 
ROOT
HETATM    1  C1  UNL     1     -33.355  18.636  -4.057  1.00 20.00     0.080 C 
HETATM    2  C2  UNL     1     -33.461  17.484  -1.282  1.00 20.00     0.005 C 
HETATM    3  C3  UNL     1     -33.653  16.612  -2.541  1.00 20.00     0.036 C 
HETATM    4  C4  UNL     1     -34.566  18.413  -1.827  1.00 20.00     0.036 C 
HETATM    5  C5  UNL     1     -34.256  17.856  -3.240  1.00 20.00     0.097 C 
HETATM    6  N10 UNL     1     -32.632  19.263  -4.713  1.00 20.00    -0.196 NA
ENDROOT
BRANCH   5   7
HETATM    7  S11 UNL     1     -35.774  17.458  -4.179  1.00 20.00    -0.135 SA
BRANCH   7   8
HETATM    8  C9  UNL     1     -35.028  16.268  -5.361  1.00 20.00    -0.001 C 
HETATM    9  C6  UNL     1     -33.817  15.609  -4.694  1.00 20.00     0.026 C 
HETATM   10  C7  UNL     1     -36.081  15.213  -5.712  1.00 20.00     0.026 C 
HETATM   11  C8  UNL     1     -34.598  17.030  -6.618  1.00 20.00     0.026 C 
ENDBRANCH   7   8
ENDBRANCH   5   7
TORSDOF 2
ENDMDL
MODEL 9
REMARK VINA RESULT:      -2.9     13.188     13.929
REMARK  2 active torsions:
REMARK  status: ('A' for Active; 'I' for Inactive)
REMARK    1  A    between atoms: C5_5  and  S11_11 
REMARK    2  A    between atoms: C9_9  and  S11_11 
ROOT
HETATM    1  C1  UNL     1     -41.315  13.567   4.659  1.00 20.00     0.080 C 
HETATM    2  C2  UNL     1     -38.802  12.199   5.584  1.00 20.00     0.005 C 
HETATM    3  C3  UNL     1     -40.145  11.449   5.452  1.00 20.00     0.036 C 
HETATM    4  C4  UNL     1     -39.537  13.241   6.453  1.00 20.00     0.036 C 
HETATM    5  C5  UNL     1     -40.857  12.784   5.784  1.00 20.00     0.097 C 
HETATM    6  N10 UNL     1     -41.682  14.196   3.755  1.00 20.00    -0.196 NA
ENDROOT
BRANCH   5   7
HETATM    7  S11 UNL     1     -42.212  12.567   6.993  1.00 20.00    -0.135 SA
BRANCH   7   8
HETATM    8  C9  UNL     1     -42.352  14.317   7.525  1.00 20.00    -0.001 C 
HETATM    9  C6  UNL     1     -43.417  15.006   6.668  1.00 20.00     0.026 C 
HETATM   10  C7  UNL     1     -42.759  14.342   9.001  1.00 20.00     0.026 C 
HETATM   11  C8  UNL     1     -40.992  14.997   7.337  1.00 20.00     0.026 C 
ENDBRANCH   7   8
ENDBRANCH   5   7
TORSDOF 2
ENDMDL
