MODEL 1
REMARK VINA RESULT:      -4.1      0.000      0.000
REMARK  1 active torsions:
REMARK  status: ('A' for Active; 'I' for Inactive)
REMARK    1  A    between atoms: C4_4  and  C8_8 
ROOT
HETATM    1  C5  UNL     1     -35.428  13.923  -4.613  1.00 20.00     0.002 C 
HETATM    2  C6  UNL     1     -34.045  14.449  -4.235  1.00 20.00     0.011 C 
HETATM    3  C7  UNL     1     -35.872  14.816  -5.761  1.00 20.00     0.021 C 
HETATM    4  C8  UNL     1     -33.993  15.915  -4.723  1.00 20.00     0.037 C 
HETATM    5  C9  UNL     1     -35.392  16.187  -5.307  1.00 20.00     0.090 C 
HETATM    6 CL11 UNL     1     -35.354  17.349  -6.647  1.00 20.00    -0.124 Cl
ENDROOT
BRANCH   4   7
HETATM    7  C4  UNL     1     -33.594  16.907  -3.653  1.00 20.00    -0.046 A 
HETATM    8  C1  UNL     1     -33.483  16.582  -2.270  1.00 20.00     0.015 A 
HETATM    9  C2  UNL     1     -33.106  17.669  -1.512  1.00 20.00     0.050 A 
HETATM   10  S10 UNL     1     -32.886  19.073  -2.466  1.00 20.00    -0.113 SA
HETATM   11  C3  UNL     1     -33.297  18.230  -3.899  1.00 20.00     0.057 A 
ENDBRANCH   4   7
TORSDOF 1
ENDMDL
MODEL 2
REMARK VINA RESULT:      -3.9      2.799      3.859
REMARK  1 active torsions:
REMARK  status: ('A' for Active; 'I' for Inactive)
REMARK    1  A    between atoms: C4_4  and  C8_8 
ROOT
HETATM    1  C5  UNL     1     -35.181  19.183  -3.752  1.00 20.00     0.002 C 
HETATM    2  C6  UNL     1     -35.244  18.936  -2.246  1.00 20.00     0.011 C 
HETATM    3  C7  UNL     1     -34.631  17.886  -4.325  1.00 20.00     0.021 C 
HETATM    4  C8  UNL     1     -34.221  17.815  -1.949  1.00 20.00     0.037 C 
HETATM    5  C9  UNL     1     -33.563  17.511  -3.308  1.00 20.00     0.090 C 
HETATM    6 CL11 UNL     1     -33.074  15.813  -3.461  1.00 20.00    -0.124 Cl
ENDROOT
BRANCH   4   7
HETATM    7  C4  UNL     1     -33.221  18.163  -0.870  1.00 20.00    -0.046 A 
HETATM    8  C1  UNL     1     -31.827  18.340  -1.106  1.00 20.00     0.015 A 
HETATM    9  C2  UNL     1     -31.142  18.649   0.048  1.00 20.00     0.050 A 
HETATM   10  S10 UNL     1     -32.178  18.726   1.410  1.00 20.00    -0.113 SA
HETATM   11  C3  UNL     1     -33.548  18.344   0.456  1.00 20.00     0.057 A 
ENDBRANCH   4   7
TORSDOF 1
ENDMDL
MODEL 3
REMARK VINA RESULT:      -3.8      3.138      5.347
REMARK  1 active torsions:
REMARK  status: ('A' for Active; 'I' for Inactive)
REMARK    1  A    between atoms: C4_4  and  C8_8 
ROOT
HETATM    1  C5  UNL     1     -34.792  18.927   1.063  1.00 20.00     0.002 C 
HETATM    2  C6  UNL     1     -34.978  19.263  -0.415  1.00 20.00     0.011 C 
HETATM    3  C7  UNL     1     -33.285  18.931   1.265  1.00 20.00     0.021 C 
HETATM    4  C8  UNL     1     -33.658  18.869  -1.116  1.00 20.00     0.037 C 
HETATM    5  C9  UNL     1     -32.787  18.255  -0.004  1.00 20.00     0.090 C 
HETATM    6 CL11 UNL     1     -31.055  18.536  -0.264  1.00 20.00    -0.124 Cl
ENDROOT
BRANCH   4   7
HETATM    7  C4  UNL     1     -33.840  17.948  -2.302  1.00 20.00    -0.046 A 
HETATM    8  C1  UNL     1     -33.295  16.634  -2.378  1.00 20.00     0.015 A 
HETATM    9  C2  UNL     1     -33.609  16.011  -3.566  1.00 20.00     0.050 A 
HETATM   10  S10 UNL     1     -34.559  17.010  -4.584  1.00 20.00    -0.113 SA
HETATM   11  C3  UNL     1     -34.550  18.280  -3.435  1.00 20.00     0.057 A 
ENDBRANCH   4   7
TORSDOF 1
ENDMDL
MODEL 4
REMARK VINA RESULT:      -3.8      1.321      1.464
REMARK  1 active torsions:
REMARK  status: ('A' for Active; 'I' for Inactive)
REMARK    1  A    between atoms: C4_4  and  C8_8 
ROOT
HETATM    1  C5  UNL     1     -34.300  14.468  -4.569  1.00 20.00     0.002 C 
HETATM    2  C6  UNL     1     -33.355  15.297  -3.702  1.00 20.00     0.011 C 
HETATM    3  C7  UNL     1     -34.739  15.422  -5.668  1.00 20.00     0.021 C 
HETATM    4  C8  UNL     1     -33.731  16.777  -3.947  1.00 20.00     0.037 C 
HETATM    5  C9  UNL     1     -34.934  16.725  -4.906  1.00 20.00     0.090 C 
HETATM    6 CL11 UNL     1     -34.994  18.123  -5.997  1.00 20.00    -0.124 Cl
ENDROOT
BRANCH   4   7
HETATM    7  C4  UNL     1     -34.012  17.559  -2.684  1.00 20.00    -0.046 A 
HETATM    8  C1  UNL     1     -33.369  17.312  -1.437  1.00 20.00     0.015 A 
HETATM    9  C2  UNL     1     -33.810  18.166  -0.450  1.00 20.00     0.050 A 
HETATM   10  S10 UNL     1     -34.994  19.260  -1.027  1.00 20.00    -0.113 SA
HETATM   11  C3  UNL     1     -34.921  18.592  -2.602  1.00 20.00     0.057 A 
ENDBRANCH   4   7
TORSDOF 1
ENDMDL
MODEL 5
REMARK VINA RESULT:      -3.7      1.679      2.216
REMARK  1 active torsions:
REMARK  status: ('A' for Active; 'I' for Inactive)
REMARK    1  A    between atoms: C4_4  and  C8_8 
ROOT
HETATM    1  C5  UNL     1     -34.275  16.629  -7.145  1.00 20.00     0.002 C 
HETATM    2  C6  UNL     1     -34.787  17.541  -6.030  1.00 20.00     0.011 C 
HETATM    3  C7  UNL     1     -34.436  15.223  -6.586  1.00 20.00     0.021 C 
HETATM    4  C8  UNL     1     -34.656  16.733  -4.719  1.00 20.00     0.037 C 
HETATM    5  C9  UNL     1     -34.007  15.401  -5.137  1.00 20.00     0.090 C 
HETATM    6 CL11 UNL     1     -34.530  14.042  -4.123  1.00 20.00    -0.124 Cl
ENDROOT
BRANCH   4   7
HETATM    7  C4  UNL     1     -33.892  17.448  -3.627  1.00 20.00    -0.046 A 
HETATM    8  C1  UNL     1     -33.500  16.838  -2.402  1.00 20.00     0.015 A 
HETATM    9  C2  UNL     1     -32.817  17.711  -1.583  1.00 20.00     0.050 A 
HETATM   10  S10 UNL     1     -32.652  19.261  -2.294  1.00 20.00    -0.113 SA
HETATM   11  C3  UNL     1     -33.495  18.766  -3.699  1.00 20.00     0.057 A 
ENDBRANCH   4   7
TORSDOF 1
ENDMDL
MODEL 6
REMARK VINA RESULT:      -3.4      2.547      3.969
REMARK  1 active torsions:
REMARK  status: ('A' for Active; 'I' for Inactive)
REMARK    1  A    between atoms: C4_4  and  C8_8 
ROOT
HETATM    1  C5  UNL     1     -33.436  16.318  -2.754  1.00 20.00     0.002 C 
HETATM    2  C6  UNL     1     -34.152  17.519  -3.371  1.00 20.00     0.011 C 
HETATM    3  C7  UNL     1     -33.046  15.459  -3.947  1.00 20.00     0.021 C 
HETATM    4  C8  UNL     1     -34.667  17.052  -4.751  1.00 20.00     0.037 C 
HETATM    5  C9  UNL     1     -34.275  15.565  -4.837  1.00 20.00     0.090 C 
HETATM    6 CL11 UNL     1     -33.932  15.049  -6.500  1.00 20.00    -0.124 Cl
ENDROOT
BRANCH   4   7
HETATM    7  C4  UNL     1     -36.145  17.289  -4.970  1.00 20.00    -0.046 A 
HETATM    8  C1  UNL     1     -37.035  16.314  -5.505  1.00 20.00     0.015 A 
HETATM    9  C2  UNL     1     -38.325  16.788  -5.601  1.00 20.00     0.050 A 
HETATM   10  S10 UNL     1     -38.459  18.402  -5.047  1.00 20.00    -0.113 SA
HETATM   11  C3  UNL     1     -36.789  18.472  -4.678  1.00 20.00     0.057 A 
ENDBRANCH   4   7
TORSDOF 1
ENDMDL
MODEL 7
REMARK VINA RESULT:      -3.4     24.853     25.812
REMARK  1 active torsions:
REMARK  status: ('A' for Active; 'I' for Inactive)
REMARK    1  A    between atoms: C4_4  and  C8_8 
ROOT
HETATM    1  C5  UNL     1     -26.799   0.088  11.641  1.00 20.00     0.002 C 
HETATM    2  C6  UNL     1     -25.899  -0.962  12.290  1.00 20.00     0.011 C 
HETATM    3  C7  UNL     1     -27.904  -0.719  10.978  1.00 20.00     0.021 C 
HETATM    4  C8  UNL     1     -26.145  -2.278  11.516  1.00 20.00     0.037 C 
HETATM    5  C9  UNL     1     -27.139  -1.902  10.402  1.00 20.00     0.090 C 
HETATM    6 CL11 UNL     1     -28.221  -3.242   9.977  1.00 20.00    -0.124 Cl
ENDROOT
BRANCH   4   7
HETATM    7  C4  UNL     1     -24.885  -2.929  10.991  1.00 20.00    -0.046 A 
HETATM    8  C1  UNL     1     -24.596  -3.099   9.606  1.00 20.00     0.015 A 
HETATM    9  C2  UNL     1     -23.385  -3.722   9.402  1.00 20.00     0.050 A 
HETATM   10  S10 UNL     1     -22.600  -4.099  10.877  1.00 20.00    -0.113 SA
HETATM   11  C3  UNL     1     -23.882  -3.430  11.793  1.00 20.00     0.057 A 
ENDBRANCH   4   7
TORSDOF 1
ENDMDL
MODEL 8
REMARK VINA RESULT:      -3.4      2.517      4.073
REMARK  1 active torsions:
REMARK  status: ('A' for Active; 'I' for Inactive)
REMARK    1  A    between atoms: C4_4  and  C8_8 
ROOT
HETATM    1  C5  UNL     1     -33.004  17.310  -2.190  1.00 20.00     0.002 C 
HETATM    2  C6  UNL     1     -33.373  16.196  -3.169  1.00 20.00     0.011 C 
HETATM    3  C7  UNL     1     -34.296  18.090  -2.001  1.00 20.00     0.021 C 
HETATM    4  C8  UNL     1     -34.614  16.696  -3.943  1.00 20.00     0.037 C 
HETATM    5  C9  UNL     1     -34.865  18.119  -3.412  1.00 20.00     0.090 C 
HETATM    6 CL11 UNL     1     -36.585  18.554  -3.421  1.00 20.00    -0.124 Cl
ENDROOT
BRANCH   4   7
HETATM    7  C4  UNL     1     -34.466  16.641  -5.447  1.00 20.00    -0.046 A 
HETATM    8  C1  UNL     1     -34.242  15.440  -6.180  1.00 20.00     0.015 A 
HETATM    9  C2  UNL     1     -34.144  15.671  -7.534  1.00 20.00     0.050 A 
HETATM   10  S10 UNL     1     -34.321  17.330  -7.918  1.00 20.00    -0.113 SA
HETATM   11  C3  UNL     1     -34.530  17.745  -6.269  1.00 20.00     0.057 A 
ENDBRANCH   4   7
TORSDOF 1
ENDMDL
MODEL 9
REMARK VINA RESULT:      -3.3     13.344     14.080
REMARK  1 active torsions:
REMARK  status: ('A' for Active; 'I' for Inactive)
REMARK    1  A    between atoms: C4_4  and  C8_8 
ROOT
HETATM    1  C5  UNL     1     -42.325  14.385   4.942  1.00 20.00     0.002 C 
HETATM    2  C6  UNL     1     -42.875  14.053   6.328  1.00 20.00     0.011 C 
HETATM    3  C7  UNL     1     -41.152  13.434   4.763  1.00 20.00     0.021 C 
HETATM    4  C8  UNL     1     -41.711  13.400   7.109  1.00 20.00     0.037 C 
HETATM    5  C9  UNL     1     -40.512  13.448   6.144  1.00 20.00     0.090 C 
HETATM    6 CL11 UNL     1     -39.403  12.081   6.371  1.00 20.00    -0.124 Cl
ENDROOT
BRANCH   4   7
HETATM    7  C4  UNL     1     -41.424  14.049   8.444  1.00 20.00    -0.046 A 
HETATM    8  C1  UNL     1     -40.260  14.823   8.717  1.00 20.00     0.015 A 
HETATM    9  C2  UNL     1     -40.245  15.298  10.011  1.00 20.00     0.050 A 
HETATM   10  S10 UNL     1     -41.631  14.810  10.890  1.00 20.00    -0.113 SA
HETATM   11  C3  UNL     1     -42.255  13.961   9.540  1.00 20.00     0.057 A 
ENDBRANCH   4   7
TORSDOF 1
ENDMDL
