MODEL 1
REMARK VINA RESULT:      -5.0      0.000      0.000
REMARK  1 active torsions:
REMARK  status: ('A' for Active; 'I' for Inactive)
REMARK    1  A    between atoms: C7_7  and  C10_10 
ROOT
HETATM    1  C1  UNL     1     -32.576   8.194   4.997  1.00 20.00     0.004 C 
HETATM    2  C2  UNL     1     -32.715   8.594   3.527  1.00 20.00     0.005 C 
HETATM    3  C3  UNL     1     -32.943   6.236   2.502  1.00 20.00     0.007 C 
HETATM    4  C4  UNL     1     -33.743   7.371   5.535  1.00 20.00     0.040 C 
HETATM    5  C5  UNL     1     -33.074   5.517   3.845  1.00 20.00     0.040 C 
HETATM    6  C6  UNL     1     -35.576   5.880   4.449  1.00 20.00     0.207 A 
HETATM    7  C7  UNL     1     -32.145   7.549   2.554  1.00 20.00    -0.015 C 
HETATM    8  C8  UNL     1     -34.110   6.161   4.722  1.00 20.00     0.082 A 
HETATM    9  O11 UNL     1     -34.868   5.203   5.488  1.00 20.00    -0.375 OA
ENDROOT
BRANCH   7  10
HETATM   10  C10 UNL     1     -32.071   8.149   1.144  1.00 20.00     0.000 C 
HETATM   11  C9  UNL     1     -32.797   9.449   1.066  1.00 20.00     0.005 C 
ENDBRANCH   7  10
TORSDOF 1
ENDMDL
MODEL 2
REMARK VINA RESULT:      -4.2     11.497     12.757
REMARK  1 active torsions:
REMARK  status: ('A' for Active; 'I' for Inactive)
REMARK    1  A    between atoms: C7_7  and  C10_10 
ROOT
HETATM    1  C1  UNL     1     -33.688  14.663  -4.462  1.00 20.00     0.004 C 
HETATM    2  C2  UNL     1     -33.683  15.678  -3.318  1.00 20.00     0.005 C 
HETATM    3  C3  UNL     1     -34.451  17.758  -4.640  1.00 20.00     0.007 C 
HETATM    4  C4  UNL     1     -35.035  14.517  -5.162  1.00 20.00     0.040 C 
HETATM    5  C5  UNL     1     -34.791  16.989  -5.917  1.00 20.00     0.040 C 
HETATM    6  C6  UNL     1     -37.145  16.020  -5.391  1.00 20.00     0.207 A 
HETATM    7  C7  UNL     1     -33.358  17.111  -3.774  1.00 20.00    -0.015 C 
HETATM    8  C8  UNL     1     -35.663  15.799  -5.633  1.00 20.00     0.082 A 
HETATM    9  O11 UNL     1     -36.653  15.575  -6.656  1.00 20.00    -0.375 OA
ENDROOT
BRANCH   7  10
HETATM   10  C10 UNL     1     -33.100  17.993  -2.546  1.00 20.00     0.000 C 
HETATM   11  C9  UNL     1     -33.649  17.375  -1.305  1.00 20.00     0.005 C 
ENDBRANCH   7  10
TORSDOF 1
ENDMDL
MODEL 3
REMARK VINA RESULT:      -4.1     11.885     13.416
REMARK  1 active torsions:
REMARK  status: ('A' for Active; 'I' for Inactive)
REMARK    1  A    between atoms: C7_7  and  C10_10 
ROOT
HETATM    1  C1  UNL     1     -33.304  16.152  -3.376  1.00 20.00     0.004 C 
HETATM    2  C2  UNL     1     -33.451  16.810  -2.003  1.00 20.00     0.005 C 
HETATM    3  C3  UNL     1     -33.044  19.262  -2.700  1.00 20.00     0.007 C 
HETATM    4  C4  UNL     1     -34.267  16.687  -4.432  1.00 20.00     0.040 C 
HETATM    5  C5  UNL     1     -33.075  18.982  -4.203  1.00 20.00     0.040 C 
HETATM    6  C6  UNL     1     -35.620  18.890  -4.717  1.00 20.00     0.207 A 
HETATM    7  C7  UNL     1     -32.591  18.073  -1.836  1.00 20.00    -0.015 C 
HETATM    8  C8  UNL     1     -34.284  18.181  -4.595  1.00 20.00     0.082 A 
HETATM    9  O11 UNL     1     -34.831  18.582  -5.867  1.00 20.00    -0.375 OA
ENDROOT
BRANCH   7  10
HETATM   10  C10 UNL     1     -32.583  18.497  -0.361  1.00 20.00     0.000 C 
HETATM   11  C9  UNL     1     -31.198  18.523   0.190  1.00 20.00     0.005 C 
ENDBRANCH   7  10
TORSDOF 1
ENDMDL
MODEL 4
REMARK VINA RESULT:      -4.0     11.634     12.893
REMARK  1 active torsions:
REMARK  status: ('A' for Active; 'I' for Inactive)
REMARK    1  A    between atoms: C7_7  and  C10_10 
ROOT
HETATM    1  C1  UNL     1     -35.867  17.446  -4.777  1.00 20.00     0.004 C 
HETATM    2  C2  UNL     1     -34.559  17.776  -4.055  1.00 20.00     0.005 C 
HETATM    3  C3  UNL     1     -33.566  15.396  -3.941  1.00 20.00     0.007 C 
HETATM    4  C4  UNL     1     -35.680  16.764  -6.129  1.00 20.00     0.040 C 
HETATM    5  C5  UNL     1     -34.619  14.766  -4.853  1.00 20.00     0.040 C 
HETATM    6  C6  UNL     1     -33.766  15.387  -7.228  1.00 20.00     0.207 A 
HETATM    7  C7  UNL     1     -34.048  16.632  -3.164  1.00 20.00    -0.015 C 
HETATM    8  C8  UNL     1     -34.794  15.549  -6.124  1.00 20.00     0.082 A 
HETATM    9  O11 UNL     1     -35.021  14.707  -7.272  1.00 20.00    -0.375 OA
ENDROOT
BRANCH   7  10
HETATM   10  C10 UNL     1     -32.908  17.145  -2.275  1.00 20.00     0.000 C 
HETATM   11  C9  UNL     1     -33.424  17.687  -0.986  1.00 20.00     0.005 C 
ENDBRANCH   7  10
TORSDOF 1
ENDMDL
MODEL 5
REMARK VINA RESULT:      -3.9     11.542     12.669
REMARK  1 active torsions:
REMARK  status: ('A' for Active; 'I' for Inactive)
REMARK    1  A    between atoms: C7_7  and  C10_10 
ROOT
HETATM    1  C1  UNL     1     -32.763  15.467  -3.938  1.00 20.00     0.004 C 
HETATM    2  C2  UNL     1     -33.518  16.273  -2.880  1.00 20.00     0.005 C 
HETATM    3  C3  UNL     1     -35.119  17.562  -4.441  1.00 20.00     0.007 C 
HETATM    4  C4  UNL     1     -33.654  14.588  -4.810  1.00 20.00     0.040 C 
HETATM    5  C5  UNL     1     -34.754  16.768  -5.695  1.00 20.00     0.040 C 
HETATM    6  C6  UNL     1     -36.177  14.608  -5.441  1.00 20.00     0.207 A 
HETATM    7  C7  UNL     1     -34.004  17.641  -3.385  1.00 20.00    -0.015 C 
HETATM    8  C8  UNL     1     -34.820  15.286  -5.454  1.00 20.00     0.082 A 
HETATM    9  O11 UNL     1     -35.329  14.558  -6.589  1.00 20.00    -0.375 OA
ENDROOT
BRANCH   7  10
HETATM   10  C10 UNL     1     -34.493  18.482  -2.199  1.00 20.00     0.000 C 
HETATM   11  C9  UNL     1     -35.897  18.941  -2.399  1.00 20.00     0.005 C 
ENDBRANCH   7  10
TORSDOF 1
ENDMDL
MODEL 6
REMARK VINA RESULT:      -3.7     10.333     11.432
REMARK  1 active torsions:
REMARK  status: ('A' for Active; 'I' for Inactive)
REMARK    1  A    between atoms: C7_7  and  C10_10 
ROOT
HETATM    1  C1  UNL     1     -43.222  13.385   6.707  1.00 20.00     0.004 C 
HETATM    2  C2  UNL     1     -42.132  12.315   6.623  1.00 20.00     0.005 C 
HETATM    3  C3  UNL     1     -40.103  13.772   7.273  1.00 20.00     0.007 C 
HETATM    4  C4  UNL     1     -43.329  14.062   8.070  1.00 20.00     0.040 C 
HETATM    5  C5  UNL     1     -40.935  14.989   7.679  1.00 20.00     0.040 C 
HETATM    6  C6  UNL     1     -41.711  14.377  10.082  1.00 20.00     0.207 A 
HETATM    7  C7  UNL     1     -40.759  12.872   6.213  1.00 20.00    -0.015 C 
HETATM    8  C8  UNL     1     -42.044  14.615   8.621  1.00 20.00     0.082 A 
HETATM    9  O11 UNL     1     -42.274  15.612   9.637  1.00 20.00    -0.375 OA
ENDROOT
BRANCH   7  10
HETATM   10  C10 UNL     1     -39.812  11.711   5.883  1.00 20.00     0.000 C 
HETATM   11  C9  UNL     1     -39.298  11.807   4.486  1.00 20.00     0.005 C 
ENDBRANCH   7  10
TORSDOF 1
ENDMDL
MODEL 7
REMARK VINA RESULT:      -3.7     11.158     12.483
REMARK  1 active torsions:
REMARK  status: ('A' for Active; 'I' for Inactive)
REMARK    1  A    between atoms: C7_7  and  C10_10 
ROOT
HETATM    1  C1  UNL     1     -34.156  18.222  -5.040  1.00 20.00     0.004 C 
HETATM    2  C2  UNL     1     -35.244  17.151  -5.125  1.00 20.00     0.005 C 
HETATM    3  C3  UNL     1     -33.994  15.229  -3.938  1.00 20.00     0.007 C 
HETATM    4  C4  UNL     1     -33.697  18.536  -3.619  1.00 20.00     0.040 C 
HETATM    5  C5  UNL     1     -32.822  16.096  -3.477  1.00 20.00     0.040 C 
HETATM    6  C6  UNL     1     -33.769  17.259  -1.355  1.00 20.00     0.207 A 
HETATM    7  C7  UNL     1     -34.688  15.720  -5.219  1.00 20.00    -0.015 C 
HETATM    8  C8  UNL     1     -33.292  17.348  -2.792  1.00 20.00     0.082 A 
HETATM    9  O11 UNL     1     -32.457  17.722  -1.678  1.00 20.00    -0.375 OA
ENDROOT
BRANCH   7  10
HETATM   10  C10 UNL     1     -35.821  14.752  -5.581  1.00 20.00     0.000 C 
HETATM   11  C9  UNL     1     -35.901  13.621  -4.612  1.00 20.00     0.005 C 
ENDBRANCH   7  10
TORSDOF 1
ENDMDL
MODEL 8
REMARK VINA RESULT:      -3.5     11.389     13.180
REMARK  1 active torsions:
REMARK  status: ('A' for Active; 'I' for Inactive)
REMARK    1  A    between atoms: C7_7  and  C10_10 
ROOT
HETATM    1  C1  UNL     1     -33.797  15.181  -3.656  1.00 20.00     0.004 C 
HETATM    2  C2  UNL     1     -33.827  15.174  -5.185  1.00 20.00     0.005 C 
HETATM    3  C3  UNL     1     -35.302  17.260  -5.555  1.00 20.00     0.007 C 
HETATM    4  C4  UNL     1     -33.252  16.468  -3.046  1.00 20.00     0.040 C 
HETATM    5  C5  UNL     1     -35.287  17.698  -4.090  1.00 20.00     0.040 C 
HETATM    6  C6  UNL     1     -33.002  18.919  -3.881  1.00 20.00     0.207 A 
HETATM    7  C7  UNL     1     -35.126  15.748  -5.773  1.00 20.00    -0.015 C 
HETATM    8  C8  UNL     1     -33.891  17.738  -3.536  1.00 20.00     0.082 A 
HETATM    9  O11 UNL     1     -33.682  18.837  -2.627  1.00 20.00    -0.375 OA
ENDROOT
BRANCH   7  10
HETATM   10  C10 UNL     1     -35.186  15.446  -7.276  1.00 20.00     0.000 C 
HETATM   11  C9  UNL     1     -33.848  15.602  -7.916  1.00 20.00     0.005 C 
ENDBRANCH   7  10
TORSDOF 1
ENDMDL
MODEL 9
REMARK VINA RESULT:      -3.5     10.765     11.718
REMARK  1 active torsions:
REMARK  status: ('A' for Active; 'I' for Inactive)
REMARK    1  A    between atoms: C7_7  and  C10_10 
ROOT
HETATM    1  C1  UNL     1     -42.290  15.066   5.301  1.00 20.00     0.004 C 
HETATM    2  C2  UNL     1     -41.878  13.602   5.458  1.00 20.00     0.005 C 
HETATM    3  C3  UNL     1     -40.307  13.854   7.490  1.00 20.00     0.007 C 
HETATM    4  C4  UNL     1     -42.939  15.670   6.543  1.00 20.00     0.040 C 
HETATM    5  C5  UNL     1     -40.678  15.311   7.768  1.00 20.00     0.040 C 
HETATM    6  C6  UNL     1     -42.912  15.093   9.079  1.00 20.00     0.207 A 
HETATM    7  C7  UNL     1     -40.459  13.423   6.022  1.00 20.00    -0.015 C 
HETATM    8  C8  UNL     1     -42.168  15.505   7.822  1.00 20.00     0.082 A 
HETATM    9  O11 UNL     1     -42.571  16.457   8.827  1.00 20.00    -0.375 OA
ENDROOT
BRANCH   7  10
HETATM   10  C10 UNL     1     -40.032  11.956   5.882  1.00 20.00     0.000 C 
HETATM   11  C9  UNL     1     -39.307  11.721   4.600  1.00 20.00     0.005 C 
ENDBRANCH   7  10
TORSDOF 1
ENDMDL
