MODEL 1
REMARK VINA RESULT:      -3.3      0.000      0.000
REMARK  4 active torsions:
REMARK  status: ('A' for Active; 'I' for Inactive)
REMARK    1  A    between atoms: C5_5  and  C7_7 
REMARK    2  A    between atoms: C5_5  and  O10_10 
REMARK    3  A    between atoms: C6_6  and  C7_7 
REMARK    4  A    between atoms: C7_7  and  N8_8 
ROOT
HETATM    1  C1  UNL     1     -42.083  14.359   4.457  1.00 20.00     0.332 C 
HETATM    2  N8  UNL     1     -41.309  13.481   4.412  1.00 20.00    -0.240 NA
HETATM    3  O9  UNL     1     -42.861  15.240   4.492  1.00 20.00    -0.260 OA
ENDROOT
BRANCH   2   4
HETATM    4  C7  UNL     1     -40.824  13.042   5.731  1.00 20.00     0.139 C 
BRANCH   4   5
HETATM    5  C5  UNL     1     -42.036  12.635   6.568  1.00 20.00     0.194 C 
BRANCH   5   6
HETATM    6  O10 UNL     1     -41.808  13.002   7.925  1.00 20.00    -0.394 OA
HETATM    7  C4  UNL     1     -41.251  14.305   8.024  1.00 20.00     0.201 C 
ENDBRANCH   5   6
ENDBRANCH   4   5
BRANCH   4   8
HETATM    8  C6  UNL     1     -39.797  11.902   5.560  1.00 20.00     0.004 C 
HETATM    9  C2  UNL     1     -38.633  12.055   6.545  1.00 20.00     0.012 C 
HETATM   10  C3  UNL     1     -39.257  11.769   4.133  1.00 20.00     0.012 C 
ENDBRANCH   4   8
ENDBRANCH   2   4
TORSDOF 4
ENDMDL
MODEL 2
REMARK VINA RESULT:      -3.2      2.401      3.899
REMARK  4 active torsions:
REMARK  status: ('A' for Active; 'I' for Inactive)
REMARK    1  A    between atoms: C5_5  and  C7_7 
REMARK    2  A    between atoms: C5_5  and  O10_10 
REMARK    3  A    between atoms: C6_6  and  C7_7 
REMARK    4  A    between atoms: C7_7  and  N8_8 
ROOT
HETATM    1  C1  UNL     1     -40.265  14.648   8.608  1.00 20.00     0.332 C 
HETATM    2  N8  UNL     1     -40.005  13.598   8.162  1.00 20.00    -0.240 NA
HETATM    3  O9  UNL     1     -40.523  15.701   9.067  1.00 20.00    -0.260 OA
ENDROOT
BRANCH   2   4
HETATM    4  C7  UNL     1     -40.214  13.497   6.708  1.00 20.00     0.139 C 
BRANCH   4   5
HETATM    5  C5  UNL     1     -39.661  12.149   6.244  1.00 20.00     0.194 C 
BRANCH   5   6
HETATM    6  O10 UNL     1     -38.678  12.372   5.238  1.00 20.00    -0.394 OA
HETATM    7  C4  UNL     1     -38.979  11.653   4.050  1.00 20.00     0.201 C 
ENDBRANCH   5   6
ENDBRANCH   4   5
BRANCH   4   8
HETATM    8  C6  UNL     1     -41.711  13.680   6.378  1.00 20.00     0.004 C 
HETATM    9  C2  UNL     1     -42.510  12.417   6.715  1.00 20.00     0.012 C 
HETATM   10  C3  UNL     1     -41.975  14.092   4.926  1.00 20.00     0.012 C 
ENDBRANCH   4   8
ENDBRANCH   2   4
TORSDOF 4
ENDMDL
MODEL 3
REMARK VINA RESULT:      -3.2      9.739     10.563
REMARK  4 active torsions:
REMARK  status: ('A' for Active; 'I' for Inactive)
REMARK    1  A    between atoms: C5_5  and  C7_7 
REMARK    2  A    between atoms: C5_5  and  O10_10 
REMARK    3  A    between atoms: C6_6  and  C7_7 
REMARK    4  A    between atoms: C7_7  and  N8_8 
ROOT
HETATM    1  C1  UNL     1     -32.737   8.618   5.186  1.00 20.00     0.332 C 
HETATM    2  N8  UNL     1     -33.472   7.744   5.442  1.00 20.00    -0.240 NA
HETATM    3  O9  UNL     1     -31.997   9.499   4.940  1.00 20.00    -0.260 OA
ENDROOT
BRANCH   2   4
HETATM    4  C7  UNL     1     -33.827   6.902   4.287  1.00 20.00     0.139 C 
BRANCH   4   5
HETATM    5  C5  UNL     1     -32.538   6.558   3.541  1.00 20.00     0.194 C 
BRANCH   5   6
HETATM    6  O10 UNL     1     -32.739   6.765   2.146  1.00 20.00    -0.394 OA
HETATM    7  C4  UNL     1     -32.157   7.987   1.714  1.00 20.00     0.201 C 
ENDBRANCH   5   6
ENDBRANCH   4   5
BRANCH   4   8
HETATM    8  C6  UNL     1     -34.599   5.654   4.764  1.00 20.00     0.004 C 
HETATM    9  C2  UNL     1     -34.706   5.621   6.293  1.00 20.00     0.012 C 
HETATM   10  C3  UNL     1     -34.011   4.334   4.255  1.00 20.00     0.012 C 
ENDBRANCH   4   8
ENDBRANCH   2   4
TORSDOF 4
ENDMDL
MODEL 4
REMARK VINA RESULT:      -3.2     11.929     12.686
REMARK  4 active torsions:
REMARK  status: ('A' for Active; 'I' for Inactive)
REMARK    1  A    between atoms: C5_5  and  C7_7 
REMARK    2  A    between atoms: C5_5  and  O10_10 
REMARK    3  A    between atoms: C6_6  and  C7_7 
REMARK    4  A    between atoms: C7_7  and  N8_8 
ROOT
HETATM    1  C1  UNL     1     -35.927  15.020  -6.189  1.00 20.00     0.332 C 
HETATM    2  N8  UNL     1     -35.912  15.767  -5.289  1.00 20.00    -0.240 NA
HETATM    3  O9  UNL     1     -35.954  14.267  -7.093  1.00 20.00    -0.260 OA
ENDROOT
BRANCH   2   4
HETATM    4  C7  UNL     1     -34.586  16.348  -5.016  1.00 20.00     0.139 C 
BRANCH   4   5
HETATM    5  C5  UNL     1     -34.778  17.828  -4.686  1.00 20.00     0.194 C 
BRANCH   5   6
HETATM    6  O10 UNL     1     -36.153  18.066  -4.398  1.00 20.00    -0.394 OA
HETATM    7  C4  UNL     1     -36.312  18.774  -3.177  1.00 20.00     0.201 C 
ENDBRANCH   5   6
ENDBRANCH   4   5
BRANCH   4   8
HETATM    8  C6  UNL     1     -33.891  15.563  -3.883  1.00 20.00     0.004 C 
HETATM    9  C2  UNL     1     -33.341  16.510  -2.811  1.00 20.00     0.012 C 
HETATM   10  C3  UNL     1     -32.780  14.630  -4.373  1.00 20.00     0.012 C 
ENDBRANCH   4   8
ENDBRANCH   2   4
TORSDOF 4
ENDMDL
MODEL 5
REMARK VINA RESULT:      -3.2     12.150     13.004
REMARK  4 active torsions:
REMARK  status: ('A' for Active; 'I' for Inactive)
REMARK    1  A    between atoms: C5_5  and  C7_7 
REMARK    2  A    between atoms: C5_5  and  O10_10 
REMARK    3  A    between atoms: C6_6  and  C7_7 
REMARK    4  A    between atoms: C7_7  and  N8_8 
ROOT
HETATM    1  C1  UNL     1     -31.757  18.539  -0.823  1.00 20.00     0.332 C 
HETATM    2  N8  UNL     1     -32.860  18.544  -1.216  1.00 20.00    -0.240 NA
HETATM    3  O9  UNL     1     -30.652  18.537  -0.418  1.00 20.00    -0.260 OA
ENDROOT
BRANCH   2   4
HETATM    4  C7  UNL     1     -33.007  18.044  -2.593  1.00 20.00     0.139 C 
BRANCH   4   5
HETATM    5  C5  UNL     1     -33.451  16.583  -2.519  1.00 20.00     0.194 C 
BRANCH   5   6
HETATM    6  O10 UNL     1     -32.877  15.867  -3.608  1.00 20.00    -0.394 OA
HETATM    7  C4  UNL     1     -33.786  14.914  -4.140  1.00 20.00     0.201 C 
ENDBRANCH   5   6
ENDBRANCH   4   5
BRANCH   4   8
HETATM    8  C6  UNL     1     -33.996  18.936  -3.374  1.00 20.00     0.004 C 
HETATM    9  C2  UNL     1     -35.440  18.459  -3.183  1.00 20.00     0.012 C 
HETATM   10  C3  UNL     1     -33.677  19.046  -4.868  1.00 20.00     0.012 C 
ENDBRANCH   4   8
ENDBRANCH   2   4
TORSDOF 4
ENDMDL
MODEL 6
REMARK VINA RESULT:      -3.1      2.098      3.479
REMARK  4 active torsions:
REMARK  status: ('A' for Active; 'I' for Inactive)
REMARK    1  A    between atoms: C5_5  and  C7_7 
REMARK    2  A    between atoms: C5_5  and  O10_10 
REMARK    3  A    between atoms: C6_6  and  C7_7 
REMARK    4  A    between atoms: C7_7  and  N8_8 
ROOT
HETATM    1  C1  UNL     1     -39.313  12.338   5.238  1.00 20.00     0.332 C 
HETATM    2  N8  UNL     1     -40.464  12.548   5.221  1.00 20.00    -0.240 NA
HETATM    3  O9  UNL     1     -38.155  12.127   5.243  1.00 20.00    -0.260 OA
ENDROOT
BRANCH   2   4
HETATM    4  C7  UNL     1     -41.061  12.715   6.556  1.00 20.00     0.139 C 
BRANCH   4   5
HETATM    5  C5  UNL     1     -40.460  13.970   7.189  1.00 20.00     0.194 C 
BRANCH   5   6
HETATM    6  O10 UNL     1     -40.092  13.682   8.534  1.00 20.00    -0.394 OA
HETATM    7  C4  UNL     1     -40.860  14.443   9.456  1.00 20.00     0.201 C 
ENDBRANCH   5   6
ENDBRANCH   4   5
BRANCH   4   8
HETATM    8  C6  UNL     1     -42.600  12.775   6.441  1.00 20.00     0.004 C 
HETATM    9  C2  UNL     1     -43.090  14.224   6.349  1.00 20.00     0.012 C 
HETATM   10  C3  UNL     1     -43.331  12.048   7.573  1.00 20.00     0.012 C 
ENDBRANCH   4   8
ENDBRANCH   2   4
TORSDOF 4
ENDMDL
MODEL 7
REMARK VINA RESULT:      -3.1      9.630     10.319
REMARK  4 active torsions:
REMARK  status: ('A' for Active; 'I' for Inactive)
REMARK    1  A    between atoms: C5_5  and  C7_7 
REMARK    2  A    between atoms: C5_5  and  O10_10 
REMARK    3  A    between atoms: C6_6  and  C7_7 
REMARK    4  A    between atoms: C7_7  and  N8_8 
ROOT
HETATM    1  C1  UNL     1     -32.879   8.682   4.871  1.00 20.00     0.332 C 
HETATM    2  N8  UNL     1     -33.760   8.058   4.420  1.00 20.00    -0.240 NA
HETATM    3  O9  UNL     1     -31.999   9.320   5.323  1.00 20.00    -0.260 OA
ENDROOT
BRANCH   2   4
HETATM    4  C7  UNL     1     -33.500   6.610   4.364  1.00 20.00     0.139 C 
BRANCH   4   5
HETATM    5  C5  UNL     1     -34.846   5.892   4.262  1.00 20.00     0.194 C 
BRANCH   5   6
HETATM    6  O10 UNL     1     -34.877   4.826   5.206  1.00 20.00    -0.394 OA
HETATM    7  C4  UNL     1     -34.451   5.258   6.491  1.00 20.00     0.201 C 
ENDBRANCH   5   6
ENDBRANCH   4   5
BRANCH   4   8
HETATM    8  C6  UNL     1     -32.556   6.291   3.186  1.00 20.00     0.004 C 
HETATM    9  C2  UNL     1     -32.432   7.488   2.237  1.00 20.00     0.012 C 
HETATM   10  C3  UNL     1     -32.957   5.040   2.397  1.00 20.00     0.012 C 
ENDBRANCH   4   8
ENDBRANCH   2   4
TORSDOF 4
ENDMDL
MODEL 8
REMARK VINA RESULT:      -3.1      9.627     10.910
REMARK  4 active torsions:
REMARK  status: ('A' for Active; 'I' for Inactive)
REMARK    1  A    between atoms: C5_5  and  C7_7 
REMARK    2  A    between atoms: C5_5  and  O10_10 
REMARK    3  A    between atoms: C6_6  and  C7_7 
REMARK    4  A    between atoms: C7_7  and  N8_8 
ROOT
HETATM    1  C1  UNL     1     -33.799   4.920   3.766  1.00 20.00     0.332 C 
HETATM    2  N8  UNL     1     -33.420   5.877   3.209  1.00 20.00    -0.240 NA
HETATM    3  O9  UNL     1     -34.183   3.953   4.316  1.00 20.00    -0.260 OA
ENDROOT
BRANCH   2   4
HETATM    4  C7  UNL     1     -32.802   6.879   4.094  1.00 20.00     0.139 C 
BRANCH   4   5
HETATM    5  C5  UNL     1     -32.121   7.928   3.216  1.00 20.00     0.194 C 
BRANCH   5   6
HETATM    6  O10 UNL     1     -32.176   7.505   1.858  1.00 20.00    -0.394 OA
HETATM    7  C4  UNL     1     -32.299   8.610   0.974  1.00 20.00     0.201 C 
ENDBRANCH   5   6
ENDBRANCH   4   5
BRANCH   4   8
HETATM    8  C6  UNL     1     -33.869   7.479   5.034  1.00 20.00     0.004 C 
HETATM    9  C2  UNL     1     -33.646   8.982   5.234  1.00 20.00     0.012 C 
HETATM   10  C3  UNL     1     -33.954   6.780   6.395  1.00 20.00     0.012 C 
ENDBRANCH   4   8
ENDBRANCH   2   4
TORSDOF 4
ENDMDL
MODEL 9
REMARK VINA RESULT:      -3.1     11.775     12.992
REMARK  4 active torsions:
REMARK  status: ('A' for Active; 'I' for Inactive)
REMARK    1  A    between atoms: C5_5  and  C7_7 
REMARK    2  A    between atoms: C5_5  and  O10_10 
REMARK    3  A    between atoms: C6_6  and  C7_7 
REMARK    4  A    between atoms: C7_7  and  N8_8 
ROOT
HETATM    1  C1  UNL     1     -35.054  14.843  -6.271  1.00 20.00     0.332 C 
HETATM    2  N8  UNL     1     -34.136  15.306  -5.712  1.00 20.00    -0.240 NA
HETATM    3  O9  UNL     1     -35.970  14.373  -6.841  1.00 20.00    -0.260 OA
ENDROOT
BRANCH   2   4
HETATM    4  C7  UNL     1     -34.501  16.198  -4.598  1.00 20.00     0.139 C 
BRANCH   4   5
HETATM    5  C5  UNL     1     -33.263  16.393  -3.724  1.00 20.00     0.194 C 
BRANCH   5   6
HETATM    6  O10 UNL     1     -33.618  16.185  -2.361  1.00 20.00    -0.394 OA
HETATM    7  C4  UNL     1     -33.452  17.370  -1.594  1.00 20.00     0.201 C 
ENDBRANCH   5   6
ENDBRANCH   4   5
BRANCH   4   8
HETATM    8  C6  UNL     1     -35.065  17.524  -5.151  1.00 20.00     0.004 C 
HETATM    9  C2  UNL     1     -34.013  18.637  -5.096  1.00 20.00     0.012 C 
HETATM   10  C3  UNL     1     -36.348  17.986  -4.453  1.00 20.00     0.012 C 
ENDBRANCH   4   8
ENDBRANCH   2   4
TORSDOF 4
ENDMDL
