MODEL 1
REMARK VINA RESULT:      -4.4      0.000      0.000
REMARK  2 active torsions:
REMARK  status: ('A' for Active; 'I' for Inactive)
REMARK    1  A    between atoms: C8_8  and  C10_10 
REMARK    2  A    between atoms: C10_10  and  C11_11 
ROOT
HETATM    1  C1  UNL     1     -34.393  15.499  -6.976  1.00 20.00     0.064 C 
HETATM    2  C2  UNL     1     -33.741  14.636  -4.019  1.00 20.00     0.002 C 
HETATM    3  C3  UNL     1     -35.082  15.023  -4.641  1.00 20.00     0.019 C 
HETATM    4  C4  UNL     1     -34.446  17.431  -5.424  1.00 20.00     0.019 C 
HETATM    5  C5  UNL     1     -32.746  15.766  -3.772  1.00 20.00     0.005 C 
HETATM    6  C6  UNL     1     -34.424  17.753  -3.930  1.00 20.00     0.006 C 
HETATM    7  C7  UNL     1     -35.050  16.056  -5.776  1.00 20.00     0.093 C 
HETATM    8  C8  UNL     1     -33.302  17.051  -3.138  1.00 20.00    -0.014 C 
HETATM    9  N12 UNL     1     -33.877  15.062  -7.918  1.00 20.00    -0.197 NA
ENDROOT
BRANCH   8  10
HETATM   10  C10 UNL     1     -33.733  16.824  -1.688  1.00 20.00     0.004 C 
BRANCH  10  11
HETATM   11  C11 UNL     1     -33.441  18.050  -0.833  1.00 20.00    -0.004 C 
HETATM   12  C9  UNL     1     -31.952  18.355  -0.808  1.00 20.00     0.005 C 
ENDBRANCH  10  11
ENDBRANCH   8  10
TORSDOF 2
ENDMDL
MODEL 2
REMARK VINA RESULT:      -4.1     11.425     12.878
REMARK  2 active torsions:
REMARK  status: ('A' for Active; 'I' for Inactive)
REMARK    1  A    between atoms: C8_8  and  C10_10 
REMARK    2  A    between atoms: C10_10  and  C11_11 
ROOT
HETATM    1  C1  UNL     1     -34.596   5.304   5.791  1.00 20.00     0.064 C 
HETATM    2  C2  UNL     1     -33.857   8.252   4.968  1.00 20.00     0.002 C 
HETATM    3  C3  UNL     1     -34.924   7.324   4.389  1.00 20.00     0.019 C 
HETATM    4  C4  UNL     1     -33.355   5.373   3.648  1.00 20.00     0.019 C 
HETATM    5  C5  UNL     1     -32.406   7.930   4.625  1.00 20.00     0.005 C 
HETATM    6  C6  UNL     1     -32.864   6.365   2.593  1.00 20.00     0.006 C 
HETATM    7  C7  UNL     1     -34.621   5.819   4.408  1.00 20.00     0.093 C 
HETATM    8  C8  UNL     1     -32.102   7.580   3.160  1.00 20.00    -0.014 C 
HETATM    9  N12 UNL     1     -34.576   4.900   6.878  1.00 20.00    -0.197 NA
ENDROOT
BRANCH   8  10
HETATM   10  C10 UNL     1     -32.275   8.793   2.243  1.00 20.00     0.004 C 
BRANCH  10  11
HETATM   11  C11 UNL     1     -32.158   8.392   0.779  1.00 20.00    -0.004 C 
HETATM   12  C9  UNL     1     -32.995   9.303  -0.105  1.00 20.00     0.005 C 
ENDBRANCH  10  11
ENDBRANCH   8  10
TORSDOF 2
ENDMDL
MODEL 3
REMARK VINA RESULT:      -4.0      1.489      2.527
REMARK  2 active torsions:
REMARK  status: ('A' for Active; 'I' for Inactive)
REMARK    1  A    between atoms: C8_8  and  C10_10 
REMARK    2  A    between atoms: C10_10  and  C11_11 
ROOT
HETATM    1  C1  UNL     1     -35.854  15.689  -5.471  1.00 20.00     0.064 C 
HETATM    2  C2  UNL     1     -35.057  18.477  -4.244  1.00 20.00     0.002 C 
HETATM    3  C3  UNL     1     -34.335  17.642  -5.301  1.00 20.00     0.019 C 
HETATM    4  C4  UNL     1     -33.967  15.484  -3.877  1.00 20.00     0.019 C 
HETATM    5  C5  UNL     1     -34.994  17.972  -2.806  1.00 20.00     0.005 C 
HETATM    6  C6  UNL     1     -32.978  16.346  -3.093  1.00 20.00     0.006 C 
HETATM    7  C7  UNL     1     -34.468  16.116  -5.192  1.00 20.00     0.093 C 
HETATM    8  C8  UNL     1     -33.622  17.500  -2.298  1.00 20.00    -0.014 C 
HETATM    9  N12 UNL     1     -36.943  15.353  -5.689  1.00 20.00    -0.197 NA
ENDROOT
BRANCH   8  10
HETATM   10  C10 UNL     1     -32.641  18.666  -2.160  1.00 20.00     0.004 C 
BRANCH  10  11
HETATM   11  C11 UNL     1     -31.856  18.566  -0.858  1.00 20.00    -0.004 C 
HETATM   12  C9  UNL     1     -32.791  18.455   0.336  1.00 20.00     0.005 C 
ENDBRANCH  10  11
ENDBRANCH   8  10
TORSDOF 2
ENDMDL
MODEL 4
REMARK VINA RESULT:      -4.0      1.682      2.999
REMARK  2 active torsions:
REMARK  status: ('A' for Active; 'I' for Inactive)
REMARK    1  A    between atoms: C8_8  and  C10_10 
REMARK    2  A    between atoms: C10_10  and  C11_11 
ROOT
HETATM    1  C1  UNL     1     -35.417  16.713  -5.094  1.00 20.00     0.064 C 
HETATM    2  C2  UNL     1     -34.822  19.263  -3.346  1.00 20.00     0.002 C 
HETATM    3  C3  UNL     1     -33.957  18.600  -4.417  1.00 20.00     0.019 C 
HETATM    4  C4  UNL     1     -33.753  16.240  -3.319  1.00 20.00     0.019 C 
HETATM    5  C5  UNL     1     -34.942  18.535  -2.011  1.00 20.00     0.005 C 
HETATM    6  C6  UNL     1     -32.886  16.957  -2.285  1.00 20.00     0.006 C 
HETATM    7  C7  UNL     1     -34.085  17.077  -4.571  1.00 20.00     0.093 C 
HETATM    8  C8  UNL     1     -33.643  17.976  -1.408  1.00 20.00    -0.014 C 
HETATM    9  N12 UNL     1     -36.463  16.426  -5.504  1.00 20.00    -0.197 NA
ENDROOT
BRANCH   8  10
HETATM   10  C10 UNL     1     -32.703  19.095  -0.958  1.00 20.00     0.004 C 
BRANCH  10  11
HETATM   11  C11 UNL     1     -31.395  18.527  -0.423  1.00 20.00    -0.004 C 
HETATM   12  C9  UNL     1     -31.388  18.511   1.097  1.00 20.00     0.005 C 
ENDBRANCH  10  11
ENDBRANCH   8  10
TORSDOF 2
ENDMDL
MODEL 5
REMARK VINA RESULT:      -3.9      2.685      5.171
REMARK  2 active torsions:
REMARK  status: ('A' for Active; 'I' for Inactive)
REMARK    1  A    between atoms: C8_8  and  C10_10 
REMARK    2  A    between atoms: C10_10  and  C11_11 
ROOT
HETATM    1  C1  UNL     1     -32.182  18.193  -1.159  1.00 20.00     0.064 C 
HETATM    2  C2  UNL     1     -34.405  19.263  -3.115  1.00 20.00     0.002 C 
HETATM    3  C3  UNL     1     -34.539  18.318  -1.922  1.00 20.00     0.019 C 
HETATM    4  C4  UNL     1     -32.921  16.444  -2.752  1.00 20.00     0.019 C 
HETATM    5  C5  UNL     1     -33.755  18.696  -4.373  1.00 20.00     0.005 C 
HETATM    6  C6  UNL     1     -34.008  16.168  -3.790  1.00 20.00     0.006 C 
HETATM    7  C7  UNL     1     -33.342  17.404  -1.620  1.00 20.00     0.093 C 
HETATM    8  C8  UNL     1     -34.214  17.299  -4.820  1.00 20.00    -0.014 C 
HETATM    9  N12 UNL     1     -31.271  18.813  -0.797  1.00 20.00    -0.197 NA
ENDROOT
BRANCH   8  10
HETATM   10  C10 UNL     1     -35.662  17.313  -5.315  1.00 20.00     0.004 C 
BRANCH  10  11
HETATM   11  C11 UNL     1     -36.142  15.904  -5.637  1.00 20.00    -0.004 C 
HETATM   12  C9  UNL     1     -35.715  15.488  -7.036  1.00 20.00     0.005 C 
ENDBRANCH  10  11
ENDBRANCH   8  10
TORSDOF 2
ENDMDL
MODEL 6
REMARK VINA RESULT:      -3.8     12.446     14.139
REMARK  2 active torsions:
REMARK  status: ('A' for Active; 'I' for Inactive)
REMARK    1  A    between atoms: C8_8  and  C10_10 
REMARK    2  A    between atoms: C10_10  and  C11_11 
ROOT
HETATM    1  C1  UNL     1     -42.042  17.314   8.077  1.00 20.00     0.064 C 
HETATM    2  C2  UNL     1     -40.892  14.424   8.568  1.00 20.00     0.002 C 
HETATM    3  C3  UNL     1     -40.340  15.550   7.694  1.00 20.00     0.019 C 
HETATM    4  C4  UNL     1     -42.402  15.838   6.119  1.00 20.00     0.019 C 
HETATM    5  C5  UNL     1     -42.135  13.702   8.057  1.00 20.00     0.005 C 
HETATM    6  C6  UNL     1     -41.991  14.472   5.572  1.00 20.00     0.006 C 
HETATM    7  C7  UNL     1     -41.364  16.496   7.051  1.00 20.00     0.093 C 
HETATM    8  C8  UNL     1     -42.144  13.307   6.572  1.00 20.00    -0.014 C 
HETATM    9  N12 UNL     1     -42.574  17.956   8.883  1.00 20.00    -0.197 NA
ENDROOT
BRANCH   8  10
HETATM   10  C10 UNL     1     -41.121  12.210   6.274  1.00 20.00     0.004 C 
BRANCH  10  11
HETATM   11  C11 UNL     1     -40.189  12.625   5.143  1.00 20.00    -0.004 C 
HETATM   12  C9  UNL     1     -38.778  12.110   5.381  1.00 20.00     0.005 C 
ENDBRANCH  10  11
ENDBRANCH   8  10
TORSDOF 2
ENDMDL
MODEL 7
REMARK VINA RESULT:      -3.7     12.814     14.520
REMARK  2 active torsions:
REMARK  status: ('A' for Active; 'I' for Inactive)
REMARK    1  A    between atoms: C8_8  and  C10_10 
REMARK    2  A    between atoms: C10_10  and  C11_11 
ROOT
HETATM    1  C1  UNL     1     -42.860  16.320   9.192  1.00 20.00     0.064 C 
HETATM    2  C2  UNL     1     -40.370  15.419   7.489  1.00 20.00     0.002 C 
HETATM    3  C3  UNL     1     -41.608  16.203   7.055  1.00 20.00     0.019 C 
HETATM    4  C4  UNL     1     -43.412  14.427   7.692  1.00 20.00     0.019 C 
HETATM    5  C5  UNL     1     -40.559  13.931   7.762  1.00 20.00     0.005 C 
HETATM    6  C6  UNL     1     -42.832  13.632   6.522  1.00 20.00     0.006 C 
HETATM    7  C7  UNL     1     -42.922  15.887   7.782  1.00 20.00     0.093 C 
HETATM    8  C8  UNL     1     -41.386  13.138   6.737  1.00 20.00    -0.014 C 
HETATM    9  N12 UNL     1     -42.811  16.661  10.300  1.00 20.00    -0.197 NA
ENDROOT
BRANCH   8  10
HETATM   10  C10 UNL     1     -40.659  13.020   5.396  1.00 20.00     0.004 C 
BRANCH  10  11
HETATM   11  C11 UNL     1     -39.522  12.010   5.479  1.00 20.00    -0.004 C 
HETATM   12  C9  UNL     1     -38.993  11.669   4.095  1.00 20.00     0.005 C 
ENDBRANCH  10  11
ENDBRANCH   8  10
TORSDOF 2
ENDMDL
MODEL 8
REMARK VINA RESULT:      -3.6     12.800     14.507
REMARK  2 active torsions:
REMARK  status: ('A' for Active; 'I' for Inactive)
REMARK    1  A    between atoms: C8_8  and  C10_10 
REMARK    2  A    between atoms: C10_10  and  C11_11 
ROOT
HETATM    1  C1  UNL     1     -42.807  15.971   9.070  1.00 20.00     0.064 C 
HETATM    2  C2  UNL     1     -43.018  13.741   6.858  1.00 20.00     0.002 C 
HETATM    3  C3  UNL     1     -42.804  13.593   8.364  1.00 20.00     0.019 C 
HETATM    4  C4  UNL     1     -40.596  14.973   8.561  1.00 20.00     0.019 C 
HETATM    5  C5  UNL     1     -41.836  14.256   6.043  1.00 20.00     0.005 C 
HETATM    6  C6  UNL     1     -39.970  13.802   7.804  1.00 20.00     0.006 C 
HETATM    7  C7  UNL     1     -42.030  14.715   9.070  1.00 20.00     0.093 C 
HETATM    8  C8  UNL     1     -40.462  13.640   6.351  1.00 20.00    -0.014 C 
HETATM    9  N12 UNL     1     -43.417  16.957   9.070  1.00 20.00    -0.197 NA
ENDROOT
BRANCH   8  10
HETATM   10  C10 UNL     1     -40.393  12.172   5.925  1.00 20.00     0.004 C 
BRANCH  10  11
HETATM   11  C11 UNL     1     -39.000  11.813   5.426  1.00 20.00    -0.004 C 
HETATM   12  C9  UNL     1     -38.981  11.670   3.912  1.00 20.00     0.005 C 
ENDBRANCH  10  11
ENDBRANCH   8  10
TORSDOF 2
ENDMDL
MODEL 9
REMARK VINA RESULT:      -3.4     12.503     13.846
REMARK  2 active torsions:
REMARK  status: ('A' for Active; 'I' for Inactive)
REMARK    1  A    between atoms: C8_8  and  C10_10 
REMARK    2  A    between atoms: C10_10  and  C11_11 
ROOT
HETATM    1  C1  UNL     1     -42.546  14.676   4.126  1.00 20.00     0.064 C 
HETATM    2  C2  UNL     1     -41.415  12.938   6.495  1.00 20.00     0.002 C 
HETATM    3  C3  UNL     1     -42.804  13.552   6.322  1.00 20.00     0.019 C 
HETATM    4  C4  UNL     1     -42.081  16.054   6.132  1.00 20.00     0.019 C 
HETATM    5  C5  UNL     1     -40.275  13.897   6.825  1.00 20.00     0.005 C 
HETATM    6  C6  UNL     1     -41.729  15.912   7.613  1.00 20.00     0.006 C 
HETATM    7  C7  UNL     1     -42.888  14.876   5.548  1.00 20.00     0.093 C 
HETATM    8  C8  UNL     1     -40.553  14.957   7.904  1.00 20.00    -0.014 C 
HETATM    9  N12 UNL     1     -42.278  14.518   3.008  1.00 20.00    -0.197 NA
ENDROOT
BRANCH   8  10
HETATM   10  C10 UNL     1     -40.709  14.324   9.288  1.00 20.00     0.004 C 
BRANCH  10  11
HETATM   11  C11 UNL     1     -42.071  14.650   9.886  1.00 20.00    -0.004 C 
HETATM   12  C9  UNL     1     -42.894  13.388  10.089  1.00 20.00     0.005 C 
ENDBRANCH  10  11
ENDBRANCH   8  10
TORSDOF 2
ENDMDL
