MODEL 1
REMARK VINA RESULT:      -3.6      0.000      0.000
REMARK  1 active torsions:
REMARK  status: ('A' for Active; 'I' for Inactive)
REMARK    1  A    between atoms: C4_4  and  C9_9 
ROOT
HETATM    1  C5  UNL     1     -34.007  14.857  -4.890  1.00 20.00     0.002 C 
HETATM    2  C6  UNL     1     -34.354  15.852  -6.002  1.00 20.00     0.009 C 
HETATM    3  C7  UNL     1     -33.160  15.489  -3.791  1.00 20.00     0.020 C 
HETATM    4  C8  UNL     1     -34.071  17.763  -4.376  1.00 20.00     0.029 C 
HETATM    5  C9  UNL     1     -34.960  17.182  -5.499  1.00 20.00     0.020 C 
HETATM    6  C10 UNL     1     -33.818  16.756  -3.252  1.00 20.00     0.083 C 
HETATM    7 CL12 UNL     1     -32.769  17.493  -2.006  1.00 20.00    -0.125 Cl
ENDROOT
BRANCH   5   8
HETATM    8  C4  UNL     1     -36.441  17.172  -5.126  1.00 20.00    -0.047 A 
HETATM    9  C1  UNL     1     -37.056  18.147  -4.288  1.00 20.00     0.015 A 
HETATM   10  C2  UNL     1     -38.400  17.904  -4.111  1.00 20.00     0.050 A 
HETATM   11  S11 UNL     1     -38.916  16.505  -4.952  1.00 20.00    -0.113 SA
HETATM   12  C3  UNL     1     -37.339  16.221  -5.556  1.00 20.00     0.057 A 
ENDBRANCH   5   8
TORSDOF 1
ENDMDL
MODEL 2
REMARK VINA RESULT:      -3.3      3.136      4.382
REMARK  1 active torsions:
REMARK  status: ('A' for Active; 'I' for Inactive)
REMARK    1  A    between atoms: C4_4  and  C9_9 
ROOT
HETATM    1  C5  UNL     1     -34.414  16.261  -7.699  1.00 20.00     0.002 C 
HETATM    2  C6  UNL     1     -34.015  15.171  -6.699  1.00 20.00     0.009 C 
HETATM    3  C7  UNL     1     -35.925  16.417  -7.814  1.00 20.00     0.020 C 
HETATM    4  C8  UNL     1     -36.215  15.474  -5.496  1.00 20.00     0.029 C 
HETATM    5  C9  UNL     1     -34.689  15.300  -5.314  1.00 20.00     0.020 C 
HETATM    6  C10 UNL     1     -36.562  16.625  -6.442  1.00 20.00     0.083 C 
HETATM    7 CL12 UNL     1     -38.337  16.749  -6.617  1.00 20.00    -0.125 Cl
ENDROOT
BRANCH   5   8
HETATM    8  C4  UNL     1     -34.096  16.322  -4.346  1.00 20.00    -0.047 A 
HETATM    9  C1  UNL     1     -33.585  15.992  -3.057  1.00 20.00     0.015 A 
HETATM   10  C2  UNL     1     -33.110  17.100  -2.390  1.00 20.00     0.050 A 
HETATM   11  S11 UNL     1     -33.282  18.530  -3.316  1.00 20.00    -0.113 SA
HETATM   12  C3  UNL     1     -33.993  17.669  -4.614  1.00 20.00     0.057 A 
ENDBRANCH   5   8
TORSDOF 1
ENDMDL
MODEL 3
REMARK VINA RESULT:      -3.3     25.191     26.564
REMARK  1 active torsions:
REMARK  status: ('A' for Active; 'I' for Inactive)
REMARK    1  A    between atoms: C4_4  and  C9_9 
ROOT
HETATM    1  C5  UNL     1     -28.537  -1.001  12.294  1.00 20.00     0.002 C 
HETATM    2  C6  UNL     1     -27.883  -0.579  10.975  1.00 20.00     0.009 C 
HETATM    3  C7  UNL     1     -29.465  -2.198  12.125  1.00 20.00     0.020 C 
HETATM    4  C8  UNL     1     -28.181  -2.923  10.082  1.00 20.00     0.029 C 
HETATM    5  C9  UNL     1     -27.200  -1.734  10.205  1.00 20.00     0.020 C 
HETATM    6  C10 UNL     1     -28.746  -3.356  11.436  1.00 20.00     0.083 C 
HETATM    7 CL12 UNL     1     -29.883  -4.717  11.210  1.00 20.00    -0.125 Cl
ENDROOT
BRANCH   5   8
HETATM    8  C4  UNL     1     -25.816  -2.165  10.686  1.00 20.00    -0.047 A 
HETATM    9  C1  UNL     1     -25.154  -1.596  11.812  1.00 20.00     0.015 A 
HETATM   10  C2  UNL     1     -23.918  -2.165  12.027  1.00 20.00     0.050 A 
HETATM   11  S11 UNL     1     -23.560  -3.378  10.873  1.00 20.00    -0.113 SA
HETATM   12  C3  UNL     1     -25.061  -3.145  10.082  1.00 20.00     0.057 A 
ENDBRANCH   5   8
TORSDOF 1
ENDMDL
MODEL 4
REMARK VINA RESULT:      -3.3      1.518      2.026
REMARK  1 active torsions:
REMARK  status: ('A' for Active; 'I' for Inactive)
REMARK    1  A    between atoms: C4_4  and  C9_9 
ROOT
HETATM    1  C5  UNL     1     -33.630  16.523  -3.691  1.00 20.00     0.002 C 
HETATM    2  C6  UNL     1     -33.963  17.790  -4.485  1.00 20.00     0.009 C 
HETATM    3  C7  UNL     1     -33.095  16.836  -2.299  1.00 20.00     0.020 C 
HETATM    4  C8  UNL     1     -34.284  19.056  -2.323  1.00 20.00     0.029 C 
HETATM    5  C9  UNL     1     -34.866  18.793  -3.732  1.00 20.00     0.020 C 
HETATM    6  C10 UNL     1     -34.043  17.763  -1.542  1.00 20.00     0.083 C 
HETATM    7 CL12 UNL     1     -33.352  18.147   0.062  1.00 20.00    -0.125 Cl
ENDROOT
BRANCH   5   8
HETATM    8  C4  UNL     1     -36.363  18.491  -3.699  1.00 20.00    -0.047 A 
HETATM    9  C1  UNL     1     -37.239  18.928  -2.663  1.00 20.00     0.015 A 
HETATM   10  C2  UNL     1     -38.537  18.518  -2.876  1.00 20.00     0.050 A 
HETATM   11  S11 UNL     1     -38.695  17.609  -4.319  1.00 20.00    -0.113 SA
HETATM   12  C3  UNL     1     -37.025  17.763  -4.663  1.00 20.00     0.057 A 
ENDBRANCH   5   8
TORSDOF 1
ENDMDL
MODEL 5
REMARK VINA RESULT:      -3.2     11.108     12.528
REMARK  1 active torsions:
REMARK  status: ('A' for Active; 'I' for Inactive)
REMARK    1  A    between atoms: C4_4  and  C9_9 
ROOT
HETATM    1  C5  UNL     1     -41.260  15.346   7.955  1.00 20.00     0.002 C 
HETATM    2  C6  UNL     1     -42.700  15.045   7.527  1.00 20.00     0.009 C 
HETATM    3  C7  UNL     1     -40.349  14.133   7.817  1.00 20.00     0.020 C 
HETATM    4  C8  UNL     1     -41.866  13.176   6.048  1.00 20.00     0.029 C 
HETATM    5  C9  UNL     1     -42.825  14.385   6.135  1.00 20.00     0.020 C 
HETATM    6  C10 UNL     1     -40.426  13.546   6.410  1.00 20.00     0.083 C 
HETATM    7 CL12 UNL     1     -39.385  12.096   6.307  1.00 20.00    -0.125 Cl
ENDROOT
BRANCH   5   8
HETATM    8  C4  UNL     1     -42.718  15.305   4.920  1.00 20.00    -0.047 A 
HETATM    9  C1  UNL     1     -42.454  14.845   3.597  1.00 20.00     0.015 A 
HETATM   10  C2  UNL     1     -42.408  15.880   2.689  1.00 20.00     0.050 A 
HETATM   11  S11 UNL     1     -42.681  17.399   3.432  1.00 20.00    -0.113 SA
HETATM   12  C3  UNL     1     -42.863  16.673   4.972  1.00 20.00     0.057 A 
ENDBRANCH   5   8
TORSDOF 1
ENDMDL
MODEL 6
REMARK VINA RESULT:      -3.2     12.489     13.697
REMARK  1 active torsions:
REMARK  status: ('A' for Active; 'I' for Inactive)
REMARK    1  A    between atoms: C4_4  and  C9_9 
ROOT
HETATM    1  C5  UNL     1     -40.754  16.523   7.449  1.00 20.00     0.002 C 
HETATM    2  C6  UNL     1     -41.874  15.698   6.807  1.00 20.00     0.009 C 
HETATM    3  C7  UNL     1     -40.641  16.279   8.949  1.00 20.00     0.020 C 
HETATM    4  C8  UNL     1     -41.692  14.006   8.673  1.00 20.00     0.029 C 
HETATM    5  C9  UNL     1     -41.826  14.190   7.143  1.00 20.00     0.020 C 
HETATM    6  C10 UNL     1     -40.512  14.788   9.254  1.00 20.00     0.083 C 
HETATM    7 CL12 UNL     1     -40.437  14.542  11.023  1.00 20.00    -0.125 Cl
ENDROOT
BRANCH   5   8
HETATM    8  C4  UNL     1     -40.829  13.336   6.363  1.00 20.00    -0.047 A 
HETATM    9  C1  UNL     1     -39.767  12.603   6.967  1.00 20.00     0.015 A 
HETATM   10  C2  UNL     1     -39.016  11.918   6.036  1.00 20.00     0.050 A 
HETATM   11  S11 UNL     1     -39.591  12.163   4.442  1.00 20.00    -0.113 SA
HETATM   12  C3  UNL     1     -40.848  13.186   4.994  1.00 20.00     0.057 A 
ENDBRANCH   5   8
TORSDOF 1
ENDMDL
MODEL 7
REMARK VINA RESULT:      -3.1     11.122     12.444
REMARK  1 active torsions:
REMARK  status: ('A' for Active; 'I' for Inactive)
REMARK    1  A    between atoms: C4_4  and  C9_9 
ROOT
HETATM    1  C5  UNL     1     -40.860  15.233   7.808  1.00 20.00     0.002 C 
HETATM    2  C6  UNL     1     -42.370  15.137   7.567  1.00 20.00     0.009 C 
HETATM    3  C7  UNL     1     -40.156  13.896   7.609  1.00 20.00     0.020 C 
HETATM    4  C8  UNL     1     -42.002  13.135   6.073  1.00 20.00     0.029 C 
HETATM    5  C9  UNL     1     -42.760  14.474   6.226  1.00 20.00     0.020 C 
HETATM    6  C10 UNL     1     -40.490  13.297   6.244  1.00 20.00     0.083 C 
HETATM    7 CL12 UNL     1     -39.688  11.709   6.074  1.00 20.00    -0.125 Cl
ENDROOT
BRANCH   5   8
HETATM    8  C4  UNL     1     -42.674  15.341   4.973  1.00 20.00    -0.047 A 
HETATM    9  C1  UNL     1     -42.699  16.766   4.989  1.00 20.00     0.015 A 
HETATM   10  C2  UNL     1     -42.608  17.300   3.722  1.00 20.00     0.050 A 
HETATM   11  S11 UNL     1     -42.493  16.086   2.520  1.00 20.00    -0.113 SA
HETATM   12  C3  UNL     1     -42.565  14.841   3.694  1.00 20.00     0.057 A 
ENDBRANCH   5   8
TORSDOF 1
ENDMDL
MODEL 8
REMARK VINA RESULT:      -3.1     25.408     27.034
REMARK  1 active torsions:
REMARK  status: ('A' for Active; 'I' for Inactive)
REMARK    1  A    between atoms: C4_4  and  C9_9 
ROOT
HETATM    1  C5  UNL     1     -23.163  -3.530  12.203  1.00 20.00     0.002 C 
HETATM    2  C6  UNL     1     -24.539  -4.202  12.191  1.00 20.00     0.009 C 
HETATM    3  C7  UNL     1     -22.418  -3.712  10.886  1.00 20.00     0.020 C 
HETATM    4  C8  UNL     1     -24.606  -4.015   9.674  1.00 20.00     0.029 C 
HETATM    5  C9  UNL     1     -25.419  -3.829  10.976  1.00 20.00     0.020 C 
HETATM    6  C10 UNL     1     -23.274  -3.261   9.705  1.00 20.00     0.083 C 
HETATM    7 CL12 UNL     1     -22.386  -3.540   8.179  1.00 20.00    -0.125 Cl
ENDROOT
BRANCH   5   8
HETATM    8  C4  UNL     1     -26.140  -2.484  11.028  1.00 20.00    -0.047 A 
HETATM    9  C1  UNL     1     -25.863  -1.470  11.990  1.00 20.00     0.015 A 
HETATM   10  C2  UNL     1     -26.656  -0.358  11.813  1.00 20.00     0.050 A 
HETATM   11  S11 UNL     1     -27.731  -0.539  10.492  1.00 20.00    -0.113 SA
HETATM   12  C3  UNL     1     -27.136  -2.108  10.153  1.00 20.00     0.057 A 
ENDBRANCH   5   8
TORSDOF 1
ENDMDL
MODEL 9
REMARK VINA RESULT:      -3.1     11.788     13.156
REMARK  1 active torsions:
REMARK  status: ('A' for Active; 'I' for Inactive)
REMARK    1  A    between atoms: C4_4  and  C9_9 
ROOT
HETATM    1  C5  UNL     1     -43.116  14.712   5.812  1.00 20.00     0.002 C 
HETATM    2  C6  UNL     1     -42.919  13.436   6.636  1.00 20.00     0.009 C 
HETATM    3  C7  UNL     1     -42.647  15.959   6.553  1.00 20.00     0.020 C 
HETATM    4  C8  UNL     1     -41.067  14.562   7.932  1.00 20.00     0.029 C 
HETATM    5  C9  UNL     1     -41.494  13.263   7.210  1.00 20.00     0.020 C 
HETATM    6  C10 UNL     1     -41.209  15.798   7.041  1.00 20.00     0.083 C 
HETATM    7 CL12 UNL     1     -40.717  17.257   7.949  1.00 20.00    -0.125 Cl
ENDROOT
BRANCH   5   8
HETATM    8  C4  UNL     1     -40.420  12.743   6.257  1.00 20.00    -0.047 A 
HETATM    9  C1  UNL     1     -39.116  12.345   6.670  1.00 20.00     0.015 A 
HETATM   10  C2  UNL     1     -38.345  11.918   5.611  1.00 20.00     0.050 A 
HETATM   11  S11 UNL     1     -39.193  11.999   4.126  1.00 20.00    -0.113 SA
HETATM   12  C3  UNL     1     -40.596  12.606   4.898  1.00 20.00     0.057 A 
ENDBRANCH   5   8
TORSDOF 1
ENDMDL
