MODEL 1
REMARK VINA RESULT:      -4.4      0.000      0.000
REMARK  1 active torsions:
REMARK  status: ('A' for Active; 'I' for Inactive)
REMARK    1  A    between atoms: C3_3  and  C8_8 
ROOT
HETATM    1  C1  UNL     1     -31.064  18.377  -0.033  1.00 20.00     0.022 A 
HETATM    2  C2  UNL     1     -33.340  18.821   0.134  1.00 20.00     0.057 A 
HETATM    3  C3  UNL     1     -32.331  18.365  -0.685  1.00 20.00    -0.046 A 
HETATM    4  C4  UNL     1     -31.153  18.843   1.261  1.00 20.00    -0.021 A 
HETATM    5  C10 UNL     1     -30.071  19.008   2.256  1.00 20.00     0.056 C 
HETATM    6  S11 UNL     1     -32.758  19.263   1.683  1.00 20.00    -0.106 SA
ENDROOT
BRANCH   3   7
HETATM    7  C8  UNL     1     -32.541  17.904  -2.108  1.00 20.00     0.020 C 
HETATM    8  C5  UNL     1     -33.486  16.704  -2.235  1.00 20.00     0.010 C 
HETATM    9  C6  UNL     1     -33.973  16.788  -3.677  1.00 20.00     0.016 C 
HETATM   10  C9  UNL     1     -34.168  18.277  -3.911  1.00 20.00     0.058 C 
HETATM   11  C7  UNL     1     -33.115  18.981  -3.055  1.00 20.00     0.025 C 
HETATM   12 BR12 UNL     1     -35.963  18.813  -3.345  1.00 20.00    -0.091 Br
ENDBRANCH   3   7
TORSDOF 1
ENDMDL
MODEL 2
REMARK VINA RESULT:      -4.2      2.164      2.963
REMARK  1 active torsions:
REMARK  status: ('A' for Active; 'I' for Inactive)
REMARK    1  A    between atoms: C3_3  and  C8_8 
ROOT
HETATM    1  C1  UNL     1     -33.049  17.546  -1.488  1.00 20.00     0.022 A 
HETATM    2  C2  UNL     1     -34.882  18.494  -2.559  1.00 20.00     0.057 A 
HETATM    3  C3  UNL     1     -33.820  17.626  -2.684  1.00 20.00    -0.046 A 
HETATM    4  C4  UNL     1     -33.552  18.357  -0.494  1.00 20.00    -0.021 A 
HETATM    5  C10 UNL     1     -33.041  18.554   0.880  1.00 20.00     0.056 C 
HETATM    6  S11 UNL     1     -34.947  19.209  -1.005  1.00 20.00    -0.106 SA
ENDROOT
BRANCH   3   7
HETATM    7  C8  UNL     1     -33.507  16.848  -3.941  1.00 20.00     0.020 C 
HETATM    8  C5  UNL     1     -33.721  15.337  -3.800  1.00 20.00     0.010 C 
HETATM    9  C6  UNL     1     -33.901  14.870  -5.240  1.00 20.00     0.016 C 
HETATM   10  C9  UNL     1     -34.733  15.970  -5.880  1.00 20.00     0.058 C 
HETATM   11  C7  UNL     1     -34.330  17.267  -5.178  1.00 20.00     0.025 C 
HETATM   12 BR12 UNL     1     -36.637  15.617  -5.598  1.00 20.00    -0.091 Br
ENDBRANCH   3   7
TORSDOF 1
ENDMDL
MODEL 3
REMARK VINA RESULT:      -4.1      1.269      2.006
REMARK  1 active torsions:
REMARK  status: ('A' for Active; 'I' for Inactive)
REMARK    1  A    between atoms: C3_3  and  C8_8 
ROOT
HETATM    1  C1  UNL     1     -34.087  18.348  -0.375  1.00 20.00     0.022 A 
HETATM    2  C2  UNL     1     -31.767  18.482  -0.309  1.00 20.00     0.057 A 
HETATM    3  C3  UNL     1     -32.861  18.115  -1.061  1.00 20.00    -0.046 A 
HETATM    4  C4  UNL     1     -33.884  18.884   0.879  1.00 20.00    -0.021 A 
HETATM    5  C10 UNL     1     -34.893  19.263   1.892  1.00 20.00     0.056 C 
HETATM    6  S11 UNL     1     -32.221  19.104   1.221  1.00 20.00    -0.106 SA
ENDROOT
BRANCH   3   7
HETATM    7  C8  UNL     1     -32.772  17.535  -2.453  1.00 20.00     0.020 C 
HETATM    8  C5  UNL     1     -33.602  16.261  -2.645  1.00 20.00     0.010 C 
HETATM    9  C6  UNL     1     -33.814  16.199  -4.153  1.00 20.00     0.016 C 
HETATM   10  C9  UNL     1     -34.051  17.648  -4.548  1.00 20.00     0.058 C 
HETATM   11  C7  UNL     1     -33.222  18.491  -3.579  1.00 20.00     0.025 C 
HETATM   12 BR12 UNL     1     -35.949  18.088  -4.367  1.00 20.00    -0.091 Br
ENDBRANCH   3   7
TORSDOF 1
ENDMDL
MODEL 4
REMARK VINA RESULT:      -3.9      3.334      5.922
REMARK  1 active torsions:
REMARK  status: ('A' for Active; 'I' for Inactive)
REMARK    1  A    between atoms: C3_3  and  C8_8 
ROOT
HETATM    1  C1  UNL     1     -35.146  17.145  -4.728  1.00 20.00     0.022 A 
HETATM    2  C2  UNL     1     -33.927  15.172  -4.574  1.00 20.00     0.057 A 
HETATM    3  C3  UNL     1     -34.046  16.468  -4.126  1.00 20.00    -0.046 A 
HETATM    4  C4  UNL     1     -35.826  16.339  -5.615  1.00 20.00    -0.021 A 
HETATM    5  C10 UNL     1     -37.012  16.668  -6.434  1.00 20.00     0.056 C 
HETATM    6  S11 UNL     1     -35.138  14.774  -5.717  1.00 20.00    -0.106 SA
ENDROOT
BRANCH   3   7
HETATM    7  C8  UNL     1     -33.120  17.101  -3.113  1.00 20.00     0.020 C 
HETATM    8  C5  UNL     1     -32.899  18.602  -3.332  1.00 20.00     0.010 C 
HETATM    9  C6  UNL     1     -32.450  19.097  -1.963  1.00 20.00     0.016 C 
HETATM   10  C9  UNL     1     -33.320  18.319  -0.988  1.00 20.00     0.058 C 
HETATM   11  C7  UNL     1     -33.581  16.963  -1.646  1.00 20.00     0.025 C 
HETATM   12 BR12 UNL     1     -35.009  19.263  -0.701  1.00 20.00    -0.091 Br
ENDBRANCH   3   7
TORSDOF 1
ENDMDL
MODEL 5
REMARK VINA RESULT:      -3.9      2.285      3.439
REMARK  1 active torsions:
REMARK  status: ('A' for Active; 'I' for Inactive)
REMARK    1  A    between atoms: C3_3  and  C8_8 
ROOT
HETATM    1  C1  UNL     1     -33.667  16.860  -1.918  1.00 20.00     0.022 A 
HETATM    2  C2  UNL     1     -32.919  18.421  -3.469  1.00 20.00     0.057 A 
HETATM    3  C3  UNL     1     -33.413  17.148  -3.290  1.00 20.00    -0.046 A 
HETATM    4  C4  UNL     1     -33.357  17.924  -1.100  1.00 20.00    -0.021 A 
HETATM    5  C10 UNL     1     -33.477  18.020   0.371  1.00 20.00     0.056 C 
HETATM    6  S11 UNL     1     -32.762  19.263  -1.986  1.00 20.00    -0.106 SA
ENDROOT
BRANCH   3   7
HETATM    7  C8  UNL     1     -33.659  16.171  -4.416  1.00 20.00     0.020 C 
HETATM    8  C5  UNL     1     -34.403  14.903  -3.981  1.00 20.00     0.010 C 
HETATM    9  C6  UNL     1     -35.010  14.387  -5.280  1.00 20.00     0.016 C 
HETATM   10  C9  UNL     1     -35.463  15.648  -5.999  1.00 20.00     0.058 C 
HETATM   11  C7  UNL     1     -34.474  16.741  -5.597  1.00 20.00     0.025 C 
HETATM   12 BR12 UNL     1     -37.270  16.131  -5.425  1.00 20.00    -0.091 Br
ENDBRANCH   3   7
TORSDOF 1
ENDMDL
MODEL 6
REMARK VINA RESULT:      -3.7      2.699      3.993
REMARK  1 active torsions:
REMARK  status: ('A' for Active; 'I' for Inactive)
REMARK    1  A    between atoms: C3_3  and  C8_8 
ROOT
HETATM    1  C1  UNL     1     -33.581  16.750  -2.013  1.00 20.00     0.022 A 
HETATM    2  C2  UNL     1     -33.435  18.056  -3.931  1.00 20.00     0.057 A 
HETATM    3  C3  UNL     1     -33.796  16.829  -3.419  1.00 20.00    -0.046 A 
HETATM    4  C4  UNL     1     -33.063  17.920  -1.503  1.00 20.00    -0.021 A 
HETATM    5  C10 UNL     1     -32.704  18.234  -0.102  1.00 20.00     0.056 C 
HETATM    6  S11 UNL     1     -32.840  19.106  -2.717  1.00 20.00    -0.106 SA
ENDROOT
BRANCH   3   7
HETATM    7  C8  UNL     1     -34.354  15.698  -4.251  1.00 20.00     0.020 C 
HETATM    8  C5  UNL     1     -35.707  16.017  -4.897  1.00 20.00     0.010 C 
HETATM    9  C6  UNL     1     -35.781  15.041  -6.064  1.00 20.00     0.016 C 
HETATM   10  C9  UNL     1     -34.362  15.018  -6.612  1.00 20.00     0.058 C 
HETATM   11  C7  UNL     1     -33.443  15.241  -5.411  1.00 20.00     0.025 C 
HETATM   12 BR12 UNL     1     -34.126  16.457  -7.916  1.00 20.00    -0.091 Br
ENDBRANCH   3   7
TORSDOF 1
ENDMDL
MODEL 7
REMARK VINA RESULT:      -3.5      3.098      5.101
REMARK  1 active torsions:
REMARK  status: ('A' for Active; 'I' for Inactive)
REMARK    1  A    between atoms: C3_3  and  C8_8 
ROOT
HETATM    1  C1  UNL     1     -33.353  16.459  -2.590  1.00 20.00     0.022 A 
HETATM    2  C2  UNL     1     -34.581  18.083  -3.712  1.00 20.00     0.057 A 
HETATM    3  C3  UNL     1     -33.884  17.780  -2.563  1.00 20.00    -0.046 A 
HETATM    4  C4  UNL     1     -33.664  15.800  -3.760  1.00 20.00    -0.021 A 
HETATM    5  C10 UNL     1     -33.301  14.425  -4.166  1.00 20.00     0.056 C 
HETATM    6  S11 UNL     1     -34.592  16.775  -4.818  1.00 20.00    -0.106 SA
ENDROOT
BRANCH   3   7
HETATM    7  C8  UNL     1     -33.704  18.737  -1.408  1.00 20.00     0.020 C 
HETATM    8  C5  UNL     1     -34.095  18.146  -0.049  1.00 20.00     0.010 C 
HETATM    9  C6  UNL     1     -33.332  19.011   0.946  1.00 20.00     0.016 C 
HETATM   10  C9  UNL     1     -31.986  19.240   0.276  1.00 20.00     0.058 C 
HETATM   11  C7  UNL     1     -32.263  19.263  -1.228  1.00 20.00     0.025 C 
HETATM   12 BR12 UNL     1     -30.764  17.776   0.712  1.00 20.00    -0.091 Br
ENDBRANCH   3   7
TORSDOF 1
ENDMDL
MODEL 8
REMARK VINA RESULT:      -3.4     24.373     25.660
REMARK  1 active torsions:
REMARK  status: ('A' for Active; 'I' for Inactive)
REMARK    1  A    between atoms: C3_3  and  C8_8 
ROOT
HETATM    1  C1  UNL     1     -24.524  -2.861   9.830  1.00 20.00     0.022 A 
HETATM    2  C2  UNL     1     -23.386  -3.581  11.725  1.00 20.00     0.057 A 
HETATM    3  C3  UNL     1     -24.479  -2.888  11.254  1.00 20.00    -0.046 A 
HETATM    4  C4  UNL     1     -23.462  -3.535   9.267  1.00 20.00    -0.021 A 
HETATM    5  C10 UNL     1     -23.153  -3.731   7.834  1.00 20.00     0.056 C 
HETATM    6  S11 UNL     1     -22.419  -4.195  10.453  1.00 20.00    -0.106 SA
ENDROOT
BRANCH   3   7
HETATM    7  C8  UNL     1     -25.512  -2.234  12.142  1.00 20.00     0.020 C 
HETATM    8  C5  UNL     1     -25.912  -0.825  11.688  1.00 20.00     0.010 C 
HETATM    9  C6  UNL     1     -27.278  -0.621  12.332  1.00 20.00     0.016 C 
HETATM   10  C9  UNL     1     -27.955  -1.975  12.192  1.00 20.00     0.058 C 
HETATM   11  C7  UNL     1     -26.837  -3.015  12.271  1.00 20.00     0.025 C 
HETATM   12 BR12 UNL     1     -28.862  -2.093  10.463  1.00 20.00    -0.091 Br
ENDBRANCH   3   7
TORSDOF 1
ENDMDL
MODEL 9
REMARK VINA RESULT:      -3.3     24.369     25.606
REMARK  1 active torsions:
REMARK  status: ('A' for Active; 'I' for Inactive)
REMARK    1  A    between atoms: C3_3  and  C8_8 
ROOT
HETATM    1  C1  UNL     1     -27.076  -3.042  10.978  1.00 20.00     0.022 A 
HETATM    2  C2  UNL     1     -26.056  -1.129  11.816  1.00 20.00     0.057 A 
HETATM    3  C3  UNL     1     -25.859  -2.422  11.383  1.00 20.00    -0.046 A 
HETATM    4  C4  UNL     1     -28.157  -2.200  11.117  1.00 20.00    -0.021 A 
HETATM    5  C10 UNL     1     -29.579  -2.468  10.809  1.00 20.00     0.056 C 
HETATM    6  S11 UNL     1     -27.703  -0.669  11.733  1.00 20.00    -0.106 SA
ENDROOT
BRANCH   3   7
HETATM    7  C8  UNL     1     -24.511  -3.103  11.341  1.00 20.00     0.020 C 
HETATM    8  C5  UNL     1     -24.548  -4.507  10.727  1.00 20.00     0.010 C 
HETATM    9  C6  UNL     1     -23.109  -4.737  10.284  1.00 20.00     0.016 C 
HETATM   10  C9  UNL     1     -22.674  -3.387   9.735  1.00 20.00     0.058 C 
HETATM   11  C7  UNL     1     -23.428  -2.337  10.552  1.00 20.00     0.025 C 
HETATM   12 BR12 UNL     1     -23.163  -3.246   7.846  1.00 20.00    -0.091 Br
ENDBRANCH   3   7
TORSDOF 1
ENDMDL
