MODEL 1
REMARK VINA RESULT:      -4.1      0.000      0.000
REMARK  1 active torsions:
REMARK  status: ('A' for Active; 'I' for Inactive)
REMARK    1  A    between atoms: C7_7  and  C11_11 
ROOT
HETATM    1  C1  UNL     1     -33.542   5.647   2.761  1.00 20.00     0.004 C 
HETATM    2  C2  UNL     1     -32.164   6.307   2.808  1.00 20.00     0.005 C 
HETATM    3  C3  UNL     1     -32.728   8.300   4.350  1.00 20.00     0.008 C 
HETATM    4  C4  UNL     1     -34.104   5.276   4.130  1.00 20.00     0.040 C 
HETATM    5  C5  UNL     1     -34.139   7.817   4.684  1.00 20.00     0.041 C 
HETATM    6  C6  UNL     1     -33.736   6.080   6.575  1.00 20.00     0.207 A 
HETATM    7  C7  UNL     1     -32.159   7.833   3.001  1.00 20.00    -0.011 C 
HETATM    8  C8  UNL     1     -34.142   6.385   5.144  1.00 20.00     0.082 A 
HETATM    9  O12 UNL     1     -35.108   6.136   6.186  1.00 20.00    -0.375 OA
ENDROOT
BRANCH   7  10
HETATM   10  C11 UNL     1     -32.814   8.570   1.828  1.00 20.00    -0.019 C 
HETATM   11  C9  UNL     1     -32.921  10.060   2.132  1.00 20.00     0.010 C 
HETATM   12  C10 UNL     1     -32.023   8.333   0.547  1.00 20.00     0.010 C 
ENDBRANCH   7  10
TORSDOF 1
ENDMDL
MODEL 2
REMARK VINA RESULT:      -3.5     11.384     13.000
REMARK  1 active torsions:
REMARK  status: ('A' for Active; 'I' for Inactive)
REMARK    1  A    between atoms: C7_7  and  C11_11 
ROOT
HETATM    1  C1  UNL     1     -33.783  15.588  -3.380  1.00 20.00     0.004 C 
HETATM    2  C2  UNL     1     -33.586  15.843  -4.874  1.00 20.00     0.005 C 
HETATM    3  C3  UNL     1     -34.837  18.094  -5.063  1.00 20.00     0.008 C 
HETATM    4  C4  UNL     1     -33.259  16.704  -2.481  1.00 20.00     0.040 C 
HETATM    5  C5  UNL     1     -35.044  18.260  -3.557  1.00 20.00     0.041 C 
HETATM    6  C6  UNL     1     -32.775  19.244  -2.756  1.00 20.00     0.207 A 
HETATM    7  C7  UNL     1     -34.698  16.649  -5.567  1.00 20.00    -0.011 C 
HETATM    8  C8  UNL     1     -33.757  18.086  -2.798  1.00 20.00     0.082 A 
HETATM    9  O12 UNL     1     -33.655  18.973  -1.664  1.00 20.00    -0.375 OA
ENDROOT
BRANCH   7  10
HETATM   10  C11 UNL     1     -36.044  15.916  -5.554  1.00 20.00    -0.019 C 
HETATM   11  C9  UNL     1     -37.091  16.717  -6.319  1.00 20.00     0.010 C 
HETATM   12  C10 UNL     1     -35.891  14.519  -6.145  1.00 20.00     0.010 C 
ENDBRANCH   7  10
TORSDOF 1
ENDMDL
MODEL 3
REMARK VINA RESULT:      -3.4     11.563     13.832
REMARK  1 active torsions:
REMARK  status: ('A' for Active; 'I' for Inactive)
REMARK    1  A    between atoms: C7_7  and  C11_11 
ROOT
HETATM    1  C1  UNL     1     -36.492  17.861  -4.181  1.00 20.00     0.004 C 
HETATM    2  C2  UNL     1     -35.067  18.120  -4.669  1.00 20.00     0.005 C 
HETATM    3  C3  UNL     1     -34.804  16.080  -6.230  1.00 20.00     0.008 C 
HETATM    4  C4  UNL     1     -37.527  17.755  -5.297  1.00 20.00     0.040 C 
HETATM    5  C5  UNL     1     -36.263  15.635  -6.118  1.00 20.00     0.041 C 
HETATM    6  C6  UNL     1     -37.479  17.167  -7.830  1.00 20.00     0.207 A 
HETATM    7  C7  UNL     1     -34.249  16.869  -5.035  1.00 20.00    -0.011 C 
HETATM    8  C8  UNL     1     -37.212  16.770  -6.389  1.00 20.00     0.082 A 
HETATM    9  O12 UNL     1     -38.394  16.351  -7.100  1.00 20.00    -0.375 OA
ENDROOT
BRANCH   7  10
HETATM   10  C11 UNL     1     -34.000  15.962  -3.826  1.00 20.00    -0.019 C 
HETATM   11  C9  UNL     1     -33.194  14.737  -4.240  1.00 20.00     0.010 C 
HETATM   12  C10 UNL     1     -33.286  16.734  -2.723  1.00 20.00     0.010 C 
ENDBRANCH   7  10
TORSDOF 1
ENDMDL
MODEL 4
REMARK VINA RESULT:      -3.3     11.415     12.971
REMARK  1 active torsions:
REMARK  status: ('A' for Active; 'I' for Inactive)
REMARK    1  A    between atoms: C7_7  and  C11_11 
ROOT
HETATM    1  C1  UNL     1     -33.029  15.034  -4.296  1.00 20.00     0.004 C 
HETATM    2  C2  UNL     1     -33.908  15.530  -3.147  1.00 20.00     0.005 C 
HETATM    3  C3  UNL     1     -34.948  17.592  -4.302  1.00 20.00     0.008 C 
HETATM    4  C4  UNL     1     -33.790  14.746  -5.586  1.00 20.00     0.040 C 
HETATM    5  C5  UNL     1     -34.369  17.280  -5.682  1.00 20.00     0.041 C 
HETATM    6  C6  UNL     1     -36.036  15.530  -6.639  1.00 20.00     0.207 A 
HETATM    7  C7  UNL     1     -34.157  17.048  -3.103  1.00 20.00    -0.011 C 
HETATM    8  C8  UNL     1     -34.656  15.864  -6.098  1.00 20.00     0.082 A 
HETATM    9  O12 UNL     1     -34.924  15.740  -7.510  1.00 20.00    -0.375 OA
ENDROOT
BRANCH   7  10
HETATM   10  C11 UNL     1     -32.868  17.843  -2.870  1.00 20.00    -0.019 C 
HETATM   11  C9  UNL     1     -33.016  19.262  -3.405  1.00 20.00     0.010 C 
HETATM   12  C10 UNL     1     -32.516  17.856  -1.387  1.00 20.00     0.010 C 
ENDBRANCH   7  10
TORSDOF 1
ENDMDL
MODEL 5
REMARK VINA RESULT:      -3.2     11.546     13.172
REMARK  1 active torsions:
REMARK  status: ('A' for Active; 'I' for Inactive)
REMARK    1  A    between atoms: C7_7  and  C11_11 
ROOT
HETATM    1  C1  UNL     1     -34.548  19.060  -4.438  1.00 20.00     0.004 C 
HETATM    2  C2  UNL     1     -35.644  18.011  -4.626  1.00 20.00     0.005 C 
HETATM    3  C3  UNL     1     -34.297  15.906  -3.977  1.00 20.00     0.008 C 
HETATM    4  C4  UNL     1     -33.934  19.081  -3.041  1.00 20.00     0.040 C 
HETATM    5  C5  UNL     1     -33.062  16.675  -3.507  1.00 20.00     0.041 C 
HETATM    6  C6  UNL     1     -33.695  17.383  -1.087  1.00 20.00     0.207 A 
HETATM    7  C7  UNL     1     -35.164  16.608  -5.033  1.00 20.00    -0.011 C 
HETATM    8  C8  UNL     1     -33.423  17.762  -2.532  1.00 20.00     0.082 A 
HETATM    9  O12 UNL     1     -32.439  17.927  -1.491  1.00 20.00    -0.375 OA
ENDROOT
BRANCH   7  10
HETATM   10  C11 UNL     1     -34.492  16.600  -6.410  1.00 20.00    -0.019 C 
HETATM   11  C9  UNL     1     -34.035  15.191  -6.769  1.00 20.00     0.010 C 
HETATM   12  C10 UNL     1     -35.444  17.147  -7.468  1.00 20.00     0.010 C 
ENDBRANCH   7  10
TORSDOF 1
ENDMDL
MODEL 6
REMARK VINA RESULT:      -3.1      9.887     11.218
REMARK  1 active torsions:
REMARK  status: ('A' for Active; 'I' for Inactive)
REMARK    1  A    between atoms: C7_7  and  C11_11 
ROOT
HETATM    1  C1  UNL     1     -41.979  14.433   4.993  1.00 20.00     0.004 C 
HETATM    2  C2  UNL     1     -41.951  13.086   5.715  1.00 20.00     0.005 C 
HETATM    3  C3  UNL     1     -40.441  13.731   7.707  1.00 20.00     0.008 C 
HETATM    4  C4  UNL     1     -42.485  15.590   5.850  1.00 20.00     0.040 C 
HETATM    5  C5  UNL     1     -40.412  15.223   7.377  1.00 20.00     0.041 C 
HETATM    6  C6  UNL     1     -42.639  16.094   8.396  1.00 20.00     0.207 A 
HETATM    7  C7  UNL     1     -40.675  12.785   6.519  1.00 20.00    -0.011 C 
HETATM    8  C8  UNL     1     -41.797  15.773   7.174  1.00 20.00     0.082 A 
HETATM    9  O12 UNL     1     -41.944  17.116   7.681  1.00 20.00    -0.375 OA
ENDROOT
BRANCH   7  10
HETATM   10  C11 UNL     1     -39.434  12.682   5.627  1.00 20.00    -0.019 C 
HETATM   11  C9  UNL     1     -38.240  12.187   6.435  1.00 20.00     0.010 C 
HETATM   12  C10 UNL     1     -39.708  11.760   4.444  1.00 20.00     0.010 C 
ENDBRANCH   7  10
TORSDOF 1
ENDMDL
MODEL 7
REMARK VINA RESULT:      -3.1     11.098     12.532
REMARK  1 active torsions:
REMARK  status: ('A' for Active; 'I' for Inactive)
REMARK    1  A    between atoms: C7_7  and  C11_11 
ROOT
HETATM    1  C1  UNL     1     -43.090  15.155   6.222  1.00 20.00     0.004 C 
HETATM    2  C2  UNL     1     -42.168  16.374   6.197  1.00 20.00     0.005 C 
HETATM    3  C3  UNL     1     -40.359  15.541   7.840  1.00 20.00     0.008 C 
HETATM    4  C4  UNL     1     -42.407  13.847   5.834  1.00 20.00     0.040 C 
HETATM    5  C5  UNL     1     -40.918  14.123   7.949  1.00 20.00     0.041 C 
HETATM    6  C6  UNL     1     -39.966  12.949   5.834  1.00 20.00     0.207 A 
HETATM    7  C7  UNL     1     -41.374  16.639   7.488  1.00 20.00    -0.011 C 
HETATM    8  C8  UNL     1     -41.154  13.513   6.595  1.00 20.00     0.082 A 
HETATM    9  O12 UNL     1     -40.857  12.101   6.560  1.00 20.00    -0.375 OA
ENDROOT
BRANCH   7  10
HETATM   10  C11 UNL     1     -42.286  16.966   8.676  1.00 20.00    -0.019 C 
HETATM   11  C9  UNL     1     -41.455  17.203   9.931  1.00 20.00     0.010 C 
HETATM   12  C10 UNL     1     -43.152  18.180   8.360  1.00 20.00     0.010 C 
ENDBRANCH   7  10
TORSDOF 1
ENDMDL
MODEL 8
REMARK VINA RESULT:      -3.0     10.615     12.326
REMARK  1 active torsions:
REMARK  status: ('A' for Active; 'I' for Inactive)
REMARK    1  A    between atoms: C7_7  and  C11_11 
ROOT
HETATM    1  C1  UNL     1     -43.073  12.759   8.337  1.00 20.00     0.004 C 
HETATM    2  C2  UNL     1     -43.261  14.243   8.650  1.00 20.00     0.005 C 
HETATM    3  C3  UNL     1     -40.900  15.085   8.028  1.00 20.00     0.008 C 
HETATM    4  C4  UNL     1     -42.633  12.473   6.904  1.00 20.00     0.040 C 
HETATM    5  C5  UNL     1     -40.433  13.754   7.439  1.00 20.00     0.041 C 
HETATM    6  C6  UNL     1     -41.411  13.800   5.031  1.00 20.00     0.207 A 
HETATM    7  C7  UNL     1     -41.997  14.997   9.100  1.00 20.00    -0.011 C 
HETATM    8  C8  UNL     1     -41.414  13.217   6.433  1.00 20.00     0.082 A 
HETATM    9  O12 UNL     1     -40.770  12.558   5.323  1.00 20.00    -0.375 OA
ENDROOT
BRANCH   7  10
HETATM   10  C11 UNL     1     -41.447  14.469  10.429  1.00 20.00    -0.019 C 
HETATM   11  C9  UNL     1     -40.195  15.241  10.828  1.00 20.00     0.010 C 
HETATM   12  C10 UNL     1     -42.511  14.562  11.517  1.00 20.00     0.010 C 
ENDBRANCH   7  10
TORSDOF 1
ENDMDL
MODEL 9
REMARK VINA RESULT:      -2.9     13.022     14.604
REMARK  1 active torsions:
REMARK  status: ('A' for Active; 'I' for Inactive)
REMARK    1  A    between atoms: C7_7  and  C11_11 
ROOT
HETATM    1  C1  UNL     1     -27.856  -1.583  11.145  1.00 20.00     0.004 C 
HETATM    2  C2  UNL     1     -26.663  -1.862  10.231  1.00 20.00     0.005 C 
HETATM    3  C3  UNL     1     -26.411  -4.395  10.665  1.00 20.00     0.008 C 
HETATM    4  C4  UNL     1     -29.091  -2.426  10.837  1.00 20.00     0.040 C 
HETATM    5  C5  UNL     1     -27.691  -4.518  11.491  1.00 20.00     0.041 C 
HETATM    6  C6  UNL     1     -29.545  -4.709   9.678  1.00 20.00     0.207 A 
HETATM    7  C7  UNL     1     -25.740  -3.013  10.669  1.00 20.00    -0.011 C 
HETATM    8  C8  UNL     1     -28.871  -3.912  10.781  1.00 20.00     0.082 A 
HETATM    9  O12 UNL     1     -30.091  -4.650  10.996  1.00 20.00    -0.375 OA
ENDROOT
BRANCH   7  10
HETATM   10  C11 UNL     1     -25.045  -2.726  12.004  1.00 20.00    -0.019 C 
HETATM   11  C9  UNL     1     -24.052  -3.834  12.332  1.00 20.00     0.010 C 
HETATM   12  C10 UNL     1     -24.350  -1.370  11.958  1.00 20.00     0.010 C 
ENDBRANCH   7  10
TORSDOF 1
ENDMDL
