MODEL 1
REMARK VINA RESULT:      -4.2      0.000      0.000
REMARK  0 active torsions:
REMARK  status: ('A' for Active; 'I' for Inactive)
ROOT
HETATM    1  C1  UNL     1     -32.923  15.603  -3.779  1.00 20.00     0.004 C 
HETATM    2  C2  UNL     1     -33.878  14.722  -4.585  1.00 20.00     0.040 C 
HETATM    3  C3  UNL     1     -35.480  16.646  -5.212  1.00 20.00     0.041 C 
HETATM    4  C4  UNL     1     -33.661  16.550  -2.829  1.00 20.00     0.009 C 
HETATM    5  C5  UNL     1     -34.611  17.859  -4.876  1.00 20.00     0.012 C 
HETATM    6  C6  UNL     1     -34.188  15.377  -7.083  1.00 20.00     0.207 A 
HETATM    7  C7  UNL     1     -34.632  15.478  -5.638  1.00 20.00     0.082 A 
HETATM    8  C8  UNL     1     -34.081  17.920  -3.420  1.00 20.00    -0.048 C 
HETATM    9  C9  UNL     1     -35.173  18.517  -2.505  1.00 20.00     0.015 C 
HETATM   10  C10 UNL     1     -32.874  18.882  -3.391  1.00 20.00     0.015 C 
HETATM   11  O11 UNL     1     -35.292  14.615  -6.580  1.00 20.00    -0.375 OA
ENDROOT
TORSDOF 0
ENDMDL
MODEL 2
REMARK VINA RESULT:      -3.9      1.916      3.993
REMARK  0 active torsions:
REMARK  status: ('A' for Active; 'I' for Inactive)
ROOT
HETATM    1  C1  UNL     1     -33.779  15.280  -3.426  1.00 20.00     0.004 C 
HETATM    2  C2  UNL     1     -33.222  16.641  -3.008  1.00 20.00     0.040 C 
HETATM    3  C3  UNL     1     -34.267  17.926  -4.988  1.00 20.00     0.041 C 
HETATM    4  C4  UNL     1     -33.591  15.004  -4.920  1.00 20.00     0.009 C 
HETATM    5  C5  UNL     1     -35.291  16.903  -5.481  1.00 20.00     0.012 C 
HETATM    6  C6  UNL     1     -34.988  18.496  -2.552  1.00 20.00     0.207 A 
HETATM    7  C7  UNL     1     -34.044  17.793  -3.505  1.00 20.00     0.082 A 
HETATM    8  C8  UNL     1     -34.719  15.510  -5.855  1.00 20.00    -0.048 C 
HETATM    9  C9  UNL     1     -34.157  15.560  -7.293  1.00 20.00     0.015 C 
HETATM   10  C10 UNL     1     -35.885  14.498  -5.847  1.00 20.00     0.015 C 
HETATM   11  O11 UNL     1     -33.701  19.038  -2.873  1.00 20.00    -0.375 OA
ENDROOT
TORSDOF 0
ENDMDL
MODEL 3
REMARK VINA RESULT:      -3.9     11.955     13.153
REMARK  0 active torsions:
REMARK  status: ('A' for Active; 'I' for Inactive)
ROOT
HETATM    1  C1  UNL     1     -32.825   6.256   2.650  1.00 20.00     0.004 C 
HETATM    2  C2  UNL     1     -33.308   5.211   3.657  1.00 20.00     0.040 C 
HETATM    3  C3  UNL     1     -33.960   6.932   5.466  1.00 20.00     0.041 C 
HETATM    4  C4  UNL     1     -31.929   7.318   3.293  1.00 20.00     0.009 C 
HETATM    5  C5  UNL     1     -33.973   8.220   4.642  1.00 20.00     0.012 C 
HETATM    6  C6  UNL     1     -35.792   5.419   4.401  1.00 20.00     0.207 A 
HETATM    7  C7  UNL     1     -34.328   5.745   4.617  1.00 20.00     0.082 A 
HETATM    8  C8  UNL     1     -32.654   8.549   3.894  1.00 20.00    -0.048 C 
HETATM    9  C9  UNL     1     -31.677   9.246   4.867  1.00 20.00     0.015 C 
HETATM   10  C10 UNL     1     -32.982   9.552   2.768  1.00 20.00     0.015 C 
HETATM   11  O11 UNL     1     -34.995   4.708   5.357  1.00 20.00    -0.375 OA
ENDROOT
TORSDOF 0
ENDMDL
MODEL 4
REMARK VINA RESULT:      -3.9      1.302      2.622
REMARK  0 active torsions:
REMARK  status: ('A' for Active; 'I' for Inactive)
ROOT
HETATM    1  C1  UNL     1     -34.924  18.374  -4.259  1.00 20.00     0.004 C 
HETATM    2  C2  UNL     1     -34.418  17.368  -5.294  1.00 20.00     0.040 C 
HETATM    3  C3  UNL     1     -33.027  15.996  -3.608  1.00 20.00     0.041 C 
HETATM    4  C4  UNL     1     -33.808  18.880  -3.341  1.00 20.00     0.009 C 
HETATM    5  C5  UNL     1     -33.604  16.502  -2.285  1.00 20.00     0.012 C 
HETATM    6  C6  UNL     1     -35.027  14.879  -4.844  1.00 20.00     0.207 A 
HETATM    7  C7  UNL     1     -34.063  16.038  -4.699  1.00 20.00     0.082 A 
HETATM    8  C8  UNL     1     -33.536  18.037  -2.069  1.00 20.00    -0.048 C 
HETATM    9  C9  UNL     1     -32.135  18.415  -1.540  1.00 20.00     0.015 C 
HETATM   10  C10 UNL     1     -34.562  18.411  -0.977  1.00 20.00     0.015 C 
HETATM   11  O11 UNL     1     -33.879  15.013  -5.691  1.00 20.00    -0.375 OA
ENDROOT
TORSDOF 0
ENDMDL
MODEL 5
REMARK VINA RESULT:      -3.8      1.984      2.758
REMARK  0 active torsions:
REMARK  status: ('A' for Active; 'I' for Inactive)
ROOT
HETATM    1  C1  UNL     1     -33.145  16.434  -3.334  1.00 20.00     0.004 C 
HETATM    2  C2  UNL     1     -34.299  16.729  -4.293  1.00 20.00     0.040 C 
HETATM    3  C3  UNL     1     -34.911  18.992  -3.215  1.00 20.00     0.041 C 
HETATM    4  C4  UNL     1     -33.516  16.701  -1.873  1.00 20.00     0.009 C 
HETATM    5  C5  UNL     1     -33.658  19.257  -2.379  1.00 20.00     0.012 C 
HETATM    6  C6  UNL     1     -34.085  18.917  -5.683  1.00 20.00     0.207 A 
HETATM    7  C7  UNL     1     -34.578  18.194  -4.447  1.00 20.00     0.082 A 
HETATM    8  C8  UNL     1     -33.285  18.146  -1.363  1.00 20.00    -0.048 C 
HETATM    9  C9  UNL     1     -34.117  18.334  -0.075  1.00 20.00     0.015 C 
HETATM   10  C10 UNL     1     -31.798  18.326  -0.985  1.00 20.00     0.015 C 
HETATM   11  O11 UNL     1     -35.445  18.484  -5.558  1.00 20.00    -0.375 OA
ENDROOT
TORSDOF 0
ENDMDL
MODEL 6
REMARK VINA RESULT:      -3.7      2.054      3.823
REMARK  0 active torsions:
REMARK  status: ('A' for Active; 'I' for Inactive)
ROOT
HETATM    1  C1  UNL     1     -34.048  14.835  -4.405  1.00 20.00     0.004 C 
HETATM    2  C2  UNL     1     -32.953  15.614  -3.675  1.00 20.00     0.040 C 
HETATM    3  C3  UNL     1     -33.953  17.937  -4.190  1.00 20.00     0.041 C 
HETATM    4  C4  UNL     1     -34.370  15.427  -5.779  1.00 20.00     0.009 C 
HETATM    5  C5  UNL     1     -35.366  17.547  -4.628  1.00 20.00     0.012 C 
HETATM    6  C6  UNL     1     -33.755  17.134  -1.722  1.00 20.00     0.207 A 
HETATM    7  C7  UNL     1     -33.410  16.956  -3.186  1.00 20.00     0.082 A 
HETATM    8  C8  UNL     1     -35.447  16.542  -5.806  1.00 20.00    -0.048 C 
HETATM    9  C9  UNL     1     -35.304  17.308  -7.140  1.00 20.00     0.015 C 
HETATM   10  C10 UNL     1     -36.851  15.899  -5.788  1.00 20.00     0.015 C 
HETATM   11  O11 UNL     1     -32.492  17.553  -2.254  1.00 20.00    -0.375 OA
ENDROOT
TORSDOF 0
ENDMDL
MODEL 7
REMARK VINA RESULT:      -3.6     24.650     25.946
REMARK  0 active torsions:
REMARK  status: ('A' for Active; 'I' for Inactive)
ROOT
HETATM    1  C1  UNL     1     -25.361  -0.989  12.332  1.00 20.00     0.004 C 
HETATM    2  C2  UNL     1     -26.581  -0.381  11.638  1.00 20.00     0.040 C 
HETATM    3  C3  UNL     1     -26.981  -2.401  10.083  1.00 20.00     0.041 C 
HETATM    4  C4  UNL     1     -24.375  -1.613  11.341  1.00 20.00     0.009 C 
HETATM    5  C5  UNL     1     -26.124  -3.464  10.772  1.00 20.00     0.012 C 
HETATM    6  C6  UNL     1     -28.790  -1.740  11.835  1.00 20.00     0.207 A 
HETATM    7  C7  UNL     1     -27.517  -1.411  11.082  1.00 20.00     0.082 A 
HETATM    8  C8  UNL     1     -24.630  -3.096  10.967  1.00 20.00    -0.048 C 
HETATM    9  C9  UNL     1     -23.857  -3.396   9.664  1.00 20.00     0.015 C 
HETATM   10  C10 UNL     1     -24.053  -4.010  12.070  1.00 20.00     0.015 C 
HETATM   11  O11 UNL     1     -28.791  -0.861  10.702  1.00 20.00    -0.375 OA
ENDROOT
TORSDOF 0
ENDMDL
MODEL 8
REMARK VINA RESULT:      -3.6      2.154      4.292
REMARK  0 active torsions:
REMARK  status: ('A' for Active; 'I' for Inactive)
ROOT
HETATM    1  C1  UNL     1     -35.202  17.903  -4.862  1.00 20.00     0.004 C 
HETATM    2  C2  UNL     1     -35.068  18.444  -3.438  1.00 20.00     0.040 C 
HETATM    3  C3  UNL     1     -33.668  16.456  -2.575  1.00 20.00     0.041 C 
HETATM    4  C4  UNL     1     -35.574  16.418  -4.891  1.00 20.00     0.009 C 
HETATM    5  C5  UNL     1     -33.237  15.818  -3.896  1.00 20.00     0.012 C 
HETATM    6  C6  UNL     1     -32.638  18.847  -2.602  1.00 20.00     0.207 A 
HETATM    7  C7  UNL     1     -33.847  17.942  -2.728  1.00 20.00     0.082 A 
HETATM    8  C8  UNL     1     -34.390  15.418  -4.853  1.00 20.00    -0.048 C 
HETATM    9  C9  UNL     1     -34.947  14.040  -4.432  1.00 20.00     0.015 C 
HETATM   10  C10 UNL     1     -33.801  15.266  -6.272  1.00 20.00     0.015 C 
HETATM   11  O11 UNL     1     -33.562  18.672  -1.521  1.00 20.00    -0.375 OA
ENDROOT
TORSDOF 0
ENDMDL
MODEL 9
REMARK VINA RESULT:      -3.5     13.498     15.103
REMARK  0 active torsions:
REMARK  status: ('A' for Active; 'I' for Inactive)
ROOT
HETATM    1  C1  UNL     1     -43.284  13.364   7.613  1.00 20.00     0.004 C 
HETATM    2  C2  UNL     1     -42.881  13.630   9.064  1.00 20.00     0.040 C 
HETATM    3  C3  UNL     1     -40.427  14.203   8.511  1.00 20.00     0.041 C 
HETATM    4  C4  UNL     1     -42.267  12.491   6.873  1.00 20.00     0.009 C 
HETATM    5  C5  UNL     1     -40.520  14.427   7.001  1.00 20.00     0.012 C 
HETATM    6  C6  UNL     1     -41.970  16.014   9.568  1.00 20.00     0.207 A 
HETATM    7  C7  UNL     1     -41.719  14.568   9.191  1.00 20.00     0.082 A 
HETATM    8  C8  UNL     1     -41.098  13.241   6.184  1.00 20.00    -0.048 C 
HETATM    9  C9  UNL     1     -39.975  12.217   5.908  1.00 20.00     0.015 C 
HETATM   10  C10 UNL     1     -41.573  13.789   4.821  1.00 20.00     0.015 C 
HETATM   11  O11 UNL     1     -41.533  15.049  10.534  1.00 20.00    -0.375 OA
ENDROOT
TORSDOF 0
ENDMDL
