MODEL 1
REMARK VINA RESULT:      -4.1      0.000      0.000
REMARK  1 active torsions:
REMARK  status: ('A' for Active; 'I' for Inactive)
REMARK    1  A    between atoms: C4_4  and  C10_10 
ROOT
HETATM    1  C5  UNL     1     -33.459  15.185  -4.357  1.00 20.00     0.135 C 
HETATM    2  C6  UNL     1     -34.663  14.286  -4.181  1.00 20.00     0.079 C 
HETATM    3  C7  UNL     1     -35.636  14.495  -5.330  1.00 20.00     0.007 C 
HETATM    4  C8  UNL     1     -36.019  15.963  -5.474  1.00 20.00     0.001 C 
HETATM    5  C9  UNL     1     -34.781  16.847  -5.647  1.00 20.00     0.017 C 
HETATM    6  C10 UNL     1     -33.729  16.677  -4.533  1.00 20.00     0.088 C 
HETATM    7  O11 UNL     1     -32.314  14.738  -4.287  1.00 20.00    -0.297 OA
ENDROOT
BRANCH   6   8
HETATM    8  C4  UNL     1     -33.985  17.355  -3.196  1.00 20.00    -0.040 A 
HETATM    9  C1  UNL     1     -33.416  16.923  -1.963  1.00 20.00     0.015 A 
HETATM   10  C2  UNL     1     -33.812  17.712  -0.906  1.00 20.00     0.050 A 
HETATM   11  S12 UNL     1     -34.864  18.968  -1.400  1.00 20.00    -0.113 SA
HETATM   12  C3  UNL     1     -34.794  18.459  -3.033  1.00 20.00     0.057 A 
ENDBRANCH   6   8
TORSDOF 1
ENDMDL
MODEL 2
REMARK VINA RESULT:      -4.0      2.713      4.822
REMARK  1 active torsions:
REMARK  status: ('A' for Active; 'I' for Inactive)
REMARK    1  A    between atoms: C4_4  and  C10_10 
ROOT
HETATM    1  C5  UNL     1     -34.528  18.762  -1.150  1.00 20.00     0.135 C 
HETATM    2  C6  UNL     1     -33.985  17.978   0.024  1.00 20.00     0.079 C 
HETATM    3  C7  UNL     1     -32.600  18.488   0.389  1.00 20.00     0.007 C 
HETATM    4  C8  UNL     1     -31.664  18.463  -0.813  1.00 20.00     0.001 C 
HETATM    5  C9  UNL     1     -32.242  19.261  -1.986  1.00 20.00     0.017 C 
HETATM    6  C10 UNL     1     -33.659  18.822  -2.404  1.00 20.00     0.088 C 
HETATM    7  O11 UNL     1     -35.652  19.263  -1.117  1.00 20.00    -0.297 OA
ENDROOT
BRANCH   6   8
HETATM    8  C4  UNL     1     -33.800  17.557  -3.238  1.00 20.00    -0.040 A 
HETATM    9  C1  UNL     1     -33.278  16.289  -2.853  1.00 20.00     0.015 A 
HETATM   10  C2  UNL     1     -33.545  15.314  -3.787  1.00 20.00     0.050 A 
HETATM   11  S12 UNL     1     -34.423  15.927  -5.123  1.00 20.00    -0.113 SA
HETATM   12  C3  UNL     1     -34.448  17.503  -4.452  1.00 20.00     0.057 A 
ENDBRANCH   6   8
TORSDOF 1
ENDMDL
MODEL 3
REMARK VINA RESULT:      -3.9      1.842      2.405
REMARK  1 active torsions:
REMARK  status: ('A' for Active; 'I' for Inactive)
REMARK    1  A    between atoms: C4_4  and  C10_10 
ROOT
HETATM    1  C5  UNL     1     -35.747  14.585  -5.336  1.00 20.00     0.135 C 
HETATM    2  C6  UNL     1     -36.706  15.472  -6.098  1.00 20.00     0.079 C 
HETATM    3  C7  UNL     1     -36.231  15.632  -7.533  1.00 20.00     0.007 C 
HETATM    4  C8  UNL     1     -34.795  16.139  -7.591  1.00 20.00     0.001 C 
HETATM    5  C9  UNL     1     -33.849  15.222  -6.808  1.00 20.00     0.017 C 
HETATM    6  C10 UNL     1     -34.274  14.987  -5.345  1.00 20.00     0.088 C 
HETATM    7  O11 UNL     1     -36.151  13.626  -4.678  1.00 20.00    -0.297 OA
ENDROOT
BRANCH   6   8
HETATM    8  C4  UNL     1     -33.993  16.087  -4.332  1.00 20.00    -0.040 A 
HETATM    9  C1  UNL     1     -33.412  15.859  -3.052  1.00 20.00     0.015 A 
HETATM   10  C2  UNL     1     -33.267  17.025  -2.334  1.00 20.00     0.050 A 
HETATM   11  S12 UNL     1     -33.829  18.388  -3.202  1.00 20.00    -0.113 SA
HETATM   12  C3  UNL     1     -34.270  17.420  -4.544  1.00 20.00     0.057 A 
ENDBRANCH   6   8
TORSDOF 1
ENDMDL
MODEL 4
REMARK VINA RESULT:      -3.8      1.700      2.404
REMARK  1 active torsions:
REMARK  status: ('A' for Active; 'I' for Inactive)
REMARK    1  A    between atoms: C4_4  and  C10_10 
ROOT
HETATM    1  C5  UNL     1     -35.326  14.391  -5.026  1.00 20.00     0.135 C 
HETATM    2  C6  UNL     1     -36.488  15.072  -5.714  1.00 20.00     0.079 C 
HETATM    3  C7  UNL     1     -36.172  15.269  -7.188  1.00 20.00     0.007 C 
HETATM    4  C8  UNL     1     -34.859  16.019  -7.379  1.00 20.00     0.001 C 
HETATM    5  C9  UNL     1     -33.703  15.308  -6.669  1.00 20.00     0.017 C 
HETATM    6  C10 UNL     1     -33.955  15.046  -5.171  1.00 20.00     0.088 C 
HETATM    7  O11 UNL     1     -35.497  13.397  -4.321  1.00 20.00    -0.297 OA
ENDROOT
BRANCH   6   8
HETATM    8  C4  UNL     1     -33.791  16.209  -4.204  1.00 20.00    -0.040 A 
HETATM    9  C1  UNL     1     -34.046  17.568  -4.544  1.00 20.00     0.015 A 
HETATM   10  C2  UNL     1     -33.819  18.419  -3.486  1.00 20.00     0.050 A 
HETATM   11  S12 UNL     1     -33.300  17.580  -2.087  1.00 20.00    -0.113 SA
HETATM   12  C3  UNL     1     -33.378  16.072  -2.897  1.00 20.00     0.057 A 
ENDBRANCH   6   8
TORSDOF 1
ENDMDL
MODEL 5
REMARK VINA RESULT:      -3.7     11.562     12.932
REMARK  1 active torsions:
REMARK  status: ('A' for Active; 'I' for Inactive)
REMARK    1  A    between atoms: C4_4  and  C10_10 
ROOT
HETATM    1  C5  UNL     1     -40.713  14.197   8.107  1.00 20.00     0.135 C 
HETATM    2  C6  UNL     1     -40.383  15.615   7.698  1.00 20.00     0.079 C 
HETATM    3  C7  UNL     1     -41.622  16.292   7.136  1.00 20.00     0.007 C 
HETATM    4  C8  UNL     1     -42.230  15.482   5.997  1.00 20.00     0.001 C 
HETATM    5  C9  UNL     1     -42.550  14.051   6.440  1.00 20.00     0.017 C 
HETATM    6  C10 UNL     1     -41.349  13.300   7.047  1.00 20.00     0.088 C 
HETATM    7  O11 UNL     1     -40.412  13.768   9.220  1.00 20.00    -0.297 OA
ENDROOT
BRANCH   6   8
HETATM    8  C4  UNL     1     -40.302  12.737   6.097  1.00 20.00    -0.040 A 
HETATM    9  C1  UNL     1     -39.004  12.315   6.504  1.00 20.00     0.015 A 
HETATM   10  C2  UNL     1     -38.256  11.847   5.447  1.00 20.00     0.050 A 
HETATM   11  S12 UNL     1     -39.118  11.915   3.970  1.00 20.00    -0.113 SA
HETATM   12  C3  UNL     1     -40.498  12.574   4.743  1.00 20.00     0.057 A 
ENDBRANCH   6   8
TORSDOF 1
ENDMDL
MODEL 6
REMARK VINA RESULT:      -3.6      2.228      3.049
REMARK  1 active torsions:
REMARK  status: ('A' for Active; 'I' for Inactive)
REMARK    1  A    between atoms: C4_4  and  C10_10 
ROOT
HETATM    1  C5  UNL     1     -33.591  17.543  -3.997  1.00 20.00     0.135 C 
HETATM    2  C6  UNL     1     -33.446  16.287  -3.167  1.00 20.00     0.079 C 
HETATM    3  C7  UNL     1     -33.282  15.081  -4.078  1.00 20.00     0.007 C 
HETATM    4  C8  UNL     1     -34.421  14.987  -5.087  1.00 20.00     0.001 C 
HETATM    5  C9  UNL     1     -34.544  16.274  -5.909  1.00 20.00     0.017 C 
HETATM    6  C10 UNL     1     -34.690  17.550  -5.057  1.00 20.00     0.088 C 
HETATM    7  O11 UNL     1     -32.901  18.537  -3.774  1.00 20.00    -0.297 OA
ENDROOT
BRANCH   6   8
HETATM    8  C4  UNL     1     -36.049  17.850  -4.444  1.00 20.00    -0.040 A 
HETATM    9  C1  UNL     1     -36.238  18.657  -3.285  1.00 20.00     0.015 A 
HETATM   10  C2  UNL     1     -37.567  18.768  -2.942  1.00 20.00     0.050 A 
HETATM   11  S12 UNL     1     -38.582  17.904  -4.015  1.00 20.00    -0.113 SA
HETATM   12  C3  UNL     1     -37.242  17.376  -4.943  1.00 20.00     0.057 A 
ENDBRANCH   6   8
TORSDOF 1
ENDMDL
MODEL 7
REMARK VINA RESULT:      -3.6      2.068      3.101
REMARK  1 active torsions:
REMARK  status: ('A' for Active; 'I' for Inactive)
REMARK    1  A    between atoms: C4_4  and  C10_10 
ROOT
HETATM    1  C5  UNL     1     -33.599  17.468  -4.009  1.00 20.00     0.135 C 
HETATM    2  C6  UNL     1     -33.479  16.171  -3.241  1.00 20.00     0.079 C 
HETATM    3  C7  UNL     1     -33.294  15.013  -4.209  1.00 20.00     0.007 C 
HETATM    4  C8  UNL     1     -34.408  14.975  -5.250  1.00 20.00     0.001 C 
HETATM    5  C9  UNL     1     -34.507  16.303  -6.007  1.00 20.00     0.017 C 
HETATM    6  C10 UNL     1     -34.671  17.534  -5.094  1.00 20.00     0.088 C 
HETATM    7  O11 UNL     1     -32.913  18.447  -3.718  1.00 20.00    -0.297 OA
ENDROOT
BRANCH   6   8
HETATM    8  C4  UNL     1     -36.045  17.808  -4.501  1.00 20.00    -0.040 A 
HETATM    9  C1  UNL     1     -37.255  17.253  -5.009  1.00 20.00     0.015 A 
HETATM   10  C2  UNL     1     -38.355  17.662  -4.289  1.00 20.00     0.050 A 
HETATM   11  S12 UNL     1     -37.928  18.711  -3.005  1.00 20.00    -0.113 SA
HETATM   12  C3  UNL     1     -36.266  18.620  -3.411  1.00 20.00     0.057 A 
ENDBRANCH   6   8
TORSDOF 1
ENDMDL
MODEL 8
REMARK VINA RESULT:      -3.5      1.358      1.828
REMARK  1 active torsions:
REMARK  status: ('A' for Active; 'I' for Inactive)
REMARK    1  A    between atoms: C4_4  and  C10_10 
ROOT
HETATM    1  C5  UNL     1     -34.842  15.669  -5.974  1.00 20.00     0.135 C 
HETATM    2  C6  UNL     1     -36.281  15.277  -5.721  1.00 20.00     0.079 C 
HETATM    3  C7  UNL     1     -37.212  16.235  -6.446  1.00 20.00     0.007 C 
HETATM    4  C8  UNL     1     -36.925  17.683  -6.068  1.00 20.00     0.001 C 
HETATM    5  C9  UNL     1     -35.461  18.048  -6.333  1.00 20.00     0.017 C 
HETATM    6  C10 UNL     1     -34.448  17.108  -5.651  1.00 20.00     0.088 C 
HETATM    7  O11 UNL     1     -34.013  14.841  -6.354  1.00 20.00    -0.297 OA
ENDROOT
BRANCH   6   8
HETATM    8  C4  UNL     1     -34.190  17.291  -4.163  1.00 20.00    -0.040 A 
HETATM    9  C1  UNL     1     -33.503  16.341  -3.352  1.00 20.00     0.015 A 
HETATM   10  C2  UNL     1     -33.407  16.753  -2.042  1.00 20.00     0.050 A 
HETATM   11  S12 UNL     1     -34.141  18.278  -1.791  1.00 20.00    -0.113 SA
HETATM   12  C3  UNL     1     -34.592  18.392  -3.440  1.00 20.00     0.057 A 
ENDBRANCH   6   8
TORSDOF 1
ENDMDL
MODEL 9
REMARK VINA RESULT:      -3.4     23.942     25.141
REMARK  1 active torsions:
REMARK  status: ('A' for Active; 'I' for Inactive)
REMARK    1  A    between atoms: C4_4  and  C10_10 
ROOT
HETATM    1  C5  UNL     1     -27.203  -0.909  10.492  1.00 20.00     0.135 C 
HETATM    2  C6  UNL     1     -26.584  -0.560  11.827  1.00 20.00     0.079 C 
HETATM    3  C7  UNL     1     -25.223  -1.226  11.955  1.00 20.00     0.007 C 
HETATM    4  C8  UNL     1     -25.317  -2.731  11.729  1.00 20.00     0.001 C 
HETATM    5  C9  UNL     1     -25.950  -3.051  10.372  1.00 20.00     0.017 C 
HETATM    6  C10 UNL     1     -27.326  -2.392  10.151  1.00 20.00     0.088 C 
HETATM    7  O11 UNL     1     -27.653  -0.035   9.751  1.00 20.00    -0.297 OA
ENDROOT
BRANCH   6   8
HETATM    8  C4  UNL     1     -28.537  -3.018  10.827  1.00 20.00    -0.040 A 
HETATM    9  C1  UNL     1     -29.649  -2.272  11.314  1.00 20.00     0.015 A 
HETATM   10  C2  UNL     1     -30.607  -3.082  11.881  1.00 20.00     0.050 A 
HETATM   11  S12 UNL     1     -30.166  -4.735  11.825  1.00 20.00    -0.113 SA
HETATM   12  C3  UNL     1     -28.688  -4.370  11.041  1.00 20.00     0.057 A 
ENDBRANCH   6   8
TORSDOF 1
ENDMDL
