MODEL 1
REMARK VINA RESULT:      -4.3      0.000      0.000
REMARK  0 active torsions:
REMARK  status: ('A' for Active; 'I' for Inactive)
ROOT
HETATM    1  C1  UNL     1     -31.784  18.319  -0.881  1.00 20.00     0.085 C 
HETATM    2  C2  UNL     1     -33.059  16.672  -3.417  1.00 20.00     0.004 C 
HETATM    3  C3  UNL     1     -33.333  16.692  -1.911  1.00 20.00     0.041 C 
HETATM    4  C4  UNL     1     -33.717  19.259  -2.072  1.00 20.00     0.042 C 
HETATM    5  C5  UNL     1     -34.322  16.937  -4.241  1.00 20.00     0.009 C 
HETATM    6  C6  UNL     1     -35.014  19.009  -2.848  1.00 20.00     0.011 C 
HETATM    7  C7  UNL     1     -33.194  18.071  -1.248  1.00 20.00     0.125 C 
HETATM    8  C8  UNL     1     -34.859  18.387  -4.262  1.00 20.00    -0.048 C 
HETATM    9  C9  UNL     1     -36.265  18.354  -4.909  1.00 20.00     0.015 C 
HETATM   10  C10 UNL     1     -33.967  19.263  -5.167  1.00 20.00     0.015 C 
HETATM   11  N11 UNL     1     -30.676  18.514  -0.593  1.00 20.00    -0.195 NA
HETATM   12 CL12 UNL     1     -34.080  18.009   0.329  1.00 20.00    -0.103 Cl
ENDROOT
TORSDOF 0
ENDMDL
MODEL 2
REMARK VINA RESULT:      -4.3      3.305      4.622
REMARK  0 active torsions:
REMARK  status: ('A' for Active; 'I' for Inactive)
ROOT
HETATM    1  C1  UNL     1     -34.070  15.261  -6.335  1.00 20.00     0.085 C 
HETATM    2  C2  UNL     1     -35.349  17.878  -4.823  1.00 20.00     0.004 C 
HETATM    3  C3  UNL     1     -35.727  16.396  -4.895  1.00 20.00     0.041 C 
HETATM    4  C4  UNL     1     -33.340  15.804  -4.053  1.00 20.00     0.042 C 
HETATM    5  C5  UNL     1     -35.193  18.368  -3.381  1.00 20.00     0.009 C 
HETATM    6  C6  UNL     1     -33.691  16.379  -2.676  1.00 20.00     0.011 C 
HETATM    7  C7  UNL     1     -34.536  15.427  -4.942  1.00 20.00     0.125 C 
HETATM    8  C8  UNL     1     -33.930  17.911  -2.614  1.00 20.00    -0.048 C 
HETATM    9  C9  UNL     1     -34.129  18.287  -1.126  1.00 20.00     0.015 C 
HETATM   10  C10 UNL     1     -32.699  18.694  -3.116  1.00 20.00     0.015 C 
HETATM   11  N11 UNL     1     -33.705  15.130  -7.429  1.00 20.00    -0.195 NA
HETATM   12 CL12 UNL     1     -35.143  13.793  -4.456  1.00 20.00    -0.103 Cl
ENDROOT
TORSDOF 0
ENDMDL
MODEL 3
REMARK VINA RESULT:      -4.0     12.986     14.073
REMARK  0 active torsions:
REMARK  status: ('A' for Active; 'I' for Inactive)
ROOT
HETATM    1  C1  UNL     1     -41.636  13.834   4.870  1.00 20.00     0.085 C 
HETATM    2  C2  UNL     1     -43.244  13.499   7.711  1.00 20.00     0.004 C 
HETATM    3  C3  UNL     1     -42.343  12.582   6.879  1.00 20.00     0.041 C 
HETATM    4  C4  UNL     1     -40.496  14.410   6.969  1.00 20.00     0.042 C 
HETATM    5  C5  UNL     1     -42.753  13.642   9.154  1.00 20.00     0.009 C 
HETATM    6  C6  UNL     1     -40.305  14.134   8.464  1.00 20.00     0.011 C 
HETATM    7  C7  UNL     1     -41.181  13.292   6.167  1.00 20.00     0.125 C 
HETATM    8  C8  UNL     1     -41.495  14.510   9.388  1.00 20.00    -0.048 C 
HETATM    9  C9  UNL     1     -41.036  14.280  10.848  1.00 20.00     0.015 C 
HETATM   10  C10 UNL     1     -41.857  16.005   9.260  1.00 20.00     0.015 C 
HETATM   11  N11 UNL     1     -41.993  14.261   3.851  1.00 20.00    -0.195 NA
HETATM   12 CL12 UNL     1     -39.953  12.033   5.739  1.00 20.00    -0.103 Cl
ENDROOT
TORSDOF 0
ENDMDL
MODEL 4
REMARK VINA RESULT:      -4.0     11.469     13.148
REMARK  0 active torsions:
REMARK  status: ('A' for Active; 'I' for Inactive)
ROOT
HETATM    1  C1  UNL     1     -32.874   9.259   2.468  1.00 20.00     0.085 C 
HETATM    2  C2  UNL     1     -32.942   6.000   2.847  1.00 20.00     0.004 C 
HETATM    3  C3  UNL     1     -31.994   7.109   3.311  1.00 20.00     0.041 C 
HETATM    4  C4  UNL     1     -34.024   8.302   4.416  1.00 20.00     0.042 C 
HETATM    5  C5  UNL     1     -33.450   5.145   4.011  1.00 20.00     0.009 C 
HETATM    6  C6  UNL     1     -34.098   7.187   5.466  1.00 20.00     0.011 C 
HETATM    7  C7  UNL     1     -32.682   8.434   3.678  1.00 20.00     0.125 C 
HETATM    8  C8  UNL     1     -34.503   5.782   4.946  1.00 20.00    -0.048 C 
HETATM    9  C9  UNL     1     -34.649   4.858   6.180  1.00 20.00     0.015 C 
HETATM   10  C10 UNL     1     -35.877   5.816   4.244  1.00 20.00     0.015 C 
HETATM   11  N11 UNL     1     -33.025   9.907   1.517  1.00 20.00    -0.195 NA
HETATM   12 CL12 UNL     1     -31.531   9.379   4.707  1.00 20.00    -0.103 Cl
ENDROOT
TORSDOF 0
ENDMDL
MODEL 5
REMARK VINA RESULT:      -3.8      3.728      4.849
REMARK  0 active torsions:
REMARK  status: ('A' for Active; 'I' for Inactive)
ROOT
HETATM    1  C1  UNL     1     -35.889  14.724  -5.331  1.00 20.00     0.085 C 
HETATM    2  C2  UNL     1     -33.703  15.496  -3.008  1.00 20.00     0.004 C 
HETATM    3  C3  UNL     1     -33.597  15.089  -4.481  1.00 20.00     0.041 C 
HETATM    4  C4  UNL     1     -35.181  17.063  -5.080  1.00 20.00     0.042 C 
HETATM    5  C5  UNL     1     -32.985  16.816  -2.718  1.00 20.00     0.009 C 
HETATM    6  C6  UNL     1     -34.069  18.055  -4.718  1.00 20.00     0.011 C 
HETATM    7  C7  UNL     1     -34.721  15.627  -5.381  1.00 20.00     0.125 C 
HETATM    8  C8  UNL     1     -33.662  18.112  -3.222  1.00 20.00    -0.048 C 
HETATM    9  C9  UNL     1     -32.638  19.263  -3.066  1.00 20.00     0.015 C 
HETATM   10  C10 UNL     1     -34.868  18.458  -2.323  1.00 20.00     0.015 C 
HETATM   11  N11 UNL     1     -36.807  14.014  -5.291  1.00 20.00    -0.195 NA
HETATM   12 CL12 UNL     1     -34.138  15.539  -7.092  1.00 20.00    -0.103 Cl
ENDROOT
TORSDOF 0
ENDMDL
MODEL 6
REMARK VINA RESULT:      -3.7      2.191      2.901
REMARK  0 active torsions:
REMARK  status: ('A' for Active; 'I' for Inactive)
ROOT
HETATM    1  C1  UNL     1     -32.948  18.595  -3.026  1.00 20.00     0.085 C 
HETATM    2  C2  UNL     1     -33.161  15.381  -3.651  1.00 20.00     0.004 C 
HETATM    3  C3  UNL     1     -33.892  16.334  -2.702  1.00 20.00     0.041 C 
HETATM    4  C4  UNL     1     -34.510  17.810  -4.752  1.00 20.00     0.042 C 
HETATM    5  C5  UNL     1     -34.126  14.604  -4.551  1.00 20.00     0.009 C 
HETATM    6  C6  UNL     1     -35.461  16.713  -5.245  1.00 20.00     0.011 C 
HETATM    7  C7  UNL     1     -34.132  17.744  -3.263  1.00 20.00     0.125 C 
HETATM    8  C8  UNL     1     -34.798  15.387  -5.703  1.00 20.00    -0.048 C 
HETATM    9  C9  UNL     1     -35.917  14.489  -6.284  1.00 20.00     0.015 C 
HETATM   10  C10 UNL     1     -33.780  15.628  -6.838  1.00 20.00     0.015 C 
HETATM   11  N11 UNL     1     -32.017  19.263  -2.839  1.00 20.00    -0.195 NA
HETATM   12 CL12 UNL     1     -35.453  18.502  -2.284  1.00 20.00    -0.103 Cl
ENDROOT
TORSDOF 0
ENDMDL
MODEL 7
REMARK VINA RESULT:      -3.5     24.795     26.433
REMARK  0 active torsions:
REMARK  status: ('A' for Active; 'I' for Inactive)
ROOT
HETATM    1  C1  UNL     1     -23.084  -3.971  11.471  1.00 20.00     0.085 C 
HETATM    2  C2  UNL     1     -24.895  -1.371  12.325  1.00 20.00     0.004 C 
HETATM    3  C3  UNL     1     -23.917  -1.662  11.184  1.00 20.00     0.041 C 
HETATM    4  C4  UNL     1     -25.354  -3.738  10.559  1.00 20.00     0.042 C 
HETATM    5  C5  UNL     1     -26.259  -0.898  11.816  1.00 20.00     0.009 C 
HETATM    6  C6  UNL     1     -26.475  -2.809  10.079  1.00 20.00     0.011 C 
HETATM    7  C7  UNL     1     -23.956  -3.103  10.652  1.00 20.00     0.125 C 
HETATM    8  C8  UNL     1     -27.179  -1.963  11.173  1.00 20.00    -0.048 C 
HETATM    9  C9  UNL     1     -28.352  -1.216  10.495  1.00 20.00     0.015 C 
HETATM   10  C10 UNL     1     -27.791  -2.859  12.271  1.00 20.00     0.015 C 
HETATM   11  N11 UNL     1     -22.399  -4.652  12.114  1.00 20.00    -0.195 NA
HETATM   12 CL12 UNL     1     -23.198  -3.099   9.009  1.00 20.00    -0.103 Cl
ENDROOT
TORSDOF 0
ENDMDL
MODEL 8
REMARK VINA RESULT:      -3.4     12.903     13.709
REMARK  0 active torsions:
REMARK  status: ('A' for Active; 'I' for Inactive)
ROOT
HETATM    1  C1  UNL     1     -42.494  12.591   7.004  1.00 20.00     0.085 C 
HETATM    2  C2  UNL     1     -40.579  14.550   8.810  1.00 20.00     0.004 C 
HETATM    3  C3  UNL     1     -40.415  13.847   7.460  1.00 20.00     0.041 C 
HETATM    4  C4  UNL     1     -42.590  15.021   6.650  1.00 20.00     0.042 C 
HETATM    5  C5  UNL     1     -40.326  16.057   8.715  1.00 20.00     0.009 C 
HETATM    6  C6  UNL     1     -41.854  16.365   6.645  1.00 20.00     0.011 C 
HETATM    7  C7  UNL     1     -41.695  13.771   6.613  1.00 20.00     0.125 C 
HETATM    8  C8  UNL     1     -41.418  16.913   8.031  1.00 20.00    -0.048 C 
HETATM    9  C9  UNL     1     -40.828  18.325   7.804  1.00 20.00     0.015 C 
HETATM   10  C10 UNL     1     -42.626  17.076   8.977  1.00 20.00     0.015 C 
HETATM   11  N11 UNL     1     -43.122  11.664   7.311  1.00 20.00    -0.195 NA
HETATM   12 CL12 UNL     1     -41.198  13.450   4.902  1.00 20.00    -0.103 Cl
ENDROOT
TORSDOF 0
ENDMDL
MODEL 9
REMARK VINA RESULT:      -3.3     13.343     14.100
REMARK  0 active torsions:
REMARK  status: ('A' for Active; 'I' for Inactive)
ROOT
HETATM    1  C1  UNL     1     -41.444  14.005  10.511  1.00 20.00     0.085 C 
HETATM    2  C2  UNL     1     -43.145  12.863   7.948  1.00 20.00     0.004 C 
HETATM    3  C3  UNL     1     -43.173  14.165   8.753  1.00 20.00     0.041 C 
HETATM    4  C4  UNL     1     -40.643  14.472   8.236  1.00 20.00     0.042 C 
HETATM    5  C5  UNL     1     -42.970  13.111   6.448  1.00 20.00     0.009 C 
HETATM    6  C6  UNL     1     -40.984  14.744   6.767  1.00 20.00     0.011 C 
HETATM    7  C7  UNL     1     -41.799  14.656   9.233  1.00 20.00     0.125 C 
HETATM    8  C8  UNL     1     -41.567  13.550   5.965  1.00 20.00    -0.048 C 
HETATM    9  C9  UNL     1     -41.703  14.005   4.492  1.00 20.00     0.015 C 
HETATM   10  C10 UNL     1     -40.607  12.342   5.977  1.00 20.00     0.015 C 
HETATM   11  N11 UNL     1     -41.165  13.493  11.515  1.00 20.00    -0.195 NA
HETATM   12 CL12 UNL     1     -41.958  16.414   9.636  1.00 20.00    -0.103 Cl
ENDROOT
TORSDOF 0
ENDMDL
