MODEL 1
REMARK VINA RESULT:      -4.9      0.000      0.000
REMARK  1 active torsions:
REMARK  status: ('A' for Active; 'I' for Inactive)
REMARK    1  A    between atoms: C2_2  and  C9_9 
ROOT
HETATM    1  C1  UNL     1     -33.603   6.204   3.608  1.00 20.00    -0.004 C 
HETATM    2  C2  UNL     1     -33.053   7.347   4.063  1.00 20.00    -0.078 C 
HETATM    3  C3  UNL     1     -33.292   7.817   5.481  1.00 20.00     0.034 C 
HETATM    4  C4  UNL     1     -33.883   6.748   6.405  1.00 20.00     0.006 C 
HETATM    5  C5  UNL     1     -35.002   5.982   5.705  1.00 20.00     0.024 C 
HETATM    6  C8  UNL     1     -34.511   5.321   4.414  1.00 20.00     0.105 C 
HETATM    7 CL10 UNL     1     -33.629   3.806   4.785  1.00 20.00    -0.121 Cl
ENDROOT
BRANCH   2   8
HETATM    8  C9  UNL     1     -32.168   8.211   3.242  1.00 20.00     0.014 A 
HETATM    9  C6  UNL     1     -32.104   7.954   1.775  1.00 20.00     0.010 A 
HETATM   10  C7  UNL     1     -32.809   9.170   2.297  1.00 20.00     0.010 A 
ENDBRANCH   2   8
TORSDOF 1
ENDMDL
MODEL 2
REMARK VINA RESULT:      -4.8      2.125      3.988
REMARK  1 active torsions:
REMARK  status: ('A' for Active; 'I' for Inactive)
REMARK    1  A    between atoms: C2_2  and  C9_9 
ROOT
HETATM    1  C1  UNL     1     -33.102   6.570   3.352  1.00 20.00    -0.004 C 
HETATM    2  C2  UNL     1     -33.785   6.821   4.486  1.00 20.00    -0.078 C 
HETATM    3  C3  UNL     1     -33.448   8.016   5.352  1.00 20.00     0.034 C 
HETATM    4  C4  UNL     1     -32.553   9.053   4.668  1.00 20.00     0.006 C 
HETATM    5  C5  UNL     1     -31.417   8.376   3.907  1.00 20.00     0.024 C 
HETATM    6  C8  UNL     1     -31.948   7.394   2.858  1.00 20.00     0.105 C 
HETATM    7 CL10 UNL     1     -32.481   8.275   1.392  1.00 20.00    -0.121 Cl
ENDROOT
BRANCH   2   8
HETATM    8  C9  UNL     1     -34.915   5.985   4.962  1.00 20.00     0.014 A 
HETATM    9  C6  UNL     1     -34.700   4.513   5.067  1.00 20.00     0.010 A 
HETATM   10  C7  UNL     1     -34.798   5.351   6.306  1.00 20.00     0.010 A 
ENDBRANCH   2   8
TORSDOF 1
ENDMDL
MODEL 3
REMARK VINA RESULT:      -4.4      2.133      4.320
REMARK  1 active torsions:
REMARK  status: ('A' for Active; 'I' for Inactive)
REMARK    1  A    between atoms: C2_2  and  C9_9 
ROOT
HETATM    1  C1  UNL     1     -33.893   7.948   4.704  1.00 20.00    -0.004 C 
HETATM    2  C2  UNL     1     -33.980   6.649   4.357  1.00 20.00    -0.078 C 
HETATM    3  C3  UNL     1     -33.156   6.089   3.218  1.00 20.00     0.034 C 
HETATM    4  C4  UNL     1     -32.013   7.001   2.764  1.00 20.00     0.006 C 
HETATM    5  C5  UNL     1     -32.478   8.451   2.666  1.00 20.00     0.024 C 
HETATM    6  C8  UNL     1     -33.030   8.957   4.002  1.00 20.00     0.105 C 
HETATM    7 CL10 UNL     1     -31.688   9.402   5.103  1.00 20.00    -0.121 Cl
ENDROOT
BRANCH   2   8
HETATM    8  C9  UNL     1     -34.851   5.673   5.058  1.00 20.00     0.014 A 
HETATM    9  C6  UNL     1     -34.196   4.568   5.815  1.00 20.00     0.010 A 
HETATM   10  C7  UNL     1     -34.864   5.692   6.549  1.00 20.00     0.010 A 
ENDBRANCH   2   8
TORSDOF 1
ENDMDL
MODEL 4
REMARK VINA RESULT:      -4.2     11.765     12.812
REMARK  1 active torsions:
REMARK  status: ('A' for Active; 'I' for Inactive)
REMARK    1  A    between atoms: C2_2  and  C9_9 
ROOT
HETATM    1  C1  UNL     1     -33.675  15.217  -3.906  1.00 20.00    -0.004 C 
HETATM    2  C2  UNL     1     -33.652  16.498  -3.488  1.00 20.00    -0.078 C 
HETATM    3  C3  UNL     1     -34.371  17.584  -4.259  1.00 20.00     0.034 C 
HETATM    4  C4  UNL     1     -35.370  17.060  -5.295  1.00 20.00     0.006 C 
HETATM    5  C5  UNL     1     -34.779  15.894  -6.081  1.00 20.00     0.024 C 
HETATM    6  C8  UNL     1     -34.358  14.747  -5.157  1.00 20.00     0.105 C 
HETATM    7 CL10 UNL     1     -35.785  13.775  -4.680  1.00 20.00    -0.121 Cl
ENDROOT
BRANCH   2   8
HETATM    8  C9  UNL     1     -32.958  16.942  -2.254  1.00 20.00     0.014 A 
HETATM    9  C6  UNL     1     -32.855  18.407  -1.997  1.00 20.00     0.010 A 
HETATM   10  C7  UNL     1     -33.779  17.562  -1.174  1.00 20.00     0.010 A 
ENDBRANCH   2   8
TORSDOF 1
ENDMDL
MODEL 5
REMARK VINA RESULT:      -4.1     10.156     10.759
REMARK  1 active torsions:
REMARK  status: ('A' for Active; 'I' for Inactive)
REMARK    1  A    between atoms: C2_2  and  C9_9 
ROOT
HETATM    1  C1  UNL     1     -40.603  13.653   7.411  1.00 20.00    -0.004 C 
HETATM    2  C2  UNL     1     -40.662  13.036   6.214  1.00 20.00    -0.078 C 
HETATM    3  C3  UNL     1     -41.588  13.531   5.125  1.00 20.00     0.034 C 
HETATM    4  C4  UNL     1     -42.149  14.935   5.370  1.00 20.00     0.006 C 
HETATM    5  C5  UNL     1     -42.595  15.099   6.819  1.00 20.00     0.024 C 
HETATM    6  C8  UNL     1     -41.445  14.835   7.796  1.00 20.00     0.105 C 
HETATM    7 CL10 UNL     1     -40.376  16.268   7.904  1.00 20.00    -0.121 Cl
ENDROOT
BRANCH   2   8
HETATM    8  C9  UNL     1     -39.829  11.860   5.860  1.00 20.00     0.014 A 
HETATM    9  C6  UNL     1     -39.358  11.734   4.451  1.00 20.00     0.010 A 
HETATM   10  C7  UNL     1     -38.391  12.093   5.539  1.00 20.00     0.010 A 
ENDBRANCH   2   8
TORSDOF 1
ENDMDL
MODEL 6
REMARK VINA RESULT:      -4.1     11.730     13.013
REMARK  1 active torsions:
REMARK  status: ('A' for Active; 'I' for Inactive)
REMARK    1  A    between atoms: C2_2  and  C9_9 
ROOT
HETATM    1  C1  UNL     1     -33.382  16.722  -2.069  1.00 20.00    -0.004 C 
HETATM    2  C2  UNL     1     -33.510  16.548  -3.400  1.00 20.00    -0.078 C 
HETATM    3  C3  UNL     1     -33.918  17.693  -4.301  1.00 20.00     0.034 C 
HETATM    4  C4  UNL     1     -33.822  19.073  -3.643  1.00 20.00     0.006 C 
HETATM    5  C5  UNL     1     -34.383  19.041  -2.225  1.00 20.00     0.024 C 
HETATM    6  C8  UNL     1     -33.657  18.012  -1.353  1.00 20.00     0.105 C 
HETATM    7 CL10 UNL     1     -32.094  18.674  -0.780  1.00 20.00    -0.121 Cl
ENDROOT
BRANCH   2   8
HETATM    8  C9  UNL     1     -33.246  15.258  -4.084  1.00 20.00     0.014 A 
HETATM    9  C6  UNL     1     -34.368  14.284  -4.200  1.00 20.00     0.010 A 
HETATM   10  C7  UNL     1     -33.887  15.026  -5.410  1.00 20.00     0.010 A 
ENDBRANCH   2   8
TORSDOF 1
ENDMDL
MODEL 7
REMARK VINA RESULT:      -4.0      9.956     10.546
REMARK  1 active torsions:
REMARK  status: ('A' for Active; 'I' for Inactive)
REMARK    1  A    between atoms: C2_2  and  C9_9 
ROOT
HETATM    1  C1  UNL     1     -42.122  12.439   6.734  1.00 20.00    -0.004 C 
HETATM    2  C2  UNL     1     -40.828  12.681   6.445  1.00 20.00    -0.078 C 
HETATM    3  C3  UNL     1     -40.195  14.019   6.761  1.00 20.00     0.034 C 
HETATM    4  C4  UNL     1     -41.015  14.890   7.716  1.00 20.00     0.006 C 
HETATM    5  C5  UNL     1     -42.494  14.869   7.339  1.00 20.00     0.024 C 
HETATM    6  C8  UNL     1     -43.056  13.444   7.344  1.00 20.00     0.105 C 
HETATM    7 CL10 UNL     1     -43.417  12.922   9.019  1.00 20.00    -0.121 Cl
ENDROOT
BRANCH   2   8
HETATM    8  C9  UNL     1     -39.927  11.676   5.829  1.00 20.00     0.014 A 
HETATM    9  C6  UNL     1     -39.471  11.909   4.429  1.00 20.00     0.010 A 
HETATM   10  C7  UNL     1     -38.512  12.070   5.570  1.00 20.00     0.010 A 
ENDBRANCH   2   8
TORSDOF 1
ENDMDL
MODEL 8
REMARK VINA RESULT:      -4.0     12.388     13.410
REMARK  1 active torsions:
REMARK  status: ('A' for Active; 'I' for Inactive)
REMARK    1  A    between atoms: C2_2  and  C9_9 
ROOT
HETATM    1  C1  UNL     1     -34.459  17.483  -4.155  1.00 20.00    -0.004 C 
HETATM    2  C2  UNL     1     -33.731  16.575  -3.475  1.00 20.00    -0.078 C 
HETATM    3  C3  UNL     1     -33.532  15.174  -4.012  1.00 20.00     0.034 C 
HETATM    4  C4  UNL     1     -33.907  15.009  -5.487  1.00 20.00     0.006 C 
HETATM    5  C5  UNL     1     -35.224  15.715  -5.797  1.00 20.00     0.024 C 
HETATM    6  C8  UNL     1     -35.159  17.206  -5.454  1.00 20.00     0.105 C 
HETATM    7 CL10 UNL     1     -34.306  18.106  -6.748  1.00 20.00    -0.121 Cl
ENDROOT
BRANCH   2   8
HETATM    8  C9  UNL     1     -33.060  16.868  -2.185  1.00 20.00     0.014 A 
HETATM    9  C6  UNL     1     -32.725  18.287  -1.876  1.00 20.00     0.010 A 
HETATM   10  C7  UNL     1     -33.836  17.599  -1.142  1.00 20.00     0.010 A 
ENDBRANCH   2   8
TORSDOF 1
ENDMDL
MODEL 9
REMARK VINA RESULT:      -3.9     12.289     13.193
REMARK  1 active torsions:
REMARK  status: ('A' for Active; 'I' for Inactive)
REMARK    1  A    between atoms: C2_2  and  C9_9 
ROOT
HETATM    1  C1  UNL     1     -34.878  17.460  -4.378  1.00 20.00    -0.004 C 
HETATM    2  C2  UNL     1     -34.051  17.207  -3.345  1.00 20.00    -0.078 C 
HETATM    3  C3  UNL     1     -33.344  15.875  -3.218  1.00 20.00     0.034 C 
HETATM    4  C4  UNL     1     -33.372  15.027  -4.493  1.00 20.00     0.006 C 
HETATM    5  C5  UNL     1     -34.759  15.046  -5.129  1.00 20.00     0.024 C 
HETATM    6  C8  UNL     1     -35.209  16.472  -5.459  1.00 20.00     0.105 C 
HETATM    7 CL10 UNL     1     -34.443  17.032  -6.978  1.00 20.00    -0.121 Cl
ENDROOT
BRANCH   2   8
HETATM    8  C9  UNL     1     -33.750  18.195  -2.280  1.00 20.00     0.014 A 
HETATM    9  C6  UNL     1     -33.795  17.734  -0.863  1.00 20.00     0.010 A 
HETATM   10  C7  UNL     1     -32.479  18.034  -1.515  1.00 20.00     0.010 A 
ENDBRANCH   2   8
TORSDOF 1
ENDMDL
