MODEL 1
REMARK VINA RESULT:      -5.1      0.000      0.000
REMARK  2 active torsions:
REMARK  status: ('A' for Active; 'I' for Inactive)
REMARK    1  A    between atoms: C4_4  and  C9_9 
REMARK    2  A    between atoms: C8_8  and  O10_10 
ROOT
HETATM    1  C1  UNL     1     -32.879   9.662   1.531  1.00 20.00     0.012 C 
HETATM    2  C2  UNL     1     -32.716   9.167   2.613  1.00 20.00    -0.113 C 
HETATM    3  C9  UNL     1     -32.506   8.581   3.936  1.00 20.00     0.127 C 
ENDROOT
BRANCH   3   4
HETATM    4  C4  UNL     1     -33.150   7.228   3.995  1.00 20.00    -0.070 C 
HETATM    5  C3  UNL     1     -34.167   6.961   4.834  1.00 20.00     0.008 C 
HETATM    6  C8  UNL     1     -34.815   5.612   4.947  1.00 20.00     0.141 C 
HETATM    7  C7  UNL     1     -34.003   4.499   4.283  1.00 20.00     0.036 C 
HETATM    8  C6  UNL     1     -33.474   4.942   2.926  1.00 20.00     0.007 C 
HETATM    9  C5  UNL     1     -32.590   6.185   3.060  1.00 20.00     0.035 C 
BRANCH   6  10
HETATM   10  O10 UNL     1     -34.986   5.302   6.327  1.00 20.00    -0.392 OA
HETATM   11  H22 UNL     1     -34.102   5.125   6.683  1.00 20.00     0.210 HD
ENDBRANCH   6  10
ENDBRANCH   3   4
TORSDOF 2
ENDMDL
MODEL 2
REMARK VINA RESULT:      -4.9      1.145      2.088
REMARK  2 active torsions:
REMARK  status: ('A' for Active; 'I' for Inactive)
REMARK    1  A    between atoms: C4_4  and  C9_9 
REMARK    2  A    between atoms: C8_8  and  O10_10 
ROOT
HETATM    1  C1  UNL     1     -32.887   9.536   1.231  1.00 20.00     0.012 C 
HETATM    2  C2  UNL     1     -32.547   8.489   1.711  1.00 20.00    -0.113 C 
HETATM    3  C9  UNL     1     -32.121   7.212   2.280  1.00 20.00     0.127 C 
ENDROOT
BRANCH   3   4
HETATM    4  C4  UNL     1     -32.845   6.969   3.572  1.00 20.00    -0.070 C 
HETATM    5  C3  UNL     1     -33.509   5.824   3.809  1.00 20.00     0.008 C 
HETATM    6  C8  UNL     1     -34.272   5.556   5.073  1.00 20.00     0.141 C 
HETATM    7  C7  UNL     1     -34.511   6.816   5.908  1.00 20.00     0.036 C 
HETATM    8  C6  UNL     1     -33.252   7.668   5.983  1.00 20.00     0.007 C 
HETATM    9  C5  UNL     1     -32.786   8.084   4.585  1.00 20.00     0.035 C 
BRANCH   6  10
HETATM   10  O10 UNL     1     -35.530   4.979   4.733  1.00 20.00    -0.392 OA
HETATM   11  H22 UNL     1     -36.024   5.658   4.248  1.00 20.00     0.210 HD
ENDBRANCH   6  10
ENDBRANCH   3   4
TORSDOF 2
ENDMDL
MODEL 3
REMARK VINA RESULT:      -4.5     11.493     12.532
REMARK  2 active torsions:
REMARK  status: ('A' for Active; 'I' for Inactive)
REMARK    1  A    between atoms: C4_4  and  C9_9 
REMARK    2  A    between atoms: C8_8  and  O10_10 
ROOT
HETATM    1  C1  UNL     1     -33.734  17.784  -0.258  1.00 20.00     0.012 C 
HETATM    2  C2  UNL     1     -33.430  17.925  -1.410  1.00 20.00    -0.113 C 
HETATM    3  C9  UNL     1     -33.048  18.113  -2.809  1.00 20.00     0.127 C 
ENDROOT
BRANCH   3   4
HETATM    4  C4  UNL     1     -33.672  17.040  -3.651  1.00 20.00    -0.070 C 
HETATM    5  C3  UNL     1     -33.410  15.736  -3.449  1.00 20.00     0.008 C 
HETATM    6  C8  UNL     1     -33.988  14.636  -4.290  1.00 20.00     0.141 C 
HETATM    7  C7  UNL     1     -34.616  15.141  -5.590  1.00 20.00     0.036 C 
HETATM    8  C6  UNL     1     -35.455  16.387  -5.344  1.00 20.00     0.007 C 
HETATM    9  C5  UNL     1     -34.608  17.509  -4.737  1.00 20.00     0.035 C 
BRANCH   6  10
HETATM   10  O10 UNL     1     -32.952  13.710  -4.604  1.00 20.00    -0.392 OA
HETATM   11  H22 UNL     1     -32.673  13.311  -3.765  1.00 20.00     0.210 HD
ENDBRANCH   6  10
ENDBRANCH   3   4
TORSDOF 2
ENDMDL
MODEL 4
REMARK VINA RESULT:      -4.4      1.103      1.436
REMARK  2 active torsions:
REMARK  status: ('A' for Active; 'I' for Inactive)
REMARK    1  A    between atoms: C4_4  and  C9_9 
REMARK    2  A    between atoms: C8_8  and  O10_10 
ROOT
HETATM    1  C1  UNL     1     -32.939   9.500   1.301  1.00 20.00     0.012 C 
HETATM    2  C2  UNL     1     -32.473   8.562   1.888  1.00 20.00    -0.113 C 
HETATM    3  C9  UNL     1     -31.887   7.423   2.592  1.00 20.00     0.127 C 
ENDROOT
BRANCH   3   4
HETATM    4  C4  UNL     1     -32.895   6.845   3.542  1.00 20.00    -0.070 C 
HETATM    5  C3  UNL     1     -33.442   7.578   4.529  1.00 20.00     0.008 C 
HETATM    6  C8  UNL     1     -34.427   7.030   5.519  1.00 20.00     0.141 C 
HETATM    7  C7  UNL     1     -34.490   5.501   5.519  1.00 20.00     0.036 C 
HETATM    8  C6  UNL     1     -34.503   4.954   4.098  1.00 20.00     0.007 C 
HETATM    9  C5  UNL     1     -33.256   5.397   3.327  1.00 20.00     0.035 C 
BRANCH   6  10
HETATM   10  O10 UNL     1     -34.064   7.479   6.821  1.00 20.00    -0.392 OA
HETATM   11  H22 UNL     1     -33.440   8.211   6.697  1.00 20.00     0.210 HD
ENDBRANCH   6  10
ENDBRANCH   3   4
TORSDOF 2
ENDMDL
MODEL 5
REMARK VINA RESULT:      -4.3     12.102     13.135
REMARK  2 active torsions:
REMARK  status: ('A' for Active; 'I' for Inactive)
REMARK    1  A    between atoms: C4_4  and  C9_9 
REMARK    2  A    between atoms: C8_8  and  O10_10 
ROOT
HETATM    1  C1  UNL     1     -33.536  17.365  -1.430  1.00 20.00     0.012 C 
HETATM    2  C2  UNL     1     -33.371  16.705  -2.419  1.00 20.00    -0.113 C 
HETATM    3  C9  UNL     1     -33.150  15.896  -3.617  1.00 20.00     0.127 C 
ENDROOT
BRANCH   3   4
HETATM    4  C4  UNL     1     -34.349  15.988  -4.514  1.00 20.00    -0.070 C 
HETATM    5  C3  UNL     1     -34.928  14.893  -5.039  1.00 20.00     0.008 C 
HETATM    6  C8  UNL     1     -36.107  14.944  -5.967  1.00 20.00     0.141 C 
HETATM    7  C7  UNL     1     -36.370  16.344  -6.525  1.00 20.00     0.036 C 
HETATM    8  C6  UNL     1     -36.255  17.399  -5.434  1.00 20.00     0.007 C 
HETATM    9  C5  UNL     1     -34.865  17.378  -4.793  1.00 20.00     0.035 C 
BRANCH   6  10
HETATM   10  O10 UNL     1     -35.875  14.049  -7.050  1.00 20.00    -0.392 OA
HETATM   11  H22 UNL     1     -36.266  13.199  -6.795  1.00 20.00     0.210 HD
ENDBRANCH   6  10
ENDBRANCH   3   4
TORSDOF 2
ENDMDL
MODEL 6
REMARK VINA RESULT:      -4.2      1.909      4.028
REMARK  2 active torsions:
REMARK  status: ('A' for Active; 'I' for Inactive)
REMARK    1  A    between atoms: C4_4  and  C9_9 
REMARK    2  A    between atoms: C8_8  and  O10_10 
ROOT
HETATM    1  C1  UNL     1     -34.883   5.042   6.841  1.00 20.00     0.012 C 
HETATM    2  C2  UNL     1     -34.449   6.121   6.543  1.00 20.00    -0.113 C 
HETATM    3  C9  UNL     1     -33.927   7.443   6.198  1.00 20.00     0.127 C 
ENDROOT
BRANCH   3   4
HETATM    4  C4  UNL     1     -33.394   7.424   4.796  1.00 20.00    -0.070 C 
HETATM    5  C3  UNL     1     -33.620   6.391   3.964  1.00 20.00     0.008 C 
HETATM    6  C8  UNL     1     -33.077   6.320   2.567  1.00 20.00     0.141 C 
HETATM    7  C7  UNL     1     -31.976   7.348   2.298  1.00 20.00     0.036 C 
HETATM    8  C6  UNL     1     -32.349   8.710   2.866  1.00 20.00     0.007 C 
HETATM    9  C5  UNL     1     -32.589   8.629   4.376  1.00 20.00     0.035 C 
BRANCH   6  10
HETATM   10  O10 UNL     1     -32.555   5.013   2.346  1.00 20.00    -0.392 OA
HETATM   11  H22 UNL     1     -31.808   4.907   2.955  1.00 20.00     0.210 HD
ENDBRANCH   6  10
ENDBRANCH   3   4
TORSDOF 2
ENDMDL
MODEL 7
REMARK VINA RESULT:      -4.1     11.616     12.442
REMARK  2 active torsions:
REMARK  status: ('A' for Active; 'I' for Inactive)
REMARK    1  A    between atoms: C4_4  and  C9_9 
REMARK    2  A    between atoms: C8_8  and  O10_10 
ROOT
HETATM    1  C1  UNL     1     -33.554  15.599  -3.547  1.00 20.00     0.012 C 
HETATM    2  C2  UNL     1     -33.304  16.731  -3.236  1.00 20.00    -0.113 C 
HETATM    3  C9  UNL     1     -32.999  18.115  -2.878  1.00 20.00     0.127 C 
ENDROOT
BRANCH   3   4
HETATM    4  C4  UNL     1     -32.855  18.230  -1.389  1.00 20.00    -0.070 C 
HETATM    5  C3  UNL     1     -33.848  17.883  -0.550  1.00 20.00     0.008 C 
HETATM    6  C8  UNL     1     -33.755  18.014   0.942  1.00 20.00     0.141 C 
HETATM    7  C7  UNL     1     -32.582  18.885   1.396  1.00 20.00     0.036 C 
HETATM    8  C6  UNL     1     -31.320  18.553   0.614  1.00 20.00     0.007 C 
HETATM    9  C5  UNL     1     -31.534  18.758  -0.889  1.00 20.00     0.035 C 
BRANCH   6  10
HETATM   10  O10 UNL     1     -34.969  18.581   1.427  1.00 20.00    -0.392 OA
HETATM   11  H22 UNL     1     -34.865  18.678   2.386  1.00 20.00     0.210 HD
ENDBRANCH   6  10
ENDBRANCH   3   4
TORSDOF 2
ENDMDL
MODEL 8
REMARK VINA RESULT:      -4.0      2.443      4.185
REMARK  2 active torsions:
REMARK  status: ('A' for Active; 'I' for Inactive)
REMARK    1  A    between atoms: C4_4  and  C9_9 
REMARK    2  A    between atoms: C8_8  and  O10_10 
ROOT
HETATM    1  C1  UNL     1     -34.744   5.201   6.495  1.00 20.00     0.012 C 
HETATM    2  C2  UNL     1     -34.321   6.290   6.216  1.00 20.00    -0.113 C 
HETATM    3  C9  UNL     1     -33.811   7.622   5.896  1.00 20.00     0.127 C 
ENDROOT
BRANCH   3   4
HETATM    4  C4  UNL     1     -33.247   7.625   4.506  1.00 20.00    -0.070 C 
HETATM    5  C3  UNL     1     -32.833   8.757   3.910  1.00 20.00     0.008 C 
HETATM    6  C8  UNL     1     -32.294   8.807   2.510  1.00 20.00     0.141 C 
HETATM    7  C7  UNL     1     -32.575   7.531   1.714  1.00 20.00     0.036 C 
HETATM    8  C6  UNL     1     -32.306   6.291   2.554  1.00 20.00     0.007 C 
HETATM    9  C5  UNL     1     -33.173   6.285   3.817  1.00 20.00     0.035 C 
BRANCH   6  10
HETATM   10  O10 UNL     1     -32.881   9.915   1.834  1.00 20.00    -0.392 OA
HETATM   11  H22 UNL     1     -33.804   9.676   1.660  1.00 20.00     0.210 HD
ENDBRANCH   6  10
ENDBRANCH   3   4
TORSDOF 2
ENDMDL
MODEL 9
REMARK VINA RESULT:      -4.0     11.768     12.831
REMARK  2 active torsions:
REMARK  status: ('A' for Active; 'I' for Inactive)
REMARK    1  A    between atoms: C4_4  and  C9_9 
REMARK    2  A    between atoms: C8_8  and  O10_10 
ROOT
HETATM    1  C1  UNL     1     -33.580  15.506  -3.495  1.00 20.00     0.012 C 
HETATM    2  C2  UNL     1     -33.329  16.667  -3.322  1.00 20.00    -0.113 C 
HETATM    3  C9  UNL     1     -33.024  18.084  -3.133  1.00 20.00     0.127 C 
ENDROOT
BRANCH   3   4
HETATM    4  C4  UNL     1     -32.893  18.379  -1.668  1.00 20.00    -0.070 C 
HETATM    5  C3  UNL     1     -31.802  18.980  -1.159  1.00 20.00     0.008 C 
HETATM    6  C8  UNL     1     -31.619  19.263   0.304  1.00 20.00     0.141 C 
HETATM    7  C7  UNL     1     -32.613  18.509   1.189  1.00 20.00     0.036 C 
HETATM    8  C6  UNL     1     -34.018  18.566   0.606  1.00 20.00     0.007 C 
HETATM    9  C5  UNL     1     -34.055  17.962  -0.801  1.00 20.00     0.035 C 
BRANCH   6  10
HETATM   10  O10 UNL     1     -30.294  18.896   0.677  1.00 20.00    -0.392 OA
HETATM   11  H22 UNL     1     -29.707  19.244  -0.012  1.00 20.00     0.210 HD
ENDBRANCH   6  10
ENDBRANCH   3   4
TORSDOF 2
ENDMDL
