MODEL 1
REMARK VINA RESULT:      -4.5      0.000      0.000
REMARK  1 active torsions:
REMARK  status: ('A' for Active; 'I' for Inactive)
REMARK    1  A    between atoms: C2_2  and  C9_9 
ROOT
HETATM    1  C1  UNL     1     -33.029   7.125   3.420  1.00 20.00    -0.004 C 
HETATM    2  C2  UNL     1     -33.798   7.243   4.510  1.00 20.00    -0.076 C 
HETATM    3  C3  UNL     1     -33.500   8.506   5.258  1.00 20.00     0.036 C 
HETATM    4  C4  UNL     1     -32.169   8.946   4.647  1.00 20.00     0.028 C 
HETATM    5  C8  UNL     1     -32.098   8.284   3.269  1.00 20.00     0.105 C 
HETATM    6 CL11 UNL     1     -32.691   9.365   1.989  1.00 20.00    -0.121 Cl
ENDROOT
BRANCH   2   7
HETATM    7  C9  UNL     1     -34.866   6.299   4.968  1.00 20.00     0.040 C 
HETATM    8  C5  UNL     1     -34.679   4.895   4.427  1.00 20.00     0.037 C 
HETATM    9  C6  UNL     1     -33.723   4.269   5.424  1.00 20.00     0.168 C 
HETATM   10  O10 UNL     1     -33.950   4.918   6.682  1.00 20.00    -0.390 OA
HETATM   11  C7  UNL     1     -34.795   6.061   6.469  1.00 20.00     0.176 C 
ENDBRANCH   2   7
TORSDOF 1
ENDMDL
MODEL 2
REMARK VINA RESULT:      -4.1     11.971     13.061
REMARK  1 active torsions:
REMARK  status: ('A' for Active; 'I' for Inactive)
REMARK    1  A    between atoms: C2_2  and  C9_9 
ROOT
HETATM    1  C1  UNL     1     -33.551  16.453  -2.437  1.00 20.00    -0.004 C 
HETATM    2  C2  UNL     1     -33.704  16.332  -3.763  1.00 20.00    -0.076 C 
HETATM    3  C3  UNL     1     -34.059  17.641  -4.396  1.00 20.00     0.036 C 
HETATM    4  C4  UNL     1     -34.459  18.494  -3.192  1.00 20.00     0.028 C 
HETATM    5  C8  UNL     1     -33.779  17.856  -1.978  1.00 20.00     0.105 C 
HETATM    6 CL11 UNL     1     -32.221  18.628  -1.616  1.00 20.00    -0.121 Cl
ENDROOT
BRANCH   2   7
HETATM    7  C9  UNL     1     -33.524  15.092  -4.583  1.00 20.00     0.040 C 
HETATM    8  C5  UNL     1     -34.459  13.974  -4.167  1.00 20.00     0.037 C 
HETATM    9  C6  UNL     1     -35.725  14.280  -4.943  1.00 20.00     0.168 C 
HETATM   10  O10 UNL     1     -35.326  14.963  -6.139  1.00 20.00    -0.390 OA
HETATM   11  C7  UNL     1     -33.937  15.315  -6.030  1.00 20.00     0.176 C 
ENDBRANCH   2   7
TORSDOF 1
ENDMDL
MODEL 3
REMARK VINA RESULT:      -4.0     12.242     13.258
REMARK  1 active torsions:
REMARK  status: ('A' for Active; 'I' for Inactive)
REMARK    1  A    between atoms: C2_2  and  C9_9 
ROOT
HETATM    1  C1  UNL     1     -34.230  17.423  -4.541  1.00 20.00    -0.004 C 
HETATM    2  C2  UNL     1     -33.802  16.248  -4.062  1.00 20.00    -0.076 C 
HETATM    3  C3  UNL     1     -33.411  16.351  -2.620  1.00 20.00     0.036 C 
HETATM    4  C4  UNL     1     -33.321  17.863  -2.410  1.00 20.00     0.028 C 
HETATM    5  C8  UNL     1     -34.192  18.494  -3.500  1.00 20.00     0.105 C 
HETATM    6 CL11 UNL     1     -35.838  18.822  -2.917  1.00 20.00    -0.121 Cl
ENDROOT
BRANCH   2   7
HETATM    7  C9  UNL     1     -33.730  14.945  -4.798  1.00 20.00     0.040 C 
HETATM    8  C5  UNL     1     -34.831  13.984  -4.398  1.00 20.00     0.037 C 
HETATM    9  C6  UNL     1     -35.987  14.400  -5.287  1.00 20.00     0.168 C 
HETATM   10  O10 UNL     1     -35.418  14.949  -6.482  1.00 20.00    -0.390 OA
HETATM   11  C7  UNL     1     -34.006  15.127  -6.283  1.00 20.00     0.176 C 
ENDBRANCH   2   7
TORSDOF 1
ENDMDL
MODEL 4
REMARK VINA RESULT:      -3.9     12.355     13.500
REMARK  1 active torsions:
REMARK  status: ('A' for Active; 'I' for Inactive)
REMARK    1  A    between atoms: C2_2  and  C9_9 
ROOT
HETATM    1  C1  UNL     1     -34.576  16.873  -4.998  1.00 20.00    -0.004 C 
HETATM    2  C2  UNL     1     -33.686  16.864  -3.997  1.00 20.00    -0.076 C 
HETATM    3  C3  UNL     1     -33.182  15.481  -3.722  1.00 20.00     0.036 C 
HETATM    4  C4  UNL     1     -34.189  14.607  -4.471  1.00 20.00     0.028 C 
HETATM    5  C8  UNL     1     -34.807  15.503  -5.547  1.00 20.00     0.105 C 
HETATM    6 CL11 UNL     1     -33.969  15.333  -7.104  1.00 20.00    -0.121 Cl
ENDROOT
BRANCH   2   7
HETATM    7  C9  UNL     1     -33.180  18.046  -3.228  1.00 20.00     0.040 C 
HETATM    8  C5  UNL     1     -34.224  19.134  -3.074  1.00 20.00     0.037 C 
HETATM    9  C6  UNL     1     -34.999  18.693  -1.848  1.00 20.00     0.168 C 
HETATM   10  O10 UNL     1     -34.092  17.946  -1.028  1.00 20.00    -0.390 OA
HETATM   11  C7  UNL     1     -32.894  17.687  -1.778  1.00 20.00     0.176 C 
ENDBRANCH   2   7
TORSDOF 1
ENDMDL
MODEL 5
REMARK VINA RESULT:      -3.9     12.513     13.122
REMARK  1 active torsions:
REMARK  status: ('A' for Active; 'I' for Inactive)
REMARK    1  A    between atoms: C2_2  and  C9_9 
ROOT
HETATM    1  C1  UNL     1     -33.123  18.715   0.848  1.00 20.00    -0.004 C 
HETATM    2  C2  UNL     1     -32.867  18.146  -0.337  1.00 20.00    -0.076 C 
HETATM    3  C3  UNL     1     -31.412  18.226  -0.681  1.00 20.00     0.036 C 
HETATM    4  C4  UNL     1     -30.892  19.263   0.316  1.00 20.00     0.028 C 
HETATM    5  C8  UNL     1     -31.886  19.263   1.481  1.00 20.00     0.105 C 
HETATM    6 CL11 UNL     1     -31.359  18.188   2.794  1.00 20.00    -0.121 Cl
ENDROOT
BRANCH   2   7
HETATM    7  C9  UNL     1     -33.846  17.466  -1.244  1.00 20.00     0.040 C 
HETATM    8  C5  UNL     1     -34.807  18.435  -1.902  1.00 20.00     0.037 C 
HETATM    9  C6  UNL     1     -34.037  18.906  -3.120  1.00 20.00     0.168 C 
HETATM   10  O10 UNL     1     -33.158  17.838  -3.495  1.00 20.00    -0.390 OA
HETATM   11  C7  UNL     1     -33.155  16.851  -2.451  1.00 20.00     0.176 C 
ENDBRANCH   2   7
TORSDOF 1
ENDMDL
MODEL 6
REMARK VINA RESULT:      -3.8     12.570     13.946
REMARK  1 active torsions:
REMARK  status: ('A' for Active; 'I' for Inactive)
REMARK    1  A    between atoms: C2_2  and  C9_9 
ROOT
HETATM    1  C1  UNL     1     -34.366  17.127  -4.301  1.00 20.00    -0.004 C 
HETATM    2  C2  UNL     1     -34.848  16.008  -4.858  1.00 20.00    -0.076 C 
HETATM    3  C3  UNL     1     -34.057  14.805  -4.448  1.00 20.00     0.036 C 
HETATM    4  C4  UNL     1     -32.795  15.428  -3.850  1.00 20.00     0.028 C 
HETATM    5  C8  UNL     1     -33.181  16.850  -3.435  1.00 20.00     0.105 C 
HETATM    6 CL11 UNL     1     -33.657  16.928  -1.725  1.00 20.00    -0.121 Cl
ENDROOT
BRANCH   2   7
HETATM    7  C9  UNL     1     -36.042  15.888  -5.755  1.00 20.00     0.040 C 
HETATM    8  C5  UNL     1     -36.101  16.984  -6.800  1.00 20.00     0.037 C 
HETATM    9  C6  UNL     1     -35.231  16.440  -7.916  1.00 20.00     0.168 C 
HETATM   10  O10 UNL     1     -35.312  15.010  -7.848  1.00 20.00    -0.390 OA
HETATM   11  C7  UNL     1     -35.965  14.641  -6.622  1.00 20.00     0.176 C 
ENDBRANCH   2   7
TORSDOF 1
ENDMDL
MODEL 7
REMARK VINA RESULT:      -3.8      2.666      4.214
REMARK  1 active torsions:
REMARK  status: ('A' for Active; 'I' for Inactive)
REMARK    1  A    between atoms: C2_2  and  C9_9 
ROOT
HETATM    1  C1  UNL     1     -34.628   6.254   4.304  1.00 20.00    -0.004 C 
HETATM    2  C2  UNL     1     -34.015   7.161   5.077  1.00 20.00    -0.076 C 
HETATM    3  C3  UNL     1     -33.808   6.647   6.468  1.00 20.00     0.036 C 
HETATM    4  C4  UNL     1     -34.728   5.426   6.510  1.00 20.00     0.028 C 
HETATM    5  C8  UNL     1     -34.927   4.997   5.054  1.00 20.00     0.105 C 
HETATM    6 CL11 UNL     1     -33.777   3.729   4.579  1.00 20.00    -0.121 Cl
ENDROOT
BRANCH   2   7
HETATM    7  C9  UNL     1     -33.534   8.519   4.667  1.00 20.00     0.040 C 
HETATM    8  C5  UNL     1     -32.053   8.717   4.919  1.00 20.00     0.037 C 
HETATM    9  C6  UNL     1     -31.414   8.136   3.673  1.00 20.00     0.168 C 
HETATM   10  O10 UNL     1     -32.357   8.300   2.606  1.00 20.00    -0.390 OA
HETATM   11  C7  UNL     1     -33.618   8.710   3.161  1.00 20.00     0.176 C 
ENDBRANCH   2   7
TORSDOF 1
ENDMDL
MODEL 8
REMARK VINA RESULT:      -3.6     12.217     13.803
REMARK  1 active torsions:
REMARK  status: ('A' for Active; 'I' for Inactive)
REMARK    1  A    between atoms: C2_2  and  C9_9 
ROOT
HETATM    1  C1  UNL     1     -25.352  -3.440  10.360  1.00 20.00    -0.004 C 
HETATM    2  C2  UNL     1     -25.426  -2.447  11.256  1.00 20.00    -0.076 C 
HETATM    3  C3  UNL     1     -24.071  -1.901  11.584  1.00 20.00     0.036 C 
HETATM    4  C4  UNL     1     -23.137  -2.973  11.021  1.00 20.00     0.028 C 
HETATM    5  C8  UNL     1     -23.942  -3.714   9.950  1.00 20.00     0.105 C 
HETATM    6 CL11 UNL     1     -23.649  -3.047   8.330  1.00 20.00    -0.121 Cl
ENDROOT
BRANCH   2   7
HETATM    7  C9  UNL     1     -26.667  -1.875  11.869  1.00 20.00     0.040 C 
HETATM    8  C5  UNL     1     -26.858  -0.407  11.544  1.00 20.00     0.037 C 
HETATM    9  C6  UNL     1     -27.560  -0.442  10.201  1.00 20.00     0.168 C 
HETATM   10  O10 UNL     1     -28.312  -1.662  10.156  1.00 20.00    -0.390 OA
HETATM   11  C7  UNL     1     -27.922  -2.488  11.266  1.00 20.00     0.176 C 
ENDBRANCH   2   7
TORSDOF 1
ENDMDL
MODEL 9
REMARK VINA RESULT:      -3.4     12.287     13.906
REMARK  1 active torsions:
REMARK  status: ('A' for Active; 'I' for Inactive)
REMARK    1  A    between atoms: C2_2  and  C9_9 
ROOT
HETATM    1  C1  UNL     1     -27.311  -3.066  10.318  1.00 20.00    -0.004 C 
HETATM    2  C2  UNL     1     -26.312  -2.537  11.036  1.00 20.00    -0.076 C 
HETATM    3  C3  UNL     1     -26.576  -1.100  11.367  1.00 20.00     0.036 C 
HETATM    4  C4  UNL     1     -27.720  -0.746  10.417  1.00 20.00     0.028 C 
HETATM    5  C8  UNL     1     -28.394  -2.072  10.056  1.00 20.00     0.105 C 
HETATM    6 CL11 UNL     1     -29.785  -2.410  11.109  1.00 20.00    -0.121 Cl
ENDROOT
BRANCH   2   7
HETATM    7  C9  UNL     1     -25.077  -3.234  11.517  1.00 20.00     0.040 C 
HETATM    8  C5  UNL     1     -24.586  -4.290  10.548  1.00 20.00     0.037 C 
HETATM    9  C6  UNL     1     -23.735  -3.495   9.577  1.00 20.00     0.168 C 
HETATM   10  O10 UNL     1     -23.216  -2.372  10.301  1.00 20.00    -0.390 OA
HETATM   11  C7  UNL     1     -23.887  -2.288  11.570  1.00 20.00     0.176 C 
ENDBRANCH   2   7
TORSDOF 1
ENDMDL
