MODEL 1
REMARK VINA RESULT:      -4.0      0.000      0.000
REMARK  0 active torsions:
REMARK  status: ('A' for Active; 'I' for Inactive)
ROOT
HETATM    1  C1  UNL     1     -35.310  15.172  -6.320  1.00 20.00     0.067 C 
HETATM    2  C2  UNL     1     -34.423  16.109  -5.625  1.00 20.00     0.127 C 
HETATM    3  C3  UNL     1     -33.957  15.609  -4.264  1.00 20.00     0.030 C 
HETATM    4  C4  UNL     1     -35.062  17.454  -5.272  1.00 20.00     0.136 C 
HETATM    5  C5  UNL     1     -33.480  16.912  -3.625  1.00 20.00     0.123 C 
HETATM    6  C6  UNL     1     -32.874  14.540  -4.330  1.00 20.00     0.014 C 
HETATM    7  C7  UNL     1     -36.545  17.421  -4.909  1.00 20.00     0.041 C 
HETATM    8  C8  UNL     1     -33.515  16.900  -2.108  1.00 20.00     0.040 C 
HETATM    9  N9  UNL     1     -36.013  14.430  -6.870  1.00 20.00    -0.197 NA
HETATM   10  O10 UNL     1     -34.358  17.943  -4.110  1.00 20.00    -0.380 OA
ENDROOT
TORSDOF 0
ENDMDL
MODEL 2
REMARK VINA RESULT:      -4.0     12.461     13.455
REMARK  0 active torsions:
REMARK  status: ('A' for Active; 'I' for Inactive)
ROOT
HETATM    1  C1  UNL     1     -33.982   4.910   4.119  1.00 20.00     0.067 C 
HETATM    2  C2  UNL     1     -34.102   6.371   4.120  1.00 20.00     0.127 C 
HETATM    3  C3  UNL     1     -32.772   7.089   3.931  1.00 20.00     0.030 C 
HETATM    4  C4  UNL     1     -34.608   6.972   5.434  1.00 20.00     0.136 C 
HETATM    5  C5  UNL     1     -33.127   8.490   4.428  1.00 20.00     0.123 C 
HETATM    6  C6  UNL     1     -32.254   7.074   2.499  1.00 20.00     0.014 C 
HETATM    7  C7  UNL     1     -34.176   6.257   6.712  1.00 20.00     0.041 C 
HETATM    8  C8  UNL     1     -31.936   9.279   4.938  1.00 20.00     0.040 C 
HETATM    9  N9  UNL     1     -33.888   3.754   4.118  1.00 20.00    -0.197 NA
HETATM   10  O10 UNL     1     -34.069   8.309   5.500  1.00 20.00    -0.380 OA
ENDROOT
TORSDOF 0
ENDMDL
MODEL 3
REMARK VINA RESULT:      -3.7     12.453     13.554
REMARK  0 active torsions:
REMARK  status: ('A' for Active; 'I' for Inactive)
ROOT
HETATM    1  C1  UNL     1     -42.081  14.257   4.457  1.00 20.00     0.067 C 
HETATM    2  C2  UNL     1     -42.202  14.045   5.902  1.00 20.00     0.127 C 
HETATM    3  C3  UNL     1     -41.484  15.100   6.733  1.00 20.00     0.030 C 
HETATM    4  C4  UNL     1     -41.570  12.748   6.415  1.00 20.00     0.136 C 
HETATM    5  C5  UNL     1     -41.387  14.389   8.082  1.00 20.00     0.123 C 
HETATM    6  C6  UNL     1     -42.212  16.435   6.809  1.00 20.00     0.014 C 
HETATM    7  C7  UNL     1     -40.306  12.284   5.694  1.00 20.00     0.041 C 
HETATM    8  C8  UNL     1     -40.239  14.873   8.949  1.00 20.00     0.040 C 
HETATM    9  N9  UNL     1     -41.986  14.425   3.313  1.00 20.00    -0.197 NA
HETATM   10  O10 UNL     1     -41.203  12.993   7.788  1.00 20.00    -0.380 OA
ENDROOT
TORSDOF 0
ENDMDL
MODEL 4
REMARK VINA RESULT:      -3.6     17.401     19.156
REMARK  0 active torsions:
REMARK  status: ('A' for Active; 'I' for Inactive)
ROOT
HETATM    1  C1  UNL     1     -22.207  18.422   9.063  1.00 20.00     0.067 C 
HETATM    2  C2  UNL     1     -23.290  17.892   9.896  1.00 20.00     0.127 C 
HETATM    3  C3  UNL     1     -24.438  18.873  10.097  1.00 20.00     0.030 C 
HETATM    4  C4  UNL     1     -22.891  17.567  11.338  1.00 20.00     0.136 C 
HETATM    5  C5  UNL     1     -25.132  18.262  11.313  1.00 20.00     0.123 C 
HETATM    6  C6  UNL     1     -25.355  19.014   8.889  1.00 20.00     0.014 C 
HETATM    7  C7  UNL     1     -21.842  18.480  11.968  1.00 20.00     0.041 C 
HETATM    8  C8  UNL     1     -25.924  19.263  12.133  1.00 20.00     0.040 C 
HETATM    9  N9  UNL     1     -21.349  18.841   8.404  1.00 20.00    -0.197 NA
HETATM   10  O10 UNL     1     -24.090  17.699  12.129  1.00 20.00    -0.380 OA
ENDROOT
TORSDOF 0
ENDMDL
MODEL 5
REMARK VINA RESULT:      -3.4      1.350      2.688
REMARK  0 active torsions:
REMARK  status: ('A' for Active; 'I' for Inactive)
ROOT
HETATM    1  C1  UNL     1     -34.460  15.517  -6.283  1.00 20.00     0.067 C 
HETATM    2  C2  UNL     1     -34.613  16.003  -4.909  1.00 20.00     0.127 C 
HETATM    3  C3  UNL     1     -34.099  17.422  -4.706  1.00 20.00     0.030 C 
HETATM    4  C4  UNL     1     -33.817  15.220  -3.861  1.00 20.00     0.136 C 
HETATM    5  C5  UNL     1     -33.957  17.463  -3.185  1.00 20.00     0.123 C 
HETATM    6  C6  UNL     1     -35.022  18.503  -5.252  1.00 20.00     0.014 C 
HETATM    7  C7  UNL     1     -32.466  14.669  -4.314  1.00 20.00     0.041 C 
HETATM    8  C8  UNL     1     -32.936  18.471  -2.692  1.00 20.00     0.040 C 
HETATM    9  N9  UNL     1     -34.340  15.133  -7.371  1.00 20.00    -0.197 NA
HETATM   10  O10 UNL     1     -33.552  16.143  -2.783  1.00 20.00    -0.380 OA
ENDROOT
TORSDOF 0
ENDMDL
MODEL 6
REMARK VINA RESULT:      -3.4     11.662     12.852
REMARK  0 active torsions:
REMARK  status: ('A' for Active; 'I' for Inactive)
ROOT
HETATM    1  C1  UNL     1     -32.189   7.852   2.056  1.00 20.00     0.067 C 
HETATM    2  C2  UNL     1     -32.301   7.102   3.310  1.00 20.00     0.127 C 
HETATM    3  C3  UNL     1     -33.420   6.070   3.303  1.00 20.00     0.030 C 
HETATM    4  C4  UNL     1     -32.653   7.950   4.535  1.00 20.00     0.136 C 
HETATM    5  C5  UNL     1     -33.586   5.813   4.800  1.00 20.00     0.123 C 
HETATM    6  C6  UNL     1     -33.101   4.810   2.509  1.00 20.00     0.014 C 
HETATM    7  C7  UNL     1     -33.584   9.136   4.288  1.00 20.00     0.041 C 
HETATM    8  C8  UNL     1     -34.967   5.318   5.187  1.00 20.00     0.040 C 
HETATM    9  N9  UNL     1     -32.101   8.446   1.064  1.00 20.00    -0.197 NA
HETATM   10  O10 UNL     1     -33.333   7.069   5.454  1.00 20.00    -0.380 OA
ENDROOT
TORSDOF 0
ENDMDL
MODEL 7
REMARK VINA RESULT:      -3.4      1.825      2.474
REMARK  0 active torsions:
REMARK  status: ('A' for Active; 'I' for Inactive)
ROOT
HETATM    1  C1  UNL     1     -33.586  15.301  -4.198  1.00 20.00     0.067 C 
HETATM    2  C2  UNL     1     -33.706  16.761  -4.146  1.00 20.00     0.127 C 
HETATM    3  C3  UNL     1     -34.188  17.283  -2.799  1.00 20.00     0.030 C 
HETATM    4  C4  UNL     1     -34.738  17.354  -5.108  1.00 20.00     0.136 C 
HETATM    5  C5  UNL     1     -34.645  18.689  -3.181  1.00 20.00     0.123 C 
HETATM    6  C6  UNL     1     -33.123  17.272  -1.710  1.00 20.00     0.014 C 
HETATM    7  C7  UNL     1     -35.986  16.510  -5.361  1.00 20.00     0.041 C 
HETATM    8  C8  UNL     1     -35.702  19.262  -2.255  1.00 20.00     0.040 C 
HETATM    9  N9  UNL     1     -33.492  14.146  -4.240  1.00 20.00    -0.197 NA
HETATM   10  O10 UNL     1     -35.183  18.590  -4.510  1.00 20.00    -0.380 OA
ENDROOT
TORSDOF 0
ENDMDL
MODEL 8
REMARK VINA RESULT:      -3.3      1.634      1.978
REMARK  0 active torsions:
REMARK  status: ('A' for Active; 'I' for Inactive)
ROOT
HETATM    1  C1  UNL     1     -35.375  14.146  -4.822  1.00 20.00     0.067 C 
HETATM    2  C2  UNL     1     -34.803  15.392  -5.339  1.00 20.00     0.127 C 
HETATM    3  C3  UNL     1     -34.419  16.383  -4.249  1.00 20.00     0.030 C 
HETATM    4  C4  UNL     1     -35.753  16.222  -6.207  1.00 20.00     0.136 C 
HETATM    5  C5  UNL     1     -34.315  17.676  -5.055  1.00 20.00     0.123 C 
HETATM    6  C6  UNL     1     -33.134  16.031  -3.511  1.00 20.00     0.014 C 
HETATM    7  C7  UNL     1     -37.229  16.183  -5.817  1.00 20.00     0.041 C 
HETATM    8  C8  UNL     1     -34.539  18.931  -4.233  1.00 20.00     0.040 C 
HETATM    9  N9  UNL     1     -35.828  13.159  -4.413  1.00 20.00    -0.197 NA
HETATM   10  O10 UNL     1     -35.323  17.594  -6.078  1.00 20.00    -0.380 OA
ENDROOT
TORSDOF 0
ENDMDL
MODEL 9
REMARK VINA RESULT:      -3.2      2.445      4.007
REMARK  0 active torsions:
REMARK  status: ('A' for Active; 'I' for Inactive)
ROOT
HETATM    1  C1  UNL     1     -33.597  16.765  -2.978  1.00 20.00     0.067 C 
HETATM    2  C2  UNL     1     -33.752  16.666  -4.432  1.00 20.00     0.127 C 
HETATM    3  C3  UNL     1     -35.092  17.184  -4.937  1.00 20.00     0.030 C 
HETATM    4  C4  UNL     1     -33.731  15.238  -4.984  1.00 20.00     0.136 C 
HETATM    5  C5  UNL     1     -35.144  16.547  -6.324  1.00 20.00     0.123 C 
HETATM    6  C6  UNL     1     -35.201  18.703  -4.969  1.00 20.00     0.014 C 
HETATM    7  C7  UNL     1     -34.348  14.163  -4.092  1.00 20.00     0.041 C 
HETATM    8  C8  UNL     1     -36.552  16.354  -6.857  1.00 20.00     0.040 C 
HETATM    9  N9  UNL     1     -33.475  16.842  -1.827  1.00 20.00    -0.197 NA
HETATM   10  O10 UNL     1     -34.504  15.266  -6.203  1.00 20.00    -0.380 OA
ENDROOT
TORSDOF 0
ENDMDL
