MODEL 1
REMARK VINA RESULT:      -5.0      0.000      0.000
REMARK  2 active torsions:
REMARK  status: ('A' for Active; 'I' for Inactive)
REMARK    1  A    between atoms: C2_2  and  C9_9 
REMARK    2  A    between atoms: C4_4  and  C9_9 
ROOT
HETATM    1  C1  UNL     1     -33.603   6.223   3.600  1.00 20.00    -0.004 C 
HETATM    2  C2  UNL     1     -33.101   7.376   4.082  1.00 20.00    -0.079 C 
HETATM    3  C5  UNL     1     -33.374   7.812   5.506  1.00 20.00     0.034 C 
HETATM    4  C6  UNL     1     -33.937   6.706   6.403  1.00 20.00     0.006 C 
HETATM    5  C7  UNL     1     -35.019   5.912   5.674  1.00 20.00     0.024 C 
HETATM    6  C8  UNL     1     -34.488   5.293   4.379  1.00 20.00     0.105 C 
HETATM    7 CL10 UNL     1     -33.556   3.805   4.733  1.00 20.00    -0.121 Cl
ENDROOT
BRANCH   2   8
HETATM    8  C9  UNL     1     -32.239   8.287   3.290  1.00 20.00     0.060 C 
BRANCH   8   9
HETATM    9  C4  UNL     1     -32.210   7.908   1.842  1.00 20.00    -0.033 C 
HETATM   10  C3  UNL     1     -32.415   8.771   0.841  1.00 20.00     0.007 C 
ENDBRANCH   8   9
ENDBRANCH   2   8
TORSDOF 2
ENDMDL
MODEL 2
REMARK VINA RESULT:      -4.4      2.162      4.177
REMARK  2 active torsions:
REMARK  status: ('A' for Active; 'I' for Inactive)
REMARK    1  A    between atoms: C2_2  and  C9_9 
REMARK    2  A    between atoms: C4_4  and  C9_9 
ROOT
HETATM    1  C1  UNL     1     -33.158   6.405   3.243  1.00 20.00    -0.004 C 
HETATM    2  C2  UNL     1     -33.958   6.675   4.293  1.00 20.00    -0.079 C 
HETATM    3  C5  UNL     1     -33.704   7.876   5.178  1.00 20.00     0.034 C 
HETATM    4  C6  UNL     1     -32.729   8.898   4.586  1.00 20.00     0.006 C 
HETATM    5  C7  UNL     1     -31.524   8.200   3.959  1.00 20.00     0.024 C 
HETATM    6  C8  UNL     1     -31.949   7.212   2.869  1.00 20.00     0.105 C 
HETATM    7 CL10 UNL     1     -32.309   8.081   1.344  1.00 20.00    -0.121 Cl
ENDROOT
BRANCH   2   8
HETATM    8  C9  UNL     1     -35.140   5.855   4.651  1.00 20.00     0.060 C 
BRANCH   8   9
HETATM    9  C4  UNL     1     -35.053   5.332   6.050  1.00 20.00    -0.033 C 
HETATM   10  C3  UNL     1     -33.908   4.970   6.641  1.00 20.00     0.007 C 
ENDBRANCH   8   9
ENDBRANCH   2   8
TORSDOF 2
ENDMDL
MODEL 3
REMARK VINA RESULT:      -4.1     11.634     12.720
REMARK  2 active torsions:
REMARK  status: ('A' for Active; 'I' for Inactive)
REMARK    1  A    between atoms: C2_2  and  C9_9 
REMARK    2  A    between atoms: C4_4  and  C9_9 
ROOT
HETATM    1  C1  UNL     1     -33.613  15.234  -3.805  1.00 20.00    -0.004 C 
HETATM    2  C2  UNL     1     -33.647  16.521  -3.410  1.00 20.00    -0.079 C 
HETATM    3  C5  UNL     1     -34.388  17.565  -4.217  1.00 20.00     0.034 C 
HETATM    4  C6  UNL     1     -35.343  16.987  -5.264  1.00 20.00     0.006 C 
HETATM    5  C7  UNL     1     -34.691  15.828  -6.015  1.00 20.00     0.024 C 
HETATM    6  C8  UNL     1     -34.250  14.715  -5.061  1.00 20.00     0.105 C 
HETATM    7 CL10 UNL     1     -35.650  13.699  -4.597  1.00 20.00    -0.121 Cl
ENDROOT
BRANCH   2   8
HETATM    8  C9  UNL     1     -32.997  17.013  -2.170  1.00 20.00     0.060 C 
BRANCH   8   9
HETATM    9  C4  UNL     1     -33.959  17.750  -1.292  1.00 20.00    -0.033 C 
HETATM   10  C3  UNL     1     -33.712  18.063  -0.015  1.00 20.00     0.007 C 
ENDBRANCH   8   9
ENDBRANCH   2   8
TORSDOF 2
ENDMDL
MODEL 4
REMARK VINA RESULT:      -4.1     11.862     12.838
REMARK  2 active torsions:
REMARK  status: ('A' for Active; 'I' for Inactive)
REMARK    1  A    between atoms: C2_2  and  C9_9 
REMARK    2  A    between atoms: C4_4  and  C9_9 
ROOT
HETATM    1  C1  UNL     1     -33.290  16.154  -3.052  1.00 20.00    -0.004 C 
HETATM    2  C2  UNL     1     -33.753  17.275  -2.465  1.00 20.00    -0.079 C 
HETATM    3  C5  UNL     1     -34.751  18.169  -3.169  1.00 20.00     0.034 C 
HETATM    4  C6  UNL     1     -35.421  17.525  -4.386  1.00 20.00     0.006 C 
HETATM    5  C7  UNL     1     -34.398  16.779  -5.239  1.00 20.00     0.024 C 
HETATM    6  C8  UNL     1     -33.668  15.702  -4.433  1.00 20.00     0.105 C 
HETATM    7 CL10 UNL     1     -34.690  14.238  -4.279  1.00 20.00    -0.121 Cl
ENDROOT
BRANCH   2   8
HETATM    8  C9  UNL     1     -33.354  17.708  -1.104  1.00 20.00     0.060 C 
BRANCH   8   9
HETATM    9  C4  UNL     1     -32.086  18.502  -1.120  1.00 20.00    -0.033 C 
HETATM   10  C3  UNL     1     -31.219  18.543  -0.102  1.00 20.00     0.007 C 
ENDBRANCH   8   9
ENDBRANCH   2   8
TORSDOF 2
ENDMDL
MODEL 5
REMARK VINA RESULT:      -4.0      2.080      4.468
REMARK  2 active torsions:
REMARK  status: ('A' for Active; 'I' for Inactive)
REMARK    1  A    between atoms: C2_2  and  C9_9 
REMARK    2  A    between atoms: C4_4  and  C9_9 
ROOT
HETATM    1  C1  UNL     1     -34.022   7.803   4.455  1.00 20.00    -0.004 C 
HETATM    2  C2  UNL     1     -34.129   6.506   4.109  1.00 20.00    -0.079 C 
HETATM    3  C5  UNL     1     -33.214   5.898   3.067  1.00 20.00     0.034 C 
HETATM    4  C6  UNL     1     -31.990   6.754   2.732  1.00 20.00     0.006 C 
HETATM    5  C7  UNL     1     -32.378   8.222   2.577  1.00 20.00     0.024 C 
HETATM    6  C8  UNL     1     -33.045   8.766   3.843  1.00 20.00     0.105 C 
HETATM    7 CL10 UNL     1     -31.809   9.165   5.077  1.00 20.00    -0.121 Cl
ENDROOT
BRANCH   2   8
HETATM    8  C9  UNL     1     -35.112   5.577   4.718  1.00 20.00     0.060 C 
BRANCH   8   9
HETATM    9  C4  UNL     1     -34.894   5.422   6.190  1.00 20.00    -0.033 C 
HETATM   10  C3  UNL     1     -33.700   5.185   6.746  1.00 20.00     0.007 C 
ENDBRANCH   8   9
ENDBRANCH   2   8
TORSDOF 2
ENDMDL
MODEL 6
REMARK VINA RESULT:      -4.0      1.546      2.262
REMARK  2 active torsions:
REMARK  status: ('A' for Active; 'I' for Inactive)
REMARK    1  A    between atoms: C2_2  and  C9_9 
REMARK    2  A    between atoms: C4_4  and  C9_9 
ROOT
HETATM    1  C1  UNL     1     -33.807   7.251   4.509  1.00 20.00    -0.004 C 
HETATM    2  C2  UNL     1     -32.851   7.438   3.579  1.00 20.00    -0.079 C 
HETATM    3  C5  UNL     1     -32.359   6.290   2.724  1.00 20.00     0.034 C 
HETATM    4  C6  UNL     1     -33.256   5.049   2.763  1.00 20.00     0.006 C 
HETATM    5  C7  UNL     1     -33.699   4.743   4.191  1.00 20.00     0.024 C 
HETATM    6  C8  UNL     1     -34.442   5.926   4.817  1.00 20.00     0.105 C 
HETATM    7 CL10 UNL     1     -36.138   5.973   4.242  1.00 20.00    -0.121 Cl
ENDROOT
BRANCH   2   8
HETATM    8  C9  UNL     1     -32.229   8.755   3.301  1.00 20.00     0.060 C 
BRANCH   8   9
HETATM    9  C4  UNL     1     -32.951   9.496   2.220  1.00 20.00    -0.033 C 
HETATM   10  C3  UNL     1     -32.672   9.372   0.917  1.00 20.00     0.007 C 
ENDBRANCH   8   9
ENDBRANCH   2   8
TORSDOF 2
ENDMDL
MODEL 7
REMARK VINA RESULT:      -3.9     10.349     11.039
REMARK  2 active torsions:
REMARK  status: ('A' for Active; 'I' for Inactive)
REMARK    1  A    between atoms: C2_2  and  C9_9 
REMARK    2  A    between atoms: C4_4  and  C9_9 
ROOT
HETATM    1  C1  UNL     1     -40.446  14.211   7.633  1.00 20.00    -0.004 C 
HETATM    2  C2  UNL     1     -40.475  13.430   6.536  1.00 20.00    -0.079 C 
HETATM    3  C5  UNL     1     -41.529  13.624   5.467  1.00 20.00     0.034 C 
HETATM    4  C6  UNL     1     -42.289  14.950   5.569  1.00 20.00     0.006 C 
HETATM    5  C7  UNL     1     -42.671  15.248   7.017  1.00 20.00     0.024 C 
HETATM    6  C8  UNL     1     -41.441  15.297   7.927  1.00 20.00     0.105 C 
HETATM    7 CL10 UNL     1     -40.607  16.875   7.763  1.00 20.00    -0.121 Cl
ENDROOT
BRANCH   2   8
HETATM    8  C9  UNL     1     -39.489  12.353   6.274  1.00 20.00     0.060 C 
BRANCH   8   9
HETATM    9  C4  UNL     1     -39.727  11.689   4.955  1.00 20.00    -0.033 C 
HETATM   10  C3  UNL     1     -38.824  11.647   3.968  1.00 20.00     0.007 C 
ENDBRANCH   8   9
ENDBRANCH   2   8
TORSDOF 2
ENDMDL
MODEL 8
REMARK VINA RESULT:      -3.8     12.230     13.264
REMARK  2 active torsions:
REMARK  status: ('A' for Active; 'I' for Inactive)
REMARK    1  A    between atoms: C2_2  and  C9_9 
REMARK    2  A    between atoms: C4_4  and  C9_9 
ROOT
HETATM    1  C1  UNL     1     -34.554  17.482  -4.510  1.00 20.00    -0.004 C 
HETATM    2  C2  UNL     1     -33.747  16.894  -3.606  1.00 20.00    -0.079 C 
HETATM    3  C5  UNL     1     -33.444  15.413  -3.677  1.00 20.00     0.034 C 
HETATM    4  C6  UNL     1     -33.825  14.758  -5.007  1.00 20.00     0.006 C 
HETATM    5  C7  UNL     1     -35.199  15.232  -5.474  1.00 20.00     0.024 C 
HETATM    6  C8  UNL     1     -35.248  16.755  -5.626  1.00 20.00     0.105 C 
HETATM    7 CL10 UNL     1     -34.490  17.253  -7.171  1.00 20.00    -0.121 Cl
ENDROOT
BRANCH   2   8
HETATM    8  C9  UNL     1     -33.083  17.631  -2.503  1.00 20.00     0.060 C 
BRANCH   8   9
HETATM    9  C4  UNL     1     -33.732  17.361  -1.182  1.00 20.00    -0.033 C 
HETATM   10  C3  UNL     1     -33.555  18.122  -0.095  1.00 20.00     0.007 C 
ENDBRANCH   8   9
ENDBRANCH   2   8
TORSDOF 2
ENDMDL
MODEL 9
REMARK VINA RESULT:      -3.8     11.715     12.913
REMARK  2 active torsions:
REMARK  status: ('A' for Active; 'I' for Inactive)
REMARK    1  A    between atoms: C2_2  and  C9_9 
REMARK    2  A    between atoms: C4_4  and  C9_9 
ROOT
HETATM    1  C1  UNL     1     -33.427  16.667  -2.064  1.00 20.00    -0.004 C 
HETATM    2  C2  UNL     1     -33.498  16.554  -3.404  1.00 20.00    -0.079 C 
HETATM    3  C5  UNL     1     -33.871  17.739  -4.269  1.00 20.00     0.034 C 
HETATM    4  C6  UNL     1     -33.806  19.087  -3.547  1.00 20.00     0.006 C 
HETATM    5  C7  UNL     1     -34.426  18.990  -2.156  1.00 20.00     0.024 C 
HETATM    6  C8  UNL     1     -33.734  17.924  -1.303  1.00 20.00     0.105 C 
HETATM    7 CL10 UNL     1     -32.198  18.560  -0.634  1.00 20.00    -0.121 Cl
ENDROOT
BRANCH   2   8
HETATM    8  C9  UNL     1     -33.203  15.297  -4.135  1.00 20.00     0.060 C 
BRANCH   8   9
HETATM    9  C4  UNL     1     -34.397  14.398  -4.203  1.00 20.00    -0.033 C 
HETATM   10  C3  UNL     1     -35.332  14.473  -5.157  1.00 20.00     0.007 C 
ENDBRANCH   8   9
ENDBRANCH   2   8
TORSDOF 2
ENDMDL
