MODEL 1
REMARK VINA RESULT:      -4.2      0.000      0.000
REMARK  1 active torsions:
REMARK  status: ('A' for Active; 'I' for Inactive)
REMARK    1  A    between atoms: C3_3  and  C5_5 
ROOT
HETATM    1  C1  UNL     1     -32.024  18.922   1.520  1.00 20.00     0.109 A 
HETATM    2  C2  UNL     1     -30.815  18.814   0.891  1.00 20.00     0.107 A 
HETATM    3  C3  UNL     1     -32.401  18.419  -0.602  1.00 20.00     0.113 A 
HETATM    4  C10 UNL     1     -34.416  18.686   0.820  1.00 20.00     0.157 C 
HETATM    5  N11 UNL     1     -32.987  18.673   0.573  1.00 20.00    -0.346 N 
HETATM    6  N12 UNL     1     -31.080  18.502  -0.421  1.00 20.00    -0.350 N 
HETATM    7  H27 UNL     1     -30.377  18.357  -1.141  1.00 20.00     0.166 HD
ENDROOT
BRANCH   3   8
HETATM    8  C5  UNL     1     -33.073  18.100  -1.886  1.00 20.00    -0.016 C 
HETATM    9  C4  UNL     1     -33.469  19.081  -2.721  1.00 20.00     0.004 C 
HETATM   10  C9  UNL     1     -34.167  18.838  -4.029  1.00 20.00     0.105 C 
HETATM   11  C8  UNL     1     -34.657  17.397  -4.196  1.00 20.00     0.024 C 
HETATM   12 CL13 UNL     1     -33.031  19.263  -5.350  1.00 20.00    -0.121 Cl
HETATM   13  C7  UNL     1     -33.629  16.389  -3.687  1.00 20.00     0.006 C 
HETATM   14  C6  UNL     1     -33.305  16.643  -2.212  1.00 20.00     0.042 C 
ENDBRANCH   3   8
TORSDOF 1
ENDMDL
MODEL 2
REMARK VINA RESULT:      -4.0      3.299      5.483
REMARK  1 active torsions:
REMARK  status: ('A' for Active; 'I' for Inactive)
REMARK    1  A    between atoms: C3_3  and  C5_5 
ROOT
HETATM    1  C1  UNL     1     -34.293  15.291  -6.515  1.00 20.00     0.109 A 
HETATM    2  C2  UNL     1     -34.260  16.542  -7.065  1.00 20.00     0.107 A 
HETATM    3  C3  UNL     1     -34.245  16.762  -4.862  1.00 20.00     0.113 A 
HETATM    4  C10 UNL     1     -34.308  14.377  -4.184  1.00 20.00     0.157 C 
HETATM    5  N11 UNL     1     -34.282  15.457  -5.152  1.00 20.00    -0.346 N 
HETATM    6  N12 UNL     1     -34.231  17.432  -6.019  1.00 20.00    -0.350 N 
HETATM    7  H27 UNL     1     -34.203  18.444  -6.112  1.00 20.00     0.166 HD
ENDROOT
BRANCH   3   8
HETATM    8  C5  UNL     1     -34.223  17.379  -3.513  1.00 20.00    -0.016 C 
HETATM    9  C4  UNL     1     -33.294  17.022  -2.605  1.00 20.00     0.004 C 
HETATM   10  C9  UNL     1     -33.217  17.591  -1.217  1.00 20.00     0.105 C 
HETATM   11  C8  UNL     1     -34.461  18.389  -0.818  1.00 20.00     0.024 C 
HETATM   12 CL13 UNL     1     -31.758  18.629  -1.123  1.00 20.00    -0.121 Cl
HETATM   13  C7  UNL     1     -34.963  19.261  -1.966  1.00 20.00     0.006 C 
HETATM   14  C6  UNL     1     -35.285  18.406  -3.196  1.00 20.00     0.042 C 
ENDBRANCH   3   8
TORSDOF 1
ENDMDL
MODEL 3
REMARK VINA RESULT:      -4.0      3.615      5.772
REMARK  1 active torsions:
REMARK  status: ('A' for Active; 'I' for Inactive)
REMARK    1  A    between atoms: C3_3  and  C5_5 
ROOT
HETATM    1  C1  UNL     1     -35.645  15.346  -7.180  1.00 20.00     0.109 A 
HETATM    2  C2  UNL     1     -34.308  15.272  -7.452  1.00 20.00     0.107 A 
HETATM    3  C3  UNL     1     -34.555  16.301  -5.508  1.00 20.00     0.113 A 
HETATM    4  C10 UNL     1     -37.028  16.273  -5.310  1.00 20.00     0.157 C 
HETATM    5  N11 UNL     1     -35.769  15.987  -5.972  1.00 20.00    -0.346 N 
HETATM    6  N12 UNL     1     -33.658  15.871  -6.400  1.00 20.00    -0.350 N 
HETATM    7  H27 UNL     1     -32.649  15.970  -6.315  1.00 20.00     0.166 HD
ENDROOT
BRANCH   3   8
HETATM    8  C5  UNL     1     -34.236  16.999  -4.238  1.00 20.00    -0.016 C 
HETATM    9  C4  UNL     1     -34.632  18.270  -4.030  1.00 20.00     0.004 C 
HETATM   10  C9  UNL     1     -34.335  19.047  -2.779  1.00 20.00     0.105 C 
HETATM   11  C8  UNL     1     -33.289  18.377  -1.883  1.00 20.00     0.024 C 
HETATM   12 CL13 UNL     1     -35.872  19.263  -1.883  1.00 20.00    -0.121 Cl
HETATM   13  C7  UNL     1     -33.498  16.867  -1.805  1.00 20.00     0.006 C 
HETATM   14  C6  UNL     1     -33.443  16.238  -3.201  1.00 20.00     0.042 C 
ENDBRANCH   3   8
TORSDOF 1
ENDMDL
MODEL 4
REMARK VINA RESULT:      -3.9      2.442      3.338
REMARK  1 active torsions:
REMARK  status: ('A' for Active; 'I' for Inactive)
REMARK    1  A    between atoms: C3_3  and  C5_5 
ROOT
HETATM    1  C1  UNL     1     -33.941  19.090  -0.745  1.00 20.00     0.109 A 
HETATM    2  C2  UNL     1     -32.699  18.535  -0.611  1.00 20.00     0.107 A 
HETATM    3  C3  UNL     1     -33.660  17.640  -2.393  1.00 20.00     0.113 A 
HETATM    4  C10 UNL     1     -35.837  18.828  -2.359  1.00 20.00     0.157 C 
HETATM    5  N11 UNL     1     -34.512  18.519  -1.856  1.00 20.00    -0.346 N 
HETATM    6  N12 UNL     1     -32.553  17.641  -1.644  1.00 20.00    -0.350 N 
HETATM    7  H27 UNL     1     -31.729  17.069  -1.812  1.00 20.00     0.166 HD
ENDROOT
BRANCH   3   8
HETATM    8  C5  UNL     1     -33.879  16.804  -3.599  1.00 20.00    -0.016 C 
HETATM    9  C4  UNL     1     -33.818  15.460  -3.529  1.00 20.00     0.004 C 
HETATM   10  C9  UNL     1     -34.013  14.548  -4.707  1.00 20.00     0.105 C 
HETATM   11  C8  UNL     1     -33.993  15.282  -6.051  1.00 20.00     0.024 C 
HETATM   12 CL13 UNL     1     -35.574  13.692  -4.491  1.00 20.00    -0.121 Cl
HETATM   13  C7  UNL     1     -34.752  16.604  -5.982  1.00 20.00     0.006 C 
HETATM   14  C6  UNL     1     -34.159  17.515  -4.903  1.00 20.00     0.042 C 
ENDBRANCH   3   8
TORSDOF 1
ENDMDL
MODEL 5
REMARK VINA RESULT:      -3.9      2.189      3.357
REMARK  1 active torsions:
REMARK  status: ('A' for Active; 'I' for Inactive)
REMARK    1  A    between atoms: C3_3  and  C5_5 
ROOT
HETATM    1  C1  UNL     1     -32.552  18.917  -1.684  1.00 20.00     0.109 A 
HETATM    2  C2  UNL     1     -32.989  17.960  -0.810  1.00 20.00     0.107 A 
HETATM    3  C3  UNL     1     -33.629  17.371  -2.847  1.00 20.00     0.113 A 
HETATM    4  C10 UNL     1     -32.705  19.263  -4.159  1.00 20.00     0.157 C 
HETATM    5  N11 UNL     1     -32.962  18.527  -2.935  1.00 20.00    -0.346 N 
HETATM    6  N12 UNL     1     -33.652  17.017  -1.558  1.00 20.00    -0.350 N 
HETATM    7  H27 UNL     1     -34.091  16.178  -1.187  1.00 20.00     0.166 HD
ENDROOT
BRANCH   3   8
HETATM    8  C5  UNL     1     -34.241  16.604  -3.959  1.00 20.00    -0.016 C 
HETATM    9  C4  UNL     1     -35.332  17.067  -4.600  1.00 20.00     0.004 C 
HETATM   10  C9  UNL     1     -36.015  16.341  -5.723  1.00 20.00     0.105 C 
HETATM   11  C8  UNL     1     -35.548  14.892  -5.882  1.00 20.00     0.024 C 
HETATM   12 CL13 UNL     1     -35.719  17.257  -7.236  1.00 20.00    -0.121 Cl
HETATM   13  C7  UNL     1     -34.038  14.764  -5.707  1.00 20.00     0.006 C 
HETATM   14  C6  UNL     1     -33.604  15.285  -4.333  1.00 20.00     0.042 C 
ENDBRANCH   3   8
TORSDOF 1
ENDMDL
MODEL 6
REMARK VINA RESULT:      -3.8     12.002     13.570
REMARK  1 active torsions:
REMARK  status: ('A' for Active; 'I' for Inactive)
REMARK    1  A    between atoms: C3_3  and  C5_5 
ROOT
HETATM    1  C1  UNL     1     -39.954  12.439   4.657  1.00 20.00     0.109 A 
HETATM    2  C2  UNL     1     -39.003  12.036   5.553  1.00 20.00     0.107 A 
HETATM    3  C3  UNL     1     -40.343  13.472   6.576  1.00 20.00     0.113 A 
HETATM    4  C10 UNL     1     -41.913  13.997   4.728  1.00 20.00     0.157 C 
HETATM    5  N11 UNL     1     -40.769  13.326   5.317  1.00 20.00    -0.346 N 
HETATM    6  N12 UNL     1     -39.269  12.691   6.732  1.00 20.00    -0.350 N 
HETATM    7  H27 UNL     1     -38.731  12.596   7.589  1.00 20.00     0.166 HD
ENDROOT
BRANCH   3   8
HETATM    8  C5  UNL     1     -40.936  14.335   7.627  1.00 20.00    -0.016 C 
HETATM    9  C4  UNL     1     -41.915  13.874   8.429  1.00 20.00     0.004 C 
HETATM   10  C9  UNL     1     -42.573  14.692   9.504  1.00 20.00     0.105 C 
HETATM   11  C8  UNL     1     -42.247  16.185   9.415  1.00 20.00     0.024 C 
HETATM   12 CL13 UNL     1     -42.057  14.038  11.092  1.00 20.00    -0.121 Cl
HETATM   13  C7  UNL     1     -40.778  16.422   9.077  1.00 20.00     0.006 C 
HETATM   14  C6  UNL     1     -40.410  15.746   7.752  1.00 20.00     0.042 C 
ENDBRANCH   3   8
TORSDOF 1
ENDMDL
MODEL 7
REMARK VINA RESULT:      -3.8     11.716     13.146
REMARK  1 active torsions:
REMARK  status: ('A' for Active; 'I' for Inactive)
REMARK    1  A    between atoms: C3_3  and  C5_5 
ROOT
HETATM    1  C1  UNL     1     -40.005  12.361   4.825  1.00 20.00     0.109 A 
HETATM    2  C2  UNL     1     -39.061  11.982   5.738  1.00 20.00     0.107 A 
HETATM    3  C3  UNL     1     -40.318  13.551   6.665  1.00 20.00     0.113 A 
HETATM    4  C10 UNL     1     -41.890  14.009   4.802  1.00 20.00     0.157 C 
HETATM    5  N11 UNL     1     -40.769  13.332   5.426  1.00 20.00    -0.346 N 
HETATM    6  N12 UNL     1     -39.278  12.736   6.867  1.00 20.00    -0.350 N 
HETATM    7  H27 UNL     1     -38.732  12.680   7.722  1.00 20.00     0.166 HD
ENDROOT
BRANCH   3   8
HETATM    8  C5  UNL     1     -40.854  14.518   7.655  1.00 20.00    -0.016 C 
HETATM    9  C4  UNL     1     -40.376  15.775   7.723  1.00 20.00     0.004 C 
HETATM   10  C9  UNL     1     -40.857  16.804   8.706  1.00 20.00     0.105 C 
HETATM   11  C8  UNL     1     -41.728  16.217   9.820  1.00 20.00     0.024 C 
HETATM   12 CL13 UNL     1     -41.771  18.052   7.798  1.00 20.00    -0.121 Cl
HETATM   13  C7  UNL     1     -42.699  15.169   9.284  1.00 20.00     0.006 C 
HETATM   14  C6  UNL     1     -41.943  14.035   8.585  1.00 20.00     0.042 C 
ENDBRANCH   3   8
TORSDOF 1
ENDMDL
MODEL 8
REMARK VINA RESULT:      -3.8      4.608      6.705
REMARK  1 active torsions:
REMARK  status: ('A' for Active; 'I' for Inactive)
REMARK    1  A    between atoms: C3_3  and  C5_5 
ROOT
HETATM    1  C1  UNL     1     -38.233  17.418  -7.147  1.00 20.00     0.109 A 
HETATM    2  C2  UNL     1     -38.894  17.135  -5.984  1.00 20.00     0.107 A 
HETATM    3  C3  UNL     1     -36.753  16.655  -5.687  1.00 20.00     0.113 A 
HETATM    4  C10 UNL     1     -35.856  17.266  -7.918  1.00 20.00     0.157 C 
HETATM    5  N11 UNL     1     -36.911  17.113  -6.934  1.00 20.00    -0.346 N 
HETATM    6  N12 UNL     1     -37.954  16.665  -5.100  1.00 20.00    -0.350 N 
HETATM    7  H27 UNL     1     -38.143  16.369  -4.145  1.00 20.00     0.166 HD
ENDROOT
BRANCH   3   8
HETATM    8  C5  UNL     1     -35.489  16.212  -5.050  1.00 20.00    -0.016 C 
HETATM    9  C4  UNL     1     -34.692  17.091  -4.411  1.00 20.00     0.004 C 
HETATM   10  C9  UNL     1     -33.392  16.721  -3.755  1.00 20.00     0.105 C 
HETATM   11  C8  UNL     1     -32.902  15.320  -4.130  1.00 20.00     0.024 C 
HETATM   12 CL13 UNL     1     -33.612  16.848  -1.980  1.00 20.00    -0.121 Cl
HETATM   13  C7  UNL     1     -34.047  14.312  -4.162  1.00 20.00     0.006 C 
HETATM   14  C6  UNL     1     -35.127  14.749  -5.156  1.00 20.00     0.042 C 
ENDBRANCH   3   8
TORSDOF 1
ENDMDL
MODEL 9
REMARK VINA RESULT:      -3.6     12.570     13.956
REMARK  1 active torsions:
REMARK  status: ('A' for Active; 'I' for Inactive)
REMARK    1  A    between atoms: C3_3  and  C5_5 
ROOT
HETATM    1  C1  UNL     1     -40.732  16.069  11.693  1.00 20.00     0.109 A 
HETATM    2  C2  UNL     1     -40.399  14.812  12.114  1.00 20.00     0.107 A 
HETATM    3  C3  UNL     1     -40.976  14.687   9.981  1.00 20.00     0.113 A 
HETATM    4  C10 UNL     1     -41.508  17.068   9.533  1.00 20.00     0.157 C 
HETATM    5  N11 UNL     1     -41.085  15.962  10.370  1.00 20.00    -0.346 N 
HETATM    6  N12 UNL     1     -40.559  13.978  11.034  1.00 20.00    -0.350 N 
HETATM    7  H27 UNL     1     -40.387  12.976  11.037  1.00 20.00     0.166 HD
ENDROOT
BRANCH   3   8
HETATM    8  C5  UNL     1     -41.261  14.136   8.633  1.00 20.00    -0.016 C 
HETATM    9  C4  UNL     1     -40.300  14.085   7.690  1.00 20.00     0.004 C 
HETATM   10  C9  UNL     1     -40.516  13.556   6.301  1.00 20.00     0.105 C 
HETATM   11  C8  UNL     1     -41.993  13.354   5.952  1.00 20.00     0.024 C 
HETATM   12 CL13 UNL     1     -39.627  12.006   6.155  1.00 20.00    -0.121 Cl
HETATM   13  C7  UNL     1     -42.771  12.754   7.119  1.00 20.00     0.006 C 
HETATM   14  C6  UNL     1     -42.665  13.649   8.359  1.00 20.00     0.042 C 
ENDBRANCH   3   8
TORSDOF 1
ENDMDL
