MODEL 1
REMARK VINA RESULT:      -4.4      0.000      0.000
REMARK  4 active torsions:
REMARK  status: ('A' for Active; 'I' for Inactive)
REMARK    1  A    between atoms: C2_2  and  C8_8 
REMARK    2  A    between atoms: C8_8  and  C11_11 
REMARK    3  A    between atoms: C9_9  and  C10_10 
REMARK    4  A    between atoms: C10_10  and  C11_11 
ROOT
HETATM    1  C1  UNL     1     -34.640  17.022  -4.587  1.00 20.00    -0.004 C 
HETATM    2  C2  UNL     1     -33.614  16.952  -3.730  1.00 20.00    -0.082 C 
HETATM    3  C3  UNL     1     -33.019  15.578  -3.696  1.00 20.00     0.036 C 
HETATM    4  C4  UNL     1     -34.090  14.737  -4.396  1.00 20.00     0.028 C 
HETATM    5  C5  UNL     1     -34.894  15.713  -5.258  1.00 20.00     0.105 C 
HETATM    6 CL12 UNL     1     -34.286  15.767  -6.927  1.00 20.00    -0.121 Cl
ENDROOT
BRANCH   2   7
HETATM    7  C8  UNL     1     -33.054  18.056  -2.910  1.00 20.00     0.038 C 
BRANCH   7   8
HETATM    8  C11 UNL     1     -32.811  17.704  -1.429  1.00 20.00    -0.015 C 
HETATM    9  C7  UNL     1     -34.093  17.863  -0.603  1.00 20.00     0.010 C 
BRANCH   8  10
HETATM   10  C10 UNL     1     -31.667  18.504  -0.772  1.00 20.00     0.004 C 
BRANCH  10  11
HETATM   11  C9  UNL     1     -31.887  18.774   0.719  1.00 20.00    -0.004 C 
HETATM   12  C6  UNL     1     -30.645  18.442   1.532  1.00 20.00     0.005 C 
ENDBRANCH  10  11
ENDBRANCH   8  10
ENDBRANCH   7   8
ENDBRANCH   2   7
TORSDOF 4
ENDMDL
MODEL 2
REMARK VINA RESULT:      -4.3     12.140     13.013
REMARK  4 active torsions:
REMARK  status: ('A' for Active; 'I' for Inactive)
REMARK    1  A    between atoms: C2_2  and  C8_8 
REMARK    2  A    between atoms: C8_8  and  C11_11 
REMARK    3  A    between atoms: C9_9  and  C10_10 
REMARK    4  A    between atoms: C10_10  and  C11_11 
ROOT
HETATM    1  C1  UNL     1     -34.832   6.604   4.568  1.00 20.00    -0.004 C 
HETATM    2  C2  UNL     1     -34.069   7.389   5.341  1.00 20.00    -0.082 C 
HETATM    3  C3  UNL     1     -33.668   6.692   6.604  1.00 20.00     0.036 C 
HETATM    4  C4  UNL     1     -34.620   5.494   6.637  1.00 20.00     0.028 C 
HETATM    5  C5  UNL     1     -35.061   5.267   5.190  1.00 20.00     0.105 C 
HETATM    6 CL12 UNL     1     -34.051   4.049   4.380  1.00 20.00    -0.121 Cl
ENDROOT
BRANCH   2   7
HETATM    7  C8  UNL     1     -33.607   8.767   5.038  1.00 20.00     0.038 C 
BRANCH   7   8
HETATM    8  C11 UNL     1     -32.467   8.856   4.005  1.00 20.00    -0.015 C 
HETATM    9  C7  UNL     1     -32.929   9.565   2.726  1.00 20.00     0.010 C 
BRANCH   8  10
HETATM   10  C10 UNL     1     -31.836   7.494   3.645  1.00 20.00     0.004 C 
BRANCH  10  11
HETATM   11  C9  UNL     1     -32.150   7.033   2.219  1.00 20.00    -0.004 C 
HETATM   12  C6  UNL     1     -32.651   5.597   2.198  1.00 20.00     0.005 C 
ENDBRANCH  10  11
ENDBRANCH   8  10
ENDBRANCH   7   8
ENDBRANCH   2   7
TORSDOF 4
ENDMDL
MODEL 3
REMARK VINA RESULT:      -4.2      2.691      5.707
REMARK  4 active torsions:
REMARK  status: ('A' for Active; 'I' for Inactive)
REMARK    1  A    between atoms: C2_2  and  C8_8 
REMARK    2  A    between atoms: C8_8  and  C11_11 
REMARK    3  A    between atoms: C9_9  and  C10_10 
REMARK    4  A    between atoms: C10_10  and  C11_11 
ROOT
HETATM    1  C1  UNL     1     -33.506  16.787  -1.862  1.00 20.00    -0.004 C 
HETATM    2  C2  UNL     1     -33.451  16.595  -3.186  1.00 20.00    -0.082 C 
HETATM    3  C3  UNL     1     -33.282  17.888  -3.921  1.00 20.00     0.036 C 
HETATM    4  C4  UNL     1     -33.618  18.925  -2.847  1.00 20.00     0.028 C 
HETATM    5  C5  UNL     1     -33.385  18.230  -1.504  1.00 20.00     0.105 C 
HETATM    6 CL12 UNL     1     -31.757  18.556  -0.871  1.00 20.00    -0.121 Cl
ENDROOT
BRANCH   2   7
HETATM    7  C8  UNL     1     -33.505  15.298  -3.906  1.00 20.00     0.038 C 
BRANCH   7   8
HETATM    8  C11 UNL     1     -34.627  15.187  -4.958  1.00 20.00    -0.015 C 
HETATM    9  C7  UNL     1     -35.514  13.964  -4.697  1.00 20.00     0.010 C 
BRANCH   8  10
HETATM   10  C10 UNL     1     -34.123  15.162  -6.416  1.00 20.00     0.004 C 
BRANCH  10  11
HETATM   11  C9  UNL     1     -34.490  16.418  -7.212  1.00 20.00    -0.004 C 
HETATM   12  C6  UNL     1     -35.687  17.130  -6.601  1.00 20.00     0.005 C 
ENDBRANCH  10  11
ENDBRANCH   8  10
ENDBRANCH   7   8
ENDBRANCH   2   7
TORSDOF 4
ENDMDL
MODEL 4
REMARK VINA RESULT:      -4.1     11.735     12.598
REMARK  4 active torsions:
REMARK  status: ('A' for Active; 'I' for Inactive)
REMARK    1  A    between atoms: C2_2  and  C8_8 
REMARK    2  A    between atoms: C8_8  and  C11_11 
REMARK    3  A    between atoms: C9_9  and  C10_10 
REMARK    4  A    between atoms: C10_10  and  C11_11 
ROOT
HETATM    1  C1  UNL     1     -34.697   6.182   4.300  1.00 20.00    -0.004 C 
HETATM    2  C2  UNL     1     -34.088   7.158   4.985  1.00 20.00    -0.082 C 
HETATM    3  C3  UNL     1     -33.788   6.739   6.391  1.00 20.00     0.036 C 
HETATM    4  C4  UNL     1     -34.650   5.484   6.552  1.00 20.00     0.028 C 
HETATM    5  C5  UNL     1     -34.901   4.962   5.135  1.00 20.00     0.105 C 
HETATM    6 CL12 UNL     1     -33.719   3.717   4.676  1.00 20.00    -0.121 Cl
ENDROOT
BRANCH   2   7
HETATM    7  C8  UNL     1     -33.693   8.497   4.477  1.00 20.00     0.038 C 
BRANCH   7   8
HETATM    8  C11 UNL     1     -32.784   8.475   3.232  1.00 20.00    -0.015 C 
HETATM    9  C7  UNL     1     -31.390   7.933   3.572  1.00 20.00     0.010 C 
BRANCH   8  10
HETATM   10  C10 UNL     1     -32.652   9.840   2.525  1.00 20.00     0.004 C 
BRANCH  10  11
HETATM   11  C9  UNL     1     -33.038   9.801   1.044  1.00 20.00    -0.004 C 
HETATM   12  C6  UNL     1     -32.368   8.638   0.328  1.00 20.00     0.005 C 
ENDBRANCH  10  11
ENDBRANCH   8  10
ENDBRANCH   7   8
ENDBRANCH   2   7
TORSDOF 4
ENDMDL
MODEL 5
REMARK VINA RESULT:      -3.9     12.527     14.455
REMARK  4 active torsions:
REMARK  status: ('A' for Active; 'I' for Inactive)
REMARK    1  A    between atoms: C2_2  and  C8_8 
REMARK    2  A    between atoms: C8_8  and  C11_11 
REMARK    3  A    between atoms: C9_9  and  C10_10 
REMARK    4  A    between atoms: C10_10  and  C11_11 
ROOT
HETATM    1  C1  UNL     1     -42.308  14.355   9.724  1.00 20.00    -0.004 C 
HETATM    2  C2  UNL     1     -41.634  14.164   8.583  1.00 20.00    -0.082 C 
HETATM    3  C3  UNL     1     -40.278  14.798   8.634  1.00 20.00     0.036 C 
HETATM    4  C4  UNL     1     -40.389  15.719   9.851  1.00 20.00     0.028 C 
HETATM    5  C5  UNL     1     -41.514  15.143  10.713  1.00 20.00     0.105 C 
HETATM    6 CL12 UNL     1     -40.886  14.062  11.976  1.00 20.00    -0.121 Cl
ENDROOT
BRANCH   2   7
HETATM    7  C8  UNL     1     -42.087  13.404   7.391  1.00 20.00     0.038 C 
BRANCH   7   8
HETATM    8  C11 UNL     1     -41.097  13.403   6.209  1.00 20.00    -0.015 C 
HETATM    9  C7  UNL     1     -41.759  13.934   4.931  1.00 20.00     0.010 C 
BRANCH   8  10
HETATM   10  C10 UNL     1     -40.453  12.030   5.928  1.00 20.00     0.004 C 
BRANCH  10  11
HETATM   11  C9  UNL     1     -39.009  12.123   5.426  1.00 20.00    -0.004 C 
HETATM   12  C6  UNL     1     -38.894  11.655   3.983  1.00 20.00     0.005 C 
ENDBRANCH  10  11
ENDBRANCH   8  10
ENDBRANCH   7   8
ENDBRANCH   2   7
TORSDOF 4
ENDMDL
MODEL 6
REMARK VINA RESULT:      -3.7      1.445      2.289
REMARK  4 active torsions:
REMARK  status: ('A' for Active; 'I' for Inactive)
REMARK    1  A    between atoms: C2_2  and  C8_8 
REMARK    2  A    between atoms: C8_8  and  C11_11 
REMARK    3  A    between atoms: C9_9  and  C10_10 
REMARK    4  A    between atoms: C10_10  and  C11_11 
ROOT
HETATM    1  C1  UNL     1     -34.588  14.498  -4.278  1.00 20.00    -0.004 C 
HETATM    2  C2  UNL     1     -34.026  15.710  -4.375  1.00 20.00    -0.082 C 
HETATM    3  C3  UNL     1     -34.552  16.466  -5.556  1.00 20.00     0.036 C 
HETATM    4  C4  UNL     1     -35.246  15.369  -6.367  1.00 20.00     0.028 C 
HETATM    5  C5  UNL     1     -35.571  14.253  -5.373  1.00 20.00     0.105 C 
HETATM    6 CL12 UNL     1     -37.224  14.400  -4.738  1.00 20.00    -0.121 Cl
ENDROOT
BRANCH   2   7
HETATM    7  C8  UNL     1     -33.033  16.314  -3.451  1.00 20.00     0.038 C 
BRANCH   7   8
HETATM    8  C11 UNL     1     -33.505  17.599  -2.742  1.00 20.00    -0.015 C 
HETATM    9  C7  UNL     1     -33.022  18.852  -3.484  1.00 20.00     0.010 C 
BRANCH   8  10
HETATM   10  C10 UNL     1     -33.098  17.685  -1.257  1.00 20.00     0.004 C 
BRANCH  10  11
HETATM   11  C9  UNL     1     -32.143  18.842  -0.950  1.00 20.00    -0.004 C 
HETATM   12  C6  UNL     1     -31.075  18.428   0.050  1.00 20.00     0.005 C 
ENDBRANCH  10  11
ENDBRANCH   8  10
ENDBRANCH   7   8
ENDBRANCH   2   7
TORSDOF 4
ENDMDL
MODEL 7
REMARK VINA RESULT:      -3.7     11.645     13.675
REMARK  4 active torsions:
REMARK  status: ('A' for Active; 'I' for Inactive)
REMARK    1  A    between atoms: C2_2  and  C8_8 
REMARK    2  A    between atoms: C8_8  and  C11_11 
REMARK    3  A    between atoms: C9_9  and  C10_10 
REMARK    4  A    between atoms: C10_10  and  C11_11 
ROOT
HETATM    1  C1  UNL     1     -40.433  16.499   7.549  1.00 20.00    -0.004 C 
HETATM    2  C2  UNL     1     -40.756  15.372   8.196  1.00 20.00    -0.082 C 
HETATM    3  C3  UNL     1     -41.590  15.656   9.408  1.00 20.00     0.036 C 
HETATM    4  C4  UNL     1     -41.404  17.164   9.592  1.00 20.00     0.028 C 
HETATM    5  C5  UNL     1     -40.995  17.707   8.221  1.00 20.00     0.105 C 
HETATM    6 CL12 UNL     1     -42.398  18.303   7.307  1.00 20.00    -0.121 Cl
ENDROOT
BRANCH   2   7
HETATM    7  C8  UNL     1     -40.404  13.983   7.809  1.00 20.00     0.038 C 
BRANCH   7   8
HETATM    8  C11 UNL     1     -40.924  13.546   6.424  1.00 20.00    -0.015 C 
HETATM    9  C7  UNL     1     -42.453  13.632   6.353  1.00 20.00     0.010 C 
BRANCH   8  10
HETATM   10  C10 UNL     1     -40.462  12.138   5.994  1.00 20.00     0.004 C 
BRANCH  10  11
HETATM   11  C9  UNL     1     -39.018  12.097   5.485  1.00 20.00    -0.004 C 
HETATM   12  C6  UNL     1     -38.959  11.678   4.024  1.00 20.00     0.005 C 
ENDBRANCH  10  11
ENDBRANCH   8  10
ENDBRANCH   7   8
ENDBRANCH   2   7
TORSDOF 4
ENDMDL
MODEL 8
REMARK VINA RESULT:      -3.6      3.119      6.047
REMARK  4 active torsions:
REMARK  status: ('A' for Active; 'I' for Inactive)
REMARK    1  A    between atoms: C2_2  and  C8_8 
REMARK    2  A    between atoms: C8_8  and  C11_11 
REMARK    3  A    between atoms: C9_9  and  C10_10 
REMARK    4  A    between atoms: C10_10  and  C11_11 
ROOT
HETATM    1  C1  UNL     1     -33.191  18.511   0.530  1.00 20.00    -0.004 C 
HETATM    2  C2  UNL     1     -32.756  17.926  -0.593  1.00 20.00    -0.082 C 
HETATM    3  C3  UNL     1     -31.287  18.140  -0.790  1.00 20.00     0.036 C 
HETATM    4  C4  UNL     1     -30.981  19.263   0.204  1.00 20.00     0.028 C 
HETATM    5  C5  UNL     1     -32.089  19.206   1.257  1.00 20.00     0.105 C 
HETATM    6 CL12 UNL     1     -31.603  18.243   2.670  1.00 20.00    -0.121 Cl
ENDROOT
BRANCH   2   7
HETATM    7  C8  UNL     1     -33.555  17.121  -1.552  1.00 20.00     0.038 C 
BRANCH   7   8
HETATM    8  C11 UNL     1     -33.014  17.109  -2.995  1.00 20.00    -0.015 C 
HETATM    9  C7  UNL     1     -33.216  18.469  -3.675  1.00 20.00     0.010 C 
BRANCH   8  10
HETATM   10  C10 UNL     1     -33.606  15.993  -3.881  1.00 20.00     0.004 C 
BRANCH  10  11
HETATM   11  C9  UNL     1     -34.566  16.509  -4.956  1.00 20.00    -0.004 C 
HETATM   12  C6  UNL     1     -35.747  15.568  -5.142  1.00 20.00     0.005 C 
ENDBRANCH  10  11
ENDBRANCH   8  10
ENDBRANCH   7   8
ENDBRANCH   2   7
TORSDOF 4
ENDMDL
MODEL 9
REMARK VINA RESULT:      -3.4     11.914     12.910
REMARK  4 active torsions:
REMARK  status: ('A' for Active; 'I' for Inactive)
REMARK    1  A    between atoms: C2_2  and  C8_8 
REMARK    2  A    between atoms: C8_8  and  C11_11 
REMARK    3  A    between atoms: C9_9  and  C10_10 
REMARK    4  A    between atoms: C10_10  and  C11_11 
ROOT
HETATM    1  C1  UNL     1     -31.953   7.749   4.165  1.00 20.00    -0.004 C 
HETATM    2  C2  UNL     1     -33.097   7.948   4.833  1.00 20.00    -0.082 C 
HETATM    3  C3  UNL     1     -33.943   8.993   4.174  1.00 20.00     0.036 C 
HETATM    4  C4  UNL     1     -32.957   9.657   3.210  1.00 20.00     0.028 C 
HETATM    5  C5  UNL     1     -31.854   8.627   2.962  1.00 20.00     0.105 C 
HETATM    6 CL12 UNL     1     -32.166   7.671   1.496  1.00 20.00    -0.121 Cl
ENDROOT
BRANCH   2   7
HETATM    7  C8  UNL     1     -33.557   7.238   6.053  1.00 20.00     0.038 C 
BRANCH   7   8
HETATM    8  C11 UNL     1     -34.676   6.205   5.819  1.00 20.00    -0.015 C 
HETATM    9  C7  UNL     1     -34.492   4.973   6.714  1.00 20.00     0.010 C 
BRANCH   8  10
HETATM   10  C10 UNL     1     -34.825   5.760   4.349  1.00 20.00     0.004 C 
BRANCH  10  11
HETATM   11  C9  UNL     1     -33.981   4.534   3.992  1.00 20.00    -0.004 C 
HETATM   12  C6  UNL     1     -33.136   4.784   2.753  1.00 20.00     0.005 C 
ENDBRANCH  10  11
ENDBRANCH   8  10
ENDBRANCH   7   8
ENDBRANCH   2   7
TORSDOF 4
ENDMDL
