MODEL 1
REMARK VINA RESULT:      -5.7      0.000      0.000
REMARK  1 active torsions:
REMARK  status: ('A' for Active; 'I' for Inactive)
REMARK    1  A    between atoms: C2_2  and  C10_10 
ROOT
HETATM    1  C1  UNL     1     -32.872   6.681   3.354  1.00 20.00    -0.003 C 
HETATM    2  C2  UNL     1     -33.644   6.716   4.456  1.00 20.00    -0.075 C 
HETATM    3  C3  UNL     1     -33.647   7.925   5.369  1.00 20.00     0.034 C 
HETATM    4  C4  UNL     1     -32.478   8.883   5.129  1.00 20.00     0.006 C 
HETATM    5  C5  UNL     1     -32.280   9.129   3.637  1.00 20.00     0.024 C 
HETATM    6  C6  UNL     1     -31.989   7.814   2.912  1.00 20.00     0.105 C 
HETATM    7 CL11 UNL     1     -32.156   8.059   1.150  1.00 20.00    -0.121 Cl
ENDROOT
BRANCH   2   8
HETATM    8  C10 UNL     1     -34.512   5.590   4.881  1.00 20.00    -0.028 C 
HETATM    9  C7  UNL     1     -35.927   5.798   4.321  1.00 20.00     0.019 C 
HETATM   10  C8  UNL     1     -34.573   5.530   6.417  1.00 20.00     0.019 C 
HETATM   11  C9  UNL     1     -33.942   4.264   4.350  1.00 20.00     0.019 C 
ENDBRANCH   2   8
TORSDOF 1
ENDMDL
MODEL 2
REMARK VINA RESULT:      -4.2      1.470      2.120
REMARK  1 active torsions:
REMARK  status: ('A' for Active; 'I' for Inactive)
REMARK    1  A    between atoms: C2_2  and  C10_10 
ROOT
HETATM    1  C1  UNL     1     -33.569   7.821   4.687  1.00 20.00    -0.003 C 
HETATM    2  C2  UNL     1     -33.657   6.543   4.268  1.00 20.00    -0.075 C 
HETATM    3  C3  UNL     1     -32.851   6.055   3.083  1.00 20.00     0.034 C 
HETATM    4  C4  UNL     1     -32.253   7.180   2.235  1.00 20.00     0.006 C 
HETATM    5  C5  UNL     1     -31.621   8.247   3.122  1.00 20.00     0.024 C 
HETATM    6  C6  UNL     1     -32.667   8.847   4.064  1.00 20.00     0.105 C 
HETATM    7 CL11 UNL     1     -31.844   9.785   5.343  1.00 20.00    -0.121 Cl
ENDROOT
BRANCH   2   8
HETATM    8  C10 UNL     1     -34.552   5.539   4.892  1.00 20.00    -0.028 C 
HETATM    9  C7  UNL     1     -35.976   5.715   4.342  1.00 20.00     0.019 C 
HETATM   10  C8  UNL     1     -34.567   5.731   6.418  1.00 20.00     0.019 C 
HETATM   11  C9  UNL     1     -34.051   4.121   4.569  1.00 20.00     0.019 C 
ENDBRANCH   2   8
TORSDOF 1
ENDMDL
MODEL 3
REMARK VINA RESULT:      -4.0     12.005     13.428
REMARK  1 active torsions:
REMARK  status: ('A' for Active; 'I' for Inactive)
REMARK    1  A    between atoms: C2_2  and  C10_10 
ROOT
HETATM    1  C1  UNL     1     -34.838  17.196  -4.872  1.00 20.00    -0.003 C 
HETATM    2  C2  UNL     1     -34.092  17.011  -3.766  1.00 20.00    -0.075 C 
HETATM    3  C3  UNL     1     -33.340  15.716  -3.541  1.00 20.00     0.034 C 
HETATM    4  C4  UNL     1     -33.788  14.574  -4.455  1.00 20.00     0.006 C 
HETATM    5  C5  UNL     1     -33.936  15.059  -5.893  1.00 20.00     0.024 C 
HETATM    6  C6  UNL     1     -34.970  16.184  -5.974  1.00 20.00     0.105 C 
HETATM    7 CL11 UNL     1     -34.839  16.997  -7.560  1.00 20.00    -0.121 Cl
ENDROOT
BRANCH   2   8
HETATM    8  C10 UNL     1     -33.970  18.020  -2.685  1.00 20.00    -0.028 C 
HETATM    9  C7  UNL     1     -33.568  17.319  -1.379  1.00 20.00     0.019 C 
HETATM   10  C8  UNL     1     -35.317  18.736  -2.487  1.00 20.00     0.019 C 
HETATM   11  C9  UNL     1     -32.899  19.059  -3.058  1.00 20.00     0.019 C 
ENDBRANCH   2   8
TORSDOF 1
ENDMDL
MODEL 4
REMARK VINA RESULT:      -3.8     12.548     13.675
REMARK  1 active torsions:
REMARK  status: ('A' for Active; 'I' for Inactive)
REMARK    1  A    between atoms: C2_2  and  C10_10 
ROOT
HETATM    1  C1  UNL     1     -25.710  -2.932   9.995  1.00 20.00    -0.003 C 
HETATM    2  C2  UNL     1     -26.269  -2.049  10.846  1.00 20.00    -0.075 C 
HETATM    3  C3  UNL     1     -25.452  -1.399  11.942  1.00 20.00     0.034 C 
HETATM    4  C4  UNL     1     -24.109  -2.085  12.203  1.00 20.00     0.006 C 
HETATM    5  C5  UNL     1     -23.399  -2.399  10.890  1.00 20.00     0.024 C 
HETATM    6  C6  UNL     1     -24.260  -3.321  10.025  1.00 20.00     0.105 C 
HETATM    7 CL11 UNL     1     -23.608  -3.353   8.361  1.00 20.00    -0.121 Cl
ENDROOT
BRANCH   2   8
HETATM    8  C10 UNL     1     -27.703  -1.673  10.806  1.00 20.00    -0.028 C 
HETATM    9  C7  UNL     1     -27.848  -0.287  10.160  1.00 20.00     0.019 C 
HETATM   10  C8  UNL     1     -28.272  -1.634  12.234  1.00 20.00     0.019 C 
HETATM   11  C9  UNL     1     -28.490  -2.705   9.980  1.00 20.00     0.019 C 
ENDBRANCH   2   8
TORSDOF 1
ENDMDL
MODEL 5
REMARK VINA RESULT:      -3.7     11.519     12.777
REMARK  1 active torsions:
REMARK  status: ('A' for Active; 'I' for Inactive)
REMARK    1  A    between atoms: C2_2  and  C10_10 
ROOT
HETATM    1  C1  UNL     1     -33.462  16.482  -2.604  1.00 20.00    -0.003 C 
HETATM    2  C2  UNL     1     -34.019  16.341  -3.823  1.00 20.00    -0.075 C 
HETATM    3  C3  UNL     1     -34.892  17.429  -4.412  1.00 20.00     0.034 C 
HETATM    4  C4  UNL     1     -35.352  18.473  -3.392  1.00 20.00     0.006 C 
HETATM    5  C5  UNL     1     -34.191  18.908  -2.504  1.00 20.00     0.024 C 
HETATM    6  C6  UNL     1     -33.617  17.707  -1.749  1.00 20.00     0.105 C 
HETATM    7 CL11 UNL     1     -32.038  18.152  -1.039  1.00 20.00    -0.121 Cl
ENDROOT
BRANCH   2   8
HETATM    8  C10 UNL     1     -33.859  15.125  -4.658  1.00 20.00    -0.028 C 
HETATM    9  C7  UNL     1     -32.461  14.531  -4.428  1.00 20.00     0.019 C 
HETATM   10  C8  UNL     1     -34.023  15.487  -6.143  1.00 20.00     0.019 C 
HETATM   11  C9  UNL     1     -34.925  14.085  -4.274  1.00 20.00     0.019 C 
ENDBRANCH   2   8
TORSDOF 1
ENDMDL
MODEL 6
REMARK VINA RESULT:      -3.7     12.263     13.371
REMARK  1 active torsions:
REMARK  status: ('A' for Active; 'I' for Inactive)
REMARK    1  A    between atoms: C2_2  and  C10_10 
ROOT
HETATM    1  C1  UNL     1     -35.162  17.611  -4.336  1.00 20.00    -0.003 C 
HETATM    2  C2  UNL     1     -34.732  16.374  -4.650  1.00 20.00    -0.075 C 
HETATM    3  C3  UNL     1     -33.701  15.667  -3.797  1.00 20.00     0.034 C 
HETATM    4  C4  UNL     1     -32.969  16.590  -2.820  1.00 20.00     0.006 C 
HETATM    5  C5  UNL     1     -33.953  17.515  -2.111  1.00 20.00     0.024 C 
HETATM    6  C6  UNL     1     -34.703  18.377  -3.129  1.00 20.00     0.105 C 
HETATM    7 CL11 UNL     1     -36.105  19.148  -2.332  1.00 20.00    -0.121 Cl
ENDROOT
BRANCH   2   8
HETATM    8  C10 UNL     1     -35.194  15.629  -5.847  1.00 20.00    -0.028 C 
HETATM    9  C7  UNL     1     -33.979  15.238  -6.703  1.00 20.00     0.019 C 
HETATM   10  C8  UNL     1     -36.142  16.511  -6.677  1.00 20.00     0.019 C 
HETATM   11  C9  UNL     1     -35.943  14.357  -5.413  1.00 20.00     0.019 C 
ENDBRANCH   2   8
TORSDOF 1
ENDMDL
MODEL 7
REMARK VINA RESULT:      -3.7     12.265     13.320
REMARK  1 active torsions:
REMARK  status: ('A' for Active; 'I' for Inactive)
REMARK    1  A    between atoms: C2_2  and  C10_10 
ROOT
HETATM    1  C1  UNL     1     -35.185  17.602  -4.316  1.00 20.00    -0.003 C 
HETATM    2  C2  UNL     1     -34.734  16.373  -4.634  1.00 20.00    -0.075 C 
HETATM    3  C3  UNL     1     -33.687  15.683  -3.785  1.00 20.00     0.034 C 
HETATM    4  C4  UNL     1     -32.970  16.617  -2.807  1.00 20.00     0.006 C 
HETATM    5  C5  UNL     1     -33.969  17.522  -2.093  1.00 20.00     0.024 C 
HETATM    6  C6  UNL     1     -34.738  18.372  -3.107  1.00 20.00     0.105 C 
HETATM    7 CL11 UNL     1     -36.152  19.115  -2.305  1.00 20.00    -0.121 Cl
ENDROOT
BRANCH   2   8
HETATM    8  C10 UNL     1     -35.184  15.623  -5.832  1.00 20.00    -0.028 C 
HETATM    9  C7  UNL     1     -36.113  16.513  -6.670  1.00 20.00     0.019 C 
HETATM   10  C8  UNL     1     -35.942  14.357  -5.399  1.00 20.00     0.019 C 
HETATM   11  C9  UNL     1     -33.967  15.214  -6.679  1.00 20.00     0.019 C 
ENDBRANCH   2   8
TORSDOF 1
ENDMDL
MODEL 8
REMARK VINA RESULT:      -3.7      1.919      4.026
REMARK  1 active torsions:
REMARK  status: ('A' for Active; 'I' for Inactive)
REMARK    1  A    between atoms: C2_2  and  C10_10 
ROOT
HETATM    1  C1  UNL     1     -33.700   6.174   3.951  1.00 20.00    -0.003 C 
HETATM    2  C2  UNL     1     -33.304   7.281   4.608  1.00 20.00    -0.075 C 
HETATM    3  C3  UNL     1     -33.637   7.479   6.072  1.00 20.00     0.034 C 
HETATM    4  C4  UNL     1     -34.719   6.532   6.594  1.00 20.00     0.006 C 
HETATM    5  C5  UNL     1     -34.463   5.106   6.119  1.00 20.00     0.024 C 
HETATM    6  C6  UNL     1     -34.457   5.045   4.591  1.00 20.00     0.105 C 
HETATM    7 CL11 UNL     1     -33.771   3.481   4.063  1.00 20.00    -0.121 Cl
ENDROOT
BRANCH   2   8
HETATM    8  C10 UNL     1     -32.557   8.389   3.964  1.00 20.00    -0.028 C 
HETATM    9  C7  UNL     1     -32.034   9.346   5.045  1.00 20.00     0.019 C 
HETATM   10  C8  UNL     1     -33.485   9.156   3.006  1.00 20.00     0.019 C 
HETATM   11  C9  UNL     1     -31.370   7.822   3.166  1.00 20.00     0.019 C 
ENDBRANCH   2   8
TORSDOF 1
ENDMDL
MODEL 9
REMARK VINA RESULT:      -3.5     12.639     13.905
REMARK  1 active torsions:
REMARK  status: ('A' for Active; 'I' for Inactive)
REMARK    1  A    between atoms: C2_2  and  C10_10 
ROOT
HETATM    1  C1  UNL     1     -27.061  -2.545  10.325  1.00 20.00    -0.003 C 
HETATM    2  C2  UNL     1     -25.862  -2.376  10.915  1.00 20.00    -0.075 C 
HETATM    3  C3  UNL     1     -25.605  -1.201  11.835  1.00 20.00     0.034 C 
HETATM    4  C4  UNL     1     -26.658  -0.095  11.736  1.00 20.00     0.006 C 
HETATM    5  C5  UNL     1     -28.063  -0.687  11.729  1.00 20.00     0.024 C 
HETATM    6  C6  UNL     1     -28.237  -1.636  10.541  1.00 20.00     0.105 C 
HETATM    7 CL11 UNL     1     -29.719  -2.607  10.770  1.00 20.00    -0.121 Cl
ENDROOT
BRANCH   2   8
HETATM    8  C10 UNL     1     -24.708  -3.281  10.693  1.00 20.00    -0.028 C 
HETATM    9  C7  UNL     1     -25.158  -4.736  10.892  1.00 20.00     0.019 C 
HETATM   10  C8  UNL     1     -23.587  -2.952  11.693  1.00 20.00     0.019 C 
HETATM   11  C9  UNL     1     -24.173  -3.103   9.262  1.00 20.00     0.019 C 
ENDBRANCH   2   8
TORSDOF 1
ENDMDL
