MODEL 1
REMARK VINA RESULT:      -4.5      0.000      0.000
REMARK  1 active torsions:
REMARK  status: ('A' for Active; 'I' for Inactive)
REMARK    1  A    between atoms: C2_2  and  C8_8 
ROOT
HETATM    1  C1  UNL     1     -41.504  13.645   5.221  1.00 20.00     0.053 C 
HETATM    2  C2  UNL     1     -40.561  13.142   6.033  1.00 20.00    -0.072 C 
HETATM    3  C3  UNL     1     -42.187  14.919   5.555  1.00 20.00     0.150 C 
HETATM    4  C4  UNL     1     -40.167  13.796   7.335  1.00 20.00     0.043 C 
HETATM    5  C5  UNL     1     -41.743  15.683   6.783  1.00 20.00     0.092 C 
HETATM    6  C9  UNL     1     -41.233  14.760   7.902  1.00 20.00    -0.037 C 
HETATM    7  C10 UNL     1     -42.407  13.967   8.516  1.00 20.00     0.015 C 
HETATM    8  C11 UNL     1     -40.601  15.614   9.016  1.00 20.00     0.015 C 
HETATM    9  O12 UNL     1     -43.055  15.358   4.802  1.00 20.00    -0.293 OA
ENDROOT
BRANCH   2  10
HETATM   10  C8  UNL     1     -39.821  11.885   5.680  1.00 20.00     0.014 A 
HETATM   11  C6  UNL     1     -39.287  11.755   4.296  1.00 20.00     0.010 A 
HETATM   12  C7  UNL     1     -38.354  11.981   5.447  1.00 20.00     0.010 A 
ENDBRANCH   2  10
TORSDOF 1
ENDMDL
MODEL 2
REMARK VINA RESULT:      -4.4     11.883     13.313
REMARK  1 active torsions:
REMARK  status: ('A' for Active; 'I' for Inactive)
REMARK    1  A    between atoms: C2_2  and  C8_8 
ROOT
HETATM    1  C1  UNL     1     -34.464  14.704  -3.870  1.00 20.00     0.053 C 
HETATM    2  C2  UNL     1     -33.988  15.915  -4.197  1.00 20.00    -0.072 C 
HETATM    3  C3  UNL     1     -35.404  13.993  -4.770  1.00 20.00     0.150 C 
HETATM    4  C4  UNL     1     -34.400  16.645  -5.452  1.00 20.00     0.043 C 
HETATM    5  C5  UNL     1     -35.753  14.621  -6.102  1.00 20.00     0.092 C 
HETATM    6  C9  UNL     1     -35.737  16.158  -6.053  1.00 20.00    -0.037 C 
HETATM    7  C10 UNL     1     -36.926  16.677  -5.216  1.00 20.00     0.015 C 
HETATM    8  C11 UNL     1     -35.881  16.713  -7.481  1.00 20.00     0.015 C 
HETATM    9  O12 UNL     1     -35.836  12.887  -4.447  1.00 20.00    -0.293 OA
ENDROOT
BRANCH   2  10
HETATM   10  C8  UNL     1     -32.992  16.621  -3.325  1.00 20.00     0.014 A 
HETATM   11  C6  UNL     1     -33.231  18.058  -3.014  1.00 20.00     0.010 A 
HETATM   12  C7  UNL     1     -33.420  17.015  -1.954  1.00 20.00     0.010 A 
ENDBRANCH   2  10
TORSDOF 1
ENDMDL
MODEL 3
REMARK VINA RESULT:      -4.3     11.408     13.265
REMARK  1 active torsions:
REMARK  status: ('A' for Active; 'I' for Inactive)
REMARK    1  A    between atoms: C2_2  and  C8_8 
ROOT
HETATM    1  C1  UNL     1     -33.540  15.892  -3.017  1.00 20.00     0.053 C 
HETATM    2  C2  UNL     1     -33.384  17.224  -3.059  1.00 20.00    -0.072 C 
HETATM    3  C3  UNL     1     -33.966  15.143  -4.224  1.00 20.00     0.150 C 
HETATM    4  C4  UNL     1     -33.665  18.044  -4.294  1.00 20.00     0.043 C 
HETATM    5  C5  UNL     1     -34.140  15.897  -5.524  1.00 20.00     0.092 C 
HETATM    6  C9  UNL     1     -34.599  17.349  -5.310  1.00 20.00    -0.037 C 
HETATM    7  C10 UNL     1     -36.060  17.379  -4.810  1.00 20.00     0.015 C 
HETATM    8  C11 UNL     1     -34.539  18.104  -6.650  1.00 20.00     0.015 C 
HETATM    9  O12 UNL     1     -34.113  13.924  -4.162  1.00 20.00    -0.293 OA
ENDROOT
BRANCH   2  10
HETATM   10  C8  UNL     1     -32.898  17.988  -1.862  1.00 20.00     0.014 A 
HETATM   11  C6  UNL     1     -33.755  19.090  -1.342  1.00 20.00     0.010 A 
HETATM   12  C7  UNL     1     -33.627  17.808  -0.575  1.00 20.00     0.010 A 
ENDBRANCH   2  10
TORSDOF 1
ENDMDL
MODEL 4
REMARK VINA RESULT:      -4.1      1.847      2.681
REMARK  1 active torsions:
REMARK  status: ('A' for Active; 'I' for Inactive)
REMARK    1  A    between atoms: C2_2  and  C8_8 
ROOT
HETATM    1  C1  UNL     1     -41.423  12.234   6.425  1.00 20.00     0.053 C 
HETATM    2  C2  UNL     1     -40.972  12.962   5.392  1.00 20.00    -0.072 C 
HETATM    3  C3  UNL     1     -42.643  12.644   7.162  1.00 20.00     0.150 C 
HETATM    4  C4  UNL     1     -41.629  14.244   4.943  1.00 20.00     0.043 C 
HETATM    5  C5  UNL     1     -43.416  13.852   6.676  1.00 20.00     0.092 C 
HETATM    6  C9  UNL     1     -42.511  14.910   6.023  1.00 20.00    -0.037 C 
HETATM    7  C10 UNL     1     -41.632  15.593   7.092  1.00 20.00     0.015 C 
HETATM    8  C11 UNL     1     -43.387  15.990   5.365  1.00 20.00     0.015 C 
HETATM    9  O12 UNL     1     -43.035  11.968   8.112  1.00 20.00    -0.293 OA
ENDROOT
BRANCH   2  10
HETATM   10  C8  UNL     1     -39.773  12.529   4.600  1.00 20.00     0.014 A 
HETATM   11  C6  UNL     1     -38.549  12.130   5.349  1.00 20.00     0.010 A 
HETATM   12  C7  UNL     1     -39.380  11.093   4.657  1.00 20.00     0.010 A 
ENDBRANCH   2  10
TORSDOF 1
ENDMDL
MODEL 5
REMARK VINA RESULT:      -4.0      9.692     10.759
REMARK  1 active torsions:
REMARK  status: ('A' for Active; 'I' for Inactive)
REMARK    1  A    between atoms: C2_2  and  C8_8 
ROOT
HETATM    1  C1  UNL     1     -33.307   8.263   5.264  1.00 20.00     0.053 C 
HETATM    2  C2  UNL     1     -32.896   7.731   4.102  1.00 20.00    -0.072 C 
HETATM    3  C3  UNL     1     -33.963   7.418   6.291  1.00 20.00     0.150 C 
HETATM    4  C4  UNL     1     -33.104   6.280   3.746  1.00 20.00     0.043 C 
HETATM    5  C5  UNL     1     -34.083   5.930   6.041  1.00 20.00     0.092 C 
HETATM    6  C9  UNL     1     -34.230   5.591   4.548  1.00 20.00    -0.037 C 
HETATM    7  C10 UNL     1     -35.614   6.041   4.033  1.00 20.00     0.015 C 
HETATM    8  C11 UNL     1     -34.125   4.067   4.361  1.00 20.00     0.015 C 
HETATM    9  O12 UNL     1     -34.341   7.926   7.345  1.00 20.00    -0.293 OA
ENDROOT
BRANCH   2  10
HETATM   10  C8  UNL     1     -32.180   8.562   3.078  1.00 20.00     0.014 A 
HETATM   11  C6  UNL     1     -32.163   8.073   1.671  1.00 20.00     0.010 A 
HETATM   12  C7  UNL     1     -32.999   9.259   2.048  1.00 20.00     0.010 A 
ENDBRANCH   2  10
TORSDOF 1
ENDMDL
MODEL 6
REMARK VINA RESULT:      -3.9     10.963     12.358
REMARK  1 active torsions:
REMARK  status: ('A' for Active; 'I' for Inactive)
REMARK    1  A    between atoms: C2_2  and  C8_8 
ROOT
HETATM    1  C1  UNL     1     -34.607  17.235  -3.922  1.00 20.00     0.053 C 
HETATM    2  C2  UNL     1     -33.553  16.518  -3.501  1.00 20.00    -0.072 C 
HETATM    3  C3  UNL     1     -34.811  18.626  -3.451  1.00 20.00     0.150 C 
HETATM    4  C4  UNL     1     -32.547  17.045  -2.507  1.00 20.00     0.043 C 
HETATM    5  C5  UNL     1     -33.765  19.251  -2.553  1.00 20.00     0.092 C 
HETATM    6  C9  UNL     1     -33.068  18.220  -1.649  1.00 20.00    -0.037 C 
HETATM    7  C10 UNL     1     -34.047  17.709  -0.570  1.00 20.00     0.015 C 
HETATM    8  C11 UNL     1     -31.880  18.891  -0.937  1.00 20.00     0.015 C 
HETATM    9  O12 UNL     1     -35.787  19.263  -3.842  1.00 20.00    -0.293 OA
ENDROOT
BRANCH   2  10
HETATM   10  C8  UNL     1     -33.303  15.129  -4.013  1.00 20.00     0.014 A 
HETATM   11  C6  UNL     1     -34.473  14.223  -4.172  1.00 20.00     0.010 A 
HETATM   12  C7  UNL     1     -33.789  14.791  -5.379  1.00 20.00     0.010 A 
ENDBRANCH   2  10
TORSDOF 1
ENDMDL
MODEL 7
REMARK VINA RESULT:      -3.8      1.979      4.242
REMARK  1 active torsions:
REMARK  status: ('A' for Active; 'I' for Inactive)
REMARK    1  A    between atoms: C2_2  and  C8_8 
ROOT
HETATM    1  C1  UNL     1     -40.056  13.673   7.523  1.00 20.00     0.053 C 
HETATM    2  C2  UNL     1     -40.697  14.852   7.546  1.00 20.00    -0.072 C 
HETATM    3  C3  UNL     1     -40.208  12.753   6.370  1.00 20.00     0.150 C 
HETATM    4  C4  UNL     1     -41.631  15.299   6.449  1.00 20.00     0.043 C 
HETATM    5  C5  UNL     1     -41.031  13.204   5.183  1.00 20.00     0.092 C 
HETATM    6  C9  UNL     1     -42.181  14.144   5.583  1.00 20.00    -0.037 C 
HETATM    7  C10 UNL     1     -43.266  13.361   6.353  1.00 20.00     0.015 C 
HETATM    8  C11 UNL     1     -42.825  14.727   4.312  1.00 20.00     0.015 C 
HETATM    9  O12 UNL     1     -39.620  11.673   6.372  1.00 20.00    -0.293 OA
ENDROOT
BRANCH   2  10
HETATM   10  C8  UNL     1     -40.508  15.817   8.680  1.00 20.00     0.014 A 
HETATM   11  C6  UNL     1     -41.535  15.838   9.758  1.00 20.00     0.010 A 
HETATM   12  C7  UNL     1     -40.176  15.263  10.021  1.00 20.00     0.010 A 
ENDBRANCH   2  10
TORSDOF 1
ENDMDL
MODEL 8
REMARK VINA RESULT:      -3.8     12.013     13.039
REMARK  1 active torsions:
REMARK  status: ('A' for Active; 'I' for Inactive)
REMARK    1  A    between atoms: C2_2  and  C8_8 
ROOT
HETATM    1  C1  UNL     1     -33.289  16.265  -3.188  1.00 20.00     0.053 C 
HETATM    2  C2  UNL     1     -34.122  16.103  -4.228  1.00 20.00    -0.072 C 
HETATM    3  C3  UNL     1     -33.451  17.410  -2.261  1.00 20.00     0.150 C 
HETATM    4  C4  UNL     1     -35.231  17.075  -4.548  1.00 20.00     0.043 C 
HETATM    5  C5  UNL     1     -34.624  18.346  -2.459  1.00 20.00     0.092 C 
HETATM    6  C9  UNL     1     -35.032  18.479  -3.935  1.00 20.00    -0.037 C 
HETATM    7  C10 UNL     1     -33.956  19.263  -4.718  1.00 20.00     0.015 C 
HETATM    8  C11 UNL     1     -36.354  19.263  -4.028  1.00 20.00     0.015 C 
HETATM    9  O12 UNL     1     -32.671  17.546  -1.320  1.00 20.00    -0.293 OA
ENDROOT
BRANCH   2  10
HETATM   10  C8  UNL     1     -34.005  14.918  -5.141  1.00 20.00     0.014 A 
HETATM   11  C6  UNL     1     -35.245  14.420  -5.800  1.00 20.00     0.010 A 
HETATM   12  C7  UNL     1     -34.202  15.139  -6.601  1.00 20.00     0.010 A 
ENDBRANCH   2  10
TORSDOF 1
ENDMDL
MODEL 9
REMARK VINA RESULT:      -3.7     11.668     13.622
REMARK  1 active torsions:
REMARK  status: ('A' for Active; 'I' for Inactive)
REMARK    1  A    between atoms: C2_2  and  C8_8 
ROOT
HETATM    1  C1  UNL     1     -34.009  18.036  -4.534  1.00 20.00     0.053 C 
HETATM    2  C2  UNL     1     -33.891  16.903  -3.825  1.00 20.00    -0.072 C 
HETATM    3  C3  UNL     1     -34.876  18.087  -5.737  1.00 20.00     0.150 C 
HETATM    4  C4  UNL     1     -34.579  15.617  -4.213  1.00 20.00     0.043 C 
HETATM    5  C5  UNL     1     -35.690  16.864  -6.100  1.00 20.00     0.092 C 
HETATM    6  C9  UNL     1     -34.996  15.551  -5.699  1.00 20.00    -0.037 C 
HETATM    7  C10 UNL     1     -33.764  15.303  -6.596  1.00 20.00     0.015 C 
HETATM    8  C11 UNL     1     -35.974  14.379  -5.898  1.00 20.00     0.015 C 
HETATM    9  O12 UNL     1     -34.963  19.133  -6.378  1.00 20.00    -0.293 OA
ENDROOT
BRANCH   2  10
HETATM   10  C8  UNL     1     -33.063  16.851  -2.574  1.00 20.00     0.014 A 
HETATM   11  C6  UNL     1     -32.649  18.142  -1.958  1.00 20.00     0.010 A 
HETATM   12  C7  UNL     1     -33.694  17.293  -1.300  1.00 20.00     0.010 A 
ENDBRANCH   2  10
TORSDOF 1
ENDMDL
