MODEL 1
REMARK VINA RESULT:      -4.8      0.000      0.000
REMARK  2 active torsions:
REMARK  status: ('A' for Active; 'I' for Inactive)
REMARK    1  A    between atoms: C4_4  and  C12_12 
REMARK    2  A    between atoms: C11_11  and  C12_12 
ROOT
HETATM    1  C1  UNL     1     -31.782  18.545  -0.572  1.00 20.00     0.012 C 
HETATM    2  C2  UNL     1     -32.573  17.959  -1.260  1.00 20.00    -0.117 C 
HETATM    3  C11 UNL     1     -33.545  17.242  -2.100  1.00 20.00     0.097 C 
ENDROOT
BRANCH   3   4
HETATM    4  C12 UNL     1     -32.879  16.541  -3.273  1.00 20.00     0.046 C 
BRANCH   4   5
HETATM    5  C4  UNL     1     -33.906  15.885  -4.152  1.00 20.00    -0.075 C 
HETATM    6  C3  UNL     1     -34.408  14.679  -3.851  1.00 20.00     0.053 C 
HETATM    7  C5  UNL     1     -35.379  14.018  -4.758  1.00 20.00     0.150 C 
HETATM    8  C7  UNL     1     -35.727  14.693  -6.068  1.00 20.00     0.092 C 
HETATM    9  O13 UNL     1     -35.835  12.916  -4.460  1.00 20.00    -0.293 OA
HETATM   10  C8  UNL     1     -35.669  16.227  -5.976  1.00 20.00    -0.037 C 
HETATM   11  C6  UNL     1     -34.312  16.661  -5.380  1.00 20.00     0.043 C 
HETATM   12  C9  UNL     1     -36.834  16.755  -5.111  1.00 20.00     0.015 C 
HETATM   13  C10 UNL     1     -35.816  16.825  -7.386  1.00 20.00     0.015 C 
ENDBRANCH   4   5
ENDBRANCH   3   4
TORSDOF 2
ENDMDL
MODEL 2
REMARK VINA RESULT:      -4.7      1.265      1.461
REMARK  2 active torsions:
REMARK  status: ('A' for Active; 'I' for Inactive)
REMARK    1  A    between atoms: C4_4  and  C12_12 
REMARK    2  A    between atoms: C11_11  and  C12_12 
ROOT
HETATM    1  C1  UNL     1     -31.266  18.534  -0.374  1.00 20.00     0.012 C 
HETATM    2  C2  UNL     1     -32.310  18.138  -0.816  1.00 20.00    -0.117 C 
HETATM    3  C11 UNL     1     -33.590  17.650  -1.354  1.00 20.00     0.097 C 
ENDROOT
BRANCH   3   4
HETATM    4  C12 UNL     1     -33.890  18.229  -2.728  1.00 20.00     0.046 C 
BRANCH   4   5
HETATM    5  C4  UNL     1     -33.945  17.141  -3.762  1.00 20.00    -0.075 C 
HETATM    6  C3  UNL     1     -33.553  15.891  -3.476  1.00 20.00     0.053 C 
HETATM    7  C5  UNL     1     -33.560  14.840  -4.522  1.00 20.00     0.150 C 
HETATM    8  C7  UNL     1     -33.936  15.224  -5.937  1.00 20.00     0.092 C 
HETATM    9  O13 UNL     1     -33.205  13.697  -4.238  1.00 20.00    -0.293 OA
HETATM   10  C8  UNL     1     -34.955  16.375  -5.986  1.00 20.00    -0.037 C 
HETATM   11  C6  UNL     1     -34.450  17.552  -5.122  1.00 20.00     0.043 C 
HETATM   12  C9  UNL     1     -36.333  15.889  -5.489  1.00 20.00     0.015 C 
HETATM   13  C10 UNL     1     -35.115  16.849  -7.442  1.00 20.00     0.015 C 
ENDBRANCH   4   5
ENDBRANCH   3   4
TORSDOF 2
ENDMDL
MODEL 3
REMARK VINA RESULT:      -4.6     11.253     12.887
REMARK  2 active torsions:
REMARK  status: ('A' for Active; 'I' for Inactive)
REMARK    1  A    between atoms: C4_4  and  C12_12 
REMARK    2  A    between atoms: C11_11  and  C12_12 
ROOT
HETATM    1  C1  UNL     1     -32.902   9.278  -0.180  1.00 20.00     0.012 C 
HETATM    2  C2  UNL     1     -32.537   8.698   0.805  1.00 20.00    -0.117 C 
HETATM    3  C11 UNL     1     -32.089   7.982   2.010  1.00 20.00     0.097 C 
ENDROOT
BRANCH   3   4
HETATM    4  C12 UNL     1     -32.462   8.722   3.285  1.00 20.00     0.046 C 
BRANCH   4   5
HETATM    5  C4  UNL     1     -33.098   7.787   4.274  1.00 20.00    -0.075 C 
HETATM    6  C3  UNL     1     -33.522   8.223   5.469  1.00 20.00     0.053 C 
HETATM    7  C5  UNL     1     -34.096   7.278   6.458  1.00 20.00     0.150 C 
HETATM    8  C7  UNL     1     -34.118   5.801   6.125  1.00 20.00     0.092 C 
HETATM    9  O13 UNL     1     -34.486   7.699   7.545  1.00 20.00    -0.293 OA
HETATM   10  C8  UNL     1     -34.271   5.538   4.618  1.00 20.00    -0.037 C 
HETATM   11  C6  UNL     1     -33.211   6.347   3.838  1.00 20.00     0.043 C 
HETATM   12  C9  UNL     1     -35.694   5.916   4.151  1.00 20.00     0.015 C 
HETATM   13  C10 UNL     1     -34.064   4.038   4.342  1.00 20.00     0.015 C 
ENDBRANCH   4   5
ENDBRANCH   3   4
TORSDOF 2
ENDMDL
MODEL 4
REMARK VINA RESULT:      -4.3     12.421     13.912
REMARK  2 active torsions:
REMARK  status: ('A' for Active; 'I' for Inactive)
REMARK    1  A    between atoms: C4_4  and  C12_12 
REMARK    2  A    between atoms: C11_11  and  C12_12 
ROOT
HETATM    1  C1  UNL     1     -38.952  11.698   3.611  1.00 20.00     0.012 C 
HETATM    2  C2  UNL     1     -39.318  11.812   4.749  1.00 20.00    -0.117 C 
HETATM    3  C11 UNL     1     -39.763  11.950   6.144  1.00 20.00     0.097 C 
ENDROOT
BRANCH   3   4
HETATM    4  C12 UNL     1     -41.194  12.456   6.239  1.00 20.00     0.046 C 
BRANCH   4   5
HETATM    5  C4  UNL     1     -41.229  13.840   6.823  1.00 20.00    -0.075 C 
HETATM    6  C3  UNL     1     -41.805  14.856   6.165  1.00 20.00     0.053 C 
HETATM    7  C5  UNL     1     -41.782  16.229   6.727  1.00 20.00     0.150 C 
HETATM    8  C7  UNL     1     -41.025  16.476   8.015  1.00 20.00     0.092 C 
HETATM    9  O13 UNL     1     -42.324  17.146   6.113  1.00 20.00    -0.293 OA
HETATM   10  C8  UNL     1     -41.033  15.253   8.948  1.00 20.00    -0.037 C 
HETATM   11  C6  UNL     1     -40.570  14.002   8.170  1.00 20.00     0.043 C 
HETATM   12  C9  UNL     1     -42.446  15.037   9.533  1.00 20.00     0.015 C 
HETATM   13  C10 UNL     1     -40.068  15.505  10.121  1.00 20.00     0.015 C 
ENDBRANCH   4   5
ENDBRANCH   3   4
TORSDOF 2
ENDMDL
MODEL 5
REMARK VINA RESULT:      -4.2     11.911     13.167
REMARK  2 active torsions:
REMARK  status: ('A' for Active; 'I' for Inactive)
REMARK    1  A    between atoms: C4_4  and  C12_12 
REMARK    2  A    between atoms: C11_11  and  C12_12 
ROOT
HETATM    1  C1  UNL     1     -38.916  11.762   3.697  1.00 20.00     0.012 C 
HETATM    2  C2  UNL     1     -39.270  11.935   4.832  1.00 20.00    -0.117 C 
HETATM    3  C11 UNL     1     -39.699  12.145   6.223  1.00 20.00     0.097 C 
ENDROOT
BRANCH   3   4
HETATM    4  C12 UNL     1     -41.203  12.342   6.333  1.00 20.00     0.046 C 
BRANCH   4   5
HETATM    5  C4  UNL     1     -41.557  13.797   6.217  1.00 20.00    -0.075 C 
HETATM    6  C3  UNL     1     -42.364  14.240   5.241  1.00 20.00     0.053 C 
HETATM    7  C5  UNL     1     -42.659  15.687   5.104  1.00 20.00     0.150 C 
HETATM    8  C7  UNL     1     -41.967  16.662   6.032  1.00 20.00     0.092 C 
HETATM    9  O13 UNL     1     -43.408  16.072   4.209  1.00 20.00    -0.293 OA
HETATM   10  C8  UNL     1     -41.676  16.056   7.415  1.00 20.00    -0.037 C 
HETATM   11  C6  UNL     1     -40.940  14.708   7.248  1.00 20.00     0.043 C 
HETATM   12  C9  UNL     1     -42.991  15.861   8.201  1.00 20.00     0.015 C 
HETATM   13  C10 UNL     1     -40.784  17.023   8.215  1.00 20.00     0.015 C 
ENDBRANCH   4   5
ENDBRANCH   3   4
TORSDOF 2
ENDMDL
MODEL 6
REMARK VINA RESULT:      -4.2     12.458     13.847
REMARK  2 active torsions:
REMARK  status: ('A' for Active; 'I' for Inactive)
REMARK    1  A    between atoms: C4_4  and  C12_12 
REMARK    2  A    between atoms: C11_11  and  C12_12 
ROOT
HETATM    1  C1  UNL     1     -38.943  11.697   4.083  1.00 20.00     0.012 C 
HETATM    2  C2  UNL     1     -39.681  12.015   4.975  1.00 20.00    -0.117 C 
HETATM    3  C11 UNL     1     -40.584  12.400   6.071  1.00 20.00     0.097 C 
ENDROOT
BRANCH   3   4
HETATM    4  C12 UNL     1     -41.378  13.654   5.741  1.00 20.00     0.046 C 
BRANCH   4   5
HETATM    5  C4  UNL     1     -41.308  14.639   6.874  1.00 20.00    -0.075 C 
HETATM    6  C3  UNL     1     -40.437  14.478   7.881  1.00 20.00     0.053 C 
HETATM    7  C5  UNL     1     -40.419  15.426   9.021  1.00 20.00     0.150 C 
HETATM    8  C7  UNL     1     -41.455  16.529   9.068  1.00 20.00     0.092 C 
HETATM    9  O13 UNL     1     -39.607  15.267   9.931  1.00 20.00    -0.293 OA
HETATM   10  C8  UNL     1     -41.873  17.006   7.668  1.00 20.00    -0.037 C 
HETATM   11  C6  UNL     1     -42.279  15.791   6.804  1.00 20.00     0.043 C 
HETATM   12  C9  UNL     1     -40.718  17.784   7.001  1.00 20.00     0.015 C 
HETATM   13  C10 UNL     1     -43.075  17.959   7.795  1.00 20.00     0.015 C 
ENDBRANCH   4   5
ENDBRANCH   3   4
TORSDOF 2
ENDMDL
MODEL 7
REMARK VINA RESULT:      -4.1     12.742     13.932
REMARK  2 active torsions:
REMARK  status: ('A' for Active; 'I' for Inactive)
REMARK    1  A    between atoms: C4_4  and  C12_12 
REMARK    2  A    between atoms: C11_11  and  C12_12 
ROOT
HETATM    1  C1  UNL     1     -38.927  11.561   3.896  1.00 20.00     0.012 C 
HETATM    2  C2  UNL     1     -39.334  11.897   4.975  1.00 20.00    -0.117 C 
HETATM    3  C11 UNL     1     -39.829  12.309   6.298  1.00 20.00     0.097 C 
ENDROOT
BRANCH   3   4
HETATM    4  C12 UNL     1     -41.348  12.292   6.370  1.00 20.00     0.046 C 
BRANCH   4   5
HETATM    5  C4  UNL     1     -41.862  13.550   7.009  1.00 20.00    -0.075 C 
HETATM    6  C3  UNL     1     -42.389  13.538   8.242  1.00 20.00     0.053 C 
HETATM    7  C5  UNL     1     -42.945  14.777   8.838  1.00 20.00     0.150 C 
HETATM    8  C7  UNL     1     -42.983  16.035   7.998  1.00 20.00     0.092 C 
HETATM    9  O13 UNL     1     -43.416  14.747   9.974  1.00 20.00    -0.293 OA
HETATM   10  C8  UNL     1     -41.820  16.110   6.994  1.00 20.00    -0.037 C 
HETATM   11  C6  UNL     1     -41.757  14.802   6.174  1.00 20.00     0.043 C 
HETATM   12  C9  UNL     1     -40.488  16.350   7.736  1.00 20.00     0.015 C 
HETATM   13  C10 UNL     1     -42.051  17.294   6.038  1.00 20.00     0.015 C 
ENDBRANCH   4   5
ENDBRANCH   3   4
TORSDOF 2
ENDMDL
MODEL 8
REMARK VINA RESULT:      -4.0      2.224      3.040
REMARK  2 active torsions:
REMARK  status: ('A' for Active; 'I' for Inactive)
REMARK    1  A    between atoms: C4_4  and  C12_12 
REMARK    2  A    between atoms: C11_11  and  C12_12 
ROOT
HETATM    1  C1  UNL     1     -33.761  18.152   0.085  1.00 20.00     0.012 C 
HETATM    2  C2  UNL     1     -33.532  17.620  -0.967  1.00 20.00    -0.117 C 
HETATM    3  C11 UNL     1     -33.251  16.965  -2.254  1.00 20.00     0.097 C 
ENDROOT
BRANCH   3   4
HETATM    4  C12 UNL     1     -33.164  17.965  -3.397  1.00 20.00     0.046 C 
BRANCH   4   5
HETATM    5  C4  UNL     1     -34.078  17.567  -4.520  1.00 20.00    -0.075 C 
HETATM    6  C3  UNL     1     -34.392  18.429  -5.498  1.00 20.00     0.053 C 
HETATM    7  C5  UNL     1     -35.341  18.040  -6.570  1.00 20.00     0.150 C 
HETATM    8  C7  UNL     1     -36.011  16.685  -6.494  1.00 20.00     0.092 C 
HETATM    9  O13 UNL     1     -35.610  18.842  -7.463  1.00 20.00    -0.293 OA
HETATM   10  C8  UNL     1     -35.124  15.625  -5.820  1.00 20.00    -0.037 C 
HETATM   11  C6  UNL     1     -34.616  16.159  -4.462  1.00 20.00     0.043 C 
HETATM   12  C9  UNL     1     -33.937  15.260  -6.737  1.00 20.00     0.015 C 
HETATM   13  C10 UNL     1     -35.951  14.348  -5.584  1.00 20.00     0.015 C 
ENDBRANCH   4   5
ENDBRANCH   3   4
TORSDOF 2
ENDMDL
MODEL 9
REMARK VINA RESULT:      -3.8      1.960      3.087
REMARK  2 active torsions:
REMARK  status: ('A' for Active; 'I' for Inactive)
REMARK    1  A    between atoms: C4_4  and  C12_12 
REMARK    2  A    between atoms: C11_11  and  C12_12 
ROOT
HETATM    1  C1  UNL     1     -33.266  16.889  -3.136  1.00 20.00     0.012 C 
HETATM    2  C2  UNL     1     -33.520  15.851  -3.685  1.00 20.00    -0.117 C 
HETATM    3  C11 UNL     1     -33.830  14.578  -4.354  1.00 20.00     0.097 C 
ENDROOT
BRANCH   3   4
HETATM    4  C12 UNL     1     -33.974  14.744  -5.858  1.00 20.00     0.046 C 
BRANCH   4   5
HETATM    5  C4  UNL     1     -35.051  15.740  -6.182  1.00 20.00    -0.075 C 
HETATM    6  C3  UNL     1     -36.333  15.503  -5.868  1.00 20.00     0.053 C 
HETATM    7  C5  UNL     1     -37.394  16.469  -6.244  1.00 20.00     0.150 C 
HETATM    8  C7  UNL     1     -37.014  17.685  -7.061  1.00 20.00     0.092 C 
HETATM    9  O13 UNL     1     -38.562  16.238  -5.939  1.00 20.00    -0.293 OA
HETATM   10  C8  UNL     1     -35.587  18.174  -6.764  1.00 20.00    -0.037 C 
HETATM   11  C6  UNL     1     -34.596  16.995  -6.884  1.00 20.00     0.043 C 
HETATM   12  C9  UNL     1     -35.519  18.797  -5.352  1.00 20.00     0.015 C 
HETATM   13  C10 UNL     1     -35.201  19.263  -7.782  1.00 20.00     0.015 C 
ENDBRANCH   4   5
ENDBRANCH   3   4
TORSDOF 2
ENDMDL
