MODEL 1
REMARK VINA RESULT:      -4.6      0.000      0.000
REMARK  1 active torsions:
REMARK  status: ('A' for Active; 'I' for Inactive)
REMARK    1  A    between atoms: C4_4  and  C6_6 
ROOT
HETATM    1  C5  UNL     1     -31.619  18.774  -0.589  1.00 20.00     0.001 C 
HETATM    2  C6  UNL     1     -32.784  18.201  -0.932  1.00 20.00    -0.048 C 
HETATM    3  C7  UNL     1     -33.707  18.136   0.255  1.00 20.00     0.041 C 
HETATM    4  C8  UNL     1     -33.065  19.121   1.235  1.00 20.00     0.028 C 
HETATM    5  C9  UNL     1     -31.589  19.185   0.848  1.00 20.00     0.106 C 
HETATM    6 CL11 UNL     1     -30.613  18.029   1.781  1.00 20.00    -0.121 Cl
ENDROOT
BRANCH   2   7
HETATM    7  C4  UNL     1     -33.150  17.655  -2.250  1.00 20.00    -0.006 A 
HETATM    8  C1  UNL     1     -33.425  16.310  -2.598  1.00 20.00     0.038 A 
HETATM    9  C2  UNL     1     -33.714  16.315  -3.943  1.00 20.00     0.142 A 
HETATM   10  O10 UNL     1     -33.634  17.575  -4.443  1.00 20.00    -0.334 OA
HETATM   11  C3  UNL     1     -33.290  18.385  -3.408  1.00 20.00     0.153 A 
ENDBRANCH   2   7
TORSDOF 1
ENDMDL
MODEL 2
REMARK VINA RESULT:      -4.3      3.081      4.791
REMARK  1 active torsions:
REMARK  status: ('A' for Active; 'I' for Inactive)
REMARK    1  A    between atoms: C4_4  and  C6_6 
ROOT
HETATM    1  C5  UNL     1     -32.875  18.835  -2.843  1.00 20.00     0.001 C 
HETATM    2  C6  UNL     1     -32.838  18.023  -1.774  1.00 20.00    -0.048 C 
HETATM    3  C7  UNL     1     -33.471  16.698  -2.101  1.00 20.00     0.041 C 
HETATM    4  C8  UNL     1     -33.514  16.711  -3.630  1.00 20.00     0.028 C 
HETATM    5  C9  UNL     1     -33.512  18.186  -4.028  1.00 20.00     0.106 C 
HETATM    6 CL11 UNL     1     -35.162  18.813  -4.240  1.00 20.00    -0.121 Cl
ENDROOT
BRANCH   2   7
HETATM    7  C4  UNL     1     -32.310  18.341  -0.436  1.00 20.00    -0.006 A 
HETATM    8  C1  UNL     1     -30.959  18.491  -0.039  1.00 20.00     0.038 A 
HETATM    9  C2  UNL     1     -30.987  18.784   1.305  1.00 20.00     0.142 A 
HETATM   10  O10 UNL     1     -32.266  18.823   1.758  1.00 20.00    -0.334 OA
HETATM   11  C3  UNL     1     -33.066  18.552   0.693  1.00 20.00     0.153 A 
ENDBRANCH   2   7
TORSDOF 1
ENDMDL
MODEL 3
REMARK VINA RESULT:      -4.3      2.975      4.780
REMARK  1 active torsions:
REMARK  status: ('A' for Active; 'I' for Inactive)
REMARK    1  A    between atoms: C4_4  and  C6_6 
ROOT
HETATM    1  C5  UNL     1     -33.606  17.063  -1.610  1.00 20.00     0.001 C 
HETATM    2  C6  UNL     1     -32.845  18.130  -1.316  1.00 20.00    -0.048 C 
HETATM    3  C7  UNL     1     -32.550  18.922  -2.561  1.00 20.00     0.041 C 
HETATM    4  C8  UNL     1     -33.585  18.389  -3.554  1.00 20.00     0.028 C 
HETATM    5  C9  UNL     1     -33.941  16.987  -3.064  1.00 20.00     0.106 C 
HETATM    6 CL11 UNL     1     -32.940  15.743  -3.845  1.00 20.00    -0.121 Cl
ENDROOT
BRANCH   2   7
HETATM    7  C4  UNL     1     -32.309  18.501   0.004  1.00 20.00    -0.006 A 
HETATM    8  C1  UNL     1     -30.959  18.506   0.434  1.00 20.00     0.038 A 
HETATM    9  C2  UNL     1     -30.977  18.928   1.743  1.00 20.00     0.142 A 
HETATM   10  O10 UNL     1     -32.250  19.181   2.145  1.00 20.00    -0.334 OA
HETATM   11  C3  UNL     1     -33.054  18.919   1.082  1.00 20.00     0.153 A 
ENDBRANCH   2   7
TORSDOF 1
ENDMDL
MODEL 4
REMARK VINA RESULT:      -4.2      1.735      2.351
REMARK  1 active torsions:
REMARK  status: ('A' for Active; 'I' for Inactive)
REMARK    1  A    between atoms: C4_4  and  C6_6 
ROOT
HETATM    1  C5  UNL     1     -33.666  17.215  -1.008  1.00 20.00     0.001 C 
HETATM    2  C6  UNL     1     -33.330  17.517  -2.273  1.00 20.00    -0.048 C 
HETATM    3  C7  UNL     1     -32.574  18.817  -2.318  1.00 20.00     0.041 C 
HETATM    4  C8  UNL     1     -32.165  19.021  -0.858  1.00 20.00     0.028 C 
HETATM    5  C9  UNL     1     -33.183  18.238  -0.032  1.00 20.00     0.106 C 
HETATM    6 CL11 UNL     1     -34.542  19.263   0.481  1.00 20.00    -0.121 Cl
ENDROOT
BRANCH   2   7
HETATM    7  C4  UNL     1     -33.662  16.751  -3.486  1.00 20.00    -0.006 A 
HETATM    8  C1  UNL     1     -33.305  15.419  -3.809  1.00 20.00     0.038 A 
HETATM    9  C2  UNL     1     -33.853  15.166  -5.045  1.00 20.00     0.142 A 
HETATM   10  O10 UNL     1     -34.522  16.256  -5.503  1.00 20.00    -0.334 OA
HETATM   11  C3  UNL     1     -34.402  17.216  -4.549  1.00 20.00     0.153 A 
ENDBRANCH   2   7
TORSDOF 1
ENDMDL
MODEL 5
REMARK VINA RESULT:      -4.2      3.227      4.590
REMARK  1 active torsions:
REMARK  status: ('A' for Active; 'I' for Inactive)
REMARK    1  A    between atoms: C4_4  and  C6_6 
ROOT
HETATM    1  C5  UNL     1     -34.747  17.738  -3.953  1.00 20.00     0.001 C 
HETATM    2  C6  UNL     1     -34.423  16.525  -4.429  1.00 20.00    -0.048 C 
HETATM    3  C7  UNL     1     -33.366  15.889  -3.569  1.00 20.00     0.041 C 
HETATM    4  C8  UNL     1     -33.415  16.734  -2.294  1.00 20.00     0.028 C 
HETATM    5  C9  UNL     1     -33.982  18.087  -2.718  1.00 20.00     0.106 C 
HETATM    6 CL11 UNL     1     -32.694  19.244  -3.119  1.00 20.00    -0.121 Cl
ENDROOT
BRANCH   2   7
HETATM    7  C4  UNL     1     -34.958  15.875  -5.638  1.00 20.00    -0.006 A 
HETATM    8  C1  UNL     1     -34.910  16.336  -6.976  1.00 20.00     0.038 A 
HETATM    9  C2  UNL     1     -35.543  15.377  -7.733  1.00 20.00     0.142 A 
HETATM   10  O10 UNL     1     -35.977  14.358  -6.946  1.00 20.00    -0.334 OA
HETATM   11  C3  UNL     1     -35.617  14.669  -5.673  1.00 20.00     0.153 A 
ENDBRANCH   2   7
TORSDOF 1
ENDMDL
MODEL 6
REMARK VINA RESULT:      -4.1      3.354      5.361
REMARK  1 active torsions:
REMARK  status: ('A' for Active; 'I' for Inactive)
REMARK    1  A    between atoms: C4_4  and  C6_6 
ROOT
HETATM    1  C5  UNL     1     -34.421  17.209  -4.814  1.00 20.00     0.001 C 
HETATM    2  C6  UNL     1     -33.789  16.780  -3.709  1.00 20.00    -0.048 C 
HETATM    3  C7  UNL     1     -33.566  15.293  -3.777  1.00 20.00     0.041 C 
HETATM    4  C8  UNL     1     -33.794  14.985  -5.259  1.00 20.00     0.028 C 
HETATM    5  C9  UNL     1     -34.699  16.101  -5.777  1.00 20.00     0.106 C 
HETATM    6 CL11 UNL     1     -36.416  15.649  -5.691  1.00 20.00    -0.121 Cl
ENDROOT
BRANCH   2   7
HETATM    7  C4  UNL     1     -33.387  17.589  -2.546  1.00 20.00    -0.006 A 
HETATM    8  C1  UNL     1     -33.619  17.329  -1.174  1.00 20.00     0.038 A 
HETATM    9  C2  UNL     1     -33.051  18.377  -0.486  1.00 20.00     0.142 A 
HETATM   10  O10 UNL     1     -32.487  19.263  -1.347  1.00 20.00    -0.334 OA
HETATM   11  C3  UNL     1     -32.696  18.777  -2.599  1.00 20.00     0.153 A 
ENDBRANCH   2   7
TORSDOF 1
ENDMDL
MODEL 7
REMARK VINA RESULT:      -4.1      2.540      3.835
REMARK  1 active torsions:
REMARK  status: ('A' for Active; 'I' for Inactive)
REMARK    1  A    between atoms: C4_4  and  C6_6 
ROOT
HETATM    1  C5  UNL     1     -33.398  16.411  -2.857  1.00 20.00     0.001 C 
HETATM    2  C6  UNL     1     -33.966  16.944  -3.951  1.00 20.00    -0.048 C 
HETATM    3  C7  UNL     1     -33.886  18.446  -3.904  1.00 20.00     0.041 C 
HETATM    4  C8  UNL     1     -32.830  18.694  -2.825  1.00 20.00     0.028 C 
HETATM    5  C9  UNL     1     -32.850  17.452  -1.936  1.00 20.00     0.106 C 
HETATM    6 CL11 UNL     1     -33.938  17.654  -0.546  1.00 20.00    -0.121 Cl
ENDROOT
BRANCH   2   7
HETATM    7  C4  UNL     1     -34.627  16.220  -5.050  1.00 20.00    -0.006 A 
HETATM    8  C1  UNL     1     -35.851  16.526  -5.692  1.00 20.00     0.038 A 
HETATM    9  C2  UNL     1     -36.034  15.554  -6.649  1.00 20.00     0.142 A 
HETATM   10  O10 UNL     1     -35.002  14.671  -6.635  1.00 20.00    -0.334 OA
HETATM   11  C3  UNL     1     -34.150  15.083  -5.660  1.00 20.00     0.153 A 
ENDBRANCH   2   7
TORSDOF 1
ENDMDL
MODEL 8
REMARK VINA RESULT:      -4.1      3.410      5.446
REMARK  1 active torsions:
REMARK  status: ('A' for Active; 'I' for Inactive)
REMARK    1  A    between atoms: C4_4  and  C6_6 
ROOT
HETATM    1  C5  UNL     1     -33.686  15.533  -4.483  1.00 20.00     0.001 C 
HETATM    2  C6  UNL     1     -34.038  16.756  -4.054  1.00 20.00    -0.048 C 
HETATM    3  C7  UNL     1     -35.242  17.250  -4.811  1.00 20.00     0.041 C 
HETATM    4  C8  UNL     1     -35.783  15.972  -5.456  1.00 20.00     0.028 C 
HETATM    5  C9  UNL     1     -34.589  15.026  -5.560  1.00 20.00     0.106 C 
HETATM    6 CL11 UNL     1     -33.777  15.163  -7.135  1.00 20.00    -0.121 Cl
ENDROOT
BRANCH   2   7
HETATM    7  C4  UNL     1     -33.360  17.566  -3.028  1.00 20.00    -0.006 A 
HETATM    8  C1  UNL     1     -33.187  17.276  -1.653  1.00 20.00     0.038 A 
HETATM    9  C2  UNL     1     -32.492  18.338  -1.123  1.00 20.00     0.142 A 
HETATM   10  O10 UNL     1     -32.228  19.262  -2.083  1.00 20.00    -0.334 OA
HETATM   11  C3  UNL     1     -32.759  18.785  -3.239  1.00 20.00     0.153 A 
ENDBRANCH   2   7
TORSDOF 1
ENDMDL
MODEL 9
REMARK VINA RESULT:      -3.9     12.000     12.887
REMARK  1 active torsions:
REMARK  status: ('A' for Active; 'I' for Inactive)
REMARK    1  A    between atoms: C4_4  and  C6_6 
ROOT
HETATM    1  C5  UNL     1     -32.854   8.443   3.933  1.00 20.00     0.001 C 
HETATM    2  C6  UNL     1     -33.194   7.146   3.865  1.00 20.00    -0.048 C 
HETATM    3  C7  UNL     1     -32.759   6.558   2.550  1.00 20.00     0.041 C 
HETATM    4  C8  UNL     1     -31.757   7.593   2.032  1.00 20.00     0.028 C 
HETATM    5  C9  UNL     1     -32.141   8.909   2.705  1.00 20.00     0.106 C 
HETATM    6 CL11 UNL     1     -33.248   9.866   1.697  1.00 20.00    -0.121 Cl
ENDROOT
BRANCH   2   7
HETATM    7  C4  UNL     1     -33.927   6.367   4.878  1.00 20.00    -0.006 A 
HETATM    8  C1  UNL     1     -34.122   6.670   6.247  1.00 20.00     0.038 A 
HETATM    9  C2  UNL     1     -34.869   5.637   6.764  1.00 20.00     0.142 A 
HETATM   10  O10 UNL     1     -35.144   4.719   5.802  1.00 20.00    -0.334 OA
HETATM   11  C3  UNL     1     -34.568   5.170   4.657  1.00 20.00     0.153 A 
ENDBRANCH   2   7
TORSDOF 1
ENDMDL
