MODEL 1
REMARK VINA RESULT:      -5.1      0.000      0.000
REMARK  1 active torsions:
REMARK  status: ('A' for Active; 'I' for Inactive)
REMARK    1  A    between atoms: C4_4  and  C8_8 
ROOT
HETATM    1  C1  UNL     1     -34.743   5.096   6.471  1.00 20.00     0.012 C 
HETATM    2  C2  UNL     1     -34.334   6.210   6.287  1.00 20.00    -0.113 C 
HETATM    3  C8  UNL     1     -33.837   7.572   6.069  1.00 20.00     0.126 C 
ENDROOT
BRANCH   3   4
HETATM    4  C4  UNL     1     -33.187   7.673   4.738  1.00 20.00    -0.071 C 
HETATM    5  C3  UNL     1     -32.435   8.683   4.282  1.00 20.00    -0.003 C 
HETATM    6  C7  UNL     1     -31.980   8.447   2.879  1.00 20.00     0.105 C 
HETATM    7  C6  UNL     1     -32.272   6.957   2.682  1.00 20.00     0.028 C 
HETATM    8 CL9  UNL     1     -32.930   9.456   1.765  1.00 20.00    -0.121 Cl
HETATM    9  C5  UNL     1     -33.353   6.602   3.705  1.00 20.00     0.036 C 
ENDBRANCH   3   4
TORSDOF 1
ENDMDL
MODEL 2
REMARK VINA RESULT:      -4.9      2.037      4.076
REMARK  1 active torsions:
REMARK  status: ('A' for Active; 'I' for Inactive)
REMARK    1  A    between atoms: C4_4  and  C8_8 
ROOT
HETATM    1  C1  UNL     1     -32.635   9.212   2.107  1.00 20.00     0.012 C 
HETATM    2  C2  UNL     1     -32.526   8.905   3.262  1.00 20.00    -0.113 C 
HETATM    3  C8  UNL     1     -32.388   8.535   4.675  1.00 20.00     0.126 C 
ENDROOT
BRANCH   3   4
HETATM    4  C4  UNL     1     -33.289   7.399   4.997  1.00 20.00    -0.071 C 
HETATM    5  C3  UNL     1     -33.638   6.391   4.186  1.00 20.00    -0.003 C 
HETATM    6  C7  UNL     1     -34.592   5.452   4.848  1.00 20.00     0.105 C 
HETATM    7  C6  UNL     1     -34.482   5.851   6.322  1.00 20.00     0.028 C 
HETATM    8 CL9  UNL     1     -36.231   5.721   4.216  1.00 20.00    -0.121 Cl
HETATM    9  C5  UNL     1     -33.961   7.290   6.330  1.00 20.00     0.036 C 
ENDBRANCH   3   4
TORSDOF 1
ENDMDL
MODEL 3
REMARK VINA RESULT:      -4.8      2.469      4.201
REMARK  1 active torsions:
REMARK  status: ('A' for Active; 'I' for Inactive)
REMARK    1  A    between atoms: C4_4  and  C8_8 
ROOT
HETATM    1  C1  UNL     1     -32.895   9.512   1.412  1.00 20.00     0.012 C 
HETATM    2  C2  UNL     1     -32.622   9.075   2.496  1.00 20.00    -0.113 C 
HETATM    3  C8  UNL     1     -32.283   8.547   3.822  1.00 20.00     0.126 C 
ENDROOT
BRANCH   3   4
HETATM    4  C4  UNL     1     -33.152   7.388   4.148  1.00 20.00    -0.071 C 
HETATM    5  C3  UNL     1     -34.153   7.354   5.038  1.00 20.00    -0.003 C 
HETATM    6  C7  UNL     1     -34.778   6.001   5.120  1.00 20.00     0.105 C 
HETATM    7  C6  UNL     1     -34.235   5.308   3.867  1.00 20.00     0.028 C 
HETATM    8 CL9  UNL     1     -34.243   5.184   6.605  1.00 20.00    -0.121 Cl
HETATM    9  C5  UNL     1     -32.952   6.055   3.497  1.00 20.00     0.036 C 
ENDBRANCH   3   4
TORSDOF 1
ENDMDL
MODEL 4
REMARK VINA RESULT:      -4.4      2.124      4.385
REMARK  1 active torsions:
REMARK  status: ('A' for Active; 'I' for Inactive)
REMARK    1  A    between atoms: C4_4  and  C8_8 
ROOT
HETATM    1  C1  UNL     1     -32.872   9.495   0.767  1.00 20.00     0.012 C 
HETATM    2  C2  UNL     1     -32.408   8.585   1.397  1.00 20.00    -0.113 C 
HETATM    3  C8  UNL     1     -31.835   7.473   2.162  1.00 20.00     0.126 C 
ENDROOT
BRANCH   3   4
HETATM    4  C4  UNL     1     -32.706   7.145   3.319  1.00 20.00    -0.071 C 
HETATM    5  C3  UNL     1     -33.255   5.957   3.605  1.00 20.00    -0.003 C 
HETATM    6  C7  UNL     1     -34.103   6.018   4.833  1.00 20.00     0.105 C 
HETATM    7  C6  UNL     1     -33.685   7.352   5.458  1.00 20.00     0.028 C 
HETATM    8 CL9  UNL     1     -35.820   6.017   4.375  1.00 20.00    -0.121 Cl
HETATM    9  C5  UNL     1     -33.107   8.189   4.316  1.00 20.00     0.036 C 
ENDBRANCH   3   4
TORSDOF 1
ENDMDL
MODEL 5
REMARK VINA RESULT:      -4.1      2.586      4.029
REMARK  1 active torsions:
REMARK  status: ('A' for Active; 'I' for Inactive)
REMARK    1  A    between atoms: C4_4  and  C8_8 
ROOT
HETATM    1  C1  UNL     1     -31.976   9.520   5.076  1.00 20.00     0.012 C 
HETATM    2  C2  UNL     1     -32.200   8.703   4.226  1.00 20.00    -0.113 C 
HETATM    3  C8  UNL     1     -32.470   7.709   3.183  1.00 20.00     0.126 C 
ENDROOT
BRANCH   3   4
HETATM    4  C4  UNL     1     -33.279   6.593   3.736  1.00 20.00    -0.071 C 
HETATM    5  C3  UNL     1     -34.323   6.689   4.570  1.00 20.00    -0.003 C 
HETATM    6  C7  UNL     1     -34.863   5.347   4.940  1.00 20.00     0.105 C 
HETATM    7  C6  UNL     1     -34.210   4.429   3.903  1.00 20.00     0.028 C 
HETATM    8 CL9  UNL     1     -34.358   4.934   6.593  1.00 20.00    -0.121 Cl
HETATM    9  C5  UNL     1     -32.959   5.165   3.419  1.00 20.00     0.036 C 
ENDBRANCH   3   4
TORSDOF 1
ENDMDL
MODEL 6
REMARK VINA RESULT:      -4.1     15.551     16.504
REMARK  1 active torsions:
REMARK  status: ('A' for Active; 'I' for Inactive)
REMARK    1  A    between atoms: C4_4  and  C8_8 
ROOT
HETATM    1  C1  UNL     1     -21.293  17.769   7.124  1.00 20.00     0.012 C 
HETATM    2  C2  UNL     1     -21.384  18.434   8.119  1.00 20.00    -0.113 C 
HETATM    3  C8  UNL     1     -21.488  19.251   9.332  1.00 20.00     0.126 C 
ENDROOT
BRANCH   3   4
HETATM    4  C4  UNL     1     -22.680  18.846  10.121  1.00 20.00    -0.071 C 
HETATM    5  C3  UNL     1     -22.696  18.392  11.382  1.00 20.00    -0.003 C 
HETATM    6  C7  UNL     1     -24.079  18.049  11.829  1.00 20.00     0.105 C 
HETATM    7  C6  UNL     1     -24.949  18.716  10.760  1.00 20.00     0.028 C 
HETATM    8 CL9  UNL     1     -24.285  16.284  11.837  1.00 20.00    -0.121 Cl
HETATM    9  C5  UNL     1     -24.054  18.874   9.529  1.00 20.00     0.036 C 
ENDBRANCH   3   4
TORSDOF 1
ENDMDL
MODEL 7
REMARK VINA RESULT:      -4.0     11.736     12.102
REMARK  1 active torsions:
REMARK  status: ('A' for Active; 'I' for Inactive)
REMARK    1  A    between atoms: C4_4  and  C8_8 
ROOT
HETATM    1  C1  UNL     1     -28.657  18.747   3.573  1.00 20.00     0.012 C 
HETATM    2  C2  UNL     1     -29.849  18.822   3.458  1.00 20.00    -0.113 C 
HETATM    3  C8  UNL     1     -31.306  18.914   3.325  1.00 20.00     0.126 C 
ENDROOT
BRANCH   3   4
HETATM    4  C4  UNL     1     -31.693  18.885   1.891  1.00 20.00    -0.071 C 
HETATM    5  C3  UNL     1     -32.867  19.255   1.365  1.00 20.00    -0.003 C 
HETATM    6  C7  UNL     1     -32.901  19.052  -0.114  1.00 20.00     0.105 C 
HETATM    7  C6  UNL     1     -31.423  18.842  -0.454  1.00 20.00     0.028 C 
HETATM    8 CL9  UNL     1     -33.874  17.615  -0.498  1.00 20.00    -0.121 Cl
HETATM    9  C5  UNL     1     -30.757  18.373   0.841  1.00 20.00     0.036 C 
ENDBRANCH   3   4
TORSDOF 1
ENDMDL
MODEL 8
REMARK VINA RESULT:      -4.0      1.965      3.356
REMARK  1 active torsions:
REMARK  status: ('A' for Active; 'I' for Inactive)
REMARK    1  A    between atoms: C4_4  and  C8_8 
ROOT
HETATM    1  C1  UNL     1     -32.887   4.669   2.175  1.00 20.00     0.012 C 
HETATM    2  C2  UNL     1     -33.555   4.790   3.164  1.00 20.00    -0.113 C 
HETATM    3  C8  UNL     1     -34.374   4.930   4.372  1.00 20.00     0.126 C 
ENDROOT
BRANCH   3   4
HETATM    4  C4  UNL     1     -34.142   6.258   4.997  1.00 20.00    -0.071 C 
HETATM    5  C3  UNL     1     -34.110   7.446   4.379  1.00 20.00    -0.003 C 
HETATM    6  C7  UNL     1     -33.814   8.558   5.330  1.00 20.00     0.105 C 
HETATM    7  C6  UNL     1     -34.034   7.897   6.693  1.00 20.00     0.028 C 
HETATM    8 CL9  UNL     1     -32.131   9.090   5.122  1.00 20.00    -0.121 Cl
HETATM    9  C5  UNL     1     -33.867   6.393   6.462  1.00 20.00     0.036 C 
ENDBRANCH   3   4
TORSDOF 1
ENDMDL
MODEL 9
REMARK VINA RESULT:      -4.0     11.665     12.133
REMARK  1 active torsions:
REMARK  status: ('A' for Active; 'I' for Inactive)
REMARK    1  A    between atoms: C4_4  and  C8_8 
ROOT
HETATM    1  C1  UNL     1     -30.231  18.403   2.068  1.00 20.00     0.012 C 
HETATM    2  C2  UNL     1     -31.385  18.515   1.757  1.00 20.00    -0.113 C 
HETATM    3  C8  UNL     1     -32.796  18.655   1.385  1.00 20.00     0.126 C 
ENDROOT
BRANCH   3   4
HETATM    4  C4  UNL     1     -32.958  18.484  -0.081  1.00 20.00    -0.071 C 
HETATM    5  C3  UNL     1     -33.996  17.928  -0.719  1.00 20.00    -0.003 C 
HETATM    6  C7  UNL     1     -33.788  17.899  -2.198  1.00 20.00     0.105 C 
HETATM    7  C6  UNL     1     -32.614  18.864  -2.386  1.00 20.00     0.028 C 
HETATM    8 CL9  UNL     1     -33.371  16.250  -2.712  1.00 20.00    -0.121 Cl
HETATM    9  C5  UNL     1     -31.890  18.914  -1.039  1.00 20.00     0.036 C 
ENDBRANCH   3   4
TORSDOF 1
ENDMDL
