MODEL 1
REMARK VINA RESULT:      -5.8      0.000      0.000
REMARK  3 active torsions:
REMARK  status: ('A' for Active; 'I' for Inactive)
REMARK    1  A    between atoms: C4_4  and  C10_10 
REMARK    2  A    between atoms: C8_8  and  O11_11 
REMARK    3  A    between atoms: C9_9  and  C10_10 
ROOT
HETATM    1  C1  UNL     1     -32.696   9.435   0.285  1.00 20.00     0.012 C 
HETATM    2  C2  UNL     1     -32.407   8.641   1.138  1.00 20.00    -0.117 C 
HETATM    3  C9  UNL     1     -32.052   7.667   2.182  1.00 20.00     0.097 C 
ENDROOT
BRANCH   3   4
HETATM    4  C10 UNL     1     -32.374   8.181   3.578  1.00 20.00     0.046 C 
BRANCH   4   5
HETATM    5  C4  UNL     1     -33.226   7.196   4.323  1.00 20.00    -0.080 C 
HETATM    6  C3  UNL     1     -33.701   6.082   3.739  1.00 20.00     0.007 C 
HETATM    7  C8  UNL     1     -34.592   5.094   4.432  1.00 20.00     0.141 C 
HETATM    8  C7  UNL     1     -35.156   5.611   5.759  1.00 20.00     0.036 C 
HETATM    9  C6  UNL     1     -34.087   6.349   6.561  1.00 20.00     0.007 C 
HETATM   10  C5  UNL     1     -33.515   7.526   5.766  1.00 20.00     0.034 C 
BRANCH   7  11
HETATM   11  O11 UNL     1     -33.830   3.910   4.657  1.00 20.00    -0.392 OA
HETATM   12  H25 UNL     1     -34.258   3.204   4.148  1.00 20.00     0.210 HD
ENDBRANCH   7  11
ENDBRANCH   4   5
ENDBRANCH   3   4
TORSDOF 3
ENDMDL
MODEL 2
REMARK VINA RESULT:      -4.9      1.370      2.110
REMARK  3 active torsions:
REMARK  status: ('A' for Active; 'I' for Inactive)
REMARK    1  A    between atoms: C4_4  and  C10_10 
REMARK    2  A    between atoms: C8_8  and  O11_11 
REMARK    3  A    between atoms: C9_9  and  C10_10 
ROOT
HETATM    1  C1  UNL     1     -32.591   9.140   0.352  1.00 20.00     0.012 C 
HETATM    2  C2  UNL     1     -32.778   9.306   1.526  1.00 20.00    -0.117 C 
HETATM    3  C9  UNL     1     -33.009   9.510   2.965  1.00 20.00     0.097 C 
ENDROOT
BRANCH   3   4
HETATM    4  C10 UNL     1     -32.213   8.531   3.816  1.00 20.00     0.046 C 
BRANCH   4   5
HETATM    5  C4  UNL     1     -32.926   7.215   3.920  1.00 20.00    -0.080 C 
HETATM    6  C3  UNL     1     -33.902   7.004   4.820  1.00 20.00     0.007 C 
HETATM    7  C8  UNL     1     -34.610   5.693   4.989  1.00 20.00     0.141 C 
HETATM    8  C7  UNL     1     -33.924   4.534   4.259  1.00 20.00     0.036 C 
HETATM    9  C6  UNL     1     -33.454   4.960   2.870  1.00 20.00     0.007 C 
HETATM   10  C5  UNL     1     -32.486   6.144   2.954  1.00 20.00     0.034 C 
BRANCH   7  11
HETATM   11  O11 UNL     1     -35.940   5.854   4.501  1.00 20.00    -0.392 OA
HETATM   12  H25 UNL     1     -35.897   6.518   3.795  1.00 20.00     0.210 HD
ENDBRANCH   7  11
ENDBRANCH   4   5
ENDBRANCH   3   4
TORSDOF 3
ENDMDL
MODEL 3
REMARK VINA RESULT:      -4.7     11.586     12.726
REMARK  3 active torsions:
REMARK  status: ('A' for Active; 'I' for Inactive)
REMARK    1  A    between atoms: C4_4  and  C10_10 
REMARK    2  A    between atoms: C8_8  and  O11_11 
REMARK    3  A    between atoms: C9_9  and  C10_10 
ROOT
HETATM    1  C1  UNL     1     -31.404  18.756  -0.315  1.00 20.00     0.012 C 
HETATM    2  C2  UNL     1     -32.315  18.156  -0.815  1.00 20.00    -0.117 C 
HETATM    3  C9  UNL     1     -33.433  17.420  -1.427  1.00 20.00     0.097 C 
ENDROOT
BRANCH   3   4
HETATM    4  C10 UNL     1     -33.836  18.006  -2.772  1.00 20.00     0.046 C 
BRANCH   4   5
HETATM    5  C4  UNL     1     -33.976  16.924  -3.802  1.00 20.00    -0.080 C 
HETATM    6  C3  UNL     1     -33.494  15.685  -3.602  1.00 20.00     0.007 C 
HETATM    7  C8  UNL     1     -33.572  14.586  -4.621  1.00 20.00     0.141 C 
HETATM    8  C7  UNL     1     -33.977  15.078  -6.014  1.00 20.00     0.036 C 
HETATM    9  C6  UNL     1     -35.103  16.105  -5.930  1.00 20.00     0.007 C 
HETATM   10  C5  UNL     1     -34.693  17.306  -5.073  1.00 20.00     0.034 C 
BRANCH   7  11
HETATM   11  O11 UNL     1     -34.519  13.628  -4.151  1.00 20.00    -0.392 OA
HETATM   12  H25 UNL     1     -35.391  14.046  -4.218  1.00 20.00     0.210 HD
ENDBRANCH   7  11
ENDBRANCH   4   5
ENDBRANCH   3   4
TORSDOF 3
ENDMDL
MODEL 4
REMARK VINA RESULT:      -4.6     11.467     12.546
REMARK  3 active torsions:
REMARK  status: ('A' for Active; 'I' for Inactive)
REMARK    1  A    between atoms: C4_4  and  C10_10 
REMARK    2  A    between atoms: C8_8  and  O11_11 
REMARK    3  A    between atoms: C9_9  and  C10_10 
ROOT
HETATM    1  C1  UNL     1     -31.803  18.610  -0.753  1.00 20.00     0.012 C 
HETATM    2  C2  UNL     1     -32.577  17.876  -1.305  1.00 20.00    -0.117 C 
HETATM    3  C9  UNL     1     -33.527  16.977  -1.980  1.00 20.00     0.097 C 
ENDROOT
BRANCH   3   4
HETATM    4  C10 UNL     1     -32.950  16.392  -3.260  1.00 20.00     0.046 C 
BRANCH   4   5
HETATM    5  C4  UNL     1     -34.045  15.897  -4.159  1.00 20.00    -0.080 C 
HETATM    6  C3  UNL     1     -34.386  14.598  -4.214  1.00 20.00     0.007 C 
HETATM    7  C8  UNL     1     -35.442  14.052  -5.129  1.00 20.00     0.141 C 
HETATM    8  C7  UNL     1     -35.887  15.049  -6.205  1.00 20.00     0.036 C 
HETATM    9  C6  UNL     1     -36.049  16.451  -5.623  1.00 20.00     0.007 C 
HETATM   10  C5  UNL     1     -34.742  16.942  -4.994  1.00 20.00     0.034 C 
BRANCH   7  11
HETATM   11  O11 UNL     1     -36.558  13.677  -4.324  1.00 20.00    -0.392 OA
HETATM   12  H25 UNL     1     -36.644  12.714  -4.403  1.00 20.00     0.210 HD
ENDBRANCH   7  11
ENDBRANCH   4   5
ENDBRANCH   3   4
TORSDOF 3
ENDMDL
MODEL 5
REMARK VINA RESULT:      -4.5      1.253      1.955
REMARK  3 active torsions:
REMARK  status: ('A' for Active; 'I' for Inactive)
REMARK    1  A    between atoms: C4_4  and  C10_10 
REMARK    2  A    between atoms: C8_8  and  O11_11 
REMARK    3  A    between atoms: C9_9  and  C10_10 
ROOT
HETATM    1  C1  UNL     1     -32.857   9.504   0.318  1.00 20.00     0.012 C 
HETATM    2  C2  UNL     1     -32.536   8.717   1.166  1.00 20.00    -0.117 C 
HETATM    3  C9  UNL     1     -32.143   7.751   2.204  1.00 20.00     0.097 C 
ENDROOT
BRANCH   3   4
HETATM    4  C10 UNL     1     -32.472   8.250   3.603  1.00 20.00     0.046 C 
BRANCH   4   5
HETATM    5  C4  UNL     1     -33.170   7.184   4.397  1.00 20.00    -0.080 C 
HETATM    6  C3  UNL     1     -33.248   7.232   5.738  1.00 20.00     0.007 C 
HETATM    7  C8  UNL     1     -33.895   6.168   6.574  1.00 20.00     0.141 C 
HETATM    8  C7  UNL     1     -34.192   4.882   5.795  1.00 20.00     0.036 C 
HETATM    9  C6  UNL     1     -34.754   5.195   4.410  1.00 20.00     0.007 C 
HETATM   10  C5  UNL     1     -33.781   6.057   3.602  1.00 20.00     0.034 C 
BRANCH   7  11
HETATM   11  O11 UNL     1     -35.106   6.709   7.098  1.00 20.00    -0.392 OA
HETATM   12  H25 UNL     1     -35.029   7.673   7.035  1.00 20.00     0.210 HD
ENDBRANCH   7  11
ENDBRANCH   4   5
ENDBRANCH   3   4
TORSDOF 3
ENDMDL
MODEL 6
REMARK VINA RESULT:      -4.4     12.054     13.139
REMARK  3 active torsions:
REMARK  status: ('A' for Active; 'I' for Inactive)
REMARK    1  A    between atoms: C4_4  and  C10_10 
REMARK    2  A    between atoms: C8_8  and  O11_11 
REMARK    3  A    between atoms: C9_9  and  C10_10 
ROOT
HETATM    1  C1  UNL     1     -31.132  18.519  -0.167  1.00 20.00     0.012 C 
HETATM    2  C2  UNL     1     -32.114  18.186  -0.772  1.00 20.00    -0.117 C 
HETATM    3  C9  UNL     1     -33.318  17.776  -1.511  1.00 20.00     0.097 C 
ENDROOT
BRANCH   3   4
HETATM    4  C10 UNL     1     -33.290  18.250  -2.957  1.00 20.00     0.046 C 
BRANCH   4   5
HETATM    5  C4  UNL     1     -33.706  17.147  -3.886  1.00 20.00    -0.080 C 
HETATM    6  C3  UNL     1     -34.306  17.396  -5.063  1.00 20.00     0.007 C 
HETATM    7  C8  UNL     1     -34.778  16.325  -6.001  1.00 20.00     0.141 C 
HETATM    8  C7  UNL     1     -34.791  14.929  -5.370  1.00 20.00     0.036 C 
HETATM    9  C6  UNL     1     -33.538  14.692  -4.530  1.00 20.00     0.007 C 
HETATM   10  C5  UNL     1     -33.409  15.742  -3.423  1.00 20.00     0.034 C 
BRANCH   7  11
HETATM   11  O11 UNL     1     -33.917  16.336  -7.137  1.00 20.00    -0.392 OA
HETATM   12  H25 UNL     1     -34.323  15.753  -7.797  1.00 20.00     0.210 HD
ENDBRANCH   7  11
ENDBRANCH   4   5
ENDBRANCH   3   4
TORSDOF 3
ENDMDL
MODEL 7
REMARK VINA RESULT:      -4.1     10.580     11.332
REMARK  3 active torsions:
REMARK  status: ('A' for Active; 'I' for Inactive)
REMARK    1  A    between atoms: C4_4  and  C10_10 
REMARK    2  A    between atoms: C8_8  and  O11_11 
REMARK    3  A    between atoms: C9_9  and  C10_10 
ROOT
HETATM    1  C1  UNL     1     -38.949  11.705   3.693  1.00 20.00     0.012 C 
HETATM    2  C2  UNL     1     -39.325  11.816   4.828  1.00 20.00    -0.117 C 
HETATM    3  C9  UNL     1     -39.784  11.950   6.220  1.00 20.00     0.097 C 
ENDROOT
BRANCH   3   4
HETATM    4  C10 UNL     1     -41.190  12.524   6.305  1.00 20.00     0.046 C 
BRANCH   4   5
HETATM    5  C4  UNL     1     -41.157  13.938   6.808  1.00 20.00    -0.080 C 
HETATM    6  C3  UNL     1     -41.871  14.917   6.225  1.00 20.00     0.007 C 
HETATM    7  C8  UNL     1     -41.834  16.350   6.665  1.00 20.00     0.141 C 
HETATM    8  C7  UNL     1     -40.690  16.657   7.638  1.00 20.00     0.036 C 
HETATM    9  C6  UNL     1     -40.538  15.548   8.676  1.00 20.00     0.007 C 
HETATM   10  C5  UNL     1     -40.279  14.196   8.007  1.00 20.00     0.034 C 
BRANCH   7  11
HETATM   11  O11 UNL     1     -43.086  16.646   7.281  1.00 20.00    -0.392 OA
HETATM   12  H25 UNL     1     -42.963  17.470   7.776  1.00 20.00     0.210 HD
ENDBRANCH   7  11
ENDBRANCH   4   5
ENDBRANCH   3   4
TORSDOF 3
ENDMDL
MODEL 8
REMARK VINA RESULT:      -4.0     10.424     11.161
REMARK  3 active torsions:
REMARK  status: ('A' for Active; 'I' for Inactive)
REMARK    1  A    between atoms: C4_4  and  C10_10 
REMARK    2  A    between atoms: C8_8  and  O11_11 
REMARK    3  A    between atoms: C9_9  and  C10_10 
ROOT
HETATM    1  C1  UNL     1     -38.895  11.671   3.874  1.00 20.00     0.012 C 
HETATM    2  C2  UNL     1     -39.602  11.863   4.825  1.00 20.00    -0.117 C 
HETATM    3  C9  UNL     1     -40.469  12.097   5.991  1.00 20.00     0.097 C 
ENDROOT
BRANCH   3   4
HETATM    4  C10 UNL     1     -41.174  13.443   5.919  1.00 20.00     0.046 C 
BRANCH   4   5
HETATM    5  C4  UNL     1     -41.300  14.050   7.286  1.00 20.00    -0.080 C 
HETATM    6  C3  UNL     1     -42.219  13.624   8.171  1.00 20.00     0.007 C 
HETATM    7  C8  UNL     1     -42.411  14.230   9.529  1.00 20.00     0.141 C 
HETATM    8  C7  UNL     1     -41.679  15.564   9.707  1.00 20.00     0.036 C 
HETATM    9  C6  UNL     1     -40.279  15.509   9.101  1.00 20.00     0.007 C 
HETATM   10  C5  UNL     1     -40.336  15.163   7.610  1.00 20.00     0.034 C 
BRANCH   7  11
HETATM   11  O11 UNL     1     -41.944  13.288  10.492  1.00 20.00    -0.392 OA
HETATM   12  H25 UNL     1     -42.507  13.391  11.275  1.00 20.00     0.210 HD
ENDBRANCH   7  11
ENDBRANCH   4   5
ENDBRANCH   3   4
TORSDOF 3
ENDMDL
MODEL 9
REMARK VINA RESULT:      -3.9     12.531     13.714
REMARK  3 active torsions:
REMARK  status: ('A' for Active; 'I' for Inactive)
REMARK    1  A    between atoms: C4_4  and  C10_10 
REMARK    2  A    between atoms: C8_8  and  O11_11 
REMARK    3  A    between atoms: C9_9  and  C10_10 
ROOT
HETATM    1  C1  UNL     1     -23.167  -3.237   7.832  1.00 20.00     0.012 C 
HETATM    2  C2  UNL     1     -23.402  -3.237   9.009  1.00 20.00    -0.117 C 
HETATM    3  C9  UNL     1     -23.688  -3.236  10.453  1.00 20.00     0.097 C 
ENDROOT
BRANCH   3   4
HETATM    4  C10 UNL     1     -25.090  -3.743  10.759  1.00 20.00     0.046 C 
BRANCH   4   5
HETATM    5  C4  UNL     1     -26.072  -2.609  10.780  1.00 20.00    -0.080 C 
HETATM    6  C3  UNL     1     -27.244  -2.671  10.125  1.00 20.00     0.007 C 
HETATM    7  C8  UNL     1     -28.235  -1.545  10.082  1.00 20.00     0.141 C 
HETATM    8  C7  UNL     1     -27.667  -0.217  10.594  1.00 20.00     0.036 C 
HETATM    9  C6  UNL     1     -26.823  -0.427  11.849  1.00 20.00     0.007 C 
HETATM   10  C5  UNL     1     -25.669  -1.397  11.582  1.00 20.00     0.034 C 
BRANCH   7  11
HETATM   11  O11 UNL     1     -29.359  -1.929  10.871  1.00 20.00    -0.392 OA
HETATM   12  H25 UNL     1     -29.067  -2.670  11.425  1.00 20.00     0.210 HD
ENDBRANCH   7  11
ENDBRANCH   4   5
ENDBRANCH   3   4
TORSDOF 3
ENDMDL
