MODEL 1
REMARK VINA RESULT:      -3.6      0.000      0.000
REMARK  2 active torsions:
REMARK  status: ('A' for Active; 'I' for Inactive)
REMARK    1  A    between atoms: C3_3  and  C8_8 
REMARK    2  A    between atoms: C8_8  and  C9_9 
ROOT
HETATM    1  C1  UNL     1     -33.672  16.331  -3.713  1.00 20.00     0.044 A 
HETATM    2  C2  UNL     1     -34.021  17.269  -4.660  1.00 20.00     0.005 A 
HETATM    3  C3  UNL     1     -33.237  18.143  -2.558  1.00 20.00     0.081 A 
HETATM    4  C4  UNL     1     -33.736  14.863  -3.877  1.00 20.00     0.071 C 
HETATM    5  C5  UNL     1     -34.531  17.089  -6.035  1.00 20.00     0.058 C 
HETATM    6  N10 UNL     1     -33.222  16.830  -2.506  1.00 20.00    -0.249 NA
HETATM    7  S11 UNL     1     -33.781  18.845  -4.026  1.00 20.00    -0.077 SA
ENDROOT
BRANCH   3   8
HETATM    8  C8  UNL     1     -32.806  19.056  -1.416  1.00 20.00     0.059 C 
HETATM    9  C6  UNL     1     -31.507  18.507  -0.801  1.00 20.00     0.018 C 
BRANCH   8  10
HETATM   10  C9  UNL     1     -33.926  19.253  -0.361  1.00 20.00     0.088 C 
HETATM   11  C7  UNL     1     -33.940  18.162   0.708  1.00 20.00     0.027 C 
HETATM   12 CL12 UNL     1     -35.545  19.263  -1.147  1.00 20.00    -0.125 Cl
ENDBRANCH   8  10
ENDBRANCH   3   8
TORSDOF 2
ENDMDL
MODEL 2
REMARK VINA RESULT:      -3.6      2.109      4.658
REMARK  2 active torsions:
REMARK  status: ('A' for Active; 'I' for Inactive)
REMARK    1  A    between atoms: C3_3  and  C8_8 
REMARK    2  A    between atoms: C8_8  and  C9_9 
ROOT
HETATM    1  C1  UNL     1     -32.339  18.725  -0.292  1.00 20.00     0.044 A 
HETATM    2  C2  UNL     1     -33.679  18.859   0.005  1.00 20.00     0.005 A 
HETATM    3  C3  UNL     1     -33.160  18.343  -2.289  1.00 20.00     0.081 A 
HETATM    4  C4  UNL     1     -31.219  18.865   0.661  1.00 20.00     0.071 C 
HETATM    5  C5  UNL     1     -34.343  19.166   1.288  1.00 20.00     0.058 C 
HETATM    6  N10 UNL     1     -32.040  18.428  -1.608  1.00 20.00    -0.249 NA
HETATM    7  S11 UNL     1     -34.611  18.608  -1.413  1.00 20.00    -0.077 SA
ENDROOT
BRANCH   3   8
HETATM    8  C8  UNL     1     -33.241  18.027  -3.779  1.00 20.00     0.059 C 
HETATM    9  C6  UNL     1     -33.777  19.263  -4.522  1.00 20.00     0.018 C 
BRANCH   8  10
HETATM   10  C9  UNL     1     -34.073  16.751  -4.069  1.00 20.00     0.088 C 
HETATM   11  C7  UNL     1     -33.311  15.460  -3.771  1.00 20.00     0.027 C 
HETATM   12 CL12 UNL     1     -34.576  16.697  -5.796  1.00 20.00    -0.125 Cl
ENDBRANCH   8  10
ENDBRANCH   3   8
TORSDOF 2
ENDMDL
MODEL 3
REMARK VINA RESULT:      -3.6     12.154     13.860
REMARK  2 active torsions:
REMARK  status: ('A' for Active; 'I' for Inactive)
REMARK    1  A    between atoms: C3_3  and  C8_8 
REMARK    2  A    between atoms: C8_8  and  C9_9 
ROOT
HETATM    1  C1  UNL     1     -42.146  13.913   9.160  1.00 20.00     0.044 A 
HETATM    2  C2  UNL     1     -41.416  15.064   9.370  1.00 20.00     0.005 A 
HETATM    3  C3  UNL     1     -41.112  14.006   7.229  1.00 20.00     0.081 A 
HETATM    4  C4  UNL     1     -43.082  13.290  10.119  1.00 20.00     0.071 C 
HETATM    5  C5  UNL     1     -41.361  15.954  10.548  1.00 20.00     0.058 C 
HETATM    6  N10 UNL     1     -41.973  13.305   7.932  1.00 20.00    -0.249 NA
HETATM    7  S11 UNL     1     -40.470  15.407   7.982  1.00 20.00    -0.077 SA
ENDROOT
BRANCH   3   8
HETATM    8  C8  UNL     1     -40.664  13.653   5.815  1.00 20.00     0.059 C 
HETATM    9  C6  UNL     1     -41.844  13.860   4.851  1.00 20.00     0.018 C 
BRANCH   8  10
HETATM   10  C9  UNL     1     -40.064  12.225   5.723  1.00 20.00     0.088 C 
HETATM   11  C7  UNL     1     -38.920  11.992   6.710  1.00 20.00     0.027 C 
HETATM   12 CL12 UNL     1     -39.427  11.907   4.071  1.00 20.00    -0.125 Cl
ENDBRANCH   8  10
ENDBRANCH   3   8
TORSDOF 2
ENDMDL
MODEL 4
REMARK VINA RESULT:      -3.5     10.796     11.973
REMARK  2 active torsions:
REMARK  status: ('A' for Active; 'I' for Inactive)
REMARK    1  A    between atoms: C3_3  and  C8_8 
REMARK    2  A    between atoms: C8_8  and  C9_9 
ROOT
HETATM    1  C1  UNL     1     -42.477  15.580   2.959  1.00 20.00     0.044 A 
HETATM    2  C2  UNL     1     -42.879  16.485   3.918  1.00 20.00     0.005 A 
HETATM    3  C3  UNL     1     -42.071  14.372   4.744  1.00 20.00     0.081 A 
HETATM    4  C4  UNL     1     -42.499  15.794   1.497  1.00 20.00     0.071 C 
HETATM    5  C5  UNL     1     -43.417  17.853   3.770  1.00 20.00     0.058 C 
HETATM    6  N10 UNL     1     -42.013  14.367   3.431  1.00 20.00    -0.249 NA
HETATM    7  S11 UNL     1     -42.673  15.801   5.478  1.00 20.00    -0.077 SA
ENDROOT
BRANCH   3   8
HETATM    8  C8  UNL     1     -41.641  13.209   5.630  1.00 20.00     0.059 C 
HETATM    9  C6  UNL     1     -42.699  12.999   6.726  1.00 20.00     0.018 C 
BRANCH   8  10
HETATM   10  C9  UNL     1     -40.214  13.401   6.209  1.00 20.00     0.088 C 
HETATM   11  C7  UNL     1     -39.377  12.122   6.171  1.00 20.00     0.027 C 
HETATM   12 CL12 UNL     1     -40.290  13.949   7.921  1.00 20.00    -0.125 Cl
ENDBRANCH   8  10
ENDBRANCH   3   8
TORSDOF 2
ENDMDL
MODEL 5
REMARK VINA RESULT:      -3.5     12.858     15.104
REMARK  2 active torsions:
REMARK  status: ('A' for Active; 'I' for Inactive)
REMARK    1  A    between atoms: C3_3  and  C8_8 
REMARK    2  A    between atoms: C8_8  and  C9_9 
ROOT
HETATM    1  C1  UNL     1     -41.852  13.692  10.842  1.00 20.00     0.044 A 
HETATM    2  C2  UNL     1     -40.815  14.568  10.602  1.00 20.00     0.005 A 
HETATM    3  C3  UNL     1     -41.958  13.737   8.653  1.00 20.00     0.081 A 
HETATM    4  C4  UNL     1     -42.313  13.233  12.169  1.00 20.00     0.071 C 
HETATM    5  C5  UNL     1     -39.915  15.259  11.548  1.00 20.00     0.058 C 
HETATM    6  N10 UNL     1     -42.510  13.215   9.725  1.00 20.00    -0.249 NA
HETATM    7  S11 UNL     1     -40.644  14.810   8.913  1.00 20.00    -0.077 SA
ENDROOT
BRANCH   3   8
HETATM    8  C8  UNL     1     -42.410  13.452   7.225  1.00 20.00     0.059 C 
HETATM    9  C6  UNL     1     -43.095  12.075   7.184  1.00 20.00     0.018 C 
BRANCH   8  10
HETATM   10  C9  UNL     1     -41.251  13.570   6.202  1.00 20.00     0.088 C 
HETATM   11  C7  UNL     1     -41.722  13.991   4.810  1.00 20.00     0.027 C 
HETATM   12 CL12 UNL     1     -40.390  11.999   6.030  1.00 20.00    -0.125 Cl
ENDBRANCH   8  10
ENDBRANCH   3   8
TORSDOF 2
ENDMDL
MODEL 6
REMARK VINA RESULT:      -3.4     12.243     13.963
REMARK  2 active torsions:
REMARK  status: ('A' for Active; 'I' for Inactive)
REMARK    1  A    between atoms: C3_3  and  C8_8 
REMARK    2  A    between atoms: C8_8  and  C9_9 
ROOT
HETATM    1  C1  UNL     1     -41.010  14.584   9.437  1.00 20.00     0.044 A 
HETATM    2  C2  UNL     1     -42.252  13.985   9.438  1.00 20.00     0.005 A 
HETATM    3  C3  UNL     1     -41.052  13.908   7.351  1.00 20.00     0.081 A 
HETATM    4  C4  UNL     1     -40.367  15.253  10.587  1.00 20.00     0.071 C 
HETATM    5  C5  UNL     1     -43.241  13.847  10.526  1.00 20.00     0.058 C 
HETATM    6  N10 UNL     1     -40.320  14.540   8.241  1.00 20.00    -0.249 NA
HETATM    7  S11 UNL     1     -42.581  13.339   7.884  1.00 20.00    -0.077 SA
ENDROOT
BRANCH   3   8
HETATM    8  C8  UNL     1     -40.629  13.656   5.909  1.00 20.00     0.059 C 
HETATM    9  C6  UNL     1     -41.824  13.934   4.982  1.00 20.00     0.018 C 
BRANCH   8  10
HETATM   10  C9  UNL     1     -40.035  12.238   5.705  1.00 20.00     0.088 C 
HETATM   11  C7  UNL     1     -38.860  11.942   6.637  1.00 20.00     0.027 C 
HETATM   12 CL12 UNL     1     -39.452  12.028   4.016  1.00 20.00    -0.125 Cl
ENDBRANCH   8  10
ENDBRANCH   3   8
TORSDOF 2
ENDMDL
MODEL 7
REMARK VINA RESULT:      -3.3     12.356     13.738
REMARK  2 active torsions:
REMARK  status: ('A' for Active; 'I' for Inactive)
REMARK    1  A    between atoms: C3_3  and  C8_8 
REMARK    2  A    between atoms: C8_8  and  C9_9 
ROOT
HETATM    1  C1  UNL     1     -40.555  13.334   6.612  1.00 20.00     0.044 A 
HETATM    2  C2  UNL     1     -41.497  14.077   5.933  1.00 20.00     0.005 A 
HETATM    3  C3  UNL     1     -41.340  14.492   8.299  1.00 20.00     0.081 A 
HETATM    4  C4  UNL     1     -39.650  12.326   6.020  1.00 20.00     0.071 C 
HETATM    5  C5  UNL     1     -41.854  14.079   4.499  1.00 20.00     0.058 C 
HETATM    6  N10 UNL     1     -40.463  13.571   7.969  1.00 20.00    -0.249 NA
HETATM    7  S11 UNL     1     -42.309  15.117   7.028  1.00 20.00    -0.077 SA
ENDROOT
BRANCH   3   8
HETATM    8  C8  UNL     1     -41.540  15.026   9.714  1.00 20.00     0.059 C 
HETATM    9  C6  UNL     1     -41.074  16.490   9.765  1.00 20.00     0.018 C 
BRANCH   8  10
HETATM   10  C9  UNL     1     -40.845  14.142  10.783  1.00 20.00     0.088 C 
HETATM   11  C7  UNL     1     -41.834  13.359  11.646  1.00 20.00     0.027 C 
HETATM   12 CL12 UNL     1     -39.841  15.149  11.886  1.00 20.00    -0.125 Cl
ENDBRANCH   8  10
ENDBRANCH   3   8
TORSDOF 2
ENDMDL
MODEL 8
REMARK VINA RESULT:      -3.3     25.117     26.248
REMARK  2 active torsions:
REMARK  status: ('A' for Active; 'I' for Inactive)
REMARK    1  A    between atoms: C3_3  and  C8_8 
REMARK    2  A    between atoms: C8_8  and  C9_9 
ROOT
HETATM    1  C1  UNL     1     -26.775  -2.350  10.538  1.00 20.00     0.044 A 
HETATM    2  C2  UNL     1     -26.134  -1.442  11.353  1.00 20.00     0.005 A 
HETATM    3  C3  UNL     1     -24.801  -3.303  10.605  1.00 20.00     0.081 A 
HETATM    4  C4  UNL     1     -28.182  -2.277  10.093  1.00 20.00     0.071 C 
HETATM    5  C5  UNL     1     -26.640  -0.204  11.982  1.00 20.00     0.058 C 
HETATM    6  N10 UNL     1     -26.012  -3.418  10.108  1.00 20.00    -0.249 NA
HETATM    7  S11 UNL     1     -24.510  -1.935  11.599  1.00 20.00    -0.077 SA
ENDROOT
BRANCH   3   8
HETATM    8  C8  UNL     1     -23.668  -4.291  10.353  1.00 20.00     0.059 C 
HETATM    9  C6  UNL     1     -22.500  -3.963  11.298  1.00 20.00     0.018 C 
BRANCH   8  10
HETATM   10  C9  UNL     1     -23.236  -4.329   8.864  1.00 20.00     0.088 C 
HETATM   11  C7  UNL     1     -21.775  -4.737   8.675  1.00 20.00     0.027 C 
HETATM   12 CL12 UNL     1     -23.452  -2.716   8.097  1.00 20.00    -0.125 Cl
ENDBRANCH   8  10
ENDBRANCH   3   8
TORSDOF 2
ENDMDL
MODEL 9
REMARK VINA RESULT:      -3.3      2.265      4.853
REMARK  2 active torsions:
REMARK  status: ('A' for Active; 'I' for Inactive)
REMARK    1  A    between atoms: C3_3  and  C8_8 
REMARK    2  A    between atoms: C8_8  and  C9_9 
ROOT
HETATM    1  C1  UNL     1     -33.582  17.898  -2.364  1.00 20.00     0.044 A 
HETATM    2  C2  UNL     1     -34.832  18.474  -2.300  1.00 20.00     0.005 A 
HETATM    3  C3  UNL     1     -34.328  17.284  -4.332  1.00 20.00     0.081 A 
HETATM    4  C4  UNL     1     -32.547  17.946  -1.310  1.00 20.00     0.071 C 
HETATM    5  C5  UNL     1     -35.463  19.263  -1.222  1.00 20.00     0.058 C 
HETATM    6  N10 UNL     1     -33.291  17.214  -3.528  1.00 20.00    -0.249 NA
HETATM    7  S11 UNL     1     -35.687  18.157  -3.752  1.00 20.00    -0.077 SA
ENDROOT
BRANCH   3   8
HETATM    8  C8  UNL     1     -34.391  16.648  -5.716  1.00 20.00     0.059 C 
HETATM    9  C6  UNL     1     -35.378  17.444  -6.587  1.00 20.00     0.018 C 
BRANCH   8  10
HETATM   10  C9  UNL     1     -34.733  15.136  -5.658  1.00 20.00     0.088 C 
HETATM   11  C7  UNL     1     -36.237  14.863  -5.661  1.00 20.00     0.027 C 
HETATM   12 CL12 UNL     1     -34.049  14.386  -4.173  1.00 20.00    -0.125 Cl
ENDBRANCH   8  10
ENDBRANCH   3   8
TORSDOF 2
ENDMDL
