MODEL 1
REMARK VINA RESULT:      -3.3      0.000      0.000
REMARK  1 active torsions:
REMARK  status: ('A' for Active; 'I' for Inactive)
REMARK    1  A    between atoms: C2_2  and  C8_8 
ROOT
HETATM    1  C1  UNL     1     -34.348  15.803  -5.858  1.00 20.00     0.018 C 
HETATM    2  C2  UNL     1     -34.168  16.926  -4.832  1.00 20.00     0.034 C 
HETATM    3  C3  UNL     1     -34.494  14.536  -4.999  1.00 20.00     0.122 C 
HETATM    4  C4  UNL     1     -33.407  16.172  -3.738  1.00 20.00     0.123 C 
HETATM    5  C5  UNL     1     -35.402  16.021  -6.933  1.00 20.00     0.013 C 
HETATM    6  C6  UNL     1     -35.891  13.954  -4.852  1.00 20.00     0.040 C 
HETATM    7  C7  UNL     1     -33.411  16.789  -2.352  1.00 20.00     0.040 C 
HETATM    8  O9  UNL     1     -34.005  14.867  -3.685  1.00 20.00    -0.381 OA
ENDROOT
BRANCH   2   9
HETATM    9  C8  UNL     1     -35.472  17.568  -4.357  1.00 20.00     0.122 C 
HETATM   10 CL10 UNL     1     -35.572  19.240  -4.933  1.00 20.00    -0.130 Cl
ENDBRANCH   2   9
TORSDOF 1
ENDMDL
MODEL 2
REMARK VINA RESULT:      -3.3      3.355      5.189
REMARK  1 active torsions:
REMARK  status: ('A' for Active; 'I' for Inactive)
REMARK    1  A    between atoms: C2_2  and  C8_8 
ROOT
HETATM    1  C1  UNL     1     -32.546  18.833  -1.367  1.00 20.00     0.018 C 
HETATM    2  C2  UNL     1     -33.118  18.067  -2.563  1.00 20.00     0.034 C 
HETATM    3  C3  UNL     1     -33.790  19.262  -0.571  1.00 20.00     0.122 C 
HETATM    4  C4  UNL     1     -34.423  18.837  -2.777  1.00 20.00     0.123 C 
HETATM    5  C5  UNL     1     -31.439  18.148  -0.580  1.00 20.00     0.013 C 
HETATM    6  C6  UNL     1     -34.099  18.491   0.702  1.00 20.00     0.040 C 
HETATM    7  C7  UNL     1     -35.505  18.140  -3.581  1.00 20.00     0.040 C 
HETATM    8  O9  UNL     1     -34.916  19.131  -1.461  1.00 20.00    -0.381 OA
ENDROOT
BRANCH   2   9
HETATM    9  C8  UNL     1     -33.308  16.568  -2.324  1.00 20.00     0.122 C 
HETATM   10 CL10 UNL     1     -32.951  15.667  -3.807  1.00 20.00    -0.130 Cl
ENDBRANCH   2   9
TORSDOF 1
ENDMDL
MODEL 3
REMARK VINA RESULT:      -3.2     12.654     13.687
REMARK  1 active torsions:
REMARK  status: ('A' for Active; 'I' for Inactive)
REMARK    1  A    between atoms: C2_2  and  C8_8 
ROOT
HETATM    1  C1  UNL     1     -42.344  13.864   7.490  1.00 20.00     0.018 C 
HETATM    2  C2  UNL     1     -42.082  13.310   6.086  1.00 20.00     0.034 C 
HETATM    3  C3  UNL     1     -40.940  14.011   8.099  1.00 20.00     0.122 C 
HETATM    4  C4  UNL     1     -40.841  12.457   6.360  1.00 20.00     0.123 C 
HETATM    5  C5  UNL     1     -43.258  15.075   7.589  1.00 20.00     0.013 C 
HETATM    6  C6  UNL     1     -40.367  15.417   8.189  1.00 20.00     0.040 C 
HETATM    7  C7  UNL     1     -39.991  12.080   5.161  1.00 20.00     0.040 C 
HETATM    8  O9  UNL     1     -40.051  13.215   7.290  1.00 20.00    -0.381 OA
ENDROOT
BRANCH   2   9
HETATM    9  C8  UNL     1     -41.882  14.378   5.009  1.00 20.00     0.122 C 
HETATM   10 CL10 UNL     1     -43.311  14.466   3.967  1.00 20.00    -0.130 Cl
ENDBRANCH   2   9
TORSDOF 1
ENDMDL
MODEL 4
REMARK VINA RESULT:      -3.2      2.239      3.009
REMARK  1 active torsions:
REMARK  status: ('A' for Active; 'I' for Inactive)
REMARK    1  A    between atoms: C2_2  and  C8_8 
ROOT
HETATM    1  C1  UNL     1     -35.598  16.093  -5.632  1.00 20.00     0.018 C 
HETATM    2  C2  UNL     1     -34.869  16.926  -4.574  1.00 20.00     0.034 C 
HETATM    3  C3  UNL     1     -34.965  16.543  -6.960  1.00 20.00     0.122 C 
HETATM    4  C4  UNL     1     -34.624  18.213  -5.365  1.00 20.00     0.123 C 
HETATM    5  C5  UNL     1     -35.676  14.594  -5.390  1.00 20.00     0.013 C 
HETATM    6  C6  UNL     1     -33.972  15.594  -7.612  1.00 20.00     0.040 C 
HETATM    7  C7  UNL     1     -33.544  19.143  -4.843  1.00 20.00     0.040 C 
HETATM    8  O9  UNL     1     -34.290  17.789  -6.696  1.00 20.00    -0.381 OA
ENDROOT
BRANCH   2   9
HETATM    9  C8  UNL     1     -33.596  16.279  -4.024  1.00 20.00     0.122 C 
HETATM   10 CL10 UNL     1     -33.489  16.540  -2.275  1.00 20.00    -0.130 Cl
ENDBRANCH   2   9
TORSDOF 1
ENDMDL
MODEL 5
REMARK VINA RESULT:      -3.0      2.215      3.346
REMARK  1 active torsions:
REMARK  status: ('A' for Active; 'I' for Inactive)
REMARK    1  A    between atoms: C2_2  and  C8_8 
ROOT
HETATM    1  C1  UNL     1     -34.833  16.268  -7.333  1.00 20.00     0.018 C 
HETATM    2  C2  UNL     1     -34.529  15.541  -6.019  1.00 20.00     0.034 C 
HETATM    3  C3  UNL     1     -36.364  16.190  -7.454  1.00 20.00     0.122 C 
HETATM    4  C4  UNL     1     -35.640  14.488  -6.031  1.00 20.00     0.123 C 
HETATM    5  C5  UNL     1     -34.205  17.641  -7.517  1.00 20.00     0.013 C 
HETATM    6  C6  UNL     1     -37.149  17.456  -7.147  1.00 20.00     0.040 C 
HETATM    7  C7  UNL     1     -35.979  13.836  -4.702  1.00 20.00     0.040 C 
HETATM    8  O9  UNL     1     -36.800  15.159  -6.546  1.00 20.00    -0.381 OA
ENDROOT
BRANCH   2   9
HETATM    9  C8  UNL     1     -34.531  16.439  -4.781  1.00 20.00     0.122 C 
HETATM   10 CL10 UNL     1     -33.221  15.967  -3.686  1.00 20.00    -0.130 Cl
ENDBRANCH   2   9
TORSDOF 1
ENDMDL
MODEL 6
REMARK VINA RESULT:      -3.0     11.499     12.415
REMARK  1 active torsions:
REMARK  status: ('A' for Active; 'I' for Inactive)
REMARK    1  A    between atoms: C2_2  and  C8_8 
ROOT
HETATM    1  C1  UNL     1     -32.739   6.012   3.526  1.00 20.00     0.018 C 
HETATM    2  C2  UNL     1     -32.205   7.431   3.309  1.00 20.00     0.034 C 
HETATM    3  C3  UNL     1     -33.804   6.180   4.623  1.00 20.00     0.122 C 
HETATM    4  C4  UNL     1     -32.330   7.986   4.730  1.00 20.00     0.123 C 
HETATM    5  C5  UNL     1     -33.158   5.240   2.284  1.00 20.00     0.013 C 
HETATM    6  C6  UNL     1     -35.261   6.129   4.189  1.00 20.00     0.040 C 
HETATM    7  C7  UNL     1     -32.324   9.497   4.878  1.00 20.00     0.040 C 
HETATM    8  O9  UNL     1     -33.564   7.459   5.242  1.00 20.00    -0.381 OA
ENDROOT
BRANCH   2   9
HETATM    9  C8  UNL     1     -32.962   8.239   2.253  1.00 20.00     0.122 C 
HETATM   10 CL10 UNL     1     -31.997   8.360   0.773  1.00 20.00    -0.130 Cl
ENDBRANCH   2   9
TORSDOF 1
ENDMDL
MODEL 7
REMARK VINA RESULT:      -2.9     12.980     13.767
REMARK  1 active torsions:
REMARK  status: ('A' for Active; 'I' for Inactive)
REMARK    1  A    between atoms: C2_2  and  C8_8 
ROOT
HETATM    1  C1  UNL     1     -41.574  14.048   5.820  1.00 20.00     0.018 C 
HETATM    2  C2  UNL     1     -41.164  15.152   6.798  1.00 20.00     0.034 C 
HETATM    3  C3  UNL     1     -41.849  12.834   6.724  1.00 20.00     0.122 C 
HETATM    4  C4  UNL     1     -40.455  14.317   7.867  1.00 20.00     0.123 C 
HETATM    5  C5  UNL     1     -42.651  14.396   4.804  1.00 20.00     0.013 C 
HETATM    6  C6  UNL     1     -43.304  12.470   6.973  1.00 20.00     0.040 C 
HETATM    7  C7  UNL     1     -40.279  14.957   9.232  1.00 20.00     0.040 C 
HETATM    8  O9  UNL     1     -41.233  13.117   7.996  1.00 20.00    -0.381 OA
ENDROOT
BRANCH   2   9
HETATM    9  C8  UNL     1     -42.327  15.992   7.331  1.00 20.00     0.122 C 
HETATM   10 CL10 UNL     1     -42.250  17.630   6.663  1.00 20.00    -0.130 Cl
ENDBRANCH   2   9
TORSDOF 1
ENDMDL
MODEL 8
REMARK VINA RESULT:      -2.9     11.650     12.761
REMARK  1 active torsions:
REMARK  status: ('A' for Active; 'I' for Inactive)
REMARK    1  A    between atoms: C2_2  and  C8_8 
ROOT
HETATM    1  C1  UNL     1     -32.092   8.112   4.197  1.00 20.00     0.018 C 
HETATM    2  C2  UNL     1     -32.829   6.776   4.320  1.00 20.00     0.034 C 
HETATM    3  C3  UNL     1     -32.130   8.420   2.691  1.00 20.00     0.122 C 
HETATM    4  C4  UNL     1     -32.432   6.126   2.992  1.00 20.00     0.123 C 
HETATM    5  C5  UNL     1     -32.535   9.228   5.130  1.00 20.00     0.013 C 
HETATM    6  C6  UNL     1     -33.112   9.484   2.225  1.00 20.00     0.040 C 
HETATM    7  C7  UNL     1     -33.296   4.976   2.507  1.00 20.00     0.040 C 
HETATM    8  O9  UNL     1     -32.456   7.186   2.023  1.00 20.00    -0.381 OA
ENDROOT
BRANCH   2   9
HETATM    9  C8  UNL     1     -34.340   6.901   4.528  1.00 20.00     0.122 C 
HETATM   10 CL10 UNL     1     -34.869   5.807   5.817  1.00 20.00    -0.130 Cl
ENDBRANCH   2   9
TORSDOF 1
ENDMDL
MODEL 9
REMARK VINA RESULT:      -2.9     13.721     14.883
REMARK  1 active torsions:
REMARK  status: ('A' for Active; 'I' for Inactive)
REMARK    1  A    between atoms: C2_2  and  C8_8 
ROOT
HETATM    1  C1  UNL     1     -41.660  15.214   7.966  1.00 20.00     0.018 C 
HETATM    2  C2  UNL     1     -41.891  14.070   6.975  1.00 20.00     0.034 C 
HETATM    3  C3  UNL     1     -41.889  14.565   9.342  1.00 20.00     0.122 C 
HETATM    4  C4  UNL     1     -42.970  13.281   7.721  1.00 20.00     0.123 C 
HETATM    5  C5  UNL     1     -40.380  16.019   7.798  1.00 20.00     0.013 C 
HETATM    6  C6  UNL     1     -40.655  14.254  10.175  1.00 20.00     0.040 C 
HETATM    7  C7  UNL     1     -43.173  11.836   7.303  1.00 20.00     0.040 C 
HETATM    8  O9  UNL     1     -42.594  13.331   9.106  1.00 20.00    -0.381 OA
ENDROOT
BRANCH   2   9
HETATM    9  C8  UNL     1     -40.639  13.256   6.642  1.00 20.00     0.122 C 
HETATM   10 CL10 UNL     1     -40.584  12.909   4.906  1.00 20.00    -0.130 Cl
ENDBRANCH   2   9
TORSDOF 1
ENDMDL
