MODEL 1
REMARK VINA RESULT:      -4.9      0.000      0.000
REMARK  1 active torsions:
REMARK  status: ('A' for Active; 'I' for Inactive)
REMARK    1  A    between atoms: C2_2  and  C11_11 
ROOT
HETATM    1  C1  UNL     1     -33.341   7.284   5.139  1.00 20.00     0.053 C 
HETATM    2  C2  UNL     1     -32.944   6.933   3.905  1.00 20.00    -0.072 C 
HETATM    3  C3  UNL     1     -34.353   6.478   5.866  1.00 20.00     0.149 C 
HETATM    4  C4  UNL     1     -33.434   5.687   3.212  1.00 20.00     0.035 C 
HETATM    5  C5  UNL     1     -34.994   5.310   5.151  1.00 20.00     0.083 C 
HETATM    6  C6  UNL     1     -34.016   4.664   4.184  1.00 20.00     0.012 C 
HETATM    7  O12 UNL     1     -34.696   6.809   7.000  1.00 20.00    -0.293 OA
ENDROOT
BRANCH   2   8
HETATM    8  C11 UNL     1     -31.963   7.784   3.120  1.00 20.00     0.014 C 
HETATM    9  C9  UNL     1     -32.366   9.248   3.267  1.00 20.00     0.009 C 
HETATM   10  C7  UNL     1     -33.168   9.555   2.009  1.00 20.00     0.001 C 
HETATM   11  C8  UNL     1     -32.446   8.755   0.940  1.00 20.00     0.001 C 
HETATM   12  C10 UNL     1     -32.082   7.447   1.635  1.00 20.00     0.009 C 
ENDBRANCH   2   8
TORSDOF 1
ENDMDL
MODEL 2
REMARK VINA RESULT:      -4.8      1.157      1.884
REMARK  1 active torsions:
REMARK  status: ('A' for Active; 'I' for Inactive)
REMARK    1  A    between atoms: C2_2  and  C11_11 
ROOT
HETATM    1  C1  UNL     1     -33.490   6.103   3.882  1.00 20.00     0.053 C 
HETATM    2  C2  UNL     1     -32.877   7.245   4.232  1.00 20.00    -0.072 C 
HETATM    3  C3  UNL     1     -34.354   5.381   4.850  1.00 20.00     0.149 C 
HETATM    4  C4  UNL     1     -33.070   7.898   5.576  1.00 20.00     0.035 C 
HETATM    5  C5  UNL     1     -34.452   5.909   6.262  1.00 20.00     0.083 C 
HETATM    6  C6  UNL     1     -34.337   7.425   6.283  1.00 20.00     0.012 C 
HETATM    7  O12 UNL     1     -34.916   4.342   4.508  1.00 20.00    -0.293 OA
ENDROOT
BRANCH   2   8
HETATM    8  C11 UNL     1     -31.935   7.957   3.279  1.00 20.00     0.014 C 
HETATM    9  C9  UNL     1     -32.314   9.434   3.236  1.00 20.00     0.009 C 
HETATM   10  C7  UNL     1     -33.184   9.573   1.995  1.00 20.00     0.001 C 
HETATM   11  C8  UNL     1     -32.534   8.615   1.013  1.00 20.00     0.001 C 
HETATM   12  C10 UNL     1     -32.143   7.413   1.866  1.00 20.00     0.009 C 
ENDBRANCH   2   8
TORSDOF 1
ENDMDL
MODEL 3
REMARK VINA RESULT:      -4.4     11.460     12.768
REMARK  1 active torsions:
REMARK  status: ('A' for Active; 'I' for Inactive)
REMARK    1  A    between atoms: C2_2  and  C11_11 
ROOT
HETATM    1  C1  UNL     1     -34.980  17.233  -4.548  1.00 20.00     0.053 C 
HETATM    2  C2  UNL     1     -33.896  17.066  -3.774  1.00 20.00    -0.072 C 
HETATM    3  C3  UNL     1     -35.458  16.136  -5.426  1.00 20.00     0.149 C 
HETATM    4  C4  UNL     1     -33.142  15.764  -3.692  1.00 20.00     0.035 C 
HETATM    5  C5  UNL     1     -34.643  14.865  -5.501  1.00 20.00     0.083 C 
HETATM    6  C6  UNL     1     -33.970  14.574  -4.170  1.00 20.00     0.012 C 
HETATM    7  O12 UNL     1     -36.460  16.302  -6.120  1.00 20.00    -0.293 OA
ENDROOT
BRANCH   2   8
HETATM    8  C11 UNL     1     -33.353  18.200  -2.924  1.00 20.00     0.014 C 
HETATM    9  C9  UNL     1     -32.749  17.608  -1.655  1.00 20.00     0.009 C 
HETATM   10  C7  UNL     1     -33.841  17.751  -0.604  1.00 20.00     0.001 C 
HETATM   11  C8  UNL     1     -34.480  19.082  -0.954  1.00 20.00     0.001 C 
HETATM   12  C10 UNL     1     -34.511  19.092  -2.479  1.00 20.00     0.009 C 
ENDBRANCH   2   8
TORSDOF 1
ENDMDL
MODEL 4
REMARK VINA RESULT:      -4.4     11.419     12.670
REMARK  1 active torsions:
REMARK  status: ('A' for Active; 'I' for Inactive)
REMARK    1  A    between atoms: C2_2  and  C11_11 
ROOT
HETATM    1  C1  UNL     1     -33.267  16.050  -3.488  1.00 20.00     0.053 C 
HETATM    2  C2  UNL     1     -33.725  17.307  -3.599  1.00 20.00    -0.072 C 
HETATM    3  C3  UNL     1     -33.804  14.971  -4.354  1.00 20.00     0.149 C 
HETATM    4  C4  UNL     1     -34.742  17.719  -4.632  1.00 20.00     0.035 C 
HETATM    5  C5  UNL     1     -34.939  15.299  -5.296  1.00 20.00     0.083 C 
HETATM    6  C6  UNL     1     -34.834  16.732  -5.792  1.00 20.00     0.012 C 
HETATM    7  O12 UNL     1     -33.365  13.827  -4.246  1.00 20.00    -0.293 OA
ENDROOT
BRANCH   2   8
HETATM    8  C11 UNL     1     -33.239  18.408  -2.674  1.00 20.00     0.014 C 
HETATM    9  C9  UNL     1     -32.681  17.767  -1.408  1.00 20.00     0.009 C 
HETATM   10  C7  UNL     1     -33.822  17.845  -0.402  1.00 20.00     0.001 C 
HETATM   11  C8  UNL     1     -34.466  19.183  -0.719  1.00 20.00     0.001 C 
HETATM   12  C10 UNL     1     -34.429  19.263  -2.242  1.00 20.00     0.009 C 
ENDBRANCH   2   8
TORSDOF 1
ENDMDL
MODEL 5
REMARK VINA RESULT:      -4.1     11.743     13.271
REMARK  1 active torsions:
REMARK  status: ('A' for Active; 'I' for Inactive)
REMARK    1  A    between atoms: C2_2  and  C11_11 
ROOT
HETATM    1  C1  UNL     1     -34.683  15.738  -5.364  1.00 20.00     0.053 C 
HETATM    2  C2  UNL     1     -34.603  16.868  -4.644  1.00 20.00    -0.072 C 
HETATM    3  C3  UNL     1     -35.961  15.336  -6.002  1.00 20.00     0.149 C 
HETATM    4  C4  UNL     1     -35.759  17.823  -4.491  1.00 20.00     0.035 C 
HETATM    5  C5  UNL     1     -37.191  16.176  -5.745  1.00 20.00     0.083 C 
HETATM    6  C6  UNL     1     -36.820  17.640  -5.572  1.00 20.00     0.012 C 
HETATM    7  O12 UNL     1     -36.013  14.303  -6.668  1.00 20.00    -0.293 OA
ENDROOT
BRANCH   2   8
HETATM    8  C11 UNL     1     -33.323  17.257  -3.928  1.00 20.00     0.014 C 
HETATM    9  C9  UNL     1     -33.196  16.409  -2.667  1.00 20.00     0.009 C 
HETATM   10  C7  UNL     1     -33.729  17.295  -1.550  1.00 20.00     0.001 C 
HETATM   11  C8  UNL     1     -33.249  18.678  -1.952  1.00 20.00     0.001 C 
HETATM   12  C10 UNL     1     -33.429  18.710  -3.466  1.00 20.00     0.009 C 
ENDBRANCH   2   8
TORSDOF 1
ENDMDL
MODEL 6
REMARK VINA RESULT:      -4.1      9.675     10.702
REMARK  1 active torsions:
REMARK  status: ('A' for Active; 'I' for Inactive)
REMARK    1  A    between atoms: C2_2  and  C11_11 
ROOT
HETATM    1  C1  UNL     1     -40.245  13.985   8.123  1.00 20.00     0.053 C 
HETATM    2  C2  UNL     1     -40.769  13.815   6.898  1.00 20.00    -0.072 C 
HETATM    3  C3  UNL     1     -40.292  15.311   8.788  1.00 20.00     0.149 C 
HETATM    4  C4  UNL     1     -41.486  14.914   6.156  1.00 20.00     0.035 C 
HETATM    5  C5  UNL     1     -40.856  16.484   8.020  1.00 20.00     0.083 C 
HETATM    6  C6  UNL     1     -41.961  16.033   7.078  1.00 20.00     0.012 C 
HETATM    7  O12 UNL     1     -39.817  15.445   9.915  1.00 20.00    -0.293 OA
ENDROOT
BRANCH   2   8
HETATM    8  C11 UNL     1     -40.667  12.485   6.175  1.00 20.00     0.014 C 
HETATM    9  C9  UNL     1     -39.363  11.809   6.584  1.00 20.00     0.009 C 
HETATM   10  C7  UNL     1     -38.387  12.145   5.464  1.00 20.00     0.001 C 
HETATM   11  C8  UNL     1     -39.261  12.102   4.224  1.00 20.00     0.001 C 
HETATM   12  C10 UNL     1     -40.574  12.737   4.671  1.00 20.00     0.009 C 
ENDBRANCH   2   8
TORSDOF 1
ENDMDL
MODEL 7
REMARK VINA RESULT:      -4.1     11.774     12.961
REMARK  1 active torsions:
REMARK  status: ('A' for Active; 'I' for Inactive)
REMARK    1  A    between atoms: C2_2  and  C11_11 
ROOT
HETATM    1  C1  UNL     1     -34.945  17.008  -5.199  1.00 20.00     0.053 C 
HETATM    2  C2  UNL     1     -34.104  16.322  -4.410  1.00 20.00    -0.072 C 
HETATM    3  C3  UNL     1     -35.863  16.298  -6.125  1.00 20.00     0.149 C 
HETATM    4  C4  UNL     1     -34.078  14.816  -4.356  1.00 20.00     0.035 C 
HETATM    5  C5  UNL     1     -35.763  14.793  -6.226  1.00 20.00     0.083 C 
HETATM    6  C6  UNL     1     -35.361  14.186  -4.892  1.00 20.00     0.012 C 
HETATM    7  O12 UNL     1     -36.635  16.943  -6.833  1.00 20.00    -0.293 OA
ENDROOT
BRANCH   2   8
HETATM    8  C11 UNL     1     -33.111  17.034  -3.510  1.00 20.00     0.014 C 
HETATM    9  C9  UNL     1     -33.504  16.782  -2.059  1.00 20.00     0.009 C 
HETATM   10  C7  UNL     1     -34.292  18.020  -1.653  1.00 20.00     0.001 C 
HETATM   11  C8  UNL     1     -33.568  19.140  -2.378  1.00 20.00     0.001 C 
HETATM   12  C10 UNL     1     -33.219  18.541  -3.736  1.00 20.00     0.009 C 
ENDBRANCH   2   8
TORSDOF 1
ENDMDL
MODEL 8
REMARK VINA RESULT:      -4.0     10.890     12.550
REMARK  1 active torsions:
REMARK  status: ('A' for Active; 'I' for Inactive)
REMARK    1  A    between atoms: C2_2  and  C11_11 
ROOT
HETATM    1  C1  UNL     1     -33.564  16.639  -2.363  1.00 20.00     0.053 C 
HETATM    2  C2  UNL     1     -33.619  16.802  -3.694  1.00 20.00    -0.072 C 
HETATM    3  C3  UNL     1     -33.522  17.814  -1.457  1.00 20.00     0.149 C 
HETATM    4  C4  UNL     1     -33.710  18.157  -4.349  1.00 20.00     0.035 C 
HETATM    5  C5  UNL     1     -33.448  19.194  -2.070  1.00 20.00     0.083 C 
HETATM    6  C6  UNL     1     -34.197  19.241  -3.391  1.00 20.00     0.012 C 
HETATM    7  O12 UNL     1     -33.482  17.645  -0.240  1.00 20.00    -0.293 OA
ENDROOT
BRANCH   2   8
HETATM    8  C11 UNL     1     -33.592  15.613  -4.636  1.00 20.00     0.014 C 
HETATM    9  C9  UNL     1     -34.464  15.931  -5.845  1.00 20.00     0.009 C 
HETATM   10  C7  UNL     1     -35.801  15.270  -5.540  1.00 20.00     0.001 C 
HETATM   11  C8  UNL     1     -35.397  13.991  -4.831  1.00 20.00     0.001 C 
HETATM   12  C10 UNL     1     -34.230  14.409  -3.943  1.00 20.00     0.009 C 
ENDBRANCH   2   8
TORSDOF 1
ENDMDL
MODEL 9
REMARK VINA RESULT:      -4.0      9.787     10.805
REMARK  1 active torsions:
REMARK  status: ('A' for Active; 'I' for Inactive)
REMARK    1  A    between atoms: C2_2  and  C11_11 
ROOT
HETATM    1  C1  UNL     1     -41.715  14.405   5.629  1.00 20.00     0.053 C 
HETATM    2  C2  UNL     1     -40.939  13.637   6.409  1.00 20.00    -0.072 C 
HETATM    3  C3  UNL     1     -42.168  15.740   6.094  1.00 20.00     0.149 C 
HETATM    4  C4  UNL     1     -40.426  14.089   7.752  1.00 20.00     0.035 C 
HETATM    5  C5  UNL     1     -41.814  16.173   7.498  1.00 20.00     0.083 C 
HETATM    6  C6  UNL     1     -40.468  15.606   7.916  1.00 20.00     0.012 C 
HETATM    7  O12 UNL     1     -42.870  16.435   5.361  1.00 20.00    -0.293 OA
ENDROOT
BRANCH   2   8
HETATM    8  C11 UNL     1     -40.525  12.241   5.978  1.00 20.00     0.014 C 
HETATM    9  C9  UNL     1     -39.228  11.878   6.692  1.00 20.00     0.009 C 
HETATM   10  C7  UNL     1     -38.132  12.183   5.681  1.00 20.00     0.001 C 
HETATM   11  C8  UNL     1     -38.765  11.783   4.360  1.00 20.00     0.001 C 
HETATM   12  C10 UNL     1     -40.212  12.249   4.483  1.00 20.00     0.009 C 
ENDBRANCH   2   8
TORSDOF 1
ENDMDL
