MODEL 1
REMARK VINA RESULT:      -3.6      0.000      0.000
REMARK  0 active torsions:
REMARK  status: ('A' for Active; 'I' for Inactive)
ROOT
HETATM    1  C1  UNL     1     -42.631   5.459   1.597  1.00 20.00     0.067 C 
HETATM    2  C2  UNL     1     -41.719   5.584   0.446  1.00 20.00     0.127 C 
HETATM    3  C3  UNL     1     -41.233   7.016   0.222  1.00 20.00     0.030 C 
HETATM    4  C4  UNL     1     -42.410   5.324  -0.893  1.00 20.00     0.136 C 
HETATM    5  C5  UNL     1     -42.348   7.648  -0.624  1.00 20.00     0.123 C 
HETATM    6  C6  UNL     1     -40.787   7.787   1.456  1.00 20.00     0.014 C 
HETATM    7  C7  UNL     1     -43.417   4.188  -0.935  1.00 20.00     0.041 C 
HETATM    8  C8  UNL     1     -43.371   8.497   0.117  1.00 20.00     0.040 C 
HETATM    9  N9  UNL     1     -43.349   5.360   2.502  1.00 20.00    -0.197 NA
HETATM   10  O10 UNL     1     -43.050   6.558  -1.258  1.00 20.00    -0.380 OA
ENDROOT
TORSDOF 0
ENDMDL
MODEL 2
REMARK VINA RESULT:      -3.5     12.538     13.714
REMARK  0 active torsions:
REMARK  status: ('A' for Active; 'I' for Inactive)
ROOT
HETATM    1  C1  UNL     1     -35.316  17.386  -4.592  1.00 20.00     0.067 C 
HETATM    2  C2  UNL     1     -34.042  16.742  -4.958  1.00 20.00     0.127 C 
HETATM    3  C3  UNL     1     -34.218  15.594  -5.951  1.00 20.00     0.030 C 
HETATM    4  C4  UNL     1     -33.397  15.992  -3.792  1.00 20.00     0.136 C 
HETATM    5  C5  UNL     1     -34.541  14.388  -5.056  1.00 20.00     0.123 C 
HETATM    6  C6  UNL     1     -35.149  15.844  -7.128  1.00 20.00     0.014 C 
HETATM    7  C7  UNL     1     -33.463  16.657  -2.428  1.00 20.00     0.041 C 
HETATM    8  C8  UNL     1     -36.010  14.013  -4.918  1.00 20.00     0.040 C 
HETATM    9  N9  UNL     1     -36.318  17.893  -4.303  1.00 20.00    -0.197 NA
HETATM   10  O10 UNL     1     -34.039  14.707  -3.741  1.00 20.00    -0.380 OA
ENDROOT
TORSDOF 0
ENDMDL
MODEL 3
REMARK VINA RESULT:      -3.3      9.369     10.279
REMARK  0 active torsions:
REMARK  status: ('A' for Active; 'I' for Inactive)
ROOT
HETATM    1  C1  UNL     1     -40.430  14.149   8.202  1.00 20.00     0.067 C 
HETATM    2  C2  UNL     1     -40.824  14.217   6.784  1.00 20.00     0.127 C 
HETATM    3  C3  UNL     1     -42.333  14.354   6.589  1.00 20.00     0.030 C 
HETATM    4  C4  UNL     1     -40.575  12.908   6.033  1.00 20.00     0.136 C 
HETATM    5  C5  UNL     1     -42.837  12.904   6.634  1.00 20.00     0.123 C 
HETATM    6  C6  UNL     1     -43.049  15.357   7.482  1.00 20.00     0.014 C 
HETATM    7  C7  UNL     1     -39.289  12.167   6.354  1.00 20.00     0.041 C 
HETATM    8  C8  UNL     1     -43.417  12.422   7.956  1.00 20.00     0.040 C 
HETATM    9  N9  UNL     1     -40.119  14.095   9.318  1.00 20.00    -0.197 NA
HETATM   10  O10 UNL     1     -41.706  12.066   6.314  1.00 20.00    -0.380 OA
ENDROOT
TORSDOF 0
ENDMDL
MODEL 4
REMARK VINA RESULT:      -3.3      8.487      9.970
REMARK  0 active torsions:
REMARK  status: ('A' for Active; 'I' for Inactive)
ROOT
HETATM    1  C1  UNL     1     -41.876  13.737   4.870  1.00 20.00     0.067 C 
HETATM    2  C2  UNL     1     -41.901  12.824   6.026  1.00 20.00     0.127 C 
HETATM    3  C3  UNL     1     -42.180  13.539   7.347  1.00 20.00     0.030 C 
HETATM    4  C4  UNL     1     -40.533  12.215   6.335  1.00 20.00     0.136 C 
HETATM    5  C5  UNL     1     -40.793  14.026   7.794  1.00 20.00     0.123 C 
HETATM    6  C6  UNL     1     -43.300  14.569   7.344  1.00 20.00     0.014 C 
HETATM    7  C7  UNL     1     -39.685  11.796   5.146  1.00 20.00     0.041 C 
HETATM    8  C8  UNL     1     -40.450  15.479   7.497  1.00 20.00     0.040 C 
HETATM    9  N9  UNL     1     -41.856  14.456   3.960  1.00 20.00    -0.197 NA
HETATM   10  O10 UNL     1     -39.828  13.194   7.117  1.00 20.00    -0.380 OA
ENDROOT
TORSDOF 0
ENDMDL
MODEL 5
REMARK VINA RESULT:      -3.3     13.540     14.294
REMARK  0 active torsions:
REMARK  status: ('A' for Active; 'I' for Inactive)
ROOT
HETATM    1  C1  UNL     1     -34.249  15.213  -6.714  1.00 20.00     0.067 C 
HETATM    2  C2  UNL     1     -34.997  15.343  -5.452  1.00 20.00     0.127 C 
HETATM    3  C3  UNL     1     -35.936  16.548  -5.435  1.00 20.00     0.030 C 
HETATM    4  C4  UNL     1     -34.101  15.686  -4.261  1.00 20.00     0.136 C 
HETATM    5  C5  UNL     1     -35.031  17.707  -4.990  1.00 20.00     0.123 C 
HETATM    6  C6  UNL     1     -36.777  16.776  -6.683  1.00 20.00     0.014 C 
HETATM    7  C7  UNL     1     -32.754  14.987  -4.193  1.00 20.00     0.041 C 
HETATM    8  C8  UNL     1     -34.481  18.607  -6.087  1.00 20.00     0.040 C 
HETATM    9  N9  UNL     1     -33.659  15.110  -7.708  1.00 20.00    -0.197 NA
HETATM   10  O10 UNL     1     -33.911  17.110  -4.302  1.00 20.00    -0.380 OA
ENDROOT
TORSDOF 0
ENDMDL
MODEL 6
REMARK VINA RESULT:      -3.2     12.076     13.081
REMARK  0 active torsions:
REMARK  status: ('A' for Active; 'I' for Inactive)
ROOT
HETATM    1  C1  UNL     1     -36.144  14.219  -5.251  1.00 20.00     0.067 C 
HETATM    2  C2  UNL     1     -36.243  15.344  -6.197  1.00 20.00     0.127 C 
HETATM    3  C3  UNL     1     -34.909  16.051  -6.427  1.00 20.00     0.030 C 
HETATM    4  C4  UNL     1     -37.073  16.508  -5.654  1.00 20.00     0.136 C 
HETATM    5  C5  UNL     1     -34.831  17.062  -5.273  1.00 20.00     0.123 C 
HETATM    6  C6  UNL     1     -33.693  15.162  -6.643  1.00 20.00     0.014 C 
HETATM    7  C7  UNL     1     -38.328  16.152  -4.877  1.00 20.00     0.041 C 
HETATM    8  C8  UNL     1     -33.997  16.659  -4.065  1.00 20.00     0.040 C 
HETATM    9  N9  UNL     1     -36.066  13.334  -4.505  1.00 20.00    -0.197 NA
HETATM   10  O10 UNL     1     -36.186  17.277  -4.825  1.00 20.00    -0.380 OA
ENDROOT
TORSDOF 0
ENDMDL
MODEL 7
REMARK VINA RESULT:      -3.1     12.511     13.391
REMARK  0 active torsions:
REMARK  status: ('A' for Active; 'I' for Inactive)
ROOT
HETATM    1  C1  UNL     1     -35.558  14.331  -5.135  1.00 20.00     0.067 C 
HETATM    2  C2  UNL     1     -34.427  15.008  -5.793  1.00 20.00     0.127 C 
HETATM    3  C3  UNL     1     -33.808  16.109  -4.933  1.00 20.00     0.030 C 
HETATM    4  C4  UNL     1     -34.851  15.828  -7.012  1.00 20.00     0.136 C 
HETATM    5  C5  UNL     1     -34.682  17.336  -5.230  1.00 20.00     0.123 C 
HETATM    6  C6  UNL     1     -33.567  15.776  -3.467  1.00 20.00     0.014 C 
HETATM    7  C7  UNL     1     -35.905  15.216  -7.918  1.00 20.00     0.041 C 
HETATM    8  C8  UNL     1     -35.773  17.659  -4.218  1.00 20.00     0.040 C 
HETATM    9  N9  UNL     1     -36.449  13.797  -4.618  1.00 20.00    -0.197 NA
HETATM   10  O10 UNL     1     -35.317  17.089  -6.502  1.00 20.00    -0.380 OA
ENDROOT
TORSDOF 0
ENDMDL
MODEL 8
REMARK VINA RESULT:      -3.1      9.409     10.966
REMARK  0 active torsions:
REMARK  status: ('A' for Active; 'I' for Inactive)
ROOT
HETATM    1  C1  UNL     1     -42.965  12.938   8.352  1.00 20.00     0.067 C 
HETATM    2  C2  UNL     1     -42.391  14.278   8.143  1.00 20.00     0.127 C 
HETATM    3  C3  UNL     1     -41.830  14.476   6.735  1.00 20.00     0.030 C 
HETATM    4  C4  UNL     1     -41.128  14.520   8.970  1.00 20.00     0.136 C 
HETATM    5  C5  UNL     1     -40.406  13.908   6.830  1.00 20.00     0.123 C 
HETATM    6  C6  UNL     1     -42.691  13.981   5.582  1.00 20.00     0.014 C 
HETATM    7  C7  UNL     1     -41.126  13.986  10.392  1.00 20.00     0.041 C 
HETATM    8  C8  UNL     1     -40.201  12.488   6.321  1.00 20.00     0.040 C 
HETATM    9  N9  UNL     1     -43.417  11.882   8.516  1.00 20.00    -0.197 NA
HETATM   10  O10 UNL     1     -40.046  13.935   8.227  1.00 20.00    -0.380 OA
ENDROOT
TORSDOF 0
ENDMDL
MODEL 9
REMARK VINA RESULT:      -3.1      8.316      9.504
REMARK  0 active torsions:
REMARK  status: ('A' for Active; 'I' for Inactive)
ROOT
HETATM    1  C1  UNL     1     -42.253  12.826   7.230  1.00 20.00     0.067 C 
HETATM    2  C2  UNL     1     -41.202  13.772   6.818  1.00 20.00     0.127 C 
HETATM    3  C3  UNL     1     -41.761  15.068   6.232  1.00 20.00     0.030 C 
HETATM    4  C4  UNL     1     -40.382  13.272   5.628  1.00 20.00     0.136 C 
HETATM    5  C5  UNL     1     -41.996  14.724   4.753  1.00 20.00     0.123 C 
HETATM    6  C6  UNL     1     -42.921  15.711   6.978  1.00 20.00     0.014 C 
HETATM    7  C7  UNL     1     -40.020  11.797   5.617  1.00 20.00     0.041 C 
HETATM    8  C8  UNL     1     -43.417  14.354   4.354  1.00 20.00     0.040 C 
HETATM    9  N9  UNL     1     -43.080  12.080   7.555  1.00 20.00    -0.197 NA
HETATM   10  O10 UNL     1     -41.144  13.598   4.454  1.00 20.00    -0.380 OA
ENDROOT
TORSDOF 0
ENDMDL
