MODEL 1
REMARK VINA RESULT:      -5.0      0.000      0.000
REMARK  1 active torsions:
REMARK  status: ('A' for Active; 'I' for Inactive)
REMARK    1  A    between atoms: C2_2  and  C8_8 
ROOT
HETATM    1  C1  UNL     1     -33.258   8.221   4.408  1.00 20.00    -0.004 C 
HETATM    2  C2  UNL     1     -33.649   6.945   4.291  1.00 20.00    -0.079 C 
HETATM    3  C3  UNL     1     -32.976   6.267   3.139  1.00 20.00     0.036 C 
HETATM    4  C4  UNL     1     -31.838   7.235   2.805  1.00 20.00     0.028 C 
HETATM    5  C5  UNL     1     -32.268   8.597   3.357  1.00 20.00     0.105 C 
HETATM    6 CL9  UNL     1     -33.062   9.589   2.113  1.00 20.00    -0.121 Cl
ENDROOT
BRANCH   2   7
HETATM    7  C8  UNL     1     -34.641   6.232   5.134  1.00 20.00     0.006 C 
HETATM    8  C6  UNL     1     -34.602   4.727   4.865  1.00 20.00     0.014 C 
HETATM    9  C7  UNL     1     -34.411   6.514   6.622  1.00 20.00     0.014 C 
ENDBRANCH   2   7
TORSDOF 1
ENDMDL
MODEL 2
REMARK VINA RESULT:      -4.6      2.034      3.838
REMARK  1 active torsions:
REMARK  status: ('A' for Active; 'I' for Inactive)
REMARK    1  A    between atoms: C2_2  and  C8_8 
ROOT
HETATM    1  C1  UNL     1     -33.760   6.022   3.967  1.00 20.00    -0.004 C 
HETATM    2  C2  UNL     1     -33.202   7.040   4.634  1.00 20.00    -0.079 C 
HETATM    3  C3  UNL     1     -33.834   7.230   5.977  1.00 20.00     0.036 C 
HETATM    4  C4  UNL     1     -34.616   5.927   6.162  1.00 20.00     0.028 C 
HETATM    5  C5  UNL     1     -34.851   5.373   4.754  1.00 20.00     0.105 C 
HETATM    6 CL9  UNL     1     -36.431   5.868   4.108  1.00 20.00    -0.121 Cl
ENDROOT
BRANCH   2   7
HETATM    7  C8  UNL     1     -32.116   7.933   4.158  1.00 20.00     0.006 C 
HETATM    8  C6  UNL     1     -32.195   8.125   2.642  1.00 20.00     0.014 C 
HETATM    9  C7  UNL     1     -32.158   9.288   4.871  1.00 20.00     0.014 C 
ENDBRANCH   2   7
TORSDOF 1
ENDMDL
MODEL 3
REMARK VINA RESULT:      -4.6      2.384      3.800
REMARK  1 active torsions:
REMARK  status: ('A' for Active; 'I' for Inactive)
REMARK    1  A    between atoms: C2_2  and  C8_8 
ROOT
HETATM    1  C1  UNL     1     -34.146   7.178   5.039  1.00 20.00    -0.004 C 
HETATM    2  C2  UNL     1     -33.175   7.110   4.120  1.00 20.00    -0.079 C 
HETATM    3  C3  UNL     1     -33.107   5.754   3.490  1.00 20.00     0.036 C 
HETATM    4  C4  UNL     1     -34.436   5.125   3.916  1.00 20.00     0.028 C 
HETATM    5  C5  UNL     1     -34.878   5.884   5.171  1.00 20.00     0.105 C 
HETATM    6 CL9  UNL     1     -34.363   5.053   6.656  1.00 20.00    -0.121 Cl
ENDROOT
BRANCH   2   7
HETATM    7  C8  UNL     1     -32.224   8.186   3.740  1.00 20.00     0.006 C 
HETATM    8  C6  UNL     1     -32.644   8.842   2.424  1.00 20.00     0.014 C 
HETATM    9  C7  UNL     1     -32.106   9.238   4.847  1.00 20.00     0.014 C 
ENDBRANCH   2   7
TORSDOF 1
ENDMDL
MODEL 4
REMARK VINA RESULT:      -3.9      1.391      1.928
REMARK  1 active torsions:
REMARK  status: ('A' for Active; 'I' for Inactive)
REMARK    1  A    between atoms: C2_2  and  C8_8 
ROOT
HETATM    1  C1  UNL     1     -33.572   7.139   3.652  1.00 20.00    -0.004 C 
HETATM    2  C2  UNL     1     -33.950   6.709   4.862  1.00 20.00    -0.079 C 
HETATM    3  C3  UNL     1     -33.413   7.586   5.950  1.00 20.00     0.036 C 
HETATM    4  C4  UNL     1     -32.955   8.826   5.179  1.00 20.00     0.028 C 
HETATM    5  C5  UNL     1     -32.724   8.364   3.737  1.00 20.00     0.105 C 
HETATM    6 CL9  UNL     1     -31.023   7.938   3.448  1.00 20.00    -0.121 Cl
ENDROOT
BRANCH   2   7
HETATM    7  C8  UNL     1     -34.768   5.509   5.171  1.00 20.00     0.006 C 
HETATM    8  C6  UNL     1     -34.216   4.276   4.454  1.00 20.00     0.014 C 
HETATM    9  C7  UNL     1     -34.842   5.260   6.681  1.00 20.00     0.014 C 
ENDBRANCH   2   7
TORSDOF 1
ENDMDL
MODEL 5
REMARK VINA RESULT:      -3.8     11.559     12.553
REMARK  1 active torsions:
REMARK  status: ('A' for Active; 'I' for Inactive)
REMARK    1  A    between atoms: C2_2  and  C8_8 
ROOT
HETATM    1  C1  UNL     1     -31.717  18.912  -0.834  1.00 20.00    -0.004 C 
HETATM    2  C2  UNL     1     -32.716  18.151  -1.298  1.00 20.00    -0.079 C 
HETATM    3  C3  UNL     1     -33.666  17.763  -0.208  1.00 20.00     0.036 C 
HETATM    4  C4  UNL     1     -33.279  18.720   0.922  1.00 20.00     0.028 C 
HETATM    5  C5  UNL     1     -31.838  19.151   0.635  1.00 20.00     0.105 C 
HETATM    6 CL9  UNL     1     -30.664  18.140   1.506  1.00 20.00    -0.121 Cl
ENDROOT
BRANCH   2   7
HETATM    7  C8  UNL     1     -32.910  17.682  -2.694  1.00 20.00     0.006 C 
HETATM    8  C6  UNL     1     -33.492  16.268  -2.716  1.00 20.00     0.014 C 
HETATM    9  C7  UNL     1     -33.806  18.641  -3.484  1.00 20.00     0.014 C 
ENDBRANCH   2   7
TORSDOF 1
ENDMDL
MODEL 6
REMARK VINA RESULT:      -3.8     11.550     12.497
REMARK  1 active torsions:
REMARK  status: ('A' for Active; 'I' for Inactive)
REMARK    1  A    between atoms: C2_2  and  C8_8 
ROOT
HETATM    1  C1  UNL     1     -33.568  16.703  -2.063  1.00 20.00    -0.004 C 
HETATM    2  C2  UNL     1     -33.103  17.954  -1.958  1.00 20.00    -0.079 C 
HETATM    3  C3  UNL     1     -32.984  18.612  -3.297  1.00 20.00     0.036 C 
HETATM    4  C4  UNL     1     -33.803  17.682  -4.195  1.00 20.00     0.028 C 
HETATM    5  C5  UNL     1     -33.832  16.326  -3.484  1.00 20.00     0.105 C 
HETATM    6 CL9  UNL     1     -32.544  15.249  -4.068  1.00 20.00    -0.121 Cl
ENDROOT
BRANCH   2   7
HETATM    7  C8  UNL     1     -32.702  18.657  -0.713  1.00 20.00     0.006 C 
HETATM    8  C6  UNL     1     -33.593  18.239   0.458  1.00 20.00     0.014 C 
HETATM    9  C7  UNL     1     -31.229  18.402  -0.380  1.00 20.00     0.014 C 
ENDBRANCH   2   7
TORSDOF 1
ENDMDL
MODEL 7
REMARK VINA RESULT:      -3.7     11.866     12.788
REMARK  1 active torsions:
REMARK  status: ('A' for Active; 'I' for Inactive)
REMARK    1  A    between atoms: C2_2  and  C8_8 
ROOT
HETATM    1  C1  UNL     1     -32.894  18.902  -2.927  1.00 20.00    -0.004 C 
HETATM    2  C2  UNL     1     -32.935  18.284  -1.740  1.00 20.00    -0.079 C 
HETATM    3  C3  UNL     1     -33.470  16.892  -1.862  1.00 20.00     0.036 C 
HETATM    4  C4  UNL     1     -33.399  16.642  -3.370  1.00 20.00     0.028 C 
HETATM    5  C5  UNL     1     -33.394  18.026  -4.027  1.00 20.00     0.105 C 
HETATM    6 CL9  UNL     1     -35.030  18.533  -4.501  1.00 20.00    -0.121 Cl
ENDROOT
BRANCH   2   7
HETATM    7  C8  UNL     1     -32.550  18.851  -0.422  1.00 20.00     0.006 C 
HETATM    8  C6  UNL     1     -33.491  18.356   0.678  1.00 20.00     0.014 C 
HETATM    9  C7  UNL     1     -31.097  18.511  -0.075  1.00 20.00     0.014 C 
ENDBRANCH   2   7
TORSDOF 1
ENDMDL
MODEL 8
REMARK VINA RESULT:      -3.7      1.655      2.693
REMARK  1 active torsions:
REMARK  status: ('A' for Active; 'I' for Inactive)
REMARK    1  A    between atoms: C2_2  and  C8_8 
ROOT
HETATM    1  C1  UNL     1     -33.753   7.805   4.061  1.00 20.00    -0.004 C 
HETATM    2  C2  UNL     1     -33.875   6.560   4.538  1.00 20.00    -0.079 C 
HETATM    3  C3  UNL     1     -33.804   6.534   6.033  1.00 20.00     0.036 C 
HETATM    4  C4  UNL     1     -33.988   8.009   6.398  1.00 20.00     0.028 C 
HETATM    5  C5  UNL     1     -33.579   8.805   5.156  1.00 20.00     0.105 C 
HETATM    6 CL9  UNL     1     -31.879   9.318   5.234  1.00 20.00    -0.121 Cl
ENDROOT
BRANCH   2   7
HETATM    7  C8  UNL     1     -34.031   5.311   3.751  1.00 20.00     0.006 C 
HETATM    8  C6  UNL     1     -32.968   5.224   2.654  1.00 20.00     0.014 C 
HETATM    9  C7  UNL     1     -33.971   4.074   4.652  1.00 20.00     0.014 C 
ENDBRANCH   2   7
TORSDOF 1
ENDMDL
MODEL 9
REMARK VINA RESULT:      -3.7     15.303     16.542
REMARK  1 active torsions:
REMARK  status: ('A' for Active; 'I' for Inactive)
REMARK    1  A    between atoms: C2_2  and  C8_8 
ROOT
HETATM    1  C1  UNL     1     -23.739  18.805  10.059  1.00 20.00    -0.004 C 
HETATM    2  C2  UNL     1     -23.760  18.512  11.366  1.00 20.00    -0.079 C 
HETATM    3  C3  UNL     1     -22.381  18.283  11.901  1.00 20.00     0.036 C 
HETATM    4  C4  UNL     1     -21.497  18.849  10.787  1.00 20.00     0.028 C 
HETATM    5  C5  UNL     1     -22.349  18.818   9.515  1.00 20.00     0.105 C 
HETATM    6 CL9  UNL     1     -22.063  17.341   8.568  1.00 20.00    -0.121 Cl
ENDROOT
BRANCH   2   7
HETATM    7  C8  UNL     1     -24.957  18.379  12.234  1.00 20.00     0.006 C 
HETATM    8  C6  UNL     1     -26.098  19.263  11.726  1.00 20.00     0.014 C 
HETATM    9  C7  UNL     1     -25.415  16.920  12.330  1.00 20.00     0.014 C 
ENDBRANCH   2   7
TORSDOF 1
ENDMDL
