MODEL 1
REMARK VINA RESULT:      -4.8      0.000      0.000
REMARK  4 active torsions:
REMARK  status: ('A' for Active; 'I' for Inactive)
REMARK    1  A    between atoms: C2_2  and  C7_7 
REMARK    2  A    between atoms: C7_7  and  C8_8 
REMARK    3  A    between atoms: C8_8  and  C9_9 
REMARK    4  A    between atoms: C9_9  and  O10_10 
ROOT
HETATM    1  C1  UNL     1     -34.604   6.490   4.350  1.00 20.00    -0.004 C 
HETATM    2  C2  UNL     1     -33.953   7.292   5.201  1.00 20.00    -0.082 C 
HETATM    3  C3  UNL     1     -33.760   6.639   6.535  1.00 20.00     0.036 C 
HETATM    4  C4  UNL     1     -34.728   5.456   6.466  1.00 20.00     0.028 C 
HETATM    5  C5  UNL     1     -34.950   5.179   4.977  1.00 20.00     0.105 C 
HETATM    6 CL11 UNL     1     -33.852   3.919   4.373  1.00 20.00    -0.121 Cl
ENDROOT
BRANCH   2   7
HETATM    7  C7  UNL     1     -33.425   8.652   4.923  1.00 20.00     0.036 C 
BRANCH   7   8
HETATM    8  C8  UNL     1     -32.089   8.586   4.190  1.00 20.00     0.030 C 
BRANCH   8   9
HETATM    9  C9  UNL     1     -32.244   8.275   2.706  1.00 20.00     0.167 C 
BRANCH   9  10
HETATM   10  O10 UNL     1     -32.833   9.398   2.063  1.00 20.00    -0.396 OA
HETATM   11  C6  UNL     1     -32.695   9.321   0.650  1.00 20.00     0.201 C 
ENDBRANCH   9  10
ENDBRANCH   8   9
ENDBRANCH   7   8
ENDBRANCH   2   7
TORSDOF 4
ENDMDL
MODEL 2
REMARK VINA RESULT:      -4.3     11.802     12.696
REMARK  4 active torsions:
REMARK  status: ('A' for Active; 'I' for Inactive)
REMARK    1  A    between atoms: C2_2  and  C7_7 
REMARK    2  A    between atoms: C7_7  and  C8_8 
REMARK    3  A    between atoms: C8_8  and  C9_9 
REMARK    4  A    between atoms: C9_9  and  O10_10 
ROOT
HETATM    1  C1  UNL     1     -33.464  15.320  -3.821  1.00 20.00    -0.004 C 
HETATM    2  C2  UNL     1     -33.695  16.546  -3.333  1.00 20.00    -0.082 C 
HETATM    3  C3  UNL     1     -34.583  17.340  -4.240  1.00 20.00     0.036 C 
HETATM    4  C4  UNL     1     -34.547  16.526  -5.534  1.00 20.00     0.028 C 
HETATM    5  C5  UNL     1     -34.156  15.103  -5.127  1.00 20.00     0.105 C 
HETATM    6 CL11 UNL     1     -35.584  14.075  -4.882  1.00 20.00    -0.121 Cl
ENDROOT
BRANCH   2   7
HETATM    7  C7  UNL     1     -33.201  17.105  -2.050  1.00 20.00     0.036 C 
BRANCH   7   8
HETATM    8  C8  UNL     1     -32.593  18.490  -2.248  1.00 20.00     0.030 C 
BRANCH   8   9
HETATM    9  C9  UNL     1     -32.227  19.167  -0.932  1.00 20.00     0.167 C 
BRANCH   9  10
HETATM   10  O10 UNL     1     -30.914  18.766  -0.561  1.00 20.00    -0.396 OA
HETATM   11  C6  UNL     1     -30.828  18.484   0.829  1.00 20.00     0.201 C 
ENDBRANCH   9  10
ENDBRANCH   8   9
ENDBRANCH   7   8
ENDBRANCH   2   7
TORSDOF 4
ENDMDL
MODEL 3
REMARK VINA RESULT:      -4.2     11.936     12.792
REMARK  4 active torsions:
REMARK  status: ('A' for Active; 'I' for Inactive)
REMARK    1  A    between atoms: C2_2  and  C7_7 
REMARK    2  A    between atoms: C7_7  and  C8_8 
REMARK    3  A    between atoms: C8_8  and  C9_9 
REMARK    4  A    between atoms: C9_9  and  O10_10 
ROOT
HETATM    1  C1  UNL     1     -34.707  16.763  -4.765  1.00 20.00    -0.004 C 
HETATM    2  C2  UNL     1     -33.735  16.881  -3.852  1.00 20.00    -0.082 C 
HETATM    3  C3  UNL     1     -33.027  15.580  -3.632  1.00 20.00     0.036 C 
HETATM    4  C4  UNL     1     -33.974  14.574  -4.288  1.00 20.00     0.028 C 
HETATM    5  C5  UNL     1     -34.805  15.371  -5.296  1.00 20.00     0.105 C 
HETATM    6 CL11 UNL     1     -34.100  15.304  -6.926  1.00 20.00    -0.121 Cl
ENDROOT
BRANCH   2   7
HETATM    7  C7  UNL     1     -33.326  18.114  -3.134  1.00 20.00     0.036 C 
BRANCH   7   8
HETATM    8  C8  UNL     1     -32.808  17.794  -1.736  1.00 20.00     0.030 C 
BRANCH   8   9
HETATM    9  C9  UNL     1     -32.154  18.994  -1.060  1.00 20.00     0.167 C 
BRANCH   9  10
HETATM   10  O10 UNL     1     -30.879  18.602  -0.567  1.00 20.00    -0.396 OA
HETATM   11  C6  UNL     1     -30.872  18.517   0.852  1.00 20.00     0.201 C 
ENDBRANCH   9  10
ENDBRANCH   8   9
ENDBRANCH   7   8
ENDBRANCH   2   7
TORSDOF 4
ENDMDL
MODEL 4
REMARK VINA RESULT:      -4.1     11.993     13.066
REMARK  4 active torsions:
REMARK  status: ('A' for Active; 'I' for Inactive)
REMARK    1  A    between atoms: C2_2  and  C7_7 
REMARK    2  A    between atoms: C7_7  and  C8_8 
REMARK    3  A    between atoms: C8_8  and  C9_9 
REMARK    4  A    between atoms: C9_9  and  O10_10 
ROOT
HETATM    1  C1  UNL     1     -33.506  16.627  -2.102  1.00 20.00    -0.004 C 
HETATM    2  C2  UNL     1     -33.577  16.395  -3.419  1.00 20.00    -0.082 C 
HETATM    3  C3  UNL     1     -33.798  17.661  -4.189  1.00 20.00     0.036 C 
HETATM    4  C4  UNL     1     -34.221  18.643  -3.095  1.00 20.00     0.028 C 
HETATM    5  C5  UNL     1     -33.671  18.077  -1.784  1.00 20.00     0.105 C 
HETATM    6 CL11 UNL     1     -32.091  18.782  -1.377  1.00 20.00    -0.121 Cl
ENDROOT
BRANCH   2   7
HETATM    7  C7  UNL     1     -33.427  15.088  -4.107  1.00 20.00     0.036 C 
BRANCH   7   8
HETATM    8  C8  UNL     1     -34.125  15.095  -5.464  1.00 20.00     0.030 C 
BRANCH   8   9
HETATM    9  C9  UNL     1     -35.508  14.456  -5.419  1.00 20.00     0.167 C 
BRANCH   9  10
HETATM   10  O10 UNL     1     -35.987  14.309  -6.749  1.00 20.00    -0.396 OA
HETATM   11  C6  UNL     1     -35.590  15.400  -7.570  1.00 20.00     0.201 C 
ENDBRANCH   9  10
ENDBRANCH   8   9
ENDBRANCH   7   8
ENDBRANCH   2   7
TORSDOF 4
ENDMDL
MODEL 5
REMARK VINA RESULT:      -4.0     12.246     13.050
REMARK  4 active torsions:
REMARK  status: ('A' for Active; 'I' for Inactive)
REMARK    1  A    between atoms: C2_2  and  C7_7 
REMARK    2  A    between atoms: C7_7  and  C8_8 
REMARK    3  A    between atoms: C8_8  and  C9_9 
REMARK    4  A    between atoms: C9_9  and  O10_10 
ROOT
HETATM    1  C1  UNL     1     -34.687  18.335  -2.760  1.00 20.00    -0.004 C 
HETATM    2  C2  UNL     1     -33.920  17.541  -2.003  1.00 20.00    -0.082 C 
HETATM    3  C3  UNL     1     -33.299  16.444  -2.811  1.00 20.00     0.036 C 
HETATM    4  C4  UNL     1     -34.113  16.486  -4.105  1.00 20.00     0.028 C 
HETATM    5  C5  UNL     1     -34.703  17.897  -4.187  1.00 20.00     0.105 C 
HETATM    6 CL11 UNL     1     -33.681  18.980  -5.156  1.00 20.00    -0.121 Cl
ENDROOT
BRANCH   2   7
HETATM    7  C7  UNL     1     -33.641  17.685  -0.552  1.00 20.00     0.036 C 
BRANCH   7   8
HETATM    8  C8  UNL     1     -32.714  18.866  -0.282  1.00 20.00     0.030 C 
BRANCH   8   9
HETATM    9  C9  UNL     1     -31.239  18.491  -0.373  1.00 20.00     0.167 C 
BRANCH   9  10
HETATM   10  O10 UNL     1     -30.531  19.169   0.657  1.00 20.00    -0.396 OA
HETATM   11  C6  UNL     1     -30.557  18.439   1.876  1.00 20.00     0.201 C 
ENDBRANCH   9  10
ENDBRANCH   8   9
ENDBRANCH   7   8
ENDBRANCH   2   7
TORSDOF 4
ENDMDL
MODEL 6
REMARK VINA RESULT:      -3.9     12.134     13.201
REMARK  4 active torsions:
REMARK  status: ('A' for Active; 'I' for Inactive)
REMARK    1  A    between atoms: C2_2  and  C7_7 
REMARK    2  A    between atoms: C7_7  and  C8_8 
REMARK    3  A    between atoms: C8_8  and  C9_9 
REMARK    4  A    between atoms: C9_9  and  O10_10 
ROOT
HETATM    1  C1  UNL     1     -34.148  17.523  -4.174  1.00 20.00    -0.004 C 
HETATM    2  C2  UNL     1     -33.712  16.418  -3.556  1.00 20.00    -0.082 C 
HETATM    3  C3  UNL     1     -33.385  16.683  -2.120  1.00 20.00     0.036 C 
HETATM    4  C4  UNL     1     -33.341  18.211  -2.068  1.00 20.00     0.028 C 
HETATM    5  C5  UNL     1     -34.179  18.698  -3.253  1.00 20.00     0.105 C 
HETATM    6 CL11 UNL     1     -35.857  19.037  -2.774  1.00 20.00    -0.121 Cl
ENDROOT
BRANCH   2   7
HETATM    7  C7  UNL     1     -33.579  15.060  -4.141  1.00 20.00     0.036 C 
BRANCH   7   8
HETATM    8  C8  UNL     1     -34.164  15.004  -5.549  1.00 20.00     0.030 C 
BRANCH   8   9
HETATM    9  C9  UNL     1     -35.596  14.483  -5.573  1.00 20.00     0.167 C 
BRANCH   9  10
HETATM   10  O10 UNL     1     -35.985  14.279  -6.924  1.00 20.00    -0.396 OA
HETATM   11  C6  UNL     1     -35.942  15.489  -7.669  1.00 20.00     0.201 C 
ENDBRANCH   9  10
ENDBRANCH   8   9
ENDBRANCH   7   8
ENDBRANCH   2   7
TORSDOF 4
ENDMDL
MODEL 7
REMARK VINA RESULT:      -3.8      1.430      2.031
REMARK  4 active torsions:
REMARK  status: ('A' for Active; 'I' for Inactive)
REMARK    1  A    between atoms: C2_2  and  C7_7 
REMARK    2  A    between atoms: C7_7  and  C8_8 
REMARK    3  A    between atoms: C8_8  and  C9_9 
REMARK    4  A    between atoms: C9_9  and  O10_10 
ROOT
HETATM    1  C1  UNL     1     -34.256   5.841   4.214  1.00 20.00    -0.004 C 
HETATM    2  C2  UNL     1     -33.244   6.638   3.850  1.00 20.00    -0.082 C 
HETATM    3  C3  UNL     1     -32.938   7.655   4.905  1.00 20.00     0.036 C 
HETATM    4  C4  UNL     1     -34.174   7.580   5.804  1.00 20.00     0.028 C 
HETATM    5  C5  UNL     1     -34.787   6.198   5.563  1.00 20.00     0.105 C 
HETATM    6 CL11 UNL     1     -34.223   5.012   6.760  1.00 20.00    -0.121 Cl
ENDROOT
BRANCH   2   7
HETATM    7  C7  UNL     1     -32.452   6.563   2.597  1.00 20.00     0.036 C 
BRANCH   7   8
HETATM    8  C8  UNL     1     -31.987   7.946   2.152  1.00 20.00     0.030 C 
BRANCH   8   9
HETATM    9  C9  UNL     1     -32.047   8.132   0.640  1.00 20.00     0.167 C 
BRANCH   9  10
HETATM   10  O10 UNL     1     -32.707   9.359   0.357  1.00 20.00    -0.396 OA
HETATM   11  C6  UNL     1     -33.077  10.040   1.548  1.00 20.00     0.201 C 
ENDBRANCH   9  10
ENDBRANCH   8   9
ENDBRANCH   7   8
ENDBRANCH   2   7
TORSDOF 4
ENDMDL
MODEL 8
REMARK VINA RESULT:      -3.6     11.905     13.180
REMARK  4 active torsions:
REMARK  status: ('A' for Active; 'I' for Inactive)
REMARK    1  A    between atoms: C2_2  and  C7_7 
REMARK    2  A    between atoms: C7_7  and  C8_8 
REMARK    3  A    between atoms: C8_8  and  C9_9 
REMARK    4  A    between atoms: C9_9  and  O10_10 
ROOT
HETATM    1  C1  UNL     1     -34.452  16.799  -4.509  1.00 20.00    -0.004 C 
HETATM    2  C2  UNL     1     -34.940  15.645  -4.982  1.00 20.00    -0.082 C 
HETATM    3  C3  UNL     1     -34.106  14.478  -4.553  1.00 20.00     0.036 C 
HETATM    4  C4  UNL     1     -32.825  15.153  -4.057  1.00 20.00     0.028 C 
HETATM    5  C5  UNL     1     -33.217  16.588  -3.696  1.00 20.00     0.105 C 
HETATM    6 CL11 UNL     1     -33.605  16.748  -1.969  1.00 20.00    -0.121 Cl
ENDROOT
BRANCH   2   7
HETATM    7  C7  UNL     1     -36.166  15.460  -5.798  1.00 20.00     0.036 C 
BRANCH   7   8
HETATM    8  C8  UNL     1     -37.000  16.736  -5.841  1.00 20.00     0.030 C 
BRANCH   8   9
HETATM    9  C9  UNL     1     -38.369  16.569  -5.191  1.00 20.00     0.167 C 
BRANCH   9  10
HETATM   10  O10 UNL     1     -38.557  15.197  -4.870  1.00 20.00    -0.396 OA
HETATM   11  C6  UNL     1     -39.652  15.014  -3.982  1.00 20.00     0.201 C 
ENDBRANCH   9  10
ENDBRANCH   8   9
ENDBRANCH   7   8
ENDBRANCH   2   7
TORSDOF 4
ENDMDL
MODEL 9
REMARK VINA RESULT:      -3.4     12.953     13.990
REMARK  4 active torsions:
REMARK  status: ('A' for Active; 'I' for Inactive)
REMARK    1  A    between atoms: C2_2  and  C7_7 
REMARK    2  A    between atoms: C7_7  and  C8_8 
REMARK    3  A    between atoms: C8_8  and  C9_9 
REMARK    4  A    between atoms: C9_9  and  O10_10 
ROOT
HETATM    1  C1  UNL     1     -26.774  -2.559  10.419  1.00 20.00    -0.004 C 
HETATM    2  C2  UNL     1     -26.076  -1.718  11.193  1.00 20.00    -0.082 C 
HETATM    3  C3  UNL     1     -26.820  -0.440  11.427  1.00 20.00     0.036 C 
HETATM    4  C4  UNL     1     -27.918  -0.498  10.363  1.00 20.00     0.028 C 
HETATM    5  C5  UNL     1     -28.088  -1.978  10.013  1.00 20.00     0.105 C 
HETATM    6 CL11 UNL     1     -29.392  -2.730  10.958  1.00 20.00    -0.121 Cl
ENDROOT
BRANCH   2   7
HETATM    7  C7  UNL     1     -24.748  -1.963  11.809  1.00 20.00     0.036 C 
BRANCH   7   8
HETATM    8  C8  UNL     1     -24.100  -3.223  11.243  1.00 20.00     0.030 C 
BRANCH   8   9
HETATM    9  C9  UNL     1     -23.171  -2.932  10.069  1.00 20.00     0.167 C 
BRANCH   9  10
HETATM   10  O10 UNL     1     -23.841  -3.272   8.862  1.00 20.00    -0.396 OA
HETATM   11  C6  UNL     1     -22.944  -3.312   7.761  1.00 20.00     0.201 C 
ENDBRANCH   9  10
ENDBRANCH   8   9
ENDBRANCH   7   8
ENDBRANCH   2   7
TORSDOF 4
ENDMDL
