MODEL 1
REMARK VINA RESULT:      -5.4      0.000      0.000
REMARK  2 active torsions:
REMARK  status: ('A' for Active; 'I' for Inactive)
REMARK    1  A    between atoms: C4_4  and  C10_10 
REMARK    2  A    between atoms: C9_9  and  C10_10 
ROOT
HETATM    1  C1  UNL     1     -32.889   9.512   0.320  1.00 20.00     0.012 C 
HETATM    2  C2  UNL     1     -32.525   8.794   1.210  1.00 20.00    -0.117 C 
HETATM    3  C9  UNL     1     -32.077   7.911   2.298  1.00 20.00     0.097 C 
ENDROOT
BRANCH   3   4
HETATM    4  C10 UNL     1     -32.509   8.424   3.665  1.00 20.00     0.046 C 
BRANCH   4   5
HETATM    5  C4  UNL     1     -33.304   7.399   4.383  1.00 20.00    -0.081 C 
HETATM    6  C3  UNL     1     -33.806   6.297   3.790  1.00 20.00    -0.004 C 
HETATM    7  C8  UNL     1     -34.625   5.255   4.492  1.00 20.00     0.105 C 
HETATM    8  C7  UNL     1     -35.098   5.695   5.881  1.00 20.00     0.024 C 
HETATM    9 CL11 UNL     1     -33.640   3.762   4.614  1.00 20.00    -0.121 Cl
HETATM   10  C6  UNL     1     -33.998   6.427   6.643  1.00 20.00     0.006 C 
HETATM   11  C5  UNL     1     -33.511   7.649   5.862  1.00 20.00     0.034 C 
ENDBRANCH   4   5
ENDBRANCH   3   4
TORSDOF 2
ENDMDL
MODEL 2
REMARK VINA RESULT:      -4.6     12.106     12.721
REMARK  2 active torsions:
REMARK  status: ('A' for Active; 'I' for Inactive)
REMARK    1  A    between atoms: C4_4  and  C10_10 
REMARK    2  A    between atoms: C9_9  and  C10_10 
ROOT
HETATM    1  C1  UNL     1     -28.182  18.574   3.866  1.00 20.00     0.012 C 
HETATM    2  C2  UNL     1     -29.237  18.542   3.294  1.00 20.00    -0.117 C 
HETATM    3  C9  UNL     1     -30.531  18.501   2.597  1.00 20.00     0.097 C 
ENDROOT
BRANCH   3   4
HETATM    4  C10 UNL     1     -30.446  19.097   1.198  1.00 20.00     0.046 C 
BRANCH   4   5
HETATM    5  C4  UNL     1     -31.735  18.942   0.481  1.00 20.00    -0.081 C 
HETATM    6  C3  UNL     1     -31.825  18.629  -0.826  1.00 20.00    -0.004 C 
HETATM    7  C8  UNL     1     -33.117  18.481  -1.576  1.00 20.00     0.105 C 
HETATM    8  C7  UNL     1     -34.327  19.009  -0.799  1.00 20.00     0.024 C 
HETATM    9 CL11 UNL     1     -33.337  16.747  -1.970  1.00 20.00    -0.121 Cl
HETATM   10  C6  UNL     1     -34.263  18.618   0.674  1.00 20.00     0.006 C 
HETATM   11  C5  UNL     1     -32.978  19.137   1.322  1.00 20.00     0.034 C 
ENDBRANCH   4   5
ENDBRANCH   3   4
TORSDOF 2
ENDMDL
MODEL 3
REMARK VINA RESULT:      -4.5     11.549     12.760
REMARK  2 active torsions:
REMARK  status: ('A' for Active; 'I' for Inactive)
REMARK    1  A    between atoms: C4_4  and  C10_10 
REMARK    2  A    between atoms: C9_9  and  C10_10 
ROOT
HETATM    1  C1  UNL     1     -31.061  18.663   0.268  1.00 20.00     0.012 C 
HETATM    2  C2  UNL     1     -31.740  18.497  -0.708  1.00 20.00    -0.117 C 
HETATM    3  C9  UNL     1     -32.569  18.297  -1.906  1.00 20.00     0.097 C 
ENDROOT
BRANCH   3   4
HETATM    4  C10 UNL     1     -33.320  16.973  -1.867  1.00 20.00     0.046 C 
BRANCH   4   5
HETATM    5  C4  UNL     1     -33.781  16.591  -3.224  1.00 20.00    -0.081 C 
HETATM    6  C3  UNL     1     -33.733  15.330  -3.697  1.00 20.00    -0.004 C 
HETATM    7  C8  UNL     1     -34.178  14.922  -5.070  1.00 20.00     0.105 C 
HETATM    8  C7  UNL     1     -34.419  16.112  -6.003  1.00 20.00     0.024 C 
HETATM    9 CL11 UNL     1     -35.674  13.948  -4.905  1.00 20.00    -0.121 Cl
HETATM   10  C6  UNL     1     -35.137  17.251  -5.287  1.00 20.00     0.006 C 
HETATM   11  C5  UNL     1     -34.342  17.717  -4.065  1.00 20.00     0.034 C 
ENDBRANCH   4   5
ENDBRANCH   3   4
TORSDOF 2
ENDMDL
MODEL 4
REMARK VINA RESULT:      -4.5      1.505      2.220
REMARK  2 active torsions:
REMARK  status: ('A' for Active; 'I' for Inactive)
REMARK    1  A    between atoms: C4_4  and  C10_10 
REMARK    2  A    between atoms: C9_9  and  C10_10 
ROOT
HETATM    1  C1  UNL     1     -32.651   9.181   0.295  1.00 20.00     0.012 C 
HETATM    2  C2  UNL     1     -32.791   9.384   1.470  1.00 20.00    -0.117 C 
HETATM    3  C9  UNL     1     -32.965   9.637   2.908  1.00 20.00     0.097 C 
ENDROOT
BRANCH   3   4
HETATM    4  C10 UNL     1     -32.160   8.664   3.761  1.00 20.00     0.046 C 
BRANCH   4   5
HETATM    5  C4  UNL     1     -32.851   7.355   3.857  1.00 20.00    -0.081 C 
HETATM    6  C3  UNL     1     -33.868   7.112   4.706  1.00 20.00    -0.004 C 
HETATM    7  C8  UNL     1     -34.571   5.792   4.832  1.00 20.00     0.105 C 
HETATM    8  C7  UNL     1     -33.839   4.651   4.120  1.00 20.00     0.024 C 
HETATM    9 CL11 UNL     1     -36.227   5.978   4.171  1.00 20.00    -0.121 Cl
HETATM   10  C6  UNL     1     -33.299   5.089   2.763  1.00 20.00     0.006 C 
HETATM   11  C5  UNL     1     -32.354   6.283   2.910  1.00 20.00     0.034 C 
ENDBRANCH   4   5
ENDBRANCH   3   4
TORSDOF 2
ENDMDL
MODEL 5
REMARK VINA RESULT:      -4.5     11.701     12.693
REMARK  2 active torsions:
REMARK  status: ('A' for Active; 'I' for Inactive)
REMARK    1  A    between atoms: C4_4  and  C10_10 
REMARK    2  A    between atoms: C9_9  and  C10_10 
ROOT
HETATM    1  C1  UNL     1     -30.780  18.511   1.447  1.00 20.00     0.012 C 
HETATM    2  C2  UNL     1     -31.330  18.519   0.379  1.00 20.00    -0.117 C 
HETATM    3  C9  UNL     1     -31.999  18.532  -0.930  1.00 20.00     0.097 C 
ENDROOT
BRANCH   3   4
HETATM    4  C10 UNL     1     -33.309  17.755  -0.910  1.00 20.00     0.046 C 
BRANCH   4   5
HETATM    5  C4  UNL     1     -33.710  17.368  -2.284  1.00 20.00    -0.081 C 
HETATM    6  C3  UNL     1     -33.214  16.294  -2.929  1.00 20.00    -0.004 C 
HETATM    7  C8  UNL     1     -33.594  15.892  -4.324  1.00 20.00     0.105 C 
HETATM    8  C7  UNL     1     -34.376  16.976  -5.071  1.00 20.00     0.024 C 
HETATM    9 CL11 UNL     1     -34.557  14.384  -4.226  1.00 20.00    -0.121 Cl
HETATM   10  C6  UNL     1     -35.413  17.642  -4.171  1.00 20.00     0.006 C 
HETATM   11  C5  UNL     1     -34.751  18.254  -2.934  1.00 20.00     0.034 C 
ENDBRANCH   4   5
ENDBRANCH   3   4
TORSDOF 2
ENDMDL
MODEL 6
REMARK VINA RESULT:      -4.3     11.502     12.689
REMARK  2 active torsions:
REMARK  status: ('A' for Active; 'I' for Inactive)
REMARK    1  A    between atoms: C4_4  and  C10_10 
REMARK    2  A    between atoms: C9_9  and  C10_10 
ROOT
HETATM    1  C1  UNL     1     -33.097  18.521   0.918  1.00 20.00     0.012 C 
HETATM    2  C2  UNL     1     -33.512  18.198  -0.161  1.00 20.00    -0.117 C 
HETATM    3  C9  UNL     1     -34.025  17.805  -1.482  1.00 20.00     0.097 C 
ENDROOT
BRANCH   3   4
HETATM    4  C10 UNL     1     -33.006  16.996  -2.274  1.00 20.00     0.046 C 
BRANCH   4   5
HETATM    5  C4  UNL     1     -33.599  16.498  -3.538  1.00 20.00    -0.081 C 
HETATM    6  C3  UNL     1     -33.670  15.192  -3.862  1.00 20.00    -0.004 C 
HETATM    7  C8  UNL     1     -34.251  14.666  -5.141  1.00 20.00     0.105 C 
HETATM    8  C7  UNL     1     -34.491  15.758  -6.188  1.00 20.00     0.024 C 
HETATM    9 CL11 UNL     1     -35.787  13.828  -4.753  1.00 20.00    -0.121 Cl
HETATM   10  C6  UNL     1     -35.075  17.020  -5.559  1.00 20.00     0.006 C 
HETATM   11  C5  UNL     1     -34.154  17.561  -4.462  1.00 20.00     0.034 C 
ENDBRANCH   4   5
ENDBRANCH   3   4
TORSDOF 2
ENDMDL
MODEL 7
REMARK VINA RESULT:      -4.3     12.042     13.069
REMARK  2 active torsions:
REMARK  status: ('A' for Active; 'I' for Inactive)
REMARK    1  A    between atoms: C4_4  and  C10_10 
REMARK    2  A    between atoms: C9_9  and  C10_10 
ROOT
HETATM    1  C1  UNL     1     -31.365  18.690  -0.147  1.00 20.00     0.012 C 
HETATM    2  C2  UNL     1     -32.234  18.182  -0.803  1.00 20.00    -0.117 C 
HETATM    3  C9  UNL     1     -33.299  17.558  -1.602  1.00 20.00     0.097 C 
ENDROOT
BRANCH   3   4
HETATM    4  C10 UNL     1     -33.280  18.033  -3.050  1.00 20.00     0.046 C 
BRANCH   4   5
HETATM    5  C4  UNL     1     -33.826  16.990  -3.951  1.00 20.00    -0.081 C 
HETATM    6  C3  UNL     1     -34.555  17.266  -5.051  1.00 20.00    -0.004 C 
HETATM    7  C8  UNL     1     -35.130  16.228  -5.969  1.00 20.00     0.105 C 
HETATM    8  C7  UNL     1     -35.072  14.812  -5.388  1.00 20.00     0.024 C 
HETATM    9 CL11 UNL     1     -34.238  16.301  -7.522  1.00 20.00    -0.121 Cl
HETATM   10  C6  UNL     1     -33.742  14.545  -4.691  1.00 20.00     0.006 C 
HETATM   11  C5  UNL     1     -33.496  15.562  -3.574  1.00 20.00     0.034 C 
ENDBRANCH   4   5
ENDBRANCH   3   4
TORSDOF 2
ENDMDL
MODEL 8
REMARK VINA RESULT:      -4.2     10.559     11.237
REMARK  2 active torsions:
REMARK  status: ('A' for Active; 'I' for Inactive)
REMARK    1  A    between atoms: C4_4  and  C10_10 
REMARK    2  A    between atoms: C9_9  and  C10_10 
ROOT
HETATM    1  C1  UNL     1     -38.943  11.747   3.647  1.00 20.00     0.012 C 
HETATM    2  C2  UNL     1     -39.315  11.831   4.786  1.00 20.00    -0.117 C 
HETATM    3  C9  UNL     1     -39.768  11.931   6.181  1.00 20.00     0.097 C 
ENDROOT
BRANCH   3   4
HETATM    4  C10 UNL     1     -41.178  12.497   6.286  1.00 20.00     0.046 C 
BRANCH   4   5
HETATM    5  C4  UNL     1     -41.145  13.903   6.755  1.00 20.00    -0.081 C 
HETATM    6  C3  UNL     1     -41.870  14.891   6.194  1.00 20.00    -0.004 C 
HETATM    7  C8  UNL     1     -41.842  16.322   6.642  1.00 20.00     0.105 C 
HETATM    8  C7  UNL     1     -40.693  16.629   7.606  1.00 20.00     0.024 C 
HETATM    9 CL11 UNL     1     -43.417  16.696   7.411  1.00 20.00    -0.121 Cl
HETATM   10  C6  UNL     1     -40.508  15.516   8.633  1.00 20.00     0.006 C 
HETATM   11  C5  UNL     1     -40.249  14.175   7.944  1.00 20.00     0.034 C 
ENDBRANCH   4   5
ENDBRANCH   3   4
TORSDOF 2
ENDMDL
MODEL 9
REMARK VINA RESULT:      -4.1     12.205     13.346
REMARK  2 active torsions:
REMARK  status: ('A' for Active; 'I' for Inactive)
REMARK    1  A    between atoms: C4_4  and  C10_10 
REMARK    2  A    between atoms: C9_9  and  C10_10 
ROOT
HETATM    1  C1  UNL     1     -30.650  18.557   1.956  1.00 20.00     0.012 C 
HETATM    2  C2  UNL     1     -31.056  18.516   0.827  1.00 20.00    -0.117 C 
HETATM    3  C9  UNL     1     -31.550  18.465  -0.557  1.00 20.00     0.097 C 
ENDROOT
BRANCH   3   4
HETATM    4  C10 UNL     1     -33.070  18.534  -0.624  1.00 20.00     0.046 C 
BRANCH   4   5
HETATM    5  C4  UNL     1     -33.557  18.089  -1.952  1.00 20.00    -0.081 C 
HETATM    6  C3  UNL     1     -34.180  18.904  -2.827  1.00 20.00    -0.004 C 
HETATM    7  C8  UNL     1     -34.694  18.473  -4.169  1.00 20.00     0.105 C 
HETATM    8  C7  UNL     1     -34.719  16.952  -4.344  1.00 20.00     0.024 C 
HETATM    9 CL11 UNL     1     -33.668  19.229  -5.428  1.00 20.00    -0.121 Cl
HETATM   10  C6  UNL     1     -33.461  16.301  -3.776  1.00 20.00     0.006 C 
HETATM   11  C5  UNL     1     -33.293  16.638  -2.293  1.00 20.00     0.034 C 
ENDBRANCH   4   5
ENDBRANCH   3   4
TORSDOF 2
ENDMDL
