MODEL 1
REMARK VINA RESULT:      -4.3      0.000      0.000
REMARK  0 active torsions:
REMARK  status: ('A' for Active; 'I' for Inactive)
ROOT
HETATM    1  C1  UNL     1     -29.701  18.829   2.429  1.00 20.00     0.019 A 
HETATM    2  C2  UNL     1     -29.264  19.007   3.723  1.00 20.00     0.050 A 
HETATM    3  C3  UNL     1     -31.715  19.136   3.549  1.00 20.00     0.061 A 
HETATM    4  C4  UNL     1     -31.121  18.904   2.328  1.00 20.00    -0.023 A 
HETATM    5  C5  UNL     1     -33.182  18.819   0.970  1.00 20.00     0.058 A 
HETATM    6  C6  UNL     1     -31.854  18.760   1.135  1.00 20.00    -0.043 A 
HETATM    7  C7  UNL     1     -33.439  18.608  -0.461  1.00 20.00     0.150 A 
HETATM    8  C8  UNL     1     -31.104  18.510  -0.148  1.00 20.00     0.047 A 
HETATM    9  C9  UNL     1     -32.172  18.404  -1.230  1.00 20.00     0.087 A 
HETATM   10  O10 UNL     1     -34.561  18.604  -0.944  1.00 20.00    -0.293 OA
HETATM   11  S11 UNL     1     -30.563  19.263   4.810  1.00 20.00    -0.113 SA
ENDROOT
TORSDOF 0
ENDMDL
MODEL 2
REMARK VINA RESULT:      -4.3      1.067      1.889
REMARK  0 active torsions:
REMARK  status: ('A' for Active; 'I' for Inactive)
ROOT
HETATM    1  C1  UNL     1     -31.746  19.090   3.473  1.00 20.00     0.019 A 
HETATM    2  C2  UNL     1     -30.781  19.263   4.440  1.00 20.00     0.050 A 
HETATM    3  C3  UNL     1     -29.803  18.933   2.207  1.00 20.00     0.061 A 
HETATM    4  C4  UNL     1     -31.180  18.897   2.179  1.00 20.00    -0.023 A 
HETATM    5  C5  UNL     1     -31.449  18.511  -0.245  1.00 20.00     0.058 A 
HETATM    6  C6  UNL     1     -31.916  18.696   0.997  1.00 20.00    -0.043 A 
HETATM    7  C7  UNL     1     -32.621  18.347  -1.115  1.00 20.00     0.150 A 
HETATM    8  C8  UNL     1     -33.421  18.673   1.078  1.00 20.00     0.047 A 
HETATM    9  C9  UNL     1     -33.902  18.441  -0.349  1.00 20.00     0.087 A 
HETATM   10  O10 UNL     1     -32.537  18.158  -2.320  1.00 20.00    -0.293 OA
HETATM   11  S11 UNL     1     -29.199  19.195   3.788  1.00 20.00    -0.113 SA
ENDROOT
TORSDOF 0
ENDMDL
MODEL 3
REMARK VINA RESULT:      -4.2      3.169      4.995
REMARK  0 active torsions:
REMARK  status: ('A' for Active; 'I' for Inactive)
ROOT
HETATM    1  C1  UNL     1     -33.447  19.018   0.774  1.00 20.00     0.019 A 
HETATM    2  C2  UNL     1     -33.910  18.863  -0.514  1.00 20.00     0.050 A 
HETATM    3  C3  UNL     1     -31.480  18.512  -0.356  1.00 20.00     0.061 A 
HETATM    4  C4  UNL     1     -32.039  18.815   0.865  1.00 20.00    -0.023 A 
HETATM    5  C5  UNL     1     -29.967  18.727   2.206  1.00 20.00     0.058 A 
HETATM    6  C6  UNL     1     -31.286  18.905   2.051  1.00 20.00    -0.043 A 
HETATM    7  C7  UNL     1     -29.679  18.934   3.632  1.00 20.00     0.150 A 
HETATM    8  C8  UNL     1     -31.997  19.246   3.335  1.00 20.00     0.047 A 
HETATM    9  C9  UNL     1     -30.915  19.263   4.407  1.00 20.00     0.087 A 
HETATM   10  O10 UNL     1     -28.557  18.843   4.107  1.00 20.00    -0.293 OA
HETATM   11  S11 UNL     1     -32.649  18.473  -1.607  1.00 20.00    -0.113 SA
ENDROOT
TORSDOF 0
ENDMDL
MODEL 4
REMARK VINA RESULT:      -4.2      3.094      4.633
REMARK  0 active torsions:
REMARK  status: ('A' for Active; 'I' for Inactive)
ROOT
HETATM    1  C1  UNL     1     -31.965  18.300  -0.916  1.00 20.00     0.019 A 
HETATM    2  C2  UNL     1     -32.904  18.346  -1.922  1.00 20.00     0.050 A 
HETATM    3  C3  UNL     1     -33.839  19.036   0.246  1.00 20.00     0.061 A 
HETATM    4  C4  UNL     1     -32.507  18.699   0.341  1.00 20.00    -0.023 A 
HETATM    5  C5  UNL     1     -32.233  19.119   2.759  1.00 20.00     0.058 A 
HETATM    6  C6  UNL     1     -31.787  18.754   1.549  1.00 20.00    -0.043 A 
HETATM    7  C7  UNL     1     -31.095  19.001   3.680  1.00 20.00     0.150 A 
HETATM    8  C8  UNL     1     -30.333  18.361   1.543  1.00 20.00     0.047 A 
HETATM    9  C9  UNL     1     -29.859  18.530   2.981  1.00 20.00     0.087 A 
HETATM   10  O10 UNL     1     -31.169  19.263   4.871  1.00 20.00    -0.293 OA
HETATM   11  S11 UNL     1     -34.432  18.870  -1.352  1.00 20.00    -0.113 SA
ENDROOT
TORSDOF 0
ENDMDL
MODEL 5
REMARK VINA RESULT:      -4.2      3.257      5.069
REMARK  0 active torsions:
REMARK  status: ('A' for Active; 'I' for Inactive)
ROOT
HETATM    1  C1  UNL     1     -34.207  18.919  -0.262  1.00 20.00     0.019 A 
HETATM    2  C2  UNL     1     -34.722  18.669  -1.515  1.00 20.00     0.050 A 
HETATM    3  C3  UNL     1     -32.362  17.998  -1.335  1.00 20.00     0.061 A 
HETATM    4  C4  UNL     1     -32.840  18.531  -0.158  1.00 20.00    -0.023 A 
HETATM    5  C5  UNL     1     -30.764  18.320   1.164  1.00 20.00     0.058 A 
HETATM    6  C6  UNL     1     -32.048  18.664   0.999  1.00 20.00    -0.043 A 
HETATM    7  C7  UNL     1     -30.411  18.665   2.547  1.00 20.00     0.150 A 
HETATM    8  C8  UNL     1     -32.669  19.263   2.234  1.00 20.00     0.047 A 
HETATM    9  C9  UNL     1     -31.567  19.263   3.285  1.00 20.00     0.087 A 
HETATM   10  O10 UNL     1     -29.300  18.476   3.020  1.00 20.00    -0.293 OA
HETATM   11  S11 UNL     1     -33.560  17.967  -2.559  1.00 20.00    -0.113 SA
ENDROOT
TORSDOF 0
ENDMDL
MODEL 6
REMARK VINA RESULT:      -3.9      4.714      6.333
REMARK  0 active torsions:
REMARK  status: ('A' for Active; 'I' for Inactive)
ROOT
HETATM    1  C1  UNL     1     -33.293  17.019  -1.706  1.00 20.00     0.019 A 
HETATM    2  C2  UNL     1     -33.401  17.955  -0.701  1.00 20.00     0.050 A 
HETATM    3  C3  UNL     1     -34.707  18.580  -2.689  1.00 20.00     0.061 A 
HETATM    4  C4  UNL     1     -34.049  17.382  -2.859  1.00 20.00    -0.023 A 
HETATM    5  C5  UNL     1     -34.821  16.905  -5.155  1.00 20.00     0.058 A 
HETATM    6  C6  UNL     1     -34.132  16.624  -4.042  1.00 20.00    -0.043 A 
HETATM    7  C7  UNL     1     -34.576  15.801  -6.092  1.00 20.00     0.150 A 
HETATM    8  C8  UNL     1     -33.370  15.327  -4.123  1.00 20.00     0.047 A 
HETATM    9  C9  UNL     1     -33.669  14.765  -5.507  1.00 20.00     0.087 A 
HETATM   10  O10 UNL     1     -35.064  15.753  -7.212  1.00 20.00    -0.293 OA
HETATM   11  S11 UNL     1     -34.412  19.263  -1.147  1.00 20.00    -0.113 SA
ENDROOT
TORSDOF 0
ENDMDL
MODEL 7
REMARK VINA RESULT:      -3.8      5.408      7.183
REMARK  0 active torsions:
REMARK  status: ('A' for Active; 'I' for Inactive)
ROOT
HETATM    1  C1  UNL     1     -33.389  18.682  -3.958  1.00 20.00     0.019 A 
HETATM    2  C2  UNL     1     -32.814  19.036  -2.758  1.00 20.00     0.050 A 
HETATM    3  C3  UNL     1     -33.567  16.694  -2.767  1.00 20.00     0.061 A 
HETATM    4  C4  UNL     1     -33.826  17.325  -3.964  1.00 20.00    -0.023 A 
HETATM    5  C5  UNL     1     -34.881  15.416  -5.121  1.00 20.00     0.058 A 
HETATM    6  C6  UNL     1     -34.448  16.682  -5.050  1.00 20.00    -0.043 A 
HETATM    7  C7  UNL     1     -35.454  15.242  -6.463  1.00 20.00     0.150 A 
HETATM    8  C8  UNL     1     -34.686  17.466  -6.314  1.00 20.00     0.047 A 
HETATM    9  C9  UNL     1     -35.363  16.495  -7.274  1.00 20.00     0.087 A 
HETATM   10  O10 UNL     1     -35.940  14.190  -6.850  1.00 20.00    -0.293 OA
HETATM   11  S11 UNL     1     -32.801  17.735  -1.644  1.00 20.00    -0.113 SA
ENDROOT
TORSDOF 0
ENDMDL
MODEL 8
REMARK VINA RESULT:      -3.8      3.788      5.873
REMARK  0 active torsions:
REMARK  status: ('A' for Active; 'I' for Inactive)
ROOT
HETATM    1  C1  UNL     1     -35.114  18.604  -2.253  1.00 20.00     0.019 A 
HETATM    2  C2  UNL     1     -35.554  18.406  -3.543  1.00 20.00     0.050 A 
HETATM    3  C3  UNL     1     -33.114  18.161  -3.351  1.00 20.00     0.061 A 
HETATM    4  C4  UNL     1     -33.701  18.463  -2.142  1.00 20.00    -0.023 A 
HETATM    5  C5  UNL     1     -31.644  18.488  -0.776  1.00 20.00     0.058 A 
HETATM    6  C6  UNL     1     -32.966  18.607  -0.950  1.00 20.00    -0.043 A 
HETATM    7  C7  UNL     1     -31.382  18.734   0.648  1.00 20.00     0.150 A 
HETATM    8  C8  UNL     1     -33.707  18.941   0.319  1.00 20.00     0.047 A 
HETATM    9  C9  UNL     1     -32.640  19.024   1.404  1.00 20.00     0.087 A 
HETATM   10  O10 UNL     1     -30.263  18.699   1.138  1.00 20.00    -0.293 OA
HETATM   11  S11 UNL     1     -34.266  18.050  -4.614  1.00 20.00    -0.113 SA
ENDROOT
TORSDOF 0
ENDMDL
MODEL 9
REMARK VINA RESULT:      -3.8      5.620      7.819
REMARK  0 active torsions:
REMARK  status: ('A' for Active; 'I' for Inactive)
ROOT
HETATM    1  C1  UNL     1     -33.949  15.513  -5.480  1.00 20.00     0.019 A 
HETATM    2  C2  UNL     1     -34.383  15.212  -6.753  1.00 20.00     0.050 A 
HETATM    3  C3  UNL     1     -35.555  17.160  -5.812  1.00 20.00     0.061 A 
HETATM    4  C4  UNL     1     -34.629  16.641  -4.935  1.00 20.00    -0.023 A 
HETATM    5  C5  UNL     1     -34.999  18.235  -3.086  1.00 20.00     0.058 A 
HETATM    6  C6  UNL     1     -34.399  17.182  -3.656  1.00 20.00    -0.043 A 
HETATM    7  C7  UNL     1     -34.404  18.386  -1.751  1.00 20.00     0.150 A 
HETATM    8  C8  UNL     1     -33.363  16.535  -2.774  1.00 20.00     0.047 A 
HETATM    9  C9  UNL     1     -33.360  17.348  -1.486  1.00 20.00     0.087 A 
HETATM   10  O10 UNL     1     -34.736  19.263  -0.967  1.00 20.00    -0.293 OA
HETATM   11  S11 UNL     1     -35.604  16.289  -7.286  1.00 20.00    -0.113 SA
ENDROOT
TORSDOF 0
ENDMDL
