MODEL 1
REMARK VINA RESULT:      -4.3      0.000      0.000
REMARK  1 active torsions:
REMARK  status: ('A' for Active; 'I' for Inactive)
REMARK    1  A    between atoms: C2_2  and  C10_10 
ROOT
HETATM    1  C1  UNL     1     -33.606  17.126  -1.343  1.00 20.00    -0.004 C 
HETATM    2  C2  UNL     1     -33.839  17.707  -2.527  1.00 20.00    -0.078 C 
HETATM    3  C3  UNL     1     -34.186  19.155  -2.371  1.00 20.00     0.036 C 
HETATM    4  C4  UNL     1     -34.486  19.263  -0.875  1.00 20.00     0.028 C 
HETATM    5  C9  UNL     1     -33.759  18.089  -0.214  1.00 20.00     0.105 C 
HETATM    6 CL12 UNL     1     -32.156  18.566   0.388  1.00 20.00    -0.121 Cl
ENDROOT
BRANCH   2   7
HETATM    7  C10 UNL     1     -33.750  17.060  -3.896  1.00 20.00     0.018 C 
HETATM    8  C5  UNL     1     -33.532  15.564  -3.704  1.00 20.00     0.035 C 
HETATM    9  C7  UNL     1     -33.679  14.833  -5.033  1.00 20.00     0.168 C 
HETATM   10  O11 UNL     1     -34.948  15.110  -5.626  1.00 20.00    -0.391 OA
HETATM   11  C8  UNL     1     -35.118  16.497  -5.914  1.00 20.00     0.168 C 
HETATM   12  C6  UNL     1     -35.055  17.325  -4.636  1.00 20.00     0.035 C 
ENDBRANCH   2   7
TORSDOF 1
ENDMDL
MODEL 2
REMARK VINA RESULT:      -4.1      3.207      5.076
REMARK  1 active torsions:
REMARK  status: ('A' for Active; 'I' for Inactive)
REMARK    1  A    between atoms: C2_2  and  C10_10 
ROOT
HETATM    1  C1  UNL     1     -32.895  16.409  -3.109  1.00 20.00    -0.004 C 
HETATM    2  C2  UNL     1     -33.570  17.505  -2.738  1.00 20.00    -0.078 C 
HETATM    3  C3  UNL     1     -34.714  17.785  -3.662  1.00 20.00     0.036 C 
HETATM    4  C4  UNL     1     -34.395  16.893  -4.863  1.00 20.00     0.028 C 
HETATM    5  C9  UNL     1     -33.477  15.788  -4.334  1.00 20.00     0.105 C 
HETATM    6 CL12 UNL     1     -34.394  14.332  -3.889  1.00 20.00    -0.121 Cl
ENDROOT
BRANCH   2   7
HETATM    7  C10 UNL     1     -33.297  18.382  -1.531  1.00 20.00     0.018 C 
HETATM    8  C5  UNL     1     -34.076  17.822  -0.348  1.00 20.00     0.035 C 
HETATM    9  C7  UNL     1     -33.650  18.515   0.941  1.00 20.00     0.168 C 
HETATM   10  O11 UNL     1     -32.241  18.401   1.135  1.00 20.00    -0.391 OA
HETATM   11  C8  UNL     1     -31.499  19.023   0.086  1.00 20.00     0.168 C 
HETATM   12  C6  UNL     1     -31.800  18.358  -1.253  1.00 20.00     0.035 C 
ENDBRANCH   2   7
TORSDOF 1
ENDMDL
MODEL 3
REMARK VINA RESULT:      -3.9     24.352     25.480
REMARK  1 active torsions:
REMARK  status: ('A' for Active; 'I' for Inactive)
REMARK    1  A    between atoms: C2_2  and  C10_10 
ROOT
HETATM    1  C1  UNL     1     -24.891  -3.759   9.725  1.00 20.00    -0.004 C 
HETATM    2  C2  UNL     1     -25.107  -2.857  10.691  1.00 20.00    -0.078 C 
HETATM    3  C3  UNL     1     -23.828  -2.243  11.168  1.00 20.00     0.036 C 
HETATM    4  C4  UNL     1     -22.773  -3.190  10.592  1.00 20.00     0.028 C 
HETATM    5  C9  UNL     1     -23.439  -3.891   9.405  1.00 20.00     0.105 C 
HETATM    6 CL12 UNL     1     -23.087  -3.063   7.872  1.00 20.00    -0.121 Cl
ENDROOT
BRANCH   2   7
HETATM    7  C10 UNL     1     -26.447  -2.430  11.259  1.00 20.00     0.018 C 
HETATM    8  C5  UNL     1     -26.330  -0.983  11.723  1.00 20.00     0.035 C 
HETATM    9  C7  UNL     1     -27.705  -0.428  12.075  1.00 20.00     0.168 C 
HETATM   10  O11 UNL     1     -28.601  -0.558  10.973  1.00 20.00    -0.391 OA
HETATM   11  C8  UNL     1     -28.807  -1.921  10.602  1.00 20.00     0.168 C 
HETATM   12  C6  UNL     1     -27.496  -2.562  10.162  1.00 20.00     0.035 C 
ENDBRANCH   2   7
TORSDOF 1
ENDMDL
MODEL 4
REMARK VINA RESULT:      -3.9      1.458      2.005
REMARK  1 active torsions:
REMARK  status: ('A' for Active; 'I' for Inactive)
REMARK    1  A    between atoms: C2_2  and  C10_10 
ROOT
HETATM    1  C1  UNL     1     -34.190  18.744  -3.206  1.00 20.00    -0.004 C 
HETATM    2  C2  UNL     1     -34.134  17.466  -3.601  1.00 20.00    -0.078 C 
HETATM    3  C3  UNL     1     -33.459  16.604  -2.581  1.00 20.00     0.036 C 
HETATM    4  C4  UNL     1     -32.786  17.634  -1.671  1.00 20.00     0.028 C 
HETATM    5  C9  UNL     1     -33.563  18.938  -1.866  1.00 20.00     0.105 C 
HETATM    6 CL12 UNL     1     -34.831  19.137  -0.636  1.00 20.00    -0.121 Cl
ENDROOT
BRANCH   2   7
HETATM    7  C10 UNL     1     -34.690  16.881  -4.885  1.00 20.00     0.018 C 
HETATM    8  C5  UNL     1     -34.559  15.364  -4.815  1.00 20.00     0.035 C 
HETATM    9  C7  UNL     1     -35.320  14.714  -5.964  1.00 20.00     0.168 C 
HETATM   10  O11 UNL     1     -36.686  15.126  -5.964  1.00 20.00    -0.391 OA
HETATM   11  C8  UNL     1     -36.825  16.535  -6.143  1.00 20.00     0.168 C 
HETATM   12  C6  UNL     1     -36.152  17.291  -5.003  1.00 20.00     0.035 C 
ENDBRANCH   2   7
TORSDOF 1
ENDMDL
MODEL 5
REMARK VINA RESULT:      -3.6      2.287      3.624
REMARK  1 active torsions:
REMARK  status: ('A' for Active; 'I' for Inactive)
REMARK    1  A    between atoms: C2_2  and  C10_10 
ROOT
HETATM    1  C1  UNL     1     -33.999  17.659  -4.166  1.00 20.00    -0.004 C 
HETATM    2  C2  UNL     1     -34.738  16.826  -4.911  1.00 20.00    -0.078 C 
HETATM    3  C3  UNL     1     -34.395  15.395  -4.640  1.00 20.00     0.036 C 
HETATM    4  C4  UNL     1     -33.070  15.510  -3.882  1.00 20.00     0.028 C 
HETATM    5  C9  UNL     1     -33.049  16.919  -3.284  1.00 20.00     0.105 C 
HETATM    6 CL12 UNL     1     -33.651  16.931  -1.612  1.00 20.00    -0.121 Cl
ENDROOT
BRANCH   2   7
HETATM    7  C10 UNL     1     -35.826  17.205  -5.897  1.00 20.00     0.018 C 
HETATM    8  C5  UNL     1     -35.819  16.185  -7.030  1.00 20.00     0.035 C 
HETATM    9  C7  UNL     1     -37.044  16.373  -7.918  1.00 20.00     0.168 C 
HETATM   10  O11 UNL     1     -38.243  16.300  -7.148  1.00 20.00    -0.391 OA
HETATM   11  C8  UNL     1     -38.312  17.323  -6.156  1.00 20.00     0.168 C 
HETATM   12  C6  UNL     1     -37.161  17.189  -5.164  1.00 20.00     0.035 C 
ENDBRANCH   2   7
TORSDOF 1
ENDMDL
MODEL 6
REMARK VINA RESULT:      -3.4     24.881     25.924
REMARK  1 active torsions:
REMARK  status: ('A' for Active; 'I' for Inactive)
REMARK    1  A    between atoms: C2_2  and  C10_10 
ROOT
HETATM    1  C1  UNL     1     -27.376  -2.668  10.051  1.00 20.00    -0.004 C 
HETATM    2  C2  UNL     1     -26.268  -2.577  10.798  1.00 20.00    -0.078 C 
HETATM    3  C3  UNL     1     -26.339  -1.424  11.750  1.00 20.00     0.036 C 
HETATM    4  C4  UNL     1     -27.512  -0.612  11.197  1.00 20.00     0.028 C 
HETATM    5  C9  UNL     1     -28.357  -1.594  10.383  1.00 20.00     0.105 C 
HETATM    6 CL12 UNL     1     -29.685  -2.275  11.349  1.00 20.00    -0.121 Cl
ENDROOT
BRANCH   2   7
HETATM    7  C10 UNL     1     -25.068  -3.504  10.769  1.00 20.00     0.018 C 
HETATM    8  C5  UNL     1     -24.247  -3.185   9.526  1.00 20.00     0.035 C 
HETATM    9  C7  UNL     1     -22.909  -3.913   9.574  1.00 20.00     0.168 C 
HETATM   10  O11 UNL     1     -22.201  -3.593  10.771  1.00 20.00    -0.391 OA
HETATM   11  C8  UNL     1     -22.913  -3.992  11.943  1.00 20.00     0.168 C 
HETATM   12  C6  UNL     1     -24.251  -3.267  12.033  1.00 20.00     0.035 C 
ENDBRANCH   2   7
TORSDOF 1
ENDMDL
MODEL 7
REMARK VINA RESULT:      -3.4      1.381      2.085
REMARK  1 active torsions:
REMARK  status: ('A' for Active; 'I' for Inactive)
REMARK    1  A    between atoms: C2_2  and  C10_10 
ROOT
HETATM    1  C1  UNL     1     -33.459  17.371  -1.749  1.00 20.00    -0.004 C 
HETATM    2  C2  UNL     1     -34.395  18.125  -2.341  1.00 20.00    -0.078 C 
HETATM    3  C3  UNL     1     -34.829  19.255  -1.461  1.00 20.00     0.036 C 
HETATM    4  C4  UNL     1     -34.272  18.844  -0.097  1.00 20.00     0.028 C 
HETATM    5  C9  UNL     1     -33.122  17.875  -0.386  1.00 20.00     0.105 C 
HETATM    6 CL12 UNL     1     -31.555  18.712  -0.428  1.00 20.00    -0.121 Cl
ENDROOT
BRANCH   2   7
HETATM    7  C10 UNL     1     -34.968  17.944  -3.734  1.00 20.00     0.018 C 
HETATM    8  C5  UNL     1     -34.691  19.212  -4.532  1.00 20.00     0.035 C 
HETATM    9  C7  UNL     1     -35.025  18.995  -6.003  1.00 20.00     0.168 C 
HETATM   10  O11 UNL     1     -34.310  17.876  -6.525  1.00 20.00    -0.391 OA
HETATM   11  C8  UNL     1     -34.647  16.660  -5.857  1.00 20.00     0.168 C 
HETATM   12  C6  UNL     1     -34.289  16.742  -4.378  1.00 20.00     0.035 C 
ENDBRANCH   2   7
TORSDOF 1
ENDMDL
MODEL 8
REMARK VINA RESULT:      -3.3     11.235     12.378
REMARK  1 active torsions:
REMARK  status: ('A' for Active; 'I' for Inactive)
REMARK    1  A    between atoms: C2_2  and  C10_10 
ROOT
HETATM    1  C1  UNL     1     -32.054   7.551   1.870  1.00 20.00    -0.004 C 
HETATM    2  C2  UNL     1     -32.737   7.832   2.987  1.00 20.00    -0.078 C 
HETATM    3  C3  UNL     1     -33.305   9.216   2.951  1.00 20.00     0.036 C 
HETATM    4  C4  UNL     1     -32.539   9.857   1.790  1.00 20.00     0.028 C 
HETATM    5  C9  UNL     1     -32.055   8.698   0.916  1.00 20.00     0.105 C 
HETATM    6 CL12 UNL     1     -33.182   8.366  -0.417  1.00 20.00    -0.121 Cl
ENDROOT
BRANCH   2   7
HETATM    7  C10 UNL     1     -32.982   6.910   4.166  1.00 20.00     0.018 C 
HETATM    8  C5  UNL     1     -33.635   7.720   5.279  1.00 20.00     0.035 C 
HETATM    9  C7  UNL     1     -34.124   6.796   6.389  1.00 20.00     0.168 C 
HETATM   10  O11 UNL     1     -35.008   5.804   5.869  1.00 20.00    -0.391 OA
HETATM   11  C8  UNL     1     -34.372   4.965   4.905  1.00 20.00     0.168 C 
HETATM   12  C6  UNL     1     -33.899   5.783   3.709  1.00 20.00     0.035 C 
ENDBRANCH   2   7
TORSDOF 1
ENDMDL
MODEL 9
REMARK VINA RESULT:      -3.2     13.226     15.054
REMARK  1 active torsions:
REMARK  status: ('A' for Active; 'I' for Inactive)
REMARK    1  A    between atoms: C2_2  and  C10_10 
ROOT
HETATM    1  C1  UNL     1     -40.472  14.155   7.289  1.00 20.00    -0.004 C 
HETATM    2  C2  UNL     1     -41.494  14.118   8.153  1.00 20.00    -0.078 C 
HETATM    3  C3  UNL     1     -42.671  13.390   7.581  1.00 20.00     0.036 C 
HETATM    4  C4  UNL     1     -42.323  13.317   6.093  1.00 20.00     0.028 C 
HETATM    5  C9  UNL     1     -40.801  13.462   6.009  1.00 20.00     0.105 C 
HETATM    6 CL12 UNL     1     -39.993  11.880   5.960  1.00 20.00    -0.121 Cl
ENDROOT
BRANCH   2   7
HETATM    7  C10 UNL     1     -41.524  14.684   9.559  1.00 20.00     0.018 C 
HETATM    8  C5  UNL     1     -42.133  13.636  10.484  1.00 20.00     0.035 C 
HETATM    9  C7  UNL     1     -41.963  14.053  11.940  1.00 20.00     0.168 C 
HETATM   10  O11 UNL     1     -40.589  14.290  12.242  1.00 20.00    -0.391 OA
HETATM   11  C8  UNL     1     -40.038  15.349  11.460  1.00 20.00     0.168 C 
HETATM   12  C6  UNL     1     -40.095  15.006   9.975  1.00 20.00     0.035 C 
ENDBRANCH   2   7
TORSDOF 1
ENDMDL
