MODEL 1
REMARK VINA RESULT:      -5.3      0.000      0.000
REMARK  2 active torsions:
REMARK  status: ('A' for Active; 'I' for Inactive)
REMARK    1  A    between atoms: C2_2  and  C8_8 
REMARK    2  A    between atoms: C4_4  and  C8_8 
ROOT
HETATM    1  C1  UNL     1     -34.695   6.515   4.425  1.00 20.00    -0.004 C 
HETATM    2  C2  UNL     1     -34.008   7.289   5.274  1.00 20.00    -0.079 C 
HETATM    3  C5  UNL     1     -33.708   6.571   6.553  1.00 20.00     0.036 C 
HETATM    4  C6  UNL     1     -34.650   5.366   6.484  1.00 20.00     0.028 C 
HETATM    5  C7  UNL     1     -34.965   5.163   5.000  1.00 20.00     0.105 C 
HETATM    6 CL9  UNL     1     -33.880   3.969   4.256  1.00 20.00    -0.121 Cl
ENDROOT
BRANCH   2   7
HETATM    7  C8  UNL     1     -33.534   8.676   5.036  1.00 20.00     0.060 C 
BRANCH   7   8
HETATM    8  C4  UNL     1     -32.248   8.716   4.262  1.00 20.00    -0.033 C 
HETATM    9  C3  UNL     1     -31.916   7.834   3.313  1.00 20.00     0.007 C 
ENDBRANCH   7   8
ENDBRANCH   2   7
TORSDOF 2
ENDMDL
MODEL 2
REMARK VINA RESULT:      -5.1      1.972      3.848
REMARK  2 active torsions:
REMARK  status: ('A' for Active; 'I' for Inactive)
REMARK    1  A    between atoms: C2_2  and  C8_8 
REMARK    2  A    between atoms: C4_4  and  C8_8 
ROOT
HETATM    1  C1  UNL     1     -32.976   6.332   3.238  1.00 20.00    -0.004 C 
HETATM    2  C2  UNL     1     -33.923   6.699   4.110  1.00 20.00    -0.079 C 
HETATM    3  C5  UNL     1     -33.674   8.076   4.644  1.00 20.00     0.036 C 
HETATM    4  C6  UNL     1     -32.222   8.332   4.234  1.00 20.00     0.028 C 
HETATM    5  C7  UNL     1     -31.948   7.399   3.052  1.00 20.00     0.105 C 
HETATM    6 CL9  UNL     1     -32.209   8.217   1.496  1.00 20.00    -0.121 Cl
ENDROOT
BRANCH   2   7
HETATM    7  C8  UNL     1     -35.116   5.916   4.519  1.00 20.00     0.060 C 
BRANCH   7   8
HETATM    8  C4  UNL     1     -34.840   5.028   5.698  1.00 20.00    -0.033 C 
HETATM    9  C3  UNL     1     -34.064   5.373   6.732  1.00 20.00     0.007 C 
ENDBRANCH   7   8
ENDBRANCH   2   7
TORSDOF 2
ENDMDL
MODEL 3
REMARK VINA RESULT:      -4.6      1.592      2.209
REMARK  2 active torsions:
REMARK  status: ('A' for Active; 'I' for Inactive)
REMARK    1  A    between atoms: C2_2  and  C8_8 
REMARK    2  A    between atoms: C4_4  and  C8_8 
ROOT
HETATM    1  C1  UNL     1     -34.007   6.256   4.115  1.00 20.00    -0.004 C 
HETATM    2  C2  UNL     1     -33.038   7.164   3.949  1.00 20.00    -0.079 C 
HETATM    3  C5  UNL     1     -32.865   8.014   5.169  1.00 20.00     0.036 C 
HETATM    4  C6  UNL     1     -34.140   7.716   5.962  1.00 20.00     0.028 C 
HETATM    5  C7  UNL     1     -34.636   6.356   5.467  1.00 20.00     0.105 C 
HETATM    6 CL9  UNL     1     -34.053   5.030   6.496  1.00 20.00    -0.121 Cl
ENDROOT
BRANCH   2   7
HETATM    7  C8  UNL     1     -32.175   7.343   2.754  1.00 20.00     0.060 C 
BRANCH   7   8
HETATM    8  C4  UNL     1     -32.472   8.618   2.020  1.00 20.00    -0.033 C 
HETATM    9  C3  UNL     1     -32.429   8.747   0.690  1.00 20.00     0.007 C 
ENDBRANCH   7   8
ENDBRANCH   2   7
TORSDOF 2
ENDMDL
MODEL 4
REMARK VINA RESULT:      -4.2      2.072      4.011
REMARK  2 active torsions:
REMARK  status: ('A' for Active; 'I' for Inactive)
REMARK    1  A    between atoms: C2_2  and  C8_8 
REMARK    2  A    between atoms: C4_4  and  C8_8 
ROOT
HETATM    1  C1  UNL     1     -33.997   7.941   4.289  1.00 20.00    -0.004 C 
HETATM    2  C2  UNL     1     -33.992   6.625   4.044  1.00 20.00    -0.079 C 
HETATM    3  C5  UNL     1     -32.757   6.208   3.309  1.00 20.00     0.036 C 
HETATM    4  C6  UNL     1     -32.194   7.545   2.822  1.00 20.00     0.028 C 
HETATM    5  C7  UNL     1     -32.772   8.610   3.756  1.00 20.00     0.105 C 
HETATM    6 CL9  UNL     1     -31.663   8.980   5.095  1.00 20.00    -0.121 Cl
ENDROOT
BRANCH   2   7
HETATM    7  C8  UNL     1     -35.022   5.636   4.450  1.00 20.00     0.060 C 
BRANCH   7   8
HETATM    8  C4  UNL     1     -34.708   4.992   5.769  1.00 20.00    -0.033 C 
HETATM    9  C3  UNL     1     -34.079   5.609   6.775  1.00 20.00     0.007 C 
ENDBRANCH   7   8
ENDBRANCH   2   7
TORSDOF 2
ENDMDL
MODEL 5
REMARK VINA RESULT:      -4.1      1.961      2.687
REMARK  2 active torsions:
REMARK  status: ('A' for Active; 'I' for Inactive)
REMARK    1  A    between atoms: C2_2  and  C8_8 
REMARK    2  A    between atoms: C4_4  and  C8_8 
ROOT
HETATM    1  C1  UNL     1     -33.623   7.036   4.512  1.00 20.00    -0.004 C 
HETATM    2  C2  UNL     1     -32.839   6.945   3.431  1.00 20.00    -0.079 C 
HETATM    3  C5  UNL     1     -32.951   5.601   2.782  1.00 20.00     0.036 C 
HETATM    4  C6  UNL     1     -33.647   4.770   3.863  1.00 20.00     0.028 C 
HETATM    5  C7  UNL     1     -34.379   5.772   4.758  1.00 20.00     0.105 C 
HETATM    6 CL9  UNL     1     -36.072   5.982   4.261  1.00 20.00    -0.121 Cl
ENDROOT
BRANCH   2   7
HETATM    7  C8  UNL     1     -31.970   8.008   2.864  1.00 20.00     0.060 C 
BRANCH   7   8
HETATM    8  C4  UNL     1     -32.170   8.180   1.386  1.00 20.00    -0.033 C 
HETATM    9  C3  UNL     1     -32.692   9.275   0.822  1.00 20.00     0.007 C 
ENDBRANCH   7   8
ENDBRANCH   2   7
TORSDOF 2
ENDMDL
MODEL 6
REMARK VINA RESULT:      -4.0     12.522     12.943
REMARK  2 active torsions:
REMARK  status: ('A' for Active; 'I' for Inactive)
REMARK    1  A    between atoms: C2_2  and  C8_8 
REMARK    2  A    between atoms: C4_4  and  C8_8 
ROOT
HETATM    1  C1  UNL     1     -31.879  18.432  -1.063  1.00 20.00    -0.004 C 
HETATM    2  C2  UNL     1     -31.965  18.485   0.271  1.00 20.00    -0.079 C 
HETATM    3  C5  UNL     1     -33.383  18.369   0.736  1.00 20.00     0.036 C 
HETATM    4  C6  UNL     1     -34.174  18.612  -0.552  1.00 20.00     0.028 C 
HETATM    5  C7  UNL     1     -33.221  18.274  -1.701  1.00 20.00     0.105 C 
HETATM    6 CL9  UNL     1     -33.427  16.598  -2.254  1.00 20.00    -0.121 Cl
ENDROOT
BRANCH   2   7
HETATM    7  C8  UNL     1     -30.843  18.604   1.236  1.00 20.00     0.060 C 
BRANCH   7   8
HETATM    8  C4  UNL     1     -31.318  18.864   2.636  1.00 20.00    -0.033 C 
HETATM    9  C3  UNL     1     -30.511  18.962   3.698  1.00 20.00     0.007 C 
ENDBRANCH   7   8
ENDBRANCH   2   7
TORSDOF 2
ENDMDL
MODEL 7
REMARK VINA RESULT:      -3.9     12.415     13.342
REMARK  2 active torsions:
REMARK  status: ('A' for Active; 'I' for Inactive)
REMARK    1  A    between atoms: C2_2  and  C8_8 
REMARK    2  A    between atoms: C4_4  and  C8_8 
ROOT
HETATM    1  C1  UNL     1     -33.745  15.073  -4.031  1.00 20.00    -0.004 C 
HETATM    2  C2  UNL     1     -33.828  16.295  -3.490  1.00 20.00    -0.079 C 
HETATM    3  C5  UNL     1     -34.482  17.266  -4.423  1.00 20.00     0.036 C 
HETATM    4  C6  UNL     1     -34.443  16.519  -5.758  1.00 20.00     0.028 C 
HETATM    5  C7  UNL     1     -34.326  15.034  -5.407  1.00 20.00     0.105 C 
HETATM    6 CL9  UNL     1     -35.917  14.243  -5.362  1.00 20.00    -0.121 Cl
ENDROOT
BRANCH   2   7
HETATM    7  C8  UNL     1     -33.386  16.704  -2.133  1.00 20.00     0.060 C 
BRANCH   7   8
HETATM    8  C4  UNL     1     -32.845  18.104  -2.106  1.00 20.00    -0.033 C 
HETATM    9  C3  UNL     1     -32.072  18.591  -1.130  1.00 20.00     0.007 C 
ENDBRANCH   7   8
ENDBRANCH   2   7
TORSDOF 2
ENDMDL
MODEL 8
REMARK VINA RESULT:      -3.9     12.539     13.325
REMARK  2 active torsions:
REMARK  status: ('A' for Active; 'I' for Inactive)
REMARK    1  A    between atoms: C2_2  and  C8_8 
REMARK    2  A    between atoms: C4_4  and  C8_8 
ROOT
HETATM    1  C1  UNL     1     -34.451  16.783  -4.897  1.00 20.00    -0.004 C 
HETATM    2  C2  UNL     1     -33.730  16.307  -3.875  1.00 20.00    -0.079 C 
HETATM    3  C5  UNL     1     -33.697  14.811  -3.875  1.00 20.00     0.036 C 
HETATM    4  C6  UNL     1     -34.825  14.456  -4.848  1.00 20.00     0.028 C 
HETATM    5  C7  UNL     1     -35.015  15.685  -5.739  1.00 20.00     0.105 C 
HETATM    6 CL9  UNL     1     -34.086  15.552  -7.248  1.00 20.00    -0.121 Cl
ENDROOT
BRANCH   2   7
HETATM    7  C8  UNL     1     -32.996  17.096  -2.854  1.00 20.00     0.060 C 
BRANCH   7   8
HETATM    8  C4  UNL     1     -33.685  17.087  -1.520  1.00 20.00    -0.033 C 
HETATM    9  C3  UNL     1     -33.499  18.012  -0.572  1.00 20.00     0.007 C 
ENDBRANCH   7   8
ENDBRANCH   2   7
TORSDOF 2
ENDMDL
MODEL 9
REMARK VINA RESULT:      -3.8      9.573     10.437
REMARK  2 active torsions:
REMARK  status: ('A' for Active; 'I' for Inactive)
REMARK    1  A    between atoms: C2_2  and  C8_8 
REMARK    2  A    between atoms: C4_4  and  C8_8 
ROOT
HETATM    1  C1  UNL     1     -40.869  13.755   7.486  1.00 20.00    -0.004 C 
HETATM    2  C2  UNL     1     -40.825  13.126   6.306  1.00 20.00    -0.079 C 
HETATM    3  C5  UNL     1     -41.562  13.887   5.249  1.00 20.00     0.036 C 
HETATM    4  C6  UNL     1     -42.375  14.891   6.070  1.00 20.00     0.028 C 
HETATM    5  C7  UNL     1     -41.642  15.031   7.407  1.00 20.00     0.105 C 
HETATM    6 CL9  UNL     1     -40.521  16.410   7.400  1.00 20.00    -0.121 Cl
ENDROOT
BRANCH   2   7
HETATM    7  C8  UNL     1     -40.124  11.854   5.995  1.00 20.00     0.060 C 
BRANCH   7   8
HETATM    8  C4  UNL     1     -38.949  12.057   5.083  1.00 20.00    -0.033 C 
HETATM    9  C3  UNL     1     -38.908  11.648   3.810  1.00 20.00     0.007 C 
ENDBRANCH   7   8
ENDBRANCH   2   7
TORSDOF 2
ENDMDL
