MODEL 1
REMARK VINA RESULT:      -4.4      0.000      0.000
REMARK  1 active torsions:
REMARK  status: ('A' for Active; 'I' for Inactive)
REMARK    1  A    between atoms: C2_2  and  C10_10 
ROOT
HETATM    1  C1  UNL     1     -33.304  15.892  -3.459  1.00 20.00    -0.004 C 
HETATM    2  C2  UNL     1     -33.589  17.064  -2.860  1.00 20.00    -0.076 C 
HETATM    3  C3  UNL     1     -34.587  18.028  -3.469  1.00 20.00     0.034 C 
HETATM    4  C4  UNL     1     -35.457  17.417  -4.569  1.00 20.00     0.006 C 
HETATM    5  C5  UNL     1     -34.620  16.561  -5.515  1.00 20.00     0.024 C 
HETATM    6  C9  UNL     1     -33.890  15.441  -4.766  1.00 20.00     0.105 C 
HETATM    7 CL12 UNL     1     -35.009  14.081  -4.434  1.00 20.00    -0.121 Cl
ENDROOT
BRANCH   2   8
HETATM    8  C10 UNL     1     -32.983  17.496  -1.570  1.00 20.00     0.040 C 
HETATM    9  C6  UNL     1     -32.194  18.786  -1.668  1.00 20.00     0.037 C 
HETATM   10  C7  UNL     1     -32.155  19.235  -0.224  1.00 20.00     0.168 C 
HETATM   11  O11 UNL     1     -33.394  18.821   0.364  1.00 20.00    -0.390 OA
HETATM   12  C8  UNL     1     -34.004  17.844  -0.495  1.00 20.00     0.176 C 
ENDBRANCH   2   8
TORSDOF 1
ENDMDL
MODEL 2
REMARK VINA RESULT:      -4.4      1.708      2.496
REMARK  1 active torsions:
REMARK  status: ('A' for Active; 'I' for Inactive)
REMARK    1  A    between atoms: C2_2  and  C10_10 
ROOT
HETATM    1  C1  UNL     1     -34.931  17.334  -4.946  1.00 20.00    -0.004 C 
HETATM    2  C2  UNL     1     -34.185  17.002  -3.874  1.00 20.00    -0.076 C 
HETATM    3  C3  UNL     1     -33.623  15.604  -3.718  1.00 20.00     0.034 C 
HETATM    4  C4  UNL     1     -33.674  14.762  -4.994  1.00 20.00     0.006 C 
HETATM    5  C5  UNL     1     -35.019  14.919  -5.698  1.00 20.00     0.024 C 
HETATM    6  C9  UNL     1     -35.306  16.383  -6.045  1.00 20.00     0.105 C 
HETATM    7 CL12 UNL     1     -34.414  16.860  -7.523  1.00 20.00    -0.121 Cl
ENDROOT
BRANCH   2   8
HETATM    8  C10 UNL     1     -33.836  17.960  -2.788  1.00 20.00     0.040 C 
HETATM    9  C6  UNL     1     -33.293  17.296  -1.539  1.00 20.00     0.037 C 
HETATM   10  C7  UNL     1     -32.572  18.443  -0.866  1.00 20.00     0.168 C 
HETATM   11  O11 UNL     1     -32.045  19.263  -1.916  1.00 20.00    -0.390 OA
HETATM   12  C8  UNL     1     -32.702  18.911  -3.145  1.00 20.00     0.176 C 
ENDBRANCH   2   8
TORSDOF 1
ENDMDL
MODEL 3
REMARK VINA RESULT:      -4.2     11.446     12.469
REMARK  1 active torsions:
REMARK  status: ('A' for Active; 'I' for Inactive)
REMARK    1  A    between atoms: C2_2  and  C10_10 
ROOT
HETATM    1  C1  UNL     1     -33.800   6.170   3.696  1.00 20.00    -0.004 C 
HETATM    2  C2  UNL     1     -33.187   7.329   4.005  1.00 20.00    -0.076 C 
HETATM    3  C3  UNL     1     -33.196   7.861   5.424  1.00 20.00     0.034 C 
HETATM    4  C4  UNL     1     -33.626   6.836   6.475  1.00 20.00     0.006 C 
HETATM    5  C5  UNL     1     -34.841   6.044   6.000  1.00 20.00     0.024 C 
HETATM    6  C9  UNL     1     -34.563   5.326   4.676  1.00 20.00     0.105 C 
HETATM    7 CL12 UNL     1     -33.628   3.826   4.965  1.00 20.00    -0.121 Cl
ENDROOT
BRANCH   2   8
HETATM    8  C10 UNL     1     -32.448   8.158   3.013  1.00 20.00     0.040 C 
HETATM    9  C6  UNL     1     -32.248   7.474   1.675  1.00 20.00     0.037 C 
HETATM   10  C7  UNL     1     -31.974   8.650   0.764  1.00 20.00     0.168 C 
HETATM   11  O11 UNL     1     -32.757   9.741   1.263  1.00 20.00    -0.390 OA
HETATM   12  C8  UNL     1     -33.180   9.426   2.600  1.00 20.00     0.176 C 
ENDBRANCH   2   8
TORSDOF 1
ENDMDL
MODEL 4
REMARK VINA RESULT:      -4.2      3.353      5.486
REMARK  1 active torsions:
REMARK  status: ('A' for Active; 'I' for Inactive)
REMARK    1  A    between atoms: C2_2  and  C10_10 
ROOT
HETATM    1  C1  UNL     1     -35.009  18.168  -4.199  1.00 20.00    -0.004 C 
HETATM    2  C2  UNL     1     -34.834  16.910  -4.648  1.00 20.00    -0.076 C 
HETATM    3  C3  UNL     1     -33.818  15.987  -4.006  1.00 20.00     0.034 C 
HETATM    4  C4  UNL     1     -33.303  16.470  -2.649  1.00 20.00     0.006 C 
HETATM    5  C5  UNL     1     -32.992  17.963  -2.683  1.00 20.00     0.024 C 
HETATM    6  C9  UNL     1     -34.222  18.786  -3.079  1.00 20.00     0.105 C 
HETATM    7 CL12 UNL     1     -35.316  18.988  -1.675  1.00 20.00    -0.121 Cl
ENDROOT
BRANCH   2   8
HETATM    8  C10 UNL     1     -35.617  16.322  -5.770  1.00 20.00     0.040 C 
HETATM    9  C6  UNL     1     -34.917  16.403  -7.112  1.00 20.00     0.037 C 
HETATM   10  C7  UNL     1     -35.638  15.334  -7.903  1.00 20.00     0.168 C 
HETATM   11  O11 UNL     1     -35.977  14.300  -6.971  1.00 20.00    -0.390 OA
HETATM   12  C8  UNL     1     -35.853  14.824  -5.640  1.00 20.00     0.176 C 
ENDBRANCH   2   8
TORSDOF 1
ENDMDL
MODEL 5
REMARK VINA RESULT:      -4.1      3.086      4.843
REMARK  1 active torsions:
REMARK  status: ('A' for Active; 'I' for Inactive)
REMARK    1  A    between atoms: C2_2  and  C10_10 
ROOT
HETATM    1  C1  UNL     1     -32.850  17.302  -1.771  1.00 20.00    -0.004 C 
HETATM    2  C2  UNL     1     -33.779  17.415  -2.741  1.00 20.00    -0.076 C 
HETATM    3  C3  UNL     1     -34.999  18.292  -2.553  1.00 20.00     0.034 C 
HETATM    4  C4  UNL     1     -34.897  19.263  -1.375  1.00 20.00     0.006 C 
HETATM    5  C5  UNL     1     -34.317  18.570  -0.145  1.00 20.00     0.024 C 
HETATM    6  C9  UNL     1     -32.935  17.976  -0.433  1.00 20.00     0.105 C 
HETATM    7 CL12 UNL     1     -31.682  19.255  -0.373  1.00 20.00    -0.121 Cl
ENDROOT
BRANCH   2   8
HETATM    8  C10 UNL     1     -33.680  16.724  -4.057  1.00 20.00     0.040 C 
HETATM    9  C6  UNL     1     -33.584  15.216  -3.950  1.00 20.00     0.037 C 
HETATM   10  C7  UNL     1     -34.012  14.779  -5.334  1.00 20.00     0.168 C 
HETATM   11  O11 UNL     1     -34.992  15.727  -5.774  1.00 20.00    -0.390 OA
HETATM   12  C8  UNL     1     -34.913  16.890  -4.934  1.00 20.00     0.176 C 
ENDBRANCH   2   8
TORSDOF 1
ENDMDL
MODEL 6
REMARK VINA RESULT:      -4.1      1.528      2.282
REMARK  1 active torsions:
REMARK  status: ('A' for Active; 'I' for Inactive)
REMARK    1  A    between atoms: C2_2  and  C10_10 
ROOT
HETATM    1  C1  UNL     1     -34.819  18.054  -3.708  1.00 20.00    -0.004 C 
HETATM    2  C2  UNL     1     -33.994  17.688  -2.707  1.00 20.00    -0.076 C 
HETATM    3  C3  UNL     1     -33.291  16.347  -2.728  1.00 20.00     0.034 C 
HETATM    4  C4  UNL     1     -33.319  15.646  -4.088  1.00 20.00     0.006 C 
HETATM    5  C5  UNL     1     -34.704  15.738  -4.721  1.00 20.00     0.024 C 
HETATM    6  C9  UNL     1     -35.151  17.193  -4.892  1.00 20.00     0.105 C 
HETATM    7 CL12 UNL     1     -34.380  17.915  -6.339  1.00 20.00    -0.121 Cl
ENDROOT
BRANCH   2   8
HETATM    8  C10 UNL     1     -33.690  18.555  -1.534  1.00 20.00     0.040 C 
HETATM    9  C6  UNL     1     -33.812  17.843  -0.202  1.00 20.00     0.037 C 
HETATM   10  C7  UNL     1     -32.987  18.733   0.701  1.00 20.00     0.168 C 
HETATM   11  O11 UNL     1     -31.921  19.252  -0.104  1.00 20.00    -0.390 OA
HETATM   12  C8  UNL     1     -32.251  19.047  -1.487  1.00 20.00     0.176 C 
ENDBRANCH   2   8
TORSDOF 1
ENDMDL
MODEL 7
REMARK VINA RESULT:      -4.0      3.531      5.511
REMARK  1 active torsions:
REMARK  status: ('A' for Active; 'I' for Inactive)
REMARK    1  A    between atoms: C2_2  and  C10_10 
ROOT
HETATM    1  C1  UNL     1     -34.484  17.202  -4.383  1.00 20.00    -0.004 C 
HETATM    2  C2  UNL     1     -35.329  16.441  -5.106  1.00 20.00    -0.076 C 
HETATM    3  C3  UNL     1     -35.125  14.945  -5.223  1.00 20.00     0.034 C 
HETATM    4  C4  UNL     1     -34.142  14.365  -4.204  1.00 20.00     0.006 C 
HETATM    5  C5  UNL     1     -32.904  15.248  -4.077  1.00 20.00     0.024 C 
HETATM    6  C9  UNL     1     -33.271  16.678  -3.670  1.00 20.00     0.105 C 
HETATM    7 CL12 UNL     1     -33.582  16.764  -1.907  1.00 20.00    -0.121 Cl
ENDROOT
BRANCH   2   8
HETATM    8  C10 UNL     1     -36.519  16.985  -5.818  1.00 20.00     0.040 C 
HETATM    9  C6  UNL     1     -36.529  16.692  -7.304  1.00 20.00     0.037 C 
HETATM   10  C7  UNL     1     -37.992  16.870  -7.646  1.00 20.00     0.168 C 
HETATM   11  O11 UNL     1     -38.732  16.435  -6.499  1.00 20.00    -0.390 OA
HETATM   12  C8  UNL     1     -37.838  16.366  -5.377  1.00 20.00     0.176 C 
ENDBRANCH   2   8
TORSDOF 1
ENDMDL
MODEL 8
REMARK VINA RESULT:      -3.9     11.582     13.224
REMARK  1 active torsions:
REMARK  status: ('A' for Active; 'I' for Inactive)
REMARK    1  A    between atoms: C2_2  and  C10_10 
ROOT
HETATM    1  C1  UNL     1     -42.392  12.758   7.148  1.00 20.00    -0.004 C 
HETATM    2  C2  UNL     1     -41.150  13.069   6.728  1.00 20.00    -0.076 C 
HETATM    3  C3  UNL     1     -40.523  14.404   7.071  1.00 20.00     0.034 C 
HETATM    4  C4  UNL     1     -41.248  15.171   8.179  1.00 20.00     0.006 C 
HETATM    5  C5  UNL     1     -42.760  15.120   7.979  1.00 20.00     0.024 C 
HETATM    6  C9  UNL     1     -43.275  13.678   7.939  1.00 20.00     0.105 C 
HETATM    7 CL12 UNL     1     -43.417  13.021   9.600  1.00 20.00    -0.121 Cl
ENDROOT
BRANCH   2   8
HETATM    8  C10 UNL     1     -40.296  12.144   5.931  1.00 20.00     0.040 C 
HETATM    9  C6  UNL     1     -40.181  12.527   4.470  1.00 20.00     0.037 C 
HETATM   10  C7  UNL     1     -38.925  11.793   4.055  1.00 20.00     0.168 C 
HETATM   11  O11 UNL     1     -38.060  11.791   5.197  1.00 20.00    -0.390 OA
HETATM   12  C8  UNL     1     -38.835  12.130   6.359  1.00 20.00     0.176 C 
ENDBRANCH   2   8
TORSDOF 1
ENDMDL
MODEL 9
REMARK VINA RESULT:      -3.8     11.290     12.974
REMARK  1 active torsions:
REMARK  status: ('A' for Active; 'I' for Inactive)
REMARK    1  A    between atoms: C2_2  and  C10_10 
ROOT
HETATM    1  C1  UNL     1     -40.418  14.051   7.565  1.00 20.00    -0.004 C 
HETATM    2  C2  UNL     1     -40.968  13.090   6.797  1.00 20.00    -0.076 C 
HETATM    3  C3  UNL     1     -42.471  12.922   6.717  1.00 20.00     0.034 C 
HETATM    4  C4  UNL     1     -43.265  14.107   7.271  1.00 20.00     0.006 C 
HETATM    5  C5  UNL     1     -42.668  14.596   8.587  1.00 20.00     0.024 C 
HETATM    6  C9  UNL     1     -41.200  15.001   8.425  1.00 20.00     0.105 C 
HETATM    7 CL12 UNL     1     -41.081  16.635   7.699  1.00 20.00    -0.121 Cl
ENDROOT
BRANCH   2   8
HETATM    8  C10 UNL     1     -40.170  12.149   5.962  1.00 20.00     0.040 C 
HETATM    9  C6  UNL     1     -40.142  12.511   4.491  1.00 20.00     0.037 C 
HETATM   10  C7  UNL     1     -38.918  11.762   4.012  1.00 20.00     0.168 C 
HETATM   11  O11 UNL     1     -37.985  11.770   5.100  1.00 20.00    -0.390 OA
HETATM   12  C8  UNL     1     -38.686  12.130   6.301  1.00 20.00     0.176 C 
ENDBRANCH   2   8
TORSDOF 1
ENDMDL
