MODEL 1
REMARK VINA RESULT:      -4.1      0.000      0.000
REMARK  1 active torsions:
REMARK  status: ('A' for Active; 'I' for Inactive)
REMARK    1  A    between atoms: C2_2  and  C10_10 
ROOT
HETATM    1  C1  UNL     1     -34.935  17.169  -4.711  1.00 20.00    -0.003 C 
HETATM    2  C2  UNL     1     -34.092  17.025  -3.673  1.00 20.00    -0.075 C 
HETATM    3  C3  UNL     1     -33.240  15.793  -3.497  1.00 20.00     0.034 C 
HETATM    4  C4  UNL     1     -33.645  14.623  -4.399  1.00 20.00     0.006 C 
HETATM    5  C5  UNL     1     -33.974  15.103  -5.811  1.00 20.00     0.024 C 
HETATM    6  C6  UNL     1     -35.089  16.154  -5.807  1.00 20.00     0.105 C 
HETATM    7 CL11 UNL     1     -36.690  15.370  -5.623  1.00 20.00    -0.121 Cl
ENDROOT
BRANCH   2   8
HETATM    8  C10 UNL     1     -33.941  18.086  -2.623  1.00 20.00    -0.028 C 
HETATM    9  C7  UNL     1     -32.870  19.091  -3.068  1.00 20.00     0.019 C 
HETATM   10  C8  UNL     1     -33.519  17.443  -1.292  1.00 20.00     0.019 C 
HETATM   11  C9  UNL     1     -35.280  18.816  -2.427  1.00 20.00     0.019 C 
ENDBRANCH   2   8
TORSDOF 1
ENDMDL
MODEL 2
REMARK VINA RESULT:      -4.1      0.017      1.313
REMARK  1 active torsions:
REMARK  status: ('A' for Active; 'I' for Inactive)
REMARK    1  A    between atoms: C2_2  and  C10_10 
ROOT
HETATM    1  C1  UNL     1     -34.932  17.164  -4.720  1.00 20.00    -0.003 C 
HETATM    2  C2  UNL     1     -34.090  17.021  -3.681  1.00 20.00    -0.075 C 
HETATM    3  C3  UNL     1     -33.232  15.793  -3.507  1.00 20.00     0.034 C 
HETATM    4  C4  UNL     1     -33.631  14.623  -4.411  1.00 20.00     0.006 C 
HETATM    5  C5  UNL     1     -33.962  15.103  -5.823  1.00 20.00     0.024 C 
HETATM    6  C6  UNL     1     -35.081  16.150  -5.818  1.00 20.00     0.105 C 
HETATM    7 CL11 UNL     1     -36.679  15.359  -5.636  1.00 20.00    -0.121 Cl
ENDROOT
BRANCH   2   8
HETATM    8  C10 UNL     1     -33.944  18.081  -2.629  1.00 20.00    -0.028 C 
HETATM    9  C7  UNL     1     -33.536  17.425  -1.302  1.00 20.00     0.019 C 
HETATM   10  C8  UNL     1     -35.281  18.819  -2.446  1.00 20.00     0.019 C 
HETATM   11  C9  UNL     1     -32.866  19.090  -3.054  1.00 20.00     0.019 C 
ENDBRANCH   2   8
TORSDOF 1
ENDMDL
MODEL 3
REMARK VINA RESULT:      -3.9      2.055      4.326
REMARK  1 active torsions:
REMARK  status: ('A' for Active; 'I' for Inactive)
REMARK    1  A    between atoms: C2_2  and  C10_10 
ROOT
HETATM    1  C1  UNL     1     -33.504  16.315  -3.274  1.00 20.00    -0.003 C 
HETATM    2  C2  UNL     1     -34.259  16.515  -4.369  1.00 20.00    -0.075 C 
HETATM    3  C3  UNL     1     -34.616  17.897  -4.855  1.00 20.00     0.034 C 
HETATM    4  C4  UNL     1     -34.322  19.007  -3.842  1.00 20.00     0.006 C 
HETATM    5  C5  UNL     1     -32.977  18.786  -3.155  1.00 20.00     0.024 C 
HETATM    6  C6  UNL     1     -32.915  17.425  -2.453  1.00 20.00     0.105 C 
HETATM    7 CL11 UNL     1     -33.785  17.487  -0.888  1.00 20.00    -0.121 Cl
ENDROOT
BRANCH   2   8
HETATM    8  C10 UNL     1     -34.792  15.372  -5.182  1.00 20.00    -0.028 C 
HETATM    9  C7  UNL     1     -34.731  14.084  -4.347  1.00 20.00     0.019 C 
HETATM   10  C8  UNL     1     -33.946  15.199  -6.453  1.00 20.00     0.019 C 
HETATM   11  C9  UNL     1     -36.249  15.654  -5.581  1.00 20.00     0.019 C 
ENDBRANCH   2   8
TORSDOF 1
ENDMDL
MODEL 4
REMARK VINA RESULT:      -3.5      2.072      4.148
REMARK  1 active torsions:
REMARK  status: ('A' for Active; 'I' for Inactive)
REMARK    1  A    between atoms: C2_2  and  C10_10 
ROOT
HETATM    1  C1  UNL     1     -34.812  17.635  -4.527  1.00 20.00    -0.003 C 
HETATM    2  C2  UNL     1     -34.672  16.378  -4.985  1.00 20.00    -0.075 C 
HETATM    3  C3  UNL     1     -33.840  15.349  -4.261  1.00 20.00     0.034 C 
HETATM    4  C4  UNL     1     -32.939  15.934  -3.171  1.00 20.00     0.006 C 
HETATM    5  C5  UNL     1     -33.673  16.999  -2.359  1.00 20.00     0.024 C 
HETATM    6  C6  UNL     1     -34.197  18.131  -3.251  1.00 20.00     0.105 C 
HETATM    7 CL11 UNL     1     -32.872  19.262  -3.670  1.00 20.00    -0.121 Cl
ENDROOT
BRANCH   2   8
HETATM    8  C10 UNL     1     -35.341  15.916  -6.246  1.00 20.00    -0.028 C 
HETATM    9  C7  UNL     1     -36.486  16.879  -6.594  1.00 20.00     0.019 C 
HETATM   10  C8  UNL     1     -35.906  14.500  -6.046  1.00 20.00     0.019 C 
HETATM   11  C9  UNL     1     -34.322  15.894  -7.396  1.00 20.00     0.019 C 
ENDBRANCH   2   8
TORSDOF 1
ENDMDL
MODEL 5
REMARK VINA RESULT:      -3.5     12.230     13.847
REMARK  1 active torsions:
REMARK  status: ('A' for Active; 'I' for Inactive)
REMARK    1  A    between atoms: C2_2  and  C10_10 
ROOT
HETATM    1  C1  UNL     1     -41.654  15.736   6.885  1.00 20.00    -0.003 C 
HETATM    2  C2  UNL     1     -41.182  14.519   7.208  1.00 20.00    -0.075 C 
HETATM    3  C3  UNL     1     -40.505  14.245   8.527  1.00 20.00     0.034 C 
HETATM    4  C4  UNL     1     -40.127  15.508   9.306  1.00 20.00     0.006 C 
HETATM    5  C5  UNL     1     -41.243  16.549   9.246  1.00 20.00     0.024 C 
HETATM    6  C6  UNL     1     -41.592  16.924   7.802  1.00 20.00     0.105 C 
HETATM    7 CL11 UNL     1     -40.387  18.075   7.145  1.00 20.00    -0.121 Cl
ENDROOT
BRANCH   2   8
HETATM    8  C10 UNL     1     -41.304  13.350   6.275  1.00 20.00    -0.028 C 
HETATM    9  C7  UNL     1     -42.395  12.401   6.791  1.00 20.00     0.019 C 
HETATM   10  C8  UNL     1     -39.964  12.600   6.203  1.00 20.00     0.019 C 
HETATM   11  C9  UNL     1     -41.679  13.846   4.869  1.00 20.00     0.019 C 
ENDBRANCH   2   8
TORSDOF 1
ENDMDL
MODEL 6
REMARK VINA RESULT:      -3.5      1.387      2.514
REMARK  1 active torsions:
REMARK  status: ('A' for Active; 'I' for Inactive)
REMARK    1  A    between atoms: C2_2  and  C10_10 
ROOT
HETATM    1  C1  UNL     1     -34.099  15.929  -4.618  1.00 20.00    -0.003 C 
HETATM    2  C2  UNL     1     -34.672  17.063  -4.176  1.00 20.00    -0.075 C 
HETATM    3  C3  UNL     1     -35.964  17.586  -4.753  1.00 20.00     0.034 C 
HETATM    4  C4  UNL     1     -36.380  16.907  -6.061  1.00 20.00     0.006 C 
HETATM    5  C5  UNL     1     -36.152  15.398  -5.997  1.00 20.00     0.024 C 
HETATM    6  C6  UNL     1     -34.690  15.058  -5.688  1.00 20.00     0.105 C 
HETATM    7 CL11 UNL     1     -33.684  15.220  -7.162  1.00 20.00    -0.121 Cl
ENDROOT
BRANCH   2   8
HETATM    8  C10 UNL     1     -34.064  17.880  -3.074  1.00 20.00    -0.028 C 
HETATM    9  C7  UNL     1     -35.169  18.669  -2.359  1.00 20.00     0.019 C 
HETATM   10  C8  UNL     1     -33.033  18.858  -3.660  1.00 20.00     0.019 C 
HETATM   11  C9  UNL     1     -33.363  16.953  -2.068  1.00 20.00     0.019 C 
ENDBRANCH   2   8
TORSDOF 1
ENDMDL
MODEL 7
REMARK VINA RESULT:      -3.5     11.972     13.149
REMARK  1 active torsions:
REMARK  status: ('A' for Active; 'I' for Inactive)
REMARK    1  A    between atoms: C2_2  and  C10_10 
ROOT
HETATM    1  C1  UNL     1     -33.886   6.439   3.920  1.00 20.00    -0.003 C 
HETATM    2  C2  UNL     1     -33.256   7.376   4.651  1.00 20.00    -0.075 C 
HETATM    3  C3  UNL     1     -33.413   7.465   6.148  1.00 20.00     0.034 C 
HETATM    4  C4  UNL     1     -34.567   6.626   6.703  1.00 20.00     0.006 C 
HETATM    5  C5  UNL     1     -34.628   5.256   6.030  1.00 20.00     0.024 C 
HETATM    6  C6  UNL     1     -34.769   5.377   4.509  1.00 20.00     0.105 C 
HETATM    7 CL11 UNL     1     -36.465   5.749   4.065  1.00 20.00    -0.121 Cl
ENDROOT
BRANCH   2   8
HETATM    8  C10 UNL     1     -32.350   8.393   4.021  1.00 20.00    -0.028 C 
HETATM    9  C7  UNL     1     -31.103   7.688   3.468  1.00 20.00     0.019 C 
HETATM   10  C8  UNL     1     -31.926   9.433   5.071  1.00 20.00     0.019 C 
HETATM   11  C9  UNL     1     -33.086   9.106   2.876  1.00 20.00     0.019 C 
ENDBRANCH   2   8
TORSDOF 1
ENDMDL
MODEL 8
REMARK VINA RESULT:      -3.4     24.371     25.669
REMARK  1 active torsions:
REMARK  status: ('A' for Active; 'I' for Inactive)
REMARK    1  A    between atoms: C2_2  and  C10_10 
ROOT
HETATM    1  C1  UNL     1     -25.835  -2.879  10.337  1.00 20.00    -0.003 C 
HETATM    2  C2  UNL     1     -26.427  -1.883  11.019  1.00 20.00    -0.075 C 
HETATM    3  C3  UNL     1     -25.663  -1.001  11.975  1.00 20.00     0.034 C 
HETATM    4  C4  UNL     1     -24.272  -1.530  12.332  1.00 20.00     0.006 C 
HETATM    5  C5  UNL     1     -23.558  -2.082  11.100  1.00 20.00     0.024 C 
HETATM    6  C6  UNL     1     -24.370  -3.193  10.425  1.00 20.00     0.105 C 
HETATM    7 CL11 UNL     1     -24.179  -4.737  11.314  1.00 20.00    -0.121 Cl
ENDROOT
BRANCH   2   8
HETATM    8  C10 UNL     1     -27.889  -1.580  10.868  1.00 20.00    -0.028 C 
HETATM    9  C7  UNL     1     -28.058  -0.303  10.032  1.00 20.00     0.019 C 
HETATM   10  C8  UNL     1     -28.523  -1.373  12.253  1.00 20.00     0.019 C 
HETATM   11  C9  UNL     1     -28.591  -2.751  10.163  1.00 20.00     0.019 C 
ENDBRANCH   2   8
TORSDOF 1
ENDMDL
MODEL 9
REMARK VINA RESULT:      -3.4     11.784     13.136
REMARK  1 active torsions:
REMARK  status: ('A' for Active; 'I' for Inactive)
REMARK    1  A    between atoms: C2_2  and  C10_10 
ROOT
HETATM    1  C1  UNL     1     -33.368   7.892   4.546  1.00 20.00    -0.003 C 
HETATM    2  C2  UNL     1     -33.606   6.610   4.218  1.00 20.00    -0.075 C 
HETATM    3  C3  UNL     1     -32.857   5.913   3.110  1.00 20.00     0.034 C 
HETATM    4  C4  UNL     1     -32.058   6.859   2.209  1.00 20.00     0.006 C 
HETATM    5  C5  UNL     1     -31.342   7.930   3.030  1.00 20.00     0.024 C 
HETATM    6  C6  UNL     1     -32.324   8.743   3.881  1.00 20.00     0.105 C 
HETATM    7 CL11 UNL     1     -33.158   9.969   2.876  1.00 20.00    -0.121 Cl
ENDROOT
BRANCH   2   8
HETATM    8  C10 UNL     1     -34.632   5.786   4.939  1.00 20.00    -0.028 C 
HETATM    9  C7  UNL     1     -34.258   4.301   4.830  1.00 20.00     0.019 C 
HETATM   10  C8  UNL     1     -36.016   6.013   4.311  1.00 20.00     0.019 C 
HETATM   11  C9  UNL     1     -34.678   6.195   6.420  1.00 20.00     0.019 C 
ENDBRANCH   2   8
TORSDOF 1
ENDMDL
