MODEL 1
REMARK VINA RESULT:      -4.4      0.000      0.000
REMARK  0 active torsions:
REMARK  status: ('A' for Active; 'I' for Inactive)
ROOT
HETATM    1  C1  UNL     1     -34.449   6.021   5.496  1.00 20.00     0.064 C 
HETATM    2  C2  UNL     1     -33.594   8.354   5.278  1.00 20.00     0.021 C 
HETATM    3  C3  UNL     1     -32.159   8.582   4.806  1.00 20.00     0.021 C 
HETATM    4  C4  UNL     1     -32.924   6.658   3.641  1.00 20.00     0.039 C 
HETATM    5  C5  UNL     1     -34.081   7.087   4.555  1.00 20.00     0.094 C 
HETATM    6  C6  UNL     1     -32.090   7.918   3.437  1.00 20.00     0.083 C 
HETATM    7  N7  UNL     1     -34.738   5.180   6.240  1.00 20.00    -0.197 NA
HETATM    8 CL8  UNL     1     -32.813   8.965   2.182  1.00 20.00    -0.125 Cl
ENDROOT
TORSDOF 0
ENDMDL
MODEL 2
REMARK VINA RESULT:      -3.8      3.038      3.653
REMARK  0 active torsions:
REMARK  status: ('A' for Active; 'I' for Inactive)
ROOT
HETATM    1  C1  UNL     1     -32.377   7.479   2.668  1.00 20.00     0.064 C 
HETATM    2  C2  UNL     1     -32.838   7.944   5.074  1.00 20.00     0.021 C 
HETATM    3  C3  UNL     1     -34.269   7.828   5.596  1.00 20.00     0.021 C 
HETATM    4  C4  UNL     1     -34.052   6.148   3.931  1.00 20.00     0.039 C 
HETATM    5  C5  UNL     1     -32.703   6.882   3.969  1.00 20.00     0.094 C 
HETATM    6  C6  UNL     1     -34.676   6.391   5.301  1.00 20.00     0.083 C 
HETATM    7  N7  UNL     1     -32.120   7.952   1.640  1.00 20.00    -0.197 NA
HETATM    8 CL8  UNL     1     -33.998   5.273   6.518  1.00 20.00    -0.125 Cl
ENDROOT
TORSDOF 0
ENDMDL
MODEL 3
REMARK VINA RESULT:      -3.6     11.888     12.636
REMARK  0 active torsions:
REMARK  status: ('A' for Active; 'I' for Inactive)
ROOT
HETATM    1  C1  UNL     1     -35.620  14.834  -6.134  1.00 20.00     0.064 C 
HETATM    2  C2  UNL     1     -34.047  14.312  -4.271  1.00 20.00     0.021 C 
HETATM    3  C3  UNL     1     -32.773  15.141  -4.116  1.00 20.00     0.021 C 
HETATM    4  C4  UNL     1     -34.427  16.643  -4.921  1.00 20.00     0.039 C 
HETATM    5  C5  UNL     1     -35.111  15.272  -4.828  1.00 20.00     0.094 C 
HETATM    6  C6  UNL     1     -33.260  16.574  -3.942  1.00 20.00     0.083 C 
HETATM    7  N7  UNL     1     -36.021  14.486  -7.166  1.00 20.00    -0.197 NA
HETATM    8 CL8  UNL     1     -33.814  16.861  -2.268  1.00 20.00    -0.125 Cl
ENDROOT
TORSDOF 0
ENDMDL
MODEL 4
REMARK VINA RESULT:      -3.6     11.717     12.528
REMARK  0 active torsions:
REMARK  status: ('A' for Active; 'I' for Inactive)
ROOT
HETATM    1  C1  UNL     1     -33.502  16.605  -2.614  1.00 20.00     0.064 C 
HETATM    2  C2  UNL     1     -33.862  14.552  -3.981  1.00 20.00     0.021 C 
HETATM    3  C3  UNL     1     -35.086  14.467  -4.892  1.00 20.00     0.021 C 
HETATM    4  C4  UNL     1     -34.420  16.747  -4.917  1.00 20.00     0.039 C 
HETATM    5  C5  UNL     1     -33.449  16.034  -3.965  1.00 20.00     0.094 C 
HETATM    6  C6  UNL     1     -34.950  15.654  -5.838  1.00 20.00     0.083 C 
HETATM    7  N7  UNL     1     -33.544  17.056  -1.545  1.00 20.00    -0.197 NA
HETATM    8 CL8  UNL     1     -33.785  15.299  -7.145  1.00 20.00    -0.125 Cl
ENDROOT
TORSDOF 0
ENDMDL
MODEL 5
REMARK VINA RESULT:      -3.5      2.883      3.643
REMARK  0 active torsions:
REMARK  status: ('A' for Active; 'I' for Inactive)
ROOT
HETATM    1  C1  UNL     1     -32.553   8.589   4.884  1.00 20.00     0.064 C 
HETATM    2  C2  UNL     1     -33.338   6.764   6.389  1.00 20.00     0.021 C 
HETATM    3  C3  UNL     1     -34.788   6.290   6.296  1.00 20.00     0.021 C 
HETATM    4  C4  UNL     1     -34.152   6.867   4.081  1.00 20.00     0.039 C 
HETATM    5  C5  UNL     1     -32.934   7.174   4.964  1.00 20.00     0.094 C 
HETATM    6  C6  UNL     1     -34.952   5.825   4.854  1.00 20.00     0.083 C 
HETATM    7  N7  UNL     1     -32.252   9.708   4.822  1.00 20.00    -0.197 NA
HETATM    8 CL8  UNL     1     -34.263   4.193   4.628  1.00 20.00    -0.125 Cl
ENDROOT
TORSDOF 0
ENDMDL
MODEL 6
REMARK VINA RESULT:      -3.5     15.766     16.197
REMARK  0 active torsions:
REMARK  status: ('A' for Active; 'I' for Inactive)
ROOT
HETATM    1  C1  UNL     1     -21.658  17.766   7.600  1.00 20.00     0.064 C 
HETATM    2  C2  UNL     1     -23.308  19.263   8.719  1.00 20.00     0.021 C 
HETATM    3  C3  UNL     1     -24.460  18.645   9.511  1.00 20.00     0.021 C 
HETATM    4  C4  UNL     1     -22.609  17.188   9.820  1.00 20.00     0.039 C 
HETATM    5  C5  UNL     1     -22.117  18.303   8.887  1.00 20.00     0.094 C 
HETATM    6  C6  UNL     1     -23.786  17.793  10.578  1.00 20.00     0.083 C 
HETATM    7  N7  UNL     1     -21.296  17.341   6.583  1.00 20.00    -0.197 NA
HETATM    8 CL8  UNL     1     -23.217  18.805  11.937  1.00 20.00    -0.125 Cl
ENDROOT
TORSDOF 0
ENDMDL
MODEL 7
REMARK VINA RESULT:      -3.5     11.753     12.499
REMARK  0 active torsions:
REMARK  status: ('A' for Active; 'I' for Inactive)
ROOT
HETATM    1  C1  UNL     1     -33.709  15.110  -3.842  1.00 20.00     0.064 C 
HETATM    2  C2  UNL     1     -33.995  17.550  -4.265  1.00 20.00     0.021 C 
HETATM    3  C3  UNL     1     -34.725  18.407  -3.231  1.00 20.00     0.021 C 
HETATM    4  C4  UNL     1     -33.550  16.758  -1.990  1.00 20.00     0.039 C 
HETATM    5  C5  UNL     1     -33.263  16.458  -3.468  1.00 20.00     0.094 C 
HETATM    6  C6  UNL     1     -33.922  18.235  -1.948  1.00 20.00     0.083 C 
HETATM    7  N7  UNL     1     -34.063  14.046  -4.138  1.00 20.00    -0.197 NA
HETATM    8 CL8  UNL     1     -32.461  19.263  -1.967  1.00 20.00    -0.125 Cl
ENDROOT
TORSDOF 0
ENDMDL
MODEL 8
REMARK VINA RESULT:      -3.3      9.615     10.207
REMARK  0 active torsions:
REMARK  status: ('A' for Active; 'I' for Inactive)
ROOT
HETATM    1  C1  UNL     1     -42.978   4.961  -1.241  1.00 20.00     0.064 C 
HETATM    2  C2  UNL     1     -43.342   6.996   0.153  1.00 20.00     0.021 C 
HETATM    3  C3  UNL     1     -42.489   7.208   1.403  1.00 20.00     0.021 C 
HETATM    4  C4  UNL     1     -41.070   6.141  -0.175  1.00 20.00     0.039 C 
HETATM    5  C5  UNL     1     -42.439   6.272  -0.859  1.00 20.00     0.094 C 
HETATM    6  C6  UNL     1     -41.053   7.227   0.894  1.00 20.00     0.083 C 
HETATM    7  N7  UNL     1     -43.406   3.925  -1.541  1.00 20.00    -0.197 NA
HETATM    8 CL8  UNL     1     -40.649   8.816   0.185  1.00 20.00    -0.125 Cl
ENDROOT
TORSDOF 0
ENDMDL
MODEL 9
REMARK VINA RESULT:      -3.2     12.667     13.230
REMARK  0 active torsions:
REMARK  status: ('A' for Active; 'I' for Inactive)
ROOT
HETATM    1  C1  UNL     1     -25.024  -1.405  11.976  1.00 20.00     0.064 C 
HETATM    2  C2  UNL     1     -27.245  -0.364  11.530  1.00 20.00     0.021 C 
HETATM    3  C3  UNL     1     -27.875  -0.512  10.146  1.00 20.00     0.021 C 
HETATM    4  C4  UNL     1     -26.705  -2.541  10.543  1.00 20.00     0.039 C 
HETATM    5  C5  UNL     1     -26.456  -1.660  11.777  1.00 20.00     0.094 C 
HETATM    6  C6  UNL     1     -28.000  -2.015   9.934  1.00 20.00     0.083 C 
HETATM    7  N7  UNL     1     -23.892  -1.201  12.132  1.00 20.00    -0.197 NA
HETATM    8 CL8  UNL     1     -29.422  -2.664  10.799  1.00 20.00    -0.125 Cl
ENDROOT
TORSDOF 0
ENDMDL
