MODEL 1
REMARK VINA RESULT:      -5.0      0.000      0.000
REMARK  0 active torsions:
REMARK  status: ('A' for Active; 'I' for Inactive)
ROOT
HETATM    1  C1  UNL     1     -32.872   7.645   4.221  1.00 20.00     0.064 C 
HETATM    2  C2  UNL     1     -33.651   6.684   6.376  1.00 20.00     0.021 C 
HETATM    3  C3  UNL     1     -34.649   5.537   6.504  1.00 20.00     0.021 C 
HETATM    4  C4  UNL     1     -35.107   6.564   4.405  1.00 20.00     0.039 C 
HETATM    5  C5  UNL     1     -34.039   7.431   5.090  1.00 20.00     0.094 C 
HETATM    6  C6  UNL     1     -35.019   5.191   5.068  1.00 20.00     0.083 C 
HETATM    7  N7  UNL     1     -31.951   7.814   3.536  1.00 20.00    -0.197 NA
HETATM    8 CL8  UNL     1     -33.752   4.191   4.305  1.00 20.00    -0.125 Cl
ENDROOT
TORSDOF 0
ENDMDL
MODEL 2
REMARK VINA RESULT:      -4.1     16.144     16.692
REMARK  0 active torsions:
REMARK  status: ('A' for Active; 'I' for Inactive)
ROOT
HETATM    1  C1  UNL     1     -22.396  17.723   8.947  1.00 20.00     0.064 C 
HETATM    2  C2  UNL     1     -22.174  18.484  11.302  1.00 20.00     0.021 C 
HETATM    3  C3  UNL     1     -23.308  18.490  12.323  1.00 20.00     0.021 C 
HETATM    4  C4  UNL     1     -24.356  18.626  10.189  1.00 20.00     0.039 C 
HETATM    5  C5  UNL     1     -22.842  18.715   9.936  1.00 20.00     0.094 C 
HETATM    6  C6  UNL     1     -24.514  17.964  11.556  1.00 20.00     0.083 C 
HETATM    7  N7  UNL     1     -22.044  16.939   8.166  1.00 20.00    -0.197 NA
HETATM    8 CL8  UNL     1     -24.458  16.184  11.416  1.00 20.00    -0.125 Cl
ENDROOT
TORSDOF 0
ENDMDL
MODEL 3
REMARK VINA RESULT:      -3.9      1.688      1.955
REMARK  0 active torsions:
REMARK  status: ('A' for Active; 'I' for Inactive)
ROOT
HETATM    1  C1  UNL     1     -33.345   5.765   3.220  1.00 20.00     0.064 C 
HETATM    2  C2  UNL     1     -33.271   7.487   5.010  1.00 20.00     0.021 C 
HETATM    3  C3  UNL     1     -34.007   7.384   6.344  1.00 20.00     0.021 C 
HETATM    4  C4  UNL     1     -35.235   6.027   4.820  1.00 20.00     0.039 C 
HETATM    5  C5  UNL     1     -34.142   6.727   3.996  1.00 20.00     0.094 C 
HETATM    6  C6  UNL     1     -34.750   6.057   6.268  1.00 20.00     0.083 C 
HETATM    7  N7  UNL     1     -32.716   5.006   2.608  1.00 20.00    -0.197 NA
HETATM    8 CL8  UNL     1     -33.653   4.689   6.606  1.00 20.00    -0.125 Cl
ENDROOT
TORSDOF 0
ENDMDL
MODEL 4
REMARK VINA RESULT:      -3.6     15.900     16.813
REMARK  0 active torsions:
REMARK  status: ('A' for Active; 'I' for Inactive)
ROOT
HETATM    1  C1  UNL     1     -25.704  18.308  12.281  1.00 20.00     0.064 C 
HETATM    2  C2  UNL     1     -23.244  18.654  12.332  1.00 20.00     0.021 C 
HETATM    3  C3  UNL     1     -22.299  18.339  11.175  1.00 20.00     0.021 C 
HETATM    4  C4  UNL     1     -24.189  16.921  10.874  1.00 20.00     0.039 C 
HETATM    5  C5  UNL     1     -24.395  17.641  12.216  1.00 20.00     0.094 C 
HETATM    6  C6  UNL     1     -23.204  17.781  10.085  1.00 20.00     0.083 C 
HETATM    7  N7  UNL     1     -26.737  18.834  12.332  1.00 20.00    -0.197 NA
HETATM    8 CL8  UNL     1     -24.051  19.096   9.222  1.00 20.00    -0.125 Cl
ENDROOT
TORSDOF 0
ENDMDL
MODEL 5
REMARK VINA RESULT:      -3.3      8.773      9.838
REMARK  0 active torsions:
REMARK  status: ('A' for Active; 'I' for Inactive)
ROOT
HETATM    1  C1  UNL     1     -43.073   6.015   1.860  1.00 20.00     0.064 C 
HETATM    2  C2  UNL     1     -43.165   7.681   0.018  1.00 20.00     0.021 C 
HETATM    3  C3  UNL     1     -41.955   8.166  -0.775  1.00 20.00     0.021 C 
HETATM    4  C4  UNL     1     -41.105   7.445   1.329  1.00 20.00     0.039 C 
HETATM    5  C5  UNL     1     -42.636   7.350   1.423  1.00 20.00     0.094 C 
HETATM    6  C6  UNL     1     -40.775   7.424  -0.162  1.00 20.00     0.083 C 
HETATM    7  N7  UNL     1     -43.417   4.962   2.204  1.00 20.00    -0.197 NA
HETATM    8 CL8  UNL     1     -40.684   5.749  -0.774  1.00 20.00    -0.125 Cl
ENDROOT
TORSDOF 0
ENDMDL
MODEL 6
REMARK VINA RESULT:      -3.3      8.964      9.866
REMARK  0 active torsions:
REMARK  status: ('A' for Active; 'I' for Inactive)
ROOT
HETATM    1  C1  UNL     1     -42.485   5.627   1.497  1.00 20.00     0.064 C 
HETATM    2  C2  UNL     1     -40.732   7.359   1.184  1.00 20.00     0.021 C 
HETATM    3  C3  UNL     1     -40.709   8.375   0.045  1.00 20.00     0.021 C 
HETATM    4  C4  UNL     1     -41.959   6.518  -0.767  1.00 20.00     0.039 C 
HETATM    5  C5  UNL     1     -41.415   6.107   0.611  1.00 20.00     0.094 C 
HETATM    6  C6  UNL     1     -41.942   8.045  -0.785  1.00 20.00     0.083 C 
HETATM    7  N7  UNL     1     -43.330   5.249   2.197  1.00 20.00    -0.197 NA
HETATM    8 CL8  UNL     1     -43.417   8.711  -0.031  1.00 20.00    -0.125 Cl
ENDROOT
TORSDOF 0
ENDMDL
MODEL 7
REMARK VINA RESULT:      -3.3      2.429      3.013
REMARK  0 active torsions:
REMARK  status: ('A' for Active; 'I' for Inactive)
ROOT
HETATM    1  C1  UNL     1     -32.853   6.085   2.925  1.00 20.00     0.064 C 
HETATM    2  C2  UNL     1     -31.723   8.014   4.009  1.00 20.00     0.021 C 
HETATM    3  C3  UNL     1     -32.317   8.841   5.145  1.00 20.00     0.021 C 
HETATM    4  C4  UNL     1     -34.174   7.913   3.979  1.00 20.00     0.039 C 
HETATM    5  C5  UNL     1     -32.921   7.532   3.174  1.00 20.00     0.094 C 
HETATM    6  C6  UNL     1     -33.686   8.222   5.393  1.00 20.00     0.083 C 
HETATM    7  N7  UNL     1     -32.800   4.942   2.729  1.00 20.00    -0.197 NA
HETATM    8 CL8  UNL     1     -33.546   6.729   6.363  1.00 20.00    -0.125 Cl
ENDROOT
TORSDOF 0
ENDMDL
MODEL 8
REMARK VINA RESULT:      -3.2     16.264     16.784
REMARK  0 active torsions:
REMARK  status: ('A' for Active; 'I' for Inactive)
ROOT
HETATM    1  C1  UNL     1     -24.118  19.231   7.683  1.00 20.00     0.064 C 
HETATM    2  C2  UNL     1     -22.045  17.874   7.861  1.00 20.00     0.021 C 
HETATM    3  C3  UNL     1     -21.464  17.343   9.169  1.00 20.00     0.021 C 
HETATM    4  C4  UNL     1     -22.744  19.263   9.759  1.00 20.00     0.039 C 
HETATM    5  C5  UNL     1     -22.751  19.190   8.224  1.00 20.00     0.094 C 
HETATM    6  C6  UNL     1     -22.416  17.852  10.243  1.00 20.00     0.083 C 
HETATM    7  N7  UNL     1     -25.197  19.263   7.257  1.00 20.00    -0.197 NA
HETATM    8 CL8  UNL     1     -23.888  16.844  10.322  1.00 20.00    -0.125 Cl
ENDROOT
TORSDOF 0
ENDMDL
MODEL 9
REMARK VINA RESULT:      -3.1     12.712     13.733
REMARK  0 active torsions:
REMARK  status: ('A' for Active; 'I' for Inactive)
ROOT
HETATM    1  C1  UNL     1     -35.008  13.941  -4.538  1.00 20.00     0.064 C 
HETATM    2  C2  UNL     1     -33.673  15.750  -3.479  1.00 20.00     0.021 C 
HETATM    3  C3  UNL     1     -33.623  17.194  -3.972  1.00 20.00     0.021 C 
HETATM    4  C4  UNL     1     -34.194  15.879  -5.873  1.00 20.00     0.039 C 
HETATM    5  C5  UNL     1     -33.902  14.890  -4.733  1.00 20.00     0.094 C 
HETATM    6  C6  UNL     1     -34.523  17.209  -5.199  1.00 20.00     0.083 C 
HETATM    7  N7  UNL     1     -35.881  13.193  -4.383  1.00 20.00    -0.197 NA
HETATM    8 CL8  UNL     1     -36.245  17.280  -4.729  1.00 20.00    -0.125 Cl
ENDROOT
TORSDOF 0
ENDMDL
