MODEL 1
REMARK VINA RESULT:      -4.3      0.000      0.000
REMARK  2 active torsions:
REMARK  status: ('A' for Active; 'I' for Inactive)
REMARK    1  A    between atoms: C4_4  and  C5_5 
REMARK    2  A    between atoms: C4_4  and  C6_6 
ROOT
HETATM    1  C1  UNL     1     -32.653   7.297   3.414  1.00 20.00     0.063 C 
HETATM    2  C2  UNL     1     -32.124   9.153   4.930  1.00 20.00     0.025 C 
HETATM    3  C5  UNL     1     -33.218   8.207   4.429  1.00 20.00     0.090 C 
HETATM    4  N7  UNL     1     -32.212   6.582   2.614  1.00 20.00    -0.197 NA
ENDROOT
BRANCH   3   5
HETATM    5  C4  UNL     1     -33.819   7.422   5.612  1.00 20.00     0.038 C 
BRANCH   5   6
HETATM    6  C6  UNL     1     -34.271   5.987   5.282  1.00 20.00     0.079 C 
HETATM    7  C3  UNL     1     -34.520   5.188   6.557  1.00 20.00     0.026 C 
HETATM    8 CL8  UNL     1     -35.770   5.994   4.305  1.00 20.00    -0.125 Cl
ENDBRANCH   5   6
ENDBRANCH   3   5
TORSDOF 2
ENDMDL
MODEL 2
REMARK VINA RESULT:      -4.0      1.560      2.008
REMARK  2 active torsions:
REMARK  status: ('A' for Active; 'I' for Inactive)
REMARK    1  A    between atoms: C4_4  and  C5_5 
REMARK    2  A    between atoms: C4_4  and  C6_6 
ROOT
HETATM    1  C1  UNL     1     -32.701   8.881   2.374  1.00 20.00     0.063 C 
HETATM    2  C2  UNL     1     -32.393   6.494   2.855  1.00 20.00     0.025 C 
HETATM    3  C5  UNL     1     -32.483   7.900   3.454  1.00 20.00     0.090 C 
HETATM    4  N7  UNL     1     -32.872   9.655   1.526  1.00 20.00    -0.197 NA
ENDROOT
BRANCH   3   5
HETATM    5  C4  UNL     1     -33.614   7.956   4.500  1.00 20.00     0.038 C 
BRANCH   5   6
HETATM    6  C6  UNL     1     -34.006   6.599   5.113  1.00 20.00     0.079 C 
HETATM    7  C3  UNL     1     -34.196   6.717   6.621  1.00 20.00     0.026 C 
HETATM    8 CL8  UNL     1     -35.520   5.978   4.389  1.00 20.00    -0.125 Cl
ENDBRANCH   5   6
ENDBRANCH   3   5
TORSDOF 2
ENDMDL
MODEL 3
REMARK VINA RESULT:      -3.8      1.926      2.346
REMARK  2 active torsions:
REMARK  status: ('A' for Active; 'I' for Inactive)
REMARK    1  A    between atoms: C4_4  and  C5_5 
REMARK    2  A    between atoms: C4_4  and  C6_6 
ROOT
HETATM    1  C1  UNL     1     -32.414   8.381   4.638  1.00 20.00     0.063 C 
HETATM    2  C2  UNL     1     -32.344   7.108   2.541  1.00 20.00     0.025 C 
HETATM    3  C5  UNL     1     -32.819   7.116   3.996  1.00 20.00     0.090 C 
HETATM    4  N7  UNL     1     -32.096   9.374   5.146  1.00 20.00    -0.197 NA
ENDROOT
BRANCH   3   5
HETATM    5  C4  UNL     1     -34.347   6.922   4.053  1.00 20.00     0.038 C 
BRANCH   5   6
HETATM    6  C6  UNL     1     -34.822   5.706   4.869  1.00 20.00     0.079 C 
HETATM    7  C3  UNL     1     -34.089   4.440   4.437  1.00 20.00     0.026 C 
HETATM    8 CL8  UNL     1     -34.551   5.959   6.619  1.00 20.00    -0.125 Cl
ENDBRANCH   5   6
ENDBRANCH   3   5
TORSDOF 2
ENDMDL
MODEL 4
REMARK VINA RESULT:      -3.8     12.386     12.763
REMARK  2 active torsions:
REMARK  status: ('A' for Active; 'I' for Inactive)
REMARK    1  A    between atoms: C4_4  and  C5_5 
REMARK    2  A    between atoms: C4_4  and  C6_6 
ROOT
HETATM    1  C1  UNL     1     -31.809  18.467  -0.646  1.00 20.00     0.063 C 
HETATM    2  C2  UNL     1     -33.999  18.263   0.444  1.00 20.00     0.025 C 
HETATM    3  C5  UNL     1     -33.251  18.273  -0.891  1.00 20.00     0.090 C 
HETATM    4  N7  UNL     1     -30.675  18.621  -0.455  1.00 20.00    -0.197 NA
ENDROOT
BRANCH   3   5
HETATM    5  C4  UNL     1     -33.517  16.960  -1.655  1.00 20.00     0.038 C 
BRANCH   5   6
HETATM    6  C6  UNL     1     -33.366  17.052  -3.184  1.00 20.00     0.079 C 
HETATM    7  C3  UNL     1     -33.267  15.663  -3.806  1.00 20.00     0.026 C 
HETATM    8 CL8  UNL     1     -34.753  17.913  -3.918  1.00 20.00    -0.125 Cl
ENDBRANCH   5   6
ENDBRANCH   3   5
TORSDOF 2
ENDMDL
MODEL 5
REMARK VINA RESULT:      -3.8      2.167      3.424
REMARK  2 active torsions:
REMARK  status: ('A' for Active; 'I' for Inactive)
REMARK    1  A    between atoms: C4_4  and  C5_5 
REMARK    2  A    between atoms: C4_4  and  C6_6 
ROOT
HETATM    1  C1  UNL     1     -34.131   5.306   4.921  1.00 20.00     0.063 C 
HETATM    2  C2  UNL     1     -34.467   6.803   6.837  1.00 20.00     0.025 C 
HETATM    3  C5  UNL     1     -33.769   6.620   5.487  1.00 20.00     0.090 C 
HETATM    4  N7  UNL     1     -34.412   4.272   4.475  1.00 20.00    -0.197 NA
ENDROOT
BRANCH   3   5
HETATM    5  C4  UNL     1     -34.157   7.766   4.532  1.00 20.00     0.038 C 
BRANCH   5   6
HETATM    6  C6  UNL     1     -32.974   8.473   3.845  1.00 20.00     0.079 C 
HETATM    7  C3  UNL     1     -32.012   9.054   4.876  1.00 20.00     0.026 C 
HETATM    8 CL8  UNL     1     -32.074   7.343   2.790  1.00 20.00    -0.125 Cl
ENDBRANCH   5   6
ENDBRANCH   3   5
TORSDOF 2
ENDMDL
MODEL 6
REMARK VINA RESULT:      -3.7      1.591      1.677
REMARK  2 active torsions:
REMARK  status: ('A' for Active; 'I' for Inactive)
REMARK    1  A    between atoms: C4_4  and  C5_5 
REMARK    2  A    between atoms: C4_4  and  C6_6 
ROOT
HETATM    1  C1  UNL     1     -32.488   8.296   2.347  1.00 20.00     0.063 C 
HETATM    2  C2  UNL     1     -32.121   8.972   4.678  1.00 20.00     0.025 C 
HETATM    3  C5  UNL     1     -33.025   8.196   3.717  1.00 20.00     0.090 C 
HETATM    4  N7  UNL     1     -32.068   8.374   1.268  1.00 20.00    -0.197 NA
ENDROOT
BRANCH   3   5
HETATM    5  C4  UNL     1     -33.136   6.726   4.169  1.00 20.00     0.038 C 
BRANCH   5   6
HETATM    6  C6  UNL     1     -34.423   6.374   4.939  1.00 20.00     0.079 C 
HETATM    7  C3  UNL     1     -34.692   4.874   4.893  1.00 20.00     0.026 C 
HETATM    8 CL8  UNL     1     -34.310   6.886   6.650  1.00 20.00    -0.125 Cl
ENDBRANCH   5   6
ENDBRANCH   3   5
TORSDOF 2
ENDMDL
MODEL 7
REMARK VINA RESULT:      -3.7     15.491     15.927
REMARK  2 active torsions:
REMARK  status: ('A' for Active; 'I' for Inactive)
REMARK    1  A    between atoms: C4_4  and  C5_5 
REMARK    2  A    between atoms: C4_4  and  C6_6 
ROOT
HETATM    1  C1  UNL     1     -22.289  17.821   8.552  1.00 20.00     0.063 C 
HETATM    2  C2  UNL     1     -21.926  18.556  10.866  1.00 20.00     0.025 C 
HETATM    3  C5  UNL     1     -22.853  18.629   9.650  1.00 20.00     0.090 C 
HETATM    4  N7  UNL     1     -21.847  17.187   7.686  1.00 20.00    -0.197 NA
ENDROOT
BRANCH   3   5
HETATM    5  C4  UNL     1     -24.265  18.145  10.034  1.00 20.00     0.038 C 
BRANCH   5   6
HETATM    6  C6  UNL     1     -24.463  17.826  11.527  1.00 20.00     0.079 C 
HETATM    7  C3  UNL     1     -25.757  18.443  12.049  1.00 20.00     0.026 C 
HETATM    8 CL8  UNL     1     -24.514  16.059  11.807  1.00 20.00    -0.125 Cl
ENDBRANCH   5   6
ENDBRANCH   3   5
TORSDOF 2
ENDMDL
MODEL 8
REMARK VINA RESULT:      -3.7      2.422      3.508
REMARK  2 active torsions:
REMARK  status: ('A' for Active; 'I' for Inactive)
REMARK    1  A    between atoms: C4_4  and  C5_5 
REMARK    2  A    between atoms: C4_4  and  C6_6 
ROOT
HETATM    1  C1  UNL     1     -34.286   5.630   4.993  1.00 20.00     0.063 C 
HETATM    2  C2  UNL     1     -34.191   7.310   6.780  1.00 20.00     0.025 C 
HETATM    3  C5  UNL     1     -33.619   6.871   5.430  1.00 20.00     0.090 C 
HETATM    4  N7  UNL     1     -34.809   4.653   4.648  1.00 20.00    -0.197 NA
ENDROOT
BRANCH   3   5
HETATM    5  C4  UNL     1     -33.795   7.997   4.392  1.00 20.00     0.038 C 
BRANCH   5   6
HETATM    6  C6  UNL     1     -32.547   8.305   3.544  1.00 20.00     0.079 C 
HETATM    7  C3  UNL     1     -32.069   7.058   2.806  1.00 20.00     0.026 C 
HETATM    8 CL8  UNL     1     -32.885   9.589   2.344  1.00 20.00    -0.125 Cl
ENDBRANCH   5   6
ENDBRANCH   3   5
TORSDOF 2
ENDMDL
MODEL 9
REMARK VINA RESULT:      -3.6      2.019      2.535
REMARK  2 active torsions:
REMARK  status: ('A' for Active; 'I' for Inactive)
REMARK    1  A    between atoms: C4_4  and  C5_5 
REMARK    2  A    between atoms: C4_4  and  C6_6 
ROOT
HETATM    1  C1  UNL     1     -33.042   8.331   4.948  1.00 20.00     0.063 C 
HETATM    2  C2  UNL     1     -34.140   6.944   6.650  1.00 20.00     0.025 C 
HETATM    3  C5  UNL     1     -34.278   7.594   5.270  1.00 20.00     0.090 C 
HETATM    4  N7  UNL     1     -32.071   8.914   4.694  1.00 20.00    -0.197 NA
ENDROOT
BRANCH   3   5
HETATM    5  C4  UNL     1     -34.581   6.517   4.209  1.00 20.00     0.038 C 
BRANCH   5   6
HETATM    6  C6  UNL     1     -33.495   5.438   4.044  1.00 20.00     0.079 C 
HETATM    7  C3  UNL     1     -34.018   4.070   4.467  1.00 20.00     0.026 C 
HETATM    8 CL8  UNL     1     -32.936   5.341   2.347  1.00 20.00    -0.125 Cl
ENDBRANCH   5   6
ENDBRANCH   3   5
TORSDOF 2
ENDMDL
