MODEL 1
REMARK VINA RESULT:      -4.8      0.000      0.000
REMARK  0 active torsions:
REMARK  status: ('A' for Active; 'I' for Inactive)
ROOT
HETATM    1  C1  UNL     1     -32.726   8.521   4.922  1.00 20.00     0.095 C 
HETATM    2  C2  UNL     1     -34.092   6.657   4.173  1.00 20.00     0.011 C 
HETATM    3  C3  UNL     1     -33.501   7.360   5.146  1.00 20.00     0.020 C 
HETATM    4  C4  UNL     1     -33.750   6.758   6.493  1.00 20.00     0.051 C 
HETATM    5  C5  UNL     1     -34.906   5.795   6.212  1.00 20.00     0.029 C 
HETATM    6  C6  UNL     1     -34.832   5.477   4.716  1.00 20.00     0.106 C 
HETATM    7  N7  UNL     1     -32.090   9.473   4.737  1.00 20.00    -0.192 NA
HETATM    8 CL8  UNL     1     -33.905   3.993   4.405  1.00 20.00    -0.121 Cl
ENDROOT
TORSDOF 0
ENDMDL
MODEL 2
REMARK VINA RESULT:      -4.6      3.012      3.833
REMARK  0 active torsions:
REMARK  status: ('A' for Active; 'I' for Inactive)
ROOT
HETATM    1  C1  UNL     1     -34.368   5.673   4.708  1.00 20.00     0.095 C 
HETATM    2  C2  UNL     1     -32.731   6.920   3.417  1.00 20.00     0.011 C 
HETATM    3  C3  UNL     1     -33.589   6.822   4.440  1.00 20.00     0.020 C 
HETATM    4  C4  UNL     1     -33.631   8.080   5.249  1.00 20.00     0.051 C 
HETATM    5  C5  UNL     1     -32.375   8.815   4.776  1.00 20.00     0.029 C 
HETATM    6  C6  UNL     1     -32.062   8.256   3.385  1.00 20.00     0.106 C 
HETATM    7  N7  UNL     1     -35.007   4.731   4.928  1.00 20.00    -0.192 NA
HETATM    8 CL8  UNL     1     -32.776   9.254   2.099  1.00 20.00    -0.121 Cl
ENDROOT
TORSDOF 0
ENDMDL
MODEL 3
REMARK VINA RESULT:      -4.0      1.752      1.986
REMARK  0 active torsions:
REMARK  status: ('A' for Active; 'I' for Inactive)
ROOT
HETATM    1  C1  UNL     1     -32.507   7.493   2.913  1.00 20.00     0.095 C 
HETATM    2  C2  UNL     1     -34.129   6.303   4.274  1.00 20.00     0.011 C 
HETATM    3  C3  UNL     1     -33.186   7.241   4.127  1.00 20.00     0.020 C 
HETATM    4  C4  UNL     1     -32.933   7.976   5.405  1.00 20.00     0.051 C 
HETATM    5  C5  UNL     1     -34.148   7.589   6.251  1.00 20.00     0.029 C 
HETATM    6  C6  UNL     1     -34.657   6.266   5.672  1.00 20.00     0.106 C 
HETATM    7  N7  UNL     1     -31.949   7.699   1.917  1.00 20.00    -0.192 NA
HETATM    8 CL8  UNL     1     -33.978   4.867   6.532  1.00 20.00    -0.121 Cl
ENDROOT
TORSDOF 0
ENDMDL
MODEL 4
REMARK VINA RESULT:      -3.8     15.606     16.298
REMARK  0 active torsions:
REMARK  status: ('A' for Active; 'I' for Inactive)
ROOT
HETATM    1  C1  UNL     1     -23.188  18.685   8.497  1.00 20.00     0.095 C 
HETATM    2  C2  UNL     1     -24.505  18.047  10.435  1.00 20.00     0.011 C 
HETATM    3  C3  UNL     1     -23.340  18.383   9.870  1.00 20.00     0.020 C 
HETATM    4  C4  UNL     1     -22.222  18.384  10.864  1.00 20.00     0.051 C 
HETATM    5  C5  UNL     1     -22.971  18.370  12.198  1.00 20.00     0.029 C 
HETATM    6  C6  UNL     1     -24.350  17.776  11.897  1.00 20.00     0.106 C 
HETATM    7  N7  UNL     1     -23.063  18.931   7.370  1.00 20.00    -0.192 NA
HETATM    8 CL8  UNL     1     -24.390  16.024  12.189  1.00 20.00    -0.121 Cl
ENDROOT
TORSDOF 0
ENDMDL
MODEL 5
REMARK VINA RESULT:      -3.7     12.620     13.518
REMARK  0 active torsions:
REMARK  status: ('A' for Active; 'I' for Inactive)
ROOT
HETATM    1  C1  UNL     1     -33.572  15.374  -3.781  1.00 20.00     0.095 C 
HETATM    2  C2  UNL     1     -33.498  16.811  -1.824  1.00 20.00     0.011 C 
HETATM    3  C3  UNL     1     -33.462  16.634  -3.150  1.00 20.00     0.020 C 
HETATM    4  C4  UNL     1     -33.276  17.929  -3.877  1.00 20.00     0.051 C 
HETATM    5  C5  UNL     1     -33.592  18.961  -2.791  1.00 20.00     0.029 C 
HETATM    6  C6  UNL     1     -33.347  18.252  -1.456  1.00 20.00     0.106 C 
HETATM    7  N7  UNL     1     -33.661  14.339  -4.298  1.00 20.00    -0.192 NA
HETATM    8 CL8  UNL     1     -31.704  18.547  -0.848  1.00 20.00    -0.121 Cl
ENDROOT
TORSDOF 0
ENDMDL
MODEL 6
REMARK VINA RESULT:      -3.6      1.382      1.972
REMARK  0 active torsions:
REMARK  status: ('A' for Active; 'I' for Inactive)
ROOT
HETATM    1  C1  UNL     1     -32.439   8.572   4.791  1.00 20.00     0.095 C 
HETATM    2  C2  UNL     1     -34.050   6.831   5.314  1.00 20.00     0.011 C 
HETATM    3  C3  UNL     1     -33.132   7.373   4.505  1.00 20.00     0.020 C 
HETATM    4  C4  UNL     1     -32.944   6.564   3.261  1.00 20.00     0.051 C 
HETATM    5  C5  UNL     1     -33.618   5.240   3.627  1.00 20.00     0.029 C 
HETATM    6  C6  UNL     1     -34.615   5.571   4.740  1.00 20.00     0.106 C 
HETATM    7  N7  UNL     1     -31.871   9.556   5.025  1.00 20.00    -0.192 NA
HETATM    8 CL8  UNL     1     -36.241   5.885   4.094  1.00 20.00    -0.121 Cl
ENDROOT
TORSDOF 0
ENDMDL
MODEL 7
REMARK VINA RESULT:      -3.6     12.511     12.852
REMARK  0 active torsions:
REMARK  status: ('A' for Active; 'I' for Inactive)
ROOT
HETATM    1  C1  UNL     1     -31.073  18.487   1.448  1.00 20.00     0.095 C 
HETATM    2  C2  UNL     1     -31.809  18.383  -0.864  1.00 20.00     0.011 C 
HETATM    3  C3  UNL     1     -32.070  18.442   0.447  1.00 20.00     0.020 C 
HETATM    4  C4  UNL     1     -33.541  18.440   0.719  1.00 20.00     0.051 C 
HETATM    5  C5  UNL     1     -34.129  18.758  -0.658  1.00 20.00     0.029 C 
HETATM    6  C6  UNL     1     -33.064  18.337  -1.675  1.00 20.00     0.106 C 
HETATM    7  N7  UNL     1     -30.255  18.522   2.270  1.00 20.00    -0.192 NA
HETATM    8 CL8  UNL     1     -33.337  16.682  -2.264  1.00 20.00    -0.121 Cl
ENDROOT
TORSDOF 0
ENDMDL
MODEL 8
REMARK VINA RESULT:      -3.5     13.039     13.985
REMARK  0 active torsions:
REMARK  status: ('A' for Active; 'I' for Inactive)
ROOT
HETATM    1  C1  UNL     1     -35.391  14.927  -6.213  1.00 20.00     0.095 C 
HETATM    2  C2  UNL     1     -34.508  16.927  -5.153  1.00 20.00     0.011 C 
HETATM    3  C3  UNL     1     -34.675  15.599  -5.196  1.00 20.00     0.020 C 
HETATM    4  C4  UNL     1     -34.025  14.922  -4.031  1.00 20.00     0.051 C 
HETATM    5  C5  UNL     1     -33.110  16.020  -3.483  1.00 20.00     0.029 C 
HETATM    6  C6  UNL     1     -33.716  17.344  -3.956  1.00 20.00     0.106 C 
HETATM    7  N7  UNL     1     -35.980  14.376  -7.046  1.00 20.00    -0.192 NA
HETATM    8 CL8  UNL     1     -34.801  18.043  -2.734  1.00 20.00    -0.121 Cl
ENDROOT
TORSDOF 0
ENDMDL
MODEL 9
REMARK VINA RESULT:      -3.4     12.414     13.159
REMARK  0 active torsions:
REMARK  status: ('A' for Active; 'I' for Inactive)
ROOT
HETATM    1  C1  UNL     1     -33.228  17.061  -2.431  1.00 20.00     0.095 C 
HETATM    2  C2  UNL     1     -33.587  15.151  -3.888  1.00 20.00     0.011 C 
HETATM    3  C3  UNL     1     -33.746  16.447  -3.594  1.00 20.00     0.020 C 
HETATM    4  C4  UNL     1     -34.550  17.157  -4.638  1.00 20.00     0.051 C 
HETATM    5  C5  UNL     1     -34.523  16.164  -5.802  1.00 20.00     0.029 C 
HETATM    6  C6  UNL     1     -34.254  14.792  -5.177  1.00 20.00     0.106 C 
HETATM    7  N7  UNL     1     -32.804  17.565  -1.476  1.00 20.00    -0.192 NA
HETATM    8 CL8  UNL     1     -35.763  13.914  -4.846  1.00 20.00    -0.121 Cl
ENDROOT
TORSDOF 0
ENDMDL
