MODEL 1
REMARK VINA RESULT:      -4.1      0.000      0.000
REMARK  2 active torsions:
REMARK  status: ('A' for Active; 'I' for Inactive)
REMARK    1  A    between atoms: C5_5  and  C6_6 
REMARK    2  A    between atoms: C5_5  and  C7_7 
ROOT
HETATM    1  C1  UNL     1     -33.568   5.446   3.605  1.00 20.00     0.068 C 
HETATM    2  C3  UNL     1     -35.850   6.045   4.225  1.00 20.00     0.031 C 
HETATM    3  C4  UNL     1     -34.244   5.250   5.964  1.00 20.00     0.031 C 
HETATM    4  C7  UNL     1     -34.375   6.075   4.676  1.00 20.00     0.043 C 
HETATM    5  N8  UNL     1     -32.947   4.946   2.761  1.00 20.00    -0.196 NA
ENDROOT
BRANCH   4   6
HETATM    6  C5  UNL     1     -33.966   7.562   4.889  1.00 20.00     0.043 C 
BRANCH   6   7
HETATM    7  C6  UNL     1     -32.612   8.037   4.322  1.00 20.00     0.080 C 
HETATM    8  C2  UNL     1     -32.035   9.161   5.182  1.00 20.00     0.026 C 
HETATM    9 CL9  UNL     1     -32.750   8.632   2.643  1.00 20.00    -0.125 Cl
ENDBRANCH   6   7
ENDBRANCH   4   6
TORSDOF 2
ENDMDL
MODEL 2
REMARK VINA RESULT:      -3.6     12.298     13.235
REMARK  2 active torsions:
REMARK  status: ('A' for Active; 'I' for Inactive)
REMARK    1  A    between atoms: C5_5  and  C6_6 
REMARK    2  A    between atoms: C5_5  and  C7_7 
ROOT
HETATM    1  C1  UNL     1     -31.787  18.420  -1.059  1.00 20.00     0.068 C 
HETATM    2  C3  UNL     1     -34.199  18.783  -0.992  1.00 20.00     0.031 C 
HETATM    3  C4  UNL     1     -32.915  19.263  -3.079  1.00 20.00     0.031 C 
HETATM    4  C7  UNL     1     -33.021  18.318  -1.874  1.00 20.00     0.043 C 
HETATM    5  N8  UNL     1     -30.827  18.509  -0.414  1.00 20.00    -0.196 NA
ENDROOT
BRANCH   4   6
HETATM    6  C5  UNL     1     -33.291  16.847  -2.305  1.00 20.00     0.043 C 
BRANCH   6   7
HETATM    7  C6  UNL     1     -33.353  16.526  -3.812  1.00 20.00     0.080 C 
HETATM    8  C2  UNL     1     -34.767  16.749  -4.350  1.00 20.00     0.026 C 
HETATM    9 CL9  UNL     1     -32.878  14.841  -4.169  1.00 20.00    -0.125 Cl
ENDBRANCH   6   7
ENDBRANCH   4   6
TORSDOF 2
ENDMDL
MODEL 3
REMARK VINA RESULT:      -3.6     11.938     12.788
REMARK  2 active torsions:
REMARK  status: ('A' for Active; 'I' for Inactive)
REMARK    1  A    between atoms: C5_5  and  C6_6 
REMARK    2  A    between atoms: C5_5  and  C7_7 
ROOT
HETATM    1  C1  UNL     1     -35.365  14.136  -4.741  1.00 20.00     0.068 C 
HETATM    2  C3  UNL     1     -34.085  15.194  -6.529  1.00 20.00     0.031 C 
HETATM    3  C4  UNL     1     -35.900  16.457  -5.366  1.00 20.00     0.031 C 
HETATM    4  C7  UNL     1     -34.778  15.427  -5.169  1.00 20.00     0.043 C 
HETATM    5  N8  UNL     1     -35.826  13.120  -4.419  1.00 20.00    -0.196 NA
ENDROOT
BRANCH   4   6
HETATM    6  C5  UNL     1     -33.703  15.919  -4.157  1.00 20.00     0.043 C 
BRANCH   6   7
HETATM    7  C6  UNL     1     -33.997  17.193  -3.338  1.00 20.00     0.080 C 
HETATM    8  C2  UNL     1     -33.183  18.372  -3.869  1.00 20.00     0.026 C 
HETATM    9 CL9  UNL     1     -33.621  16.989  -1.604  1.00 20.00    -0.125 Cl
ENDBRANCH   6   7
ENDBRANCH   4   6
TORSDOF 2
ENDMDL
MODEL 4
REMARK VINA RESULT:      -3.6      2.540      3.967
REMARK  2 active torsions:
REMARK  status: ('A' for Active; 'I' for Inactive)
REMARK    1  A    between atoms: C5_5  and  C6_6 
REMARK    2  A    between atoms: C5_5  and  C7_7 
ROOT
HETATM    1  C1  UNL     1     -32.882   9.216   2.460  1.00 20.00     0.068 C 
HETATM    2  C3  UNL     1     -31.884   7.123   3.222  1.00 20.00     0.031 C 
HETATM    3  C4  UNL     1     -31.981   9.098   4.748  1.00 20.00     0.031 C 
HETATM    4  C7  UNL     1     -32.734   8.340   3.645  1.00 20.00     0.043 C 
HETATM    5  N8  UNL     1     -32.985   9.897   1.525  1.00 20.00    -0.196 NA
ENDROOT
BRANCH   4   6
HETATM    6  C5  UNL     1     -34.116   7.817   4.134  1.00 20.00     0.043 C 
BRANCH   6   7
HETATM    7  C6  UNL     1     -34.152   6.536   4.993  1.00 20.00     0.080 C 
HETATM    8  C2  UNL     1     -35.332   5.652   4.590  1.00 20.00     0.026 C 
HETATM    9 CL9  UNL     1     -34.289   6.891   6.738  1.00 20.00    -0.125 Cl
ENDBRANCH   6   7
ENDBRANCH   4   6
TORSDOF 2
ENDMDL
MODEL 5
REMARK VINA RESULT:      -3.5      9.086      9.832
REMARK  2 active torsions:
REMARK  status: ('A' for Active; 'I' for Inactive)
REMARK    1  A    between atoms: C5_5  and  C6_6 
REMARK    2  A    between atoms: C5_5  and  C7_7 
ROOT
HETATM    1  C1  UNL     1     -40.784  13.627   7.671  1.00 20.00     0.068 C 
HETATM    2  C3  UNL     1     -42.713  12.297   6.987  1.00 20.00     0.031 C 
HETATM    3  C4  UNL     1     -41.812  14.071   5.478  1.00 20.00     0.031 C 
HETATM    4  C7  UNL     1     -41.424  12.989   6.496  1.00 20.00     0.043 C 
HETATM    5  N8  UNL     1     -40.296  14.127   8.597  1.00 20.00    -0.196 NA
ENDROOT
BRANCH   4   6
HETATM    6  C5  UNL     1     -40.499  11.902   5.873  1.00 20.00     0.043 C 
BRANCH   6   7
HETATM    7  C6  UNL     1     -39.234  12.362   5.120  1.00 20.00     0.080 C 
HETATM    8  C2  UNL     1     -39.084  11.596   3.807  1.00 20.00     0.026 C 
HETATM    9 CL9  UNL     1     -37.747  12.124   6.081  1.00 20.00    -0.125 Cl
ENDBRANCH   6   7
ENDBRANCH   4   6
TORSDOF 2
ENDMDL
MODEL 6
REMARK VINA RESULT:      -3.5     11.873     12.565
REMARK  2 active torsions:
REMARK  status: ('A' for Active; 'I' for Inactive)
REMARK    1  A    between atoms: C5_5  and  C6_6 
REMARK    2  A    between atoms: C5_5  and  C7_7 
ROOT
HETATM    1  C1  UNL     1     -35.132  14.010  -4.641  1.00 20.00     0.068 C 
HETATM    2  C3  UNL     1     -32.753  14.523  -4.464  1.00 20.00     0.031 C 
HETATM    3  C4  UNL     1     -34.044  15.228  -6.483  1.00 20.00     0.031 C 
HETATM    4  C7  UNL     1     -34.119  15.043  -4.961  1.00 20.00     0.043 C 
HETATM    5  N8  UNL     1     -35.916  13.191  -4.390  1.00 20.00    -0.196 NA
ENDROOT
BRANCH   4   6
HETATM    6  C5  UNL     1     -34.425  16.379  -4.222  1.00 20.00     0.043 C 
BRANCH   6   7
HETATM    7  C6  UNL     1     -33.281  17.064  -3.447  1.00 20.00     0.080 C 
HETATM    8  C2  UNL     1     -33.554  17.025  -1.944  1.00 20.00     0.026 C 
HETATM    9 CL9  UNL     1     -33.057  18.769  -3.931  1.00 20.00    -0.125 Cl
ENDBRANCH   6   7
ENDBRANCH   4   6
TORSDOF 2
ENDMDL
MODEL 7
REMARK VINA RESULT:      -3.5      9.199      9.935
REMARK  2 active torsions:
REMARK  status: ('A' for Active; 'I' for Inactive)
REMARK    1  A    between atoms: C5_5  and  C6_6 
REMARK    2  A    between atoms: C5_5  and  C7_7 
ROOT
HETATM    1  C1  UNL     1     -41.844  13.916   4.801  1.00 20.00     0.068 C 
HETATM    2  C3  UNL     1     -40.841  14.369   6.979  1.00 20.00     0.031 C 
HETATM    3  C4  UNL     1     -42.798  12.828   6.794  1.00 20.00     0.031 C 
HETATM    4  C7  UNL     1     -41.507  13.289   6.101  1.00 20.00     0.043 C 
HETATM    5  N8  UNL     1     -42.108  14.419   3.789  1.00 20.00    -0.196 NA
ENDROOT
BRANCH   4   6
HETATM    6  C5  UNL     1     -40.493  12.123   5.917  1.00 20.00     0.043 C 
BRANCH   6   7
HETATM    7  C6  UNL     1     -39.195  12.399   5.130  1.00 20.00     0.080 C 
HETATM    8  C2  UNL     1     -39.128  11.518   3.882  1.00 20.00     0.026 C 
HETATM    9 CL9  UNL     1     -37.730  12.099   6.106  1.00 20.00    -0.125 Cl
ENDBRANCH   6   7
ENDBRANCH   4   6
TORSDOF 2
ENDMDL
MODEL 8
REMARK VINA RESULT:      -3.4     11.904     12.686
REMARK  2 active torsions:
REMARK  status: ('A' for Active; 'I' for Inactive)
REMARK    1  A    between atoms: C5_5  and  C6_6 
REMARK    2  A    between atoms: C5_5  and  C7_7 
ROOT
HETATM    1  C1  UNL     1     -35.732  14.171  -4.931  1.00 20.00     0.068 C 
HETATM    2  C3  UNL     1     -34.867  15.289  -6.920  1.00 20.00     0.031 C 
HETATM    3  C4  UNL     1     -36.905  16.165  -5.773  1.00 20.00     0.031 C 
HETATM    4  C7  UNL     1     -35.538  15.504  -5.547  1.00 20.00     0.043 C 
HETATM    5  N8  UNL     1     -35.884  13.120  -4.461  1.00 20.00    -0.196 NA
ENDROOT
BRANCH   4   6
HETATM    6  C5  UNL     1     -34.594  16.391  -4.683  1.00 20.00     0.043 C 
BRANCH   6   7
HETATM    7  C6  UNL     1     -33.759  15.712  -3.578  1.00 20.00     0.080 C 
HETATM    8  C2  UNL     1     -33.283  16.743  -2.555  1.00 20.00     0.026 C 
HETATM    9 CL9  UNL     1     -32.327  14.867  -4.230  1.00 20.00    -0.125 Cl
ENDBRANCH   6   7
ENDBRANCH   4   6
TORSDOF 2
ENDMDL
MODEL 9
REMARK VINA RESULT:      -3.4     12.270     13.044
REMARK  2 active torsions:
REMARK  status: ('A' for Active; 'I' for Inactive)
REMARK    1  A    between atoms: C5_5  and  C6_6 
REMARK    2  A    between atoms: C5_5  and  C7_7 
ROOT
HETATM    1  C1  UNL     1     -34.085  15.221  -6.468  1.00 20.00     0.068 C 
HETATM    2  C3  UNL     1     -35.797  16.425  -5.212  1.00 20.00     0.031 C 
HETATM    3  C4  UNL     1     -35.207  14.076  -4.598  1.00 20.00     0.031 C 
HETATM    4  C7  UNL     1     -34.639  15.409  -5.106  1.00 20.00     0.043 C 
HETATM    5  N8  UNL     1     -33.664  15.077  -7.539  1.00 20.00    -0.196 NA
ENDROOT
BRANCH   4   6
HETATM    6  C5  UNL     1     -33.569  15.996  -4.140  1.00 20.00     0.043 C 
BRANCH   6   7
HETATM    7  C6  UNL     1     -33.938  17.244  -3.311  1.00 20.00     0.080 C 
HETATM    8  C2  UNL     1     -33.144  18.459  -3.790  1.00 20.00     0.026 C 
HETATM    9 CL9  UNL     1     -33.621  17.020  -1.567  1.00 20.00    -0.125 Cl
ENDBRANCH   6   7
ENDBRANCH   4   6
TORSDOF 2
ENDMDL
