MODEL 1
REMARK VINA RESULT:      -4.2      0.000      0.000
REMARK  3 active torsions:
REMARK  status: ('A' for Active; 'I' for Inactive)
REMARK    1  A    between atoms: C4_4  and  C5_5 
REMARK    2  A    between atoms: C5_5  and  C7_7 
REMARK    3  A    between atoms: C6_6  and  C7_7 
ROOT
HETATM    1  C1  UNL     1     -32.464   8.812   1.071  1.00 20.00     0.059 C 
HETATM    2  C4  UNL     1     -32.031   7.706   1.937  1.00 20.00     0.125 C 
HETATM    3  N8  UNL     1     -32.805   9.683   0.386  1.00 20.00    -0.197 NA
ENDROOT
BRANCH   2   4
HETATM    4  C5  UNL     1     -32.506   7.921   3.378  1.00 20.00     0.034 C 
BRANCH   4   5
HETATM    5  C7  UNL     1     -32.962   6.622   4.068  1.00 20.00     0.086 C 
HETATM    6 CL9  UNL     1     -33.125   5.304   2.861  1.00 20.00    -0.125 Cl
BRANCH   5   7
HETATM    7  C6  UNL     1     -34.267   6.809   4.884  1.00 20.00    -0.004 C 
HETATM    8  C2  UNL     1     -35.260   5.665   4.641  1.00 20.00     0.011 C 
HETATM    9  C3  UNL     1     -34.046   6.990   6.390  1.00 20.00     0.011 C 
ENDBRANCH   5   7
ENDBRANCH   4   5
ENDBRANCH   2   4
TORSDOF 3
ENDMDL
MODEL 2
REMARK VINA RESULT:      -4.2      1.652      1.838
REMARK  3 active torsions:
REMARK  status: ('A' for Active; 'I' for Inactive)
REMARK    1  A    between atoms: C4_4  and  C5_5 
REMARK    2  A    between atoms: C5_5  and  C7_7 
REMARK    3  A    between atoms: C6_6  and  C7_7 
ROOT
HETATM    1  C1  UNL     1     -32.168   8.190   1.722  1.00 20.00     0.059 C 
HETATM    2  C4  UNL     1     -32.066   7.761   3.124  1.00 20.00     0.125 C 
HETATM    3  N8  UNL     1     -32.248   8.529   0.616  1.00 20.00    -0.197 NA
ENDROOT
BRANCH   2   4
HETATM    4  C5  UNL     1     -32.957   6.543   3.391  1.00 20.00     0.034 C 
BRANCH   4   5
HETATM    5  C7  UNL     1     -34.115   6.839   4.362  1.00 20.00     0.086 C 
HETATM    6 CL9  UNL     1     -33.592   8.017   5.611  1.00 20.00    -0.125 Cl
BRANCH   5   7
HETATM    7  C6  UNL     1     -34.697   5.552   5.003  1.00 20.00    -0.004 C 
HETATM    8  C2  UNL     1     -34.048   4.286   4.429  1.00 20.00     0.011 C 
HETATM    9  C3  UNL     1     -34.620   5.522   6.534  1.00 20.00     0.011 C 
ENDBRANCH   5   7
ENDBRANCH   4   5
ENDBRANCH   2   4
TORSDOF 3
ENDMDL
MODEL 3
REMARK VINA RESULT:      -4.1      3.073      4.514
REMARK  3 active torsions:
REMARK  status: ('A' for Active; 'I' for Inactive)
REMARK    1  A    between atoms: C4_4  and  C5_5 
REMARK    2  A    between atoms: C5_5  and  C7_7 
REMARK    3  A    between atoms: C6_6  and  C7_7 
ROOT
HETATM    1  C1  UNL     1     -34.459   5.349   5.370  1.00 20.00     0.059 C 
HETATM    2  C4  UNL     1     -34.302   6.677   5.982  1.00 20.00     0.125 C 
HETATM    3  N8  UNL     1     -34.582   4.302   4.889  1.00 20.00    -0.197 NA
ENDROOT
BRANCH   2   4
HETATM    4  C5  UNL     1     -34.018   7.741   4.917  1.00 20.00     0.034 C 
BRANCH   4   5
HETATM    5  C7  UNL     1     -32.517   7.927   4.628  1.00 20.00     0.086 C 
HETATM    6 CL9  UNL     1     -31.971   9.539   5.196  1.00 20.00    -0.125 Cl
BRANCH   5   7
HETATM    7  C6  UNL     1     -32.166   7.702   3.135  1.00 20.00    -0.004 C 
HETATM    8  C2  UNL     1     -32.573   6.302   2.659  1.00 20.00     0.011 C 
HETATM    9  C3  UNL     1     -32.745   8.758   2.187  1.00 20.00     0.011 C 
ENDBRANCH   5   7
ENDBRANCH   4   5
ENDBRANCH   2   4
TORSDOF 3
ENDMDL
MODEL 4
REMARK VINA RESULT:      -3.8     11.409     12.273
REMARK  3 active torsions:
REMARK  status: ('A' for Active; 'I' for Inactive)
REMARK    1  A    between atoms: C4_4  and  C5_5 
REMARK    2  A    between atoms: C5_5  and  C7_7 
REMARK    3  A    between atoms: C6_6  and  C7_7 
ROOT
HETATM    1  C1  UNL     1     -32.128  18.262  -0.939  1.00 20.00     0.059 C 
HETATM    2  C4  UNL     1     -33.441  17.663  -1.218  1.00 20.00     0.125 C 
HETATM    3  N8  UNL     1     -31.093  18.736  -0.719  1.00 20.00    -0.197 NA
ENDROOT
BRANCH   2   4
HETATM    4  C5  UNL     1     -33.344  16.629  -2.344  1.00 20.00     0.034 C 
BRANCH   4   5
HETATM    5  C7  UNL     1     -33.695  17.204  -3.729  1.00 20.00     0.086 C 
HETATM    6 CL9  UNL     1     -34.975  18.452  -3.576  1.00 20.00    -0.125 Cl
BRANCH   5   7
HETATM    7  C6  UNL     1     -34.093  16.104  -4.747  1.00 20.00    -0.004 C 
HETATM    8  C2  UNL     1     -33.898  14.697  -4.169  1.00 20.00     0.011 C 
HETATM    9  C3  UNL     1     -35.516  16.244  -5.298  1.00 20.00     0.011 C 
ENDBRANCH   5   7
ENDBRANCH   4   5
ENDBRANCH   2   4
TORSDOF 3
ENDMDL
MODEL 5
REMARK VINA RESULT:      -3.7      3.002      3.769
REMARK  3 active torsions:
REMARK  status: ('A' for Active; 'I' for Inactive)
REMARK    1  A    between atoms: C4_4  and  C5_5 
REMARK    2  A    between atoms: C5_5  and  C7_7 
REMARK    3  A    between atoms: C6_6  and  C7_7 
ROOT
HETATM    1  C1  UNL     1     -33.873   4.809   3.763  1.00 20.00     0.059 C 
HETATM    2  C4  UNL     1     -33.090   5.192   2.579  1.00 20.00     0.125 C 
HETATM    3  N8  UNL     1     -34.491   4.507   4.696  1.00 20.00    -0.197 NA
ENDROOT
BRANCH   2   4
HETATM    4  C5  UNL     1     -32.231   6.428   2.866  1.00 20.00     0.034 C 
BRANCH   4   5
HETATM    5  C7  UNL     1     -33.041   7.615   3.421  1.00 20.00     0.086 C 
HETATM    6 CL9  UNL     1     -32.799   9.066   2.394  1.00 20.00    -0.125 Cl
BRANCH   5   7
HETATM    7  C6  UNL     1     -32.716   7.911   4.908  1.00 20.00    -0.004 C 
HETATM    8  C2  UNL     1     -32.064   9.288   5.086  1.00 20.00     0.011 C 
HETATM    9  C3  UNL     1     -33.918   7.784   5.851  1.00 20.00     0.011 C 
ENDBRANCH   5   7
ENDBRANCH   4   5
ENDBRANCH   2   4
TORSDOF 3
ENDMDL
MODEL 6
REMARK VINA RESULT:      -3.7      2.175      2.807
REMARK  3 active torsions:
REMARK  status: ('A' for Active; 'I' for Inactive)
REMARK    1  A    between atoms: C4_4  and  C5_5 
REMARK    2  A    between atoms: C5_5  and  C7_7 
REMARK    3  A    between atoms: C6_6  and  C7_7 
ROOT
HETATM    1  C1  UNL     1     -32.380   7.693   3.634  1.00 20.00     0.059 C 
HETATM    2  C4  UNL     1     -32.660   8.109   5.016  1.00 20.00     0.125 C 
HETATM    3  N8  UNL     1     -32.157   7.365   2.545  1.00 20.00    -0.197 NA
ENDROOT
BRANCH   2   4
HETATM    4  C5  UNL     1     -34.152   7.973   5.337  1.00 20.00     0.034 C 
BRANCH   4   5
HETATM    5  C7  UNL     1     -34.496   6.674   6.090  1.00 20.00     0.086 C 
HETATM    6 CL9  UNL     1     -33.047   6.052   6.947  1.00 20.00    -0.125 Cl
BRANCH   5   7
HETATM    7  C6  UNL     1     -35.114   5.595   5.163  1.00 20.00    -0.004 C 
HETATM    8  C2  UNL     1     -35.894   6.222   4.000  1.00 20.00     0.011 C 
HETATM    9  C3  UNL     1     -34.103   4.580   4.619  1.00 20.00     0.011 C 
ENDBRANCH   5   7
ENDBRANCH   4   5
ENDBRANCH   2   4
TORSDOF 3
ENDMDL
MODEL 7
REMARK VINA RESULT:      -3.6      2.668      3.694
REMARK  3 active torsions:
REMARK  status: ('A' for Active; 'I' for Inactive)
REMARK    1  A    between atoms: C4_4  and  C5_5 
REMARK    2  A    between atoms: C5_5  and  C7_7 
REMARK    3  A    between atoms: C6_6  and  C7_7 
ROOT
HETATM    1  C1  UNL     1     -33.089   7.972   5.447  1.00 20.00     0.059 C 
HETATM    2  C4  UNL     1     -33.933   7.320   6.458  1.00 20.00     0.125 C 
HETATM    3  N8  UNL     1     -32.423   8.488   4.650  1.00 20.00    -0.197 NA
ENDROOT
BRANCH   2   4
HETATM    4  C5  UNL     1     -34.589   6.056   5.891  1.00 20.00     0.034 C 
BRANCH   4   5
HETATM    5  C7  UNL     1     -34.752   6.090   4.360  1.00 20.00     0.086 C 
HETATM    6 CL9  UNL     1     -36.490   6.163   3.922  1.00 20.00    -0.125 Cl
BRANCH   5   7
HETATM    7  C6  UNL     1     -34.038   4.905   3.660  1.00 20.00    -0.004 C 
HETATM    8  C2  UNL     1     -32.915   5.384   2.732  1.00 20.00     0.011 C 
HETATM    9  C3  UNL     1     -33.496   3.841   4.621  1.00 20.00     0.011 C 
ENDBRANCH   5   7
ENDBRANCH   4   5
ENDBRANCH   2   4
TORSDOF 3
ENDMDL
MODEL 8
REMARK VINA RESULT:      -3.5      9.759     10.317
REMARK  3 active torsions:
REMARK  status: ('A' for Active; 'I' for Inactive)
REMARK    1  A    between atoms: C4_4  and  C5_5 
REMARK    2  A    between atoms: C5_5  and  C7_7 
REMARK    3  A    between atoms: C6_6  and  C7_7 
ROOT
HETATM    1  C1  UNL     1     -39.226  11.817   4.329  1.00 20.00     0.059 C 
HETATM    2  C4  UNL     1     -39.377  11.772   5.791  1.00 20.00     0.125 C 
HETATM    3  N8  UNL     1     -39.106  11.852   3.177  1.00 20.00    -0.197 NA
ENDROOT
BRANCH   2   4
HETATM    4  C5  UNL     1     -40.757  12.287   6.215  1.00 20.00     0.034 C 
BRANCH   4   5
HETATM    5  C7  UNL     1     -40.843  13.823   6.266  1.00 20.00     0.086 C 
HETATM    6 CL9  UNL     1     -40.455  14.412   7.916  1.00 20.00    -0.125 Cl
BRANCH   5   7
HETATM    7  C6  UNL     1     -42.215  14.359   5.780  1.00 20.00    -0.004 C 
HETATM    8  C2  UNL     1     -42.271  14.479   4.252  1.00 20.00     0.011 C 
HETATM    9  C3  UNL     1     -43.417  13.550   6.278  1.00 20.00     0.011 C 
ENDBRANCH   5   7
ENDBRANCH   4   5
ENDBRANCH   2   4
TORSDOF 3
ENDMDL
MODEL 9
REMARK VINA RESULT:      -3.5     11.410     12.263
REMARK  3 active torsions:
REMARK  status: ('A' for Active; 'I' for Inactive)
REMARK    1  A    between atoms: C4_4  and  C5_5 
REMARK    2  A    between atoms: C5_5  and  C7_7 
REMARK    3  A    between atoms: C6_6  and  C7_7 
ROOT
HETATM    1  C1  UNL     1     -35.947  14.074  -5.089  1.00 20.00     0.059 C 
HETATM    2  C4  UNL     1     -36.042  15.253  -5.961  1.00 20.00     0.125 C 
HETATM    3  N8  UNL     1     -35.874  13.143  -4.401  1.00 20.00    -0.197 NA
ENDROOT
BRANCH   2   4
HETATM    4  C5  UNL     1     -34.787  16.125  -5.842  1.00 20.00     0.034 C 
BRANCH   4   5
HETATM    5  C7  UNL     1     -34.676  16.848  -4.487  1.00 20.00     0.086 C 
HETATM    6 CL9  UNL     1     -34.909  18.614  -4.706  1.00 20.00    -0.125 Cl
BRANCH   5   7
HETATM    7  C6  UNL     1     -33.345  16.538  -3.754  1.00 20.00    -0.004 C 
HETATM    8  C2  UNL     1     -33.473  16.728  -2.237  1.00 20.00     0.011 C 
HETATM    9  C3  UNL     1     -32.772  15.148  -4.053  1.00 20.00     0.011 C 
ENDBRANCH   5   7
ENDBRANCH   4   5
ENDBRANCH   2   4
TORSDOF 3
ENDMDL
