MODEL 1
REMARK VINA RESULT:      -3.3      0.000      0.000
REMARK  1 active torsions:
REMARK  status: ('A' for Active; 'I' for Inactive)
REMARK    1  A    between atoms: C4_4  and  C7_7 
ROOT
HETATM    1  C1  UNL     1     -33.293  16.638  -2.293  1.00 20.00     0.034 A 
HETATM    2  C2  UNL     1     -33.675  16.423  -3.648  1.00 20.00     0.026 A 
HETATM    3  C3  UNL     1     -33.376  17.967  -1.937  1.00 20.00    -0.019 A 
HETATM    4  C4  UNL     1     -34.037  17.594  -4.277  1.00 20.00     0.018 A 
HETATM    5  C5  UNL     1     -33.068  18.591  -0.632  1.00 20.00     0.056 C 
HETATM    6  S8  UNL     1     -33.914  18.947  -3.234  1.00 20.00    -0.097 SA
HETATM    7 BR10 UNL     1     -33.666  14.706  -4.427  1.00 20.00    -0.050 Br
ENDROOT
BRANCH   4   8
HETATM    8  C7  UNL     1     -34.492  17.806  -5.670  1.00 20.00     0.119 C 
HETATM    9  C6  UNL     1     -34.409  19.261  -6.161  1.00 20.00     0.032 C 
HETATM   10 CL9  UNL     1     -36.181  17.221  -5.877  1.00 20.00    -0.120 Cl
ENDBRANCH   4   8
TORSDOF 1
ENDMDL
MODEL 2
REMARK VINA RESULT:      -3.2      2.464      2.788
REMARK  1 active torsions:
REMARK  status: ('A' for Active; 'I' for Inactive)
REMARK    1  A    between atoms: C4_4  and  C7_7 
ROOT
HETATM    1  C1  UNL     1     -34.652  17.920  -3.675  1.00 20.00     0.034 A 
HETATM    2  C2  UNL     1     -34.971  17.280  -4.907  1.00 20.00     0.026 A 
HETATM    3  C3  UNL     1     -33.745  17.194  -2.935  1.00 20.00    -0.019 A 
HETATM    4  C4  UNL     1     -34.294  16.090  -5.063  1.00 20.00     0.018 A 
HETATM    5  C5  UNL     1     -33.168  17.518  -1.611  1.00 20.00     0.056 C 
HETATM    6  S8  UNL     1     -33.280  15.748  -3.725  1.00 20.00    -0.097 SA
HETATM    7 BR10 UNL     1     -36.184  18.032  -6.137  1.00 20.00    -0.050 Br
ENDROOT
BRANCH   4   8
HETATM    8  C7  UNL     1     -34.341  15.127  -6.187  1.00 20.00     0.119 C 
HETATM    9  C6  UNL     1     -33.908  15.702  -7.546  1.00 20.00     0.032 C 
HETATM   10 CL9  UNL     1     -35.992  14.431  -6.352  1.00 20.00    -0.120 Cl
ENDBRANCH   4   8
TORSDOF 1
ENDMDL
MODEL 3
REMARK VINA RESULT:      -3.0      2.619      3.309
REMARK  1 active torsions:
REMARK  status: ('A' for Active; 'I' for Inactive)
REMARK    1  A    between atoms: C4_4  and  C7_7 
ROOT
HETATM    1  C1  UNL     1     -33.290  16.637  -2.535  1.00 20.00     0.034 A 
HETATM    2  C2  UNL     1     -34.046  17.830  -2.353  1.00 20.00     0.026 A 
HETATM    3  C3  UNL     1     -33.576  16.022  -3.734  1.00 20.00    -0.019 A 
HETATM    4  C4  UNL     1     -34.881  18.083  -3.420  1.00 20.00     0.018 A 
HETATM    5  C5  UNL     1     -33.006  14.773  -4.287  1.00 20.00     0.056 C 
HETATM    6  S8  UNL     1     -34.751  16.882  -4.634  1.00 20.00    -0.097 SA
HETATM    7 BR10 UNL     1     -33.874  18.895  -0.807  1.00 20.00    -0.050 Br
ENDROOT
BRANCH   4   8
HETATM    8  C7  UNL     1     -35.824  19.206  -3.625  1.00 20.00     0.119 C 
HETATM    9  C6  UNL     1     -37.058  19.186  -2.709  1.00 20.00     0.032 C 
HETATM   10 CL9  UNL     1     -36.374  19.263  -5.337  1.00 20.00    -0.120 Cl
ENDBRANCH   4   8
TORSDOF 1
ENDMDL
MODEL 4
REMARK VINA RESULT:      -3.0     12.471     13.622
REMARK  1 active torsions:
REMARK  status: ('A' for Active; 'I' for Inactive)
REMARK    1  A    between atoms: C4_4  and  C7_7 
ROOT
HETATM    1  C1  UNL     1     -41.020  13.284   4.818  1.00 20.00     0.034 A 
HETATM    2  C2  UNL     1     -41.411  14.021   5.972  1.00 20.00     0.026 A 
HETATM    3  C3  UNL     1     -39.944  12.460   5.069  1.00 20.00    -0.019 A 
HETATM    4  C4  UNL     1     -40.620  13.732   7.063  1.00 20.00     0.018 A 
HETATM    5  C5  UNL     1     -39.249  11.544   4.139  1.00 20.00     0.056 C 
HETATM    6  S8  UNL     1     -39.411  12.577   6.692  1.00 20.00    -0.097 SA
HETATM    7 BR10 UNL     1     -42.854  15.233   5.941  1.00 20.00    -0.050 Br
ENDROOT
BRANCH   4   8
HETATM    8  C7  UNL     1     -40.690  14.275   8.439  1.00 20.00     0.119 C 
HETATM    9  C6  UNL     1     -42.016  14.008   9.170  1.00 20.00     0.032 C 
HETATM   10 CL9  UNL     1     -40.378  16.047   8.435  1.00 20.00    -0.120 Cl
ENDBRANCH   4   8
TORSDOF 1
ENDMDL
MODEL 5
REMARK VINA RESULT:      -2.9      2.796      3.696
REMARK  1 active torsions:
REMARK  status: ('A' for Active; 'I' for Inactive)
REMARK    1  A    between atoms: C4_4  and  C7_7 
ROOT
HETATM    1  C1  UNL     1     -35.634  18.542  -3.530  1.00 20.00     0.034 A 
HETATM    2  C2  UNL     1     -34.612  17.551  -3.593  1.00 20.00     0.026 A 
HETATM    3  C3  UNL     1     -36.528  18.430  -4.573  1.00 20.00    -0.019 A 
HETATM    4  C4  UNL     1     -34.763  16.720  -4.681  1.00 20.00     0.018 A 
HETATM    5  C5  UNL     1     -37.716  19.262  -4.858  1.00 20.00     0.056 C 
HETATM    6  S8  UNL     1     -36.133  17.135  -5.622  1.00 20.00    -0.097 SA
HETATM    7 BR10 UNL     1     -33.242  17.447  -2.303  1.00 20.00    -0.050 Br
ENDROOT
BRANCH   4   8
HETATM    8  C7  UNL     1     -33.926  15.575  -5.108  1.00 20.00     0.119 C 
HETATM    9  C6  UNL     1     -34.103  15.160  -6.578  1.00 20.00     0.032 C 
HETATM   10 CL9  UNL     1     -34.232  14.145  -4.060  1.00 20.00    -0.120 Cl
ENDBRANCH   4   8
TORSDOF 1
ENDMDL
MODEL 6
REMARK VINA RESULT:      -2.9     12.639     13.716
REMARK  1 active torsions:
REMARK  status: ('A' for Active; 'I' for Inactive)
REMARK    1  A    between atoms: C4_4  and  C7_7 
ROOT
HETATM    1  C1  UNL     1     -41.352  13.636   4.612  1.00 20.00     0.034 A 
HETATM    2  C2  UNL     1     -40.807  13.349   5.897  1.00 20.00     0.026 A 
HETATM    3  C3  UNL     1     -42.357  14.578   4.676  1.00 20.00    -0.019 A 
HETATM    4  C4  UNL     1     -41.415  14.081   6.893  1.00 20.00     0.018 A 
HETATM    5  C5  UNL     1     -43.163  15.139   3.570  1.00 20.00     0.056 C 
HETATM    6  S8  UNL     1     -42.639  15.110   6.279  1.00 20.00    -0.097 SA
HETATM    7 BR10 UNL     1     -39.416  12.100   6.133  1.00 20.00    -0.050 Br
ENDROOT
BRANCH   4   8
HETATM    8  C7  UNL     1     -41.149  14.079   8.350  1.00 20.00     0.119 C 
HETATM    9  C6  UNL     1     -42.407  14.082   9.235  1.00 20.00     0.032 C 
HETATM   10 CL9  UNL     1     -40.119  15.483   8.804  1.00 20.00    -0.120 Cl
ENDBRANCH   4   8
TORSDOF 1
ENDMDL
MODEL 7
REMARK VINA RESULT:      -2.9     12.331     13.191
REMARK  1 active torsions:
REMARK  status: ('A' for Active; 'I' for Inactive)
REMARK    1  A    between atoms: C4_4  and  C7_7 
ROOT
HETATM    1  C1  UNL     1     -39.689  12.868   6.739  1.00 20.00     0.034 A 
HETATM    2  C2  UNL     1     -40.539  13.867   7.293  1.00 20.00     0.026 A 
HETATM    3  C3  UNL     1     -39.956  12.643   5.405  1.00 20.00    -0.019 A 
HETATM    4  C4  UNL     1     -41.424  14.369   6.364  1.00 20.00     0.018 A 
HETATM    5  C5  UNL     1     -39.298  11.693   4.482  1.00 20.00     0.056 C 
HETATM    6  S8  UNL     1     -41.227  13.635   4.828  1.00 20.00    -0.097 SA
HETATM    7 BR10 UNL     1     -40.413  14.394   9.098  1.00 20.00    -0.050 Br
ENDROOT
BRANCH   4   8
HETATM    8  C7  UNL     1     -42.465  15.408   6.529  1.00 20.00     0.119 C 
HETATM    9  C6  UNL     1     -43.417  15.563   5.332  1.00 20.00     0.032 C 
HETATM   10 CL9  UNL     1     -41.712  17.005   6.880  1.00 20.00    -0.120 Cl
ENDBRANCH   4   8
TORSDOF 1
ENDMDL
MODEL 8
REMARK VINA RESULT:      -2.9      2.501      3.933
REMARK  1 active torsions:
REMARK  status: ('A' for Active; 'I' for Inactive)
REMARK    1  A    between atoms: C4_4  and  C7_7 
ROOT
HETATM    1  C1  UNL     1     -36.661  16.819  -5.638  1.00 20.00     0.034 A 
HETATM    2  C2  UNL     1     -35.299  16.533  -5.334  1.00 20.00     0.026 A 
HETATM    3  C3  UNL     1     -37.149  17.868  -4.889  1.00 20.00    -0.019 A 
HETATM    4  C4  UNL     1     -34.796  17.375  -4.366  1.00 20.00     0.018 A 
HETATM    5  C5  UNL     1     -38.503  18.462  -4.910  1.00 20.00     0.056 C 
HETATM    6  S8  UNL     1     -35.966  18.504  -3.827  1.00 20.00    -0.097 SA
HETATM    7 BR10 UNL     1     -34.353  15.150  -6.197  1.00 20.00    -0.050 Br
ENDROOT
BRANCH   4   8
HETATM    8  C7  UNL     1     -33.440  17.413  -3.772  1.00 20.00     0.119 C 
HETATM    9  C6  UNL     1     -33.293  16.638  -2.452  1.00 20.00     0.032 C 
HETATM   10 CL9  UNL     1     -32.916  19.114  -3.506  1.00 20.00    -0.120 Cl
ENDBRANCH   4   8
TORSDOF 1
ENDMDL
MODEL 9
REMARK VINA RESULT:      -2.8      2.975      4.532
REMARK  1 active torsions:
REMARK  status: ('A' for Active; 'I' for Inactive)
REMARK    1  A    between atoms: C4_4  and  C7_7 
ROOT
HETATM    1  C1  UNL     1     -36.179  17.003  -5.320  1.00 20.00     0.034 A 
HETATM    2  C2  UNL     1     -35.468  17.684  -4.290  1.00 20.00     0.026 A 
HETATM    3  C3  UNL     1     -35.513  15.875  -5.749  1.00 20.00    -0.019 A 
HETATM    4  C4  UNL     1     -34.287  17.051  -3.970  1.00 20.00     0.018 A 
HETATM    5  C5  UNL     1     -35.918  14.909  -6.793  1.00 20.00     0.056 C 
HETATM    6  S8  UNL     1     -34.038  15.642  -4.911  1.00 20.00    -0.097 SA
HETATM    7 BR10 UNL     1     -36.128  19.263  -3.499  1.00 20.00    -0.050 Br
ENDROOT
BRANCH   4   8
HETATM    8  C7  UNL     1     -33.266  17.428  -2.965  1.00 20.00     0.119 C 
HETATM    9  C6  UNL     1     -33.725  17.306  -1.503  1.00 20.00     0.032 C 
HETATM   10 CL9  UNL     1     -32.688  19.108  -3.253  1.00 20.00    -0.120 Cl
ENDBRANCH   4   8
TORSDOF 1
ENDMDL
