MODEL 1
REMARK VINA RESULT:      -4.4      0.000      0.000
REMARK  2 active torsions:
REMARK  status: ('A' for Active; 'I' for Inactive)
REMARK    1  A    between atoms: C4_4  and  C5_5 
REMARK    2  A    between atoms: C4_4  and  C6_6 
ROOT
HETATM    1  C1  UNL     1     -34.364   5.030   4.620  1.00 20.00     0.063 C 
HETATM    2  C2  UNL     1     -34.349   6.382   6.669  1.00 20.00     0.025 C 
HETATM    3  C5  UNL     1     -34.815   6.304   5.213  1.00 20.00     0.090 C 
HETATM    4  N7  UNL     1     -34.012   4.028   4.153  1.00 20.00    -0.197 NA
ENDROOT
BRANCH   3   5
HETATM    5  C4  UNL     1     -34.275   7.512   4.421  1.00 20.00     0.038 C 
BRANCH   5   6
HETATM    6  C6  UNL     1     -32.741   7.609   4.345  1.00 20.00     0.079 C 
HETATM    7  C3  UNL     1     -32.257   8.980   4.806  1.00 20.00     0.026 C 
HETATM    8 CL8  UNL     1     -32.162   7.326   2.675  1.00 20.00    -0.125 Cl
ENDBRANCH   5   6
ENDBRANCH   3   5
TORSDOF 2
ENDMDL
MODEL 2
REMARK VINA RESULT:      -4.1      2.167      3.369
REMARK  2 active torsions:
REMARK  status: ('A' for Active; 'I' for Inactive)
REMARK    1  A    between atoms: C4_4  and  C5_5 
REMARK    2  A    between atoms: C4_4  and  C6_6 
ROOT
HETATM    1  C1  UNL     1     -32.410   7.525   3.033  1.00 20.00     0.063 C 
HETATM    2  C2  UNL     1     -32.522   8.785   5.137  1.00 20.00     0.025 C 
HETATM    3  C5  UNL     1     -32.876   7.473   4.432  1.00 20.00     0.090 C 
HETATM    4  N7  UNL     1     -32.043   7.563   1.933  1.00 20.00    -0.197 NA
ENDROOT
BRANCH   3   5
HETATM    5  C4  UNL     1     -34.397   7.229   4.506  1.00 20.00     0.038 C 
BRANCH   5   6
HETATM    6  C6  UNL     1     -34.811   5.848   5.044  1.00 20.00     0.079 C 
HETATM    7  C3  UNL     1     -34.445   5.703   6.517  1.00 20.00     0.026 C 
HETATM    8 CL8  UNL     1     -34.018   4.535   4.122  1.00 20.00    -0.125 Cl
ENDBRANCH   5   6
ENDBRANCH   3   5
TORSDOF 2
ENDMDL
MODEL 3
REMARK VINA RESULT:      -3.9      2.461      3.658
REMARK  2 active torsions:
REMARK  status: ('A' for Active; 'I' for Inactive)
REMARK    1  A    between atoms: C4_4  and  C5_5 
REMARK    2  A    between atoms: C4_4  and  C6_6 
ROOT
HETATM    1  C1  UNL     1     -32.314   7.565   3.287  1.00 20.00     0.063 C 
HETATM    2  C2  UNL     1     -32.222   9.413   4.900  1.00 20.00     0.025 C 
HETATM    3  C5  UNL     1     -32.469   7.914   4.712  1.00 20.00     0.090 C 
HETATM    4  N7  UNL     1     -32.191   7.289   2.167  1.00 20.00    -0.197 NA
ENDROOT
BRANCH   3   5
HETATM    5  C4  UNL     1     -33.874   7.542   5.230  1.00 20.00     0.038 C 
BRANCH   5   6
HETATM    6  C6  UNL     1     -34.269   6.067   5.042  1.00 20.00     0.079 C 
HETATM    7  C3  UNL     1     -35.614   5.949   4.332  1.00 20.00     0.026 C 
HETATM    8 CL8  UNL     1     -34.375   5.226   6.618  1.00 20.00    -0.125 Cl
ENDBRANCH   5   6
ENDBRANCH   3   5
TORSDOF 2
ENDMDL
MODEL 4
REMARK VINA RESULT:      -3.6      2.263      3.284
REMARK  2 active torsions:
REMARK  status: ('A' for Active; 'I' for Inactive)
REMARK    1  A    between atoms: C4_4  and  C5_5 
REMARK    2  A    between atoms: C4_4  and  C6_6 
ROOT
HETATM    1  C1  UNL     1     -32.804   8.238   4.956  1.00 20.00     0.063 C 
HETATM    2  C2  UNL     1     -34.206   7.295   6.737  1.00 20.00     0.025 C 
HETATM    3  C5  UNL     1     -33.493   7.015   5.412  1.00 20.00     0.090 C 
HETATM    4  N7  UNL     1     -32.261   9.198   4.597  1.00 20.00    -0.197 NA
ENDROOT
BRANCH   3   5
HETATM    5  C4  UNL     1     -34.508   6.520   4.361  1.00 20.00     0.038 C 
BRANCH   5   6
HETATM    6  C6  UNL     1     -34.190   5.148   3.742  1.00 20.00     0.079 C 
HETATM    7  C3  UNL     1     -33.842   4.129   4.822  1.00 20.00     0.026 C 
HETATM    8 CL8  UNL     1     -32.820   5.262   2.596  1.00 20.00    -0.125 Cl
ENDBRANCH   5   6
ENDBRANCH   3   5
TORSDOF 2
ENDMDL
MODEL 5
REMARK VINA RESULT:      -3.4     12.643     13.443
REMARK  2 active torsions:
REMARK  status: ('A' for Active; 'I' for Inactive)
REMARK    1  A    between atoms: C4_4  and  C5_5 
REMARK    2  A    between atoms: C4_4  and  C6_6 
ROOT
HETATM    1  C1  UNL     1     -31.518  18.412  -0.619  1.00 20.00     0.063 C 
HETATM    2  C2  UNL     1     -33.919  17.959  -0.383  1.00 20.00     0.025 C 
HETATM    3  C5  UNL     1     -32.698  17.841  -1.298  1.00 20.00     0.090 C 
HETATM    4  N7  UNL     1     -30.589  18.858  -0.087  1.00 20.00    -0.197 NA
ENDROOT
BRANCH   3   5
HETATM    5  C4  UNL     1     -32.973  18.555  -2.637  1.00 20.00     0.038 C 
BRANCH   5   6
HETATM    6  C6  UNL     1     -33.517  17.653  -3.758  1.00 20.00     0.079 C 
HETATM    7  C3  UNL     1     -34.994  17.932  -4.015  1.00 20.00     0.026 C 
HETATM    8 CL8  UNL     1     -33.322  15.923  -3.343  1.00 20.00    -0.125 Cl
ENDBRANCH   5   6
ENDBRANCH   3   5
TORSDOF 2
ENDMDL
MODEL 6
REMARK VINA RESULT:      -3.3     12.766     13.284
REMARK  2 active torsions:
REMARK  status: ('A' for Active; 'I' for Inactive)
REMARK    1  A    between atoms: C4_4  and  C5_5 
REMARK    2  A    between atoms: C4_4  and  C6_6 
ROOT
HETATM    1  C1  UNL     1     -34.184  15.132  -6.430  1.00 20.00     0.063 C 
HETATM    2  C2  UNL     1     -35.630  13.949  -4.838  1.00 20.00     0.025 C 
HETATM    3  C5  UNL     1     -34.788  15.204  -5.086  1.00 20.00     0.090 C 
HETATM    4  N7  UNL     1     -33.709  15.079  -7.487  1.00 20.00    -0.197 NA
ENDROOT
BRANCH   3   5
HETATM    5  C4  UNL     1     -33.708  15.338  -3.993  1.00 20.00     0.038 C 
BRANCH   5   6
HETATM    6  C6  UNL     1     -33.437  16.775  -3.515  1.00 20.00     0.079 C 
HETATM    7  C3  UNL     1     -33.450  16.855  -1.992  1.00 20.00     0.026 C 
HETATM    8 CL8  UNL     1     -34.662  17.908  -4.161  1.00 20.00    -0.125 Cl
ENDBRANCH   5   6
ENDBRANCH   3   5
TORSDOF 2
ENDMDL
MODEL 7
REMARK VINA RESULT:      -3.3     12.243     12.848
REMARK  2 active torsions:
REMARK  status: ('A' for Active; 'I' for Inactive)
REMARK    1  A    between atoms: C4_4  and  C5_5 
REMARK    2  A    between atoms: C4_4  and  C6_6 
ROOT
HETATM    1  C1  UNL     1     -33.319  15.652  -3.863  1.00 20.00     0.063 C 
HETATM    2  C2  UNL     1     -34.261  17.917  -3.943  1.00 20.00     0.025 C 
HETATM    3  C5  UNL     1     -33.252  16.995  -3.255  1.00 20.00     0.090 C 
HETATM    4  N7  UNL     1     -33.368  14.596  -4.341  1.00 20.00    -0.197 NA
ENDROOT
BRANCH   3   5
HETATM    5  C4  UNL     1     -33.538  16.938  -1.740  1.00 20.00     0.038 C 
BRANCH   5   6
HETATM    6  C6  UNL     1     -33.248  18.239  -0.972  1.00 20.00     0.079 C 
HETATM    7  C3  UNL     1     -31.747  18.448  -0.799  1.00 20.00     0.026 C 
HETATM    8 CL8  UNL     1     -34.016  18.215   0.644  1.00 20.00    -0.125 Cl
ENDBRANCH   5   6
ENDBRANCH   3   5
TORSDOF 2
ENDMDL
MODEL 8
REMARK VINA RESULT:      -3.2      2.596      3.644
REMARK  2 active torsions:
REMARK  status: ('A' for Active; 'I' for Inactive)
REMARK    1  A    between atoms: C4_4  and  C5_5 
REMARK    2  A    between atoms: C4_4  and  C6_6 
ROOT
HETATM    1  C1  UNL     1     -32.480   7.253   3.442  1.00 20.00     0.063 C 
HETATM    2  C2  UNL     1     -32.847   4.929   2.743  1.00 20.00     0.025 C 
HETATM    3  C5  UNL     1     -33.514   6.264   3.080  1.00 20.00     0.090 C 
HETATM    4  N7  UNL     1     -31.669   8.033   3.724  1.00 20.00    -0.197 NA
ENDROOT
BRANCH   3   5
HETATM    5  C4  UNL     1     -34.529   6.072   4.225  1.00 20.00     0.038 C 
BRANCH   5   6
HETATM    6  C6  UNL     1     -33.933   6.135   5.643  1.00 20.00     0.079 C 
HETATM    7  C3  UNL     1     -34.598   5.113   6.560  1.00 20.00     0.026 C 
HETATM    8 CL8  UNL     1     -34.138   7.765   6.353  1.00 20.00    -0.125 Cl
ENDBRANCH   5   6
ENDBRANCH   3   5
TORSDOF 2
ENDMDL
MODEL 9
REMARK VINA RESULT:      -3.2      2.716      3.958
REMARK  2 active torsions:
REMARK  status: ('A' for Active; 'I' for Inactive)
REMARK    1  A    between atoms: C4_4  and  C5_5 
REMARK    2  A    between atoms: C4_4  and  C6_6 
ROOT
HETATM    1  C1  UNL     1     -32.800   7.982   4.485  1.00 20.00     0.063 C 
HETATM    2  C2  UNL     1     -32.201   7.106   2.272  1.00 20.00     0.025 C 
HETATM    3  C5  UNL     1     -33.195   7.025   3.433  1.00 20.00     0.090 C 
HETATM    4  N7  UNL     1     -32.493   8.734   5.313  1.00 20.00    -0.197 NA
ENDROOT
BRANCH   3   5
HETATM    5  C4  UNL     1     -33.250   5.584   3.979  1.00 20.00     0.038 C 
BRANCH   5   6
HETATM    6  C6  UNL     1     -34.535   5.225   4.745  1.00 20.00     0.079 C 
HETATM    7  C3  UNL     1     -35.716   6.053   4.248  1.00 20.00     0.026 C 
HETATM    8 CL8  UNL     1     -34.335   5.505   6.502  1.00 20.00    -0.125 Cl
ENDBRANCH   5   6
ENDBRANCH   3   5
TORSDOF 2
ENDMDL
