MODEL 1
REMARK VINA RESULT:      -4.1      0.000      0.000
REMARK  2 active torsions:
REMARK  status: ('A' for Active; 'I' for Inactive)
REMARK    1  A    between atoms: C3_3  and  C4_4 
REMARK    2  A    between atoms: C4_4  and  C5_5 
ROOT
HETATM    1  C1  UNL     1     -32.368   7.806   3.528  1.00 20.00     0.059 C 
HETATM    2  C3  UNL     1     -32.649   8.292   4.886  1.00 20.00     0.125 C 
HETATM    3  N6  UNL     1     -32.144   7.421   2.457  1.00 20.00    -0.197 NA
ENDROOT
BRANCH   2   4
HETATM    4  C4  UNL     1     -33.942   7.701   5.459  1.00 20.00     0.034 C 
BRANCH   4   5
HETATM    5  C5  UNL     1     -34.169   6.210   5.156  1.00 20.00     0.079 C 
HETATM    6  C2  UNL     1     -35.468   6.003   4.385  1.00 20.00     0.026 C 
HETATM    7 CL7  UNL     1     -34.233   5.249   6.663  1.00 20.00    -0.125 Cl
ENDBRANCH   4   5
ENDBRANCH   2   4
TORSDOF 2
ENDMDL
MODEL 2
REMARK VINA RESULT:      -4.1      2.525      3.551
REMARK  2 active torsions:
REMARK  status: ('A' for Active; 'I' for Inactive)
REMARK    1  A    between atoms: C3_3  and  C4_4 
REMARK    2  A    between atoms: C4_4  and  C5_5 
ROOT
HETATM    1  C1  UNL     1     -34.417   5.283   5.352  1.00 20.00     0.059 C 
HETATM    2  C3  UNL     1     -34.358   6.503   6.168  1.00 20.00     0.125 C 
HETATM    3  N6  UNL     1     -34.464   4.319   4.707  1.00 20.00    -0.197 NA
ENDROOT
BRANCH   2   4
HETATM    4  C4  UNL     1     -34.046   7.749   5.332  1.00 20.00     0.034 C 
BRANCH   4   5
HETATM    5  C5  UNL     1     -32.599   7.847   4.821  1.00 20.00     0.079 C 
HETATM    6  C2  UNL     1     -32.124   9.295   4.803  1.00 20.00     0.026 C 
HETATM    7 CL7  UNL     1     -32.452   7.172   3.171  1.00 20.00    -0.125 Cl
ENDBRANCH   4   5
ENDBRANCH   2   4
TORSDOF 2
ENDMDL
MODEL 3
REMARK VINA RESULT:      -4.0      1.717      2.056
REMARK  2 active torsions:
REMARK  status: ('A' for Active; 'I' for Inactive)
REMARK    1  A    between atoms: C3_3  and  C4_4 
REMARK    2  A    between atoms: C4_4  and  C5_5 
ROOT
HETATM    1  C1  UNL     1     -32.969   7.894   5.014  1.00 20.00     0.059 C 
HETATM    2  C3  UNL     1     -34.063   7.578   5.943  1.00 20.00     0.125 C 
HETATM    3  N6  UNL     1     -32.105   8.144   4.281  1.00 20.00    -0.197 NA
ENDROOT
BRANCH   2   4
HETATM    4  C4  UNL     1     -34.099   6.092   6.315  1.00 20.00     0.034 C 
BRANCH   4   5
HETATM    5  C5  UNL     1     -34.849   5.188   5.323  1.00 20.00     0.079 C 
HETATM    6  C2  UNL     1     -33.872   4.382   4.474  1.00 20.00     0.026 C 
HETATM    7 CL7  UNL     1     -35.896   6.151   4.239  1.00 20.00    -0.125 Cl
ENDBRANCH   4   5
ENDBRANCH   2   4
TORSDOF 2
ENDMDL
MODEL 4
REMARK VINA RESULT:      -3.8      2.655      3.473
REMARK  2 active torsions:
REMARK  status: ('A' for Active; 'I' for Inactive)
REMARK    1  A    between atoms: C3_3  and  C4_4 
REMARK    2  A    between atoms: C4_4  and  C5_5 
ROOT
HETATM    1  C1  UNL     1     -34.171   6.351   6.075  1.00 20.00     0.059 C 
HETATM    2  C3  UNL     1     -33.456   7.590   5.742  1.00 20.00     0.125 C 
HETATM    3  N6  UNL     1     -34.737   5.373   6.339  1.00 20.00    -0.197 NA
ENDROOT
BRANCH   2   4
HETATM    4  C4  UNL     1     -33.518   7.913   4.245  1.00 20.00     0.034 C 
BRANCH   4   5
HETATM    5  C5  UNL     1     -32.461   7.207   3.379  1.00 20.00     0.079 C 
HETATM    6  C2  UNL     1     -32.154   8.016   2.124  1.00 20.00     0.026 C 
HETATM    7 CL7  UNL     1     -33.012   5.576   2.893  1.00 20.00    -0.125 Cl
ENDBRANCH   4   5
ENDBRANCH   2   4
TORSDOF 2
ENDMDL
MODEL 5
REMARK VINA RESULT:      -3.8      1.427      1.632
REMARK  2 active torsions:
REMARK  status: ('A' for Active; 'I' for Inactive)
REMARK    1  A    between atoms: C3_3  and  C4_4 
REMARK    2  A    between atoms: C4_4  and  C5_5 
ROOT
HETATM    1  C1  UNL     1     -32.703   7.865   3.990  1.00 20.00     0.059 C 
HETATM    2  C3  UNL     1     -33.762   8.201   4.951  1.00 20.00     0.125 C 
HETATM    3  N6  UNL     1     -31.866   7.601   3.230  1.00 20.00    -0.197 NA
ENDROOT
BRANCH   2   4
HETATM    4  C4  UNL     1     -33.768   7.262   6.162  1.00 20.00     0.034 C 
BRANCH   4   5
HETATM    5  C5  UNL     1     -34.753   6.084   6.070  1.00 20.00     0.079 C 
HETATM    6  C2  UNL     1     -34.041   4.758   6.316  1.00 20.00     0.026 C 
HETATM    7 CL7  UNL     1     -35.540   6.027   4.465  1.00 20.00    -0.125 Cl
ENDBRANCH   4   5
ENDBRANCH   2   4
TORSDOF 2
ENDMDL
MODEL 6
REMARK VINA RESULT:      -3.8      2.619      3.484
REMARK  2 active torsions:
REMARK  status: ('A' for Active; 'I' for Inactive)
REMARK    1  A    between atoms: C3_3  and  C4_4 
REMARK    2  A    between atoms: C4_4  and  C5_5 
ROOT
HETATM    1  C1  UNL     1     -34.429   5.009   4.827  1.00 20.00     0.059 C 
HETATM    2  C3  UNL     1     -34.804   6.341   5.319  1.00 20.00     0.125 C 
HETATM    3  N6  UNL     1     -34.133   3.957   4.436  1.00 20.00    -0.197 NA
ENDROOT
BRANCH   2   4
HETATM    4  C4  UNL     1     -33.583   7.222   5.604  1.00 20.00     0.034 C 
BRANCH   4   5
HETATM    5  C5  UNL     1     -33.133   8.113   4.434  1.00 20.00     0.079 C 
HETATM    6  C2  UNL     1     -32.392   7.298   3.381  1.00 20.00     0.026 C 
HETATM    7 CL7  UNL     1     -32.064   9.430   5.003  1.00 20.00    -0.125 Cl
ENDBRANCH   4   5
ENDBRANCH   2   4
TORSDOF 2
ENDMDL
MODEL 7
REMARK VINA RESULT:      -3.6      1.951      2.478
REMARK  2 active torsions:
REMARK  status: ('A' for Active; 'I' for Inactive)
REMARK    1  A    between atoms: C3_3  and  C4_4 
REMARK    2  A    between atoms: C4_4  and  C5_5 
ROOT
HETATM    1  C1  UNL     1     -32.514   6.601   2.857  1.00 20.00     0.059 C 
HETATM    2  C3  UNL     1     -33.018   5.227   2.729  1.00 20.00     0.125 C 
HETATM    3  N6  UNL     1     -32.117   7.686   2.956  1.00 20.00    -0.197 NA
ENDROOT
BRANCH   2   4
HETATM    4  C4  UNL     1     -33.724   4.745   4.002  1.00 20.00     0.034 C 
BRANCH   4   5
HETATM    5  C5  UNL     1     -34.471   5.836   4.787  1.00 20.00     0.079 C 
HETATM    6  C2  UNL     1     -34.590   5.463   6.260  1.00 20.00     0.026 C 
HETATM    7 CL7  UNL     1     -36.112   6.097   4.124  1.00 20.00    -0.125 Cl
ENDBRANCH   4   5
ENDBRANCH   2   4
TORSDOF 2
ENDMDL
MODEL 8
REMARK VINA RESULT:      -3.5      3.202      3.675
REMARK  2 active torsions:
REMARK  status: ('A' for Active; 'I' for Inactive)
REMARK    1  A    between atoms: C3_3  and  C4_4 
REMARK    2  A    between atoms: C4_4  and  C5_5 
ROOT
HETATM    1  C1  UNL     1     -33.820   7.229   5.896  1.00 20.00     0.059 C 
HETATM    2  C3  UNL     1     -33.205   8.361   5.190  1.00 20.00     0.125 C 
HETATM    3  N6  UNL     1     -34.307   6.335   6.454  1.00 20.00    -0.197 NA
ENDROOT
BRANCH   2   4
HETATM    4  C4  UNL     1     -32.194   7.907   4.132  1.00 20.00     0.034 C 
BRANCH   4   5
HETATM    5  C5  UNL     1     -32.809   7.347   2.838  1.00 20.00     0.079 C 
HETATM    6  C2  UNL     1     -32.678   5.828   2.785  1.00 20.00     0.026 C 
HETATM    7 CL7  UNL     1     -32.016   8.044   1.394  1.00 20.00    -0.125 Cl
ENDBRANCH   4   5
ENDBRANCH   2   4
TORSDOF 2
ENDMDL
MODEL 9
REMARK VINA RESULT:      -3.4     12.195     12.816
REMARK  2 active torsions:
REMARK  status: ('A' for Active; 'I' for Inactive)
REMARK    1  A    between atoms: C3_3  and  C4_4 
REMARK    2  A    between atoms: C4_4  and  C5_5 
ROOT
HETATM    1  C1  UNL     1     -31.831  18.478  -0.774  1.00 20.00     0.059 C 
HETATM    2  C3  UNL     1     -33.226  18.319  -1.206  1.00 20.00     0.125 C 
HETATM    3  N6  UNL     1     -30.729  18.603  -0.431  1.00 20.00    -0.197 NA
ENDROOT
BRANCH   2   4
HETATM    4  C4  UNL     1     -33.498  16.932  -1.797  1.00 20.00     0.034 C 
BRANCH   4   5
HETATM    5  C5  UNL     1     -33.293  16.817  -3.317  1.00 20.00     0.079 C 
HETATM    6  C2  UNL     1     -34.232  17.756  -4.066  1.00 20.00     0.026 C 
HETATM    7 CL7  UNL     1     -33.580  15.144  -3.880  1.00 20.00    -0.125 Cl
ENDBRANCH   4   5
ENDBRANCH   2   4
TORSDOF 2
ENDMDL
