MODEL 1
REMARK VINA RESULT:      -4.3      0.000      0.000
REMARK  1 active torsions:
REMARK  status: ('A' for Active; 'I' for Inactive)
REMARK    1  A    between atoms: C6_6  and  O11_11 
ROOT
HETATM    1  C1  UNL     1     -33.342  17.642  -2.206  1.00 20.00     0.095 C 
HETATM    2  C2  UNL     1     -33.647  15.551  -3.321  1.00 20.00     0.022 C 
HETATM    3  C3  UNL     1     -33.672  16.894  -3.376  1.00 20.00     0.021 C 
HETATM    4  C4  UNL     1     -34.049  17.639  -4.636  1.00 20.00     0.058 C 
HETATM    5  C5  UNL     1     -34.063  15.421  -5.820  1.00 20.00     0.045 C 
HETATM    6  C6  UNL     1     -33.977  14.667  -4.487  1.00 20.00     0.143 C 
HETATM    7  C7  UNL     1     -34.785  16.779  -5.694  1.00 20.00    -0.041 C 
HETATM    8  C8  UNL     1     -36.262  16.580  -5.299  1.00 20.00     0.015 C 
HETATM    9  C9  UNL     1     -34.747  17.502  -7.052  1.00 20.00     0.015 C 
HETATM   10  N10 UNL     1     -33.075  18.250  -1.256  1.00 20.00    -0.192 NA
ENDROOT
BRANCH   6  11
HETATM   11  O11 UNL     1     -32.973  13.660  -4.590  1.00 20.00    -0.392 OA
HETATM   12  H24 UNL     1     -33.434  12.829  -4.785  1.00 20.00     0.210 HD
ENDBRANCH   6  11
TORSDOF 1
ENDMDL
MODEL 2
REMARK VINA RESULT:      -4.3      2.768      4.409
REMARK  1 active torsions:
REMARK  status: ('A' for Active; 'I' for Inactive)
REMARK    1  A    between atoms: C6_6  and  O11_11 
ROOT
HETATM    1  C1  UNL     1     -34.044  15.089  -3.887  1.00 20.00     0.095 C 
HETATM    2  C2  UNL     1     -33.746  17.378  -4.498  1.00 20.00     0.022 C 
HETATM    3  C3  UNL     1     -33.694  16.430  -3.548  1.00 20.00     0.021 C 
HETATM    4  C4  UNL     1     -33.285  16.739  -2.126  1.00 20.00     0.058 C 
HETATM    5  C5  UNL     1     -32.711  19.059  -2.905  1.00 20.00     0.045 C 
HETATM    6  C6  UNL     1     -33.401  18.818  -4.253  1.00 20.00     0.143 C 
HETATM    7  C7  UNL     1     -33.338  18.243  -1.756  1.00 20.00    -0.041 C 
HETATM    8  C8  UNL     1     -34.792  18.687  -1.498  1.00 20.00     0.015 C 
HETATM    9  C9  UNL     1     -32.532  18.478  -0.467  1.00 20.00     0.015 C 
HETATM   10  N10 UNL     1     -34.329  13.999  -4.163  1.00 20.00    -0.192 NA
ENDROOT
BRANCH   6  11
HETATM   11  O11 UNL     1     -32.541  19.263  -5.299  1.00 20.00    -0.392 OA
HETATM   12  H24 UNL     1     -31.639  19.237  -4.945  1.00 20.00     0.210 HD
ENDBRANCH   6  11
TORSDOF 1
ENDMDL
MODEL 3
REMARK VINA RESULT:      -3.8      2.506      3.747
REMARK  1 active torsions:
REMARK  status: ('A' for Active; 'I' for Inactive)
REMARK    1  A    between atoms: C6_6  and  O11_11 
ROOT
HETATM    1  C1  UNL     1     -36.600  16.252  -6.447  1.00 20.00     0.095 C 
HETATM    2  C2  UNL     1     -34.531  15.332  -5.689  1.00 20.00     0.022 C 
HETATM    3  C3  UNL     1     -35.526  16.217  -5.509  1.00 20.00     0.021 C 
HETATM    4  C4  UNL     1     -35.540  17.184  -4.348  1.00 20.00     0.058 C 
HETATM    5  C5  UNL     1     -33.526  15.976  -3.451  1.00 20.00     0.045 C 
HETATM    6  C6  UNL     1     -33.354  15.209  -4.767  1.00 20.00     0.143 C 
HETATM    7  C7  UNL     1     -34.170  17.364  -3.646  1.00 20.00    -0.041 C 
HETATM    8  C8  UNL     1     -33.252  18.282  -4.478  1.00 20.00     0.015 C 
HETATM    9  C9  UNL     1     -34.386  18.022  -2.272  1.00 20.00     0.015 C 
HETATM   10  N10 UNL     1     -37.473  16.281  -7.211  1.00 20.00    -0.192 NA
ENDROOT
BRANCH   6  11
HETATM   11  O11 UNL     1     -33.150  13.828  -4.475  1.00 20.00    -0.392 OA
HETATM   12  H24 UNL     1     -32.975  13.390  -5.322  1.00 20.00     0.210 HD
ENDBRANCH   6  11
TORSDOF 1
ENDMDL
MODEL 4
REMARK VINA RESULT:      -3.7     12.548     13.365
REMARK  1 active torsions:
REMARK  status: ('A' for Active; 'I' for Inactive)
REMARK    1  A    between atoms: C6_6  and  O11_11 
ROOT
HETATM    1  C1  UNL     1     -39.641  12.178   4.604  1.00 20.00     0.095 C 
HETATM    2  C2  UNL     1     -41.172  12.183   6.437  1.00 20.00     0.022 C 
HETATM    3  C3  UNL     1     -40.783  12.718   5.267  1.00 20.00     0.021 C 
HETATM    4  C4  UNL     1     -41.511  13.881   4.634  1.00 20.00     0.058 C 
HETATM    5  C5  UNL     1     -43.250  13.639   6.434  1.00 20.00     0.045 C 
HETATM    6  C6  UNL     1     -42.355  12.672   7.220  1.00 20.00     0.143 C 
HETATM    7  C7  UNL     1     -42.444  14.655   5.600  1.00 20.00    -0.041 C 
HETATM    8  C8  UNL     1     -41.624  15.588   6.513  1.00 20.00     0.015 C 
HETATM    9  C9  UNL     1     -43.416  15.523   4.780  1.00 20.00     0.015 C 
HETATM   10  N10 UNL     1     -38.713  11.739   4.065  1.00 20.00    -0.192 NA
ENDROOT
BRANCH   6  11
HETATM   11  O11 UNL     1     -43.132  11.544   7.619  1.00 20.00    -0.392 OA
HETATM   12  H24 UNL     1     -43.897  11.512   7.024  1.00 20.00     0.210 HD
ENDBRANCH   6  11
TORSDOF 1
ENDMDL
MODEL 5
REMARK VINA RESULT:      -3.5      2.743      3.697
REMARK  1 active torsions:
REMARK  status: ('A' for Active; 'I' for Inactive)
REMARK    1  A    between atoms: C6_6  and  O11_11 
ROOT
HETATM    1  C1  UNL     1     -33.382  14.911  -4.121  1.00 20.00     0.095 C 
HETATM    2  C2  UNL     1     -33.230  16.624  -2.462  1.00 20.00     0.022 C 
HETATM    3  C3  UNL     1     -33.736  16.205  -3.635  1.00 20.00     0.021 C 
HETATM    4  C4  UNL     1     -34.663  17.066  -4.463  1.00 20.00     0.058 C 
HETATM    5  C5  UNL     1     -34.692  18.695  -2.548  1.00 20.00     0.045 C 
HETATM    6  C6  UNL     1     -33.534  17.964  -1.859  1.00 20.00     0.143 C 
HETATM    7  C7  UNL     1     -34.650  18.569  -4.085  1.00 20.00    -0.041 C 
HETATM    8  C8  UNL     1     -33.397  19.261  -4.658  1.00 20.00     0.015 C 
HETATM    9  C9  UNL     1     -35.891  19.254  -4.684  1.00 20.00     0.015 C 
HETATM   10  N10 UNL     1     -33.093  13.860  -4.515  1.00 20.00    -0.192 NA
ENDROOT
BRANCH   6  11
HETATM   11  O11 UNL     1     -33.857  17.777  -0.482  1.00 20.00    -0.392 OA
HETATM   12  H24 UNL     1     -34.575  18.398  -0.282  1.00 20.00     0.210 HD
ENDBRANCH   6  11
TORSDOF 1
ENDMDL
MODEL 6
REMARK VINA RESULT:      -3.4     12.507     13.680
REMARK  1 active torsions:
REMARK  status: ('A' for Active; 'I' for Inactive)
REMARK    1  A    between atoms: C6_6  and  O11_11 
ROOT
HETATM    1  C1  UNL     1     -39.969  12.254   5.040  1.00 20.00     0.095 C 
HETATM    2  C2  UNL     1     -41.689  13.911   5.060  1.00 20.00     0.022 C 
HETATM    3  C3  UNL     1     -40.655  13.324   5.688  1.00 20.00     0.021 C 
HETATM    4  C4  UNL     1     -40.201  13.755   7.063  1.00 20.00     0.058 C 
HETATM    5  C5  UNL     1     -41.833  15.660   6.892  1.00 20.00     0.045 C 
HETATM    6  C6  UNL     1     -42.482  15.042   5.647  1.00 20.00     0.143 C 
HETATM    7  C7  UNL     1     -41.237  14.603   7.844  1.00 20.00    -0.041 C 
HETATM    8  C8  UNL     1     -42.345  13.703   8.427  1.00 20.00     0.015 C 
HETATM    9  C9  UNL     1     -40.534  15.313   9.014  1.00 20.00     0.015 C 
HETATM   10  N10 UNL     1     -39.412  11.383   4.514  1.00 20.00    -0.192 NA
ENDROOT
BRANCH   6  11
HETATM   11  O11 UNL     1     -42.632  16.053   4.653  1.00 20.00    -0.392 OA
HETATM   12  H24 UNL     1     -43.203  16.736   5.038  1.00 20.00     0.210 HD
ENDBRANCH   6  11
TORSDOF 1
ENDMDL
MODEL 7
REMARK VINA RESULT:      -3.4     12.463     13.558
REMARK  1 active torsions:
REMARK  status: ('A' for Active; 'I' for Inactive)
REMARK    1  A    between atoms: C6_6  and  O11_11 
ROOT
HETATM    1  C1  UNL     1     -42.403  14.610   3.671  1.00 20.00     0.095 C 
HETATM    2  C2  UNL     1     -40.925  13.428   5.128  1.00 20.00     0.022 C 
HETATM    3  C3  UNL     1     -41.943  14.294   4.984  1.00 20.00     0.021 C 
HETATM    4  C4  UNL     1     -42.611  14.952   6.169  1.00 20.00     0.058 C 
HETATM    5  C5  UNL     1     -41.229  13.460   7.647  1.00 20.00     0.045 C 
HETATM    6  C6  UNL     1     -40.361  13.025   6.460  1.00 20.00     0.143 C 
HETATM    7  C7  UNL     1     -41.795  14.886   7.484  1.00 20.00    -0.041 C 
HETATM    8  C8  UNL     1     -40.659  15.929   7.470  1.00 20.00     0.015 C 
HETATM    9  C9  UNL     1     -42.719  15.204   8.673  1.00 20.00     0.015 C 
HETATM   10  N10 UNL     1     -42.776  14.867   2.603  1.00 20.00    -0.192 NA
ENDROOT
BRANCH   6  11
HETATM   11  O11 UNL     1     -40.224  11.606   6.483  1.00 20.00    -0.392 OA
HETATM   12  H24 UNL     1     -39.671  11.395   7.251  1.00 20.00     0.210 HD
ENDBRANCH   6  11
TORSDOF 1
ENDMDL
MODEL 8
REMARK VINA RESULT:      -3.4     12.735     13.550
REMARK  1 active torsions:
REMARK  status: ('A' for Active; 'I' for Inactive)
REMARK    1  A    between atoms: C6_6  and  O11_11 
ROOT
HETATM    1  C1  UNL     1     -40.294  14.944   9.176  1.00 20.00     0.095 C 
HETATM    2  C2  UNL     1     -39.723  13.344   7.497  1.00 20.00     0.022 C 
HETATM    3  C3  UNL     1     -40.558  14.304   7.929  1.00 20.00     0.021 C 
HETATM    4  C4  UNL     1     -41.776  14.724   7.138  1.00 20.00     0.058 C 
HETATM    5  C5  UNL     1     -40.956  13.237   5.283  1.00 20.00     0.045 C 
HETATM    6  C6  UNL     1     -39.905  12.606   6.204  1.00 20.00     0.143 C 
HETATM    7  C7  UNL     1     -42.210  13.714   6.045  1.00 20.00    -0.041 C 
HETATM    8  C8  UNL     1     -42.956  12.521   6.675  1.00 20.00     0.015 C 
HETATM    9  C9  UNL     1     -43.168  14.410   5.061  1.00 20.00     0.015 C 
HETATM   10  N10 UNL     1     -40.080  15.463  10.191  1.00 20.00    -0.192 NA
ENDROOT
BRANCH   6  11
HETATM   11  O11 UNL     1     -38.653  12.572   5.521  1.00 20.00    -0.392 OA
HETATM   12  H24 UNL     1     -37.999  12.250   6.161  1.00 20.00     0.210 HD
ENDBRANCH   6  11
TORSDOF 1
ENDMDL
MODEL 9
REMARK VINA RESULT:      -3.4     11.401     12.948
REMARK  1 active torsions:
REMARK  status: ('A' for Active; 'I' for Inactive)
REMARK    1  A    between atoms: C6_6  and  O11_11 
ROOT
HETATM    1  C1  UNL     1     -32.199   7.819   1.576  1.00 20.00     0.095 C 
HETATM    2  C2  UNL     1     -32.653   8.543   3.807  1.00 20.00     0.022 C 
HETATM    3  C3  UNL     1     -32.656   7.550   2.901  1.00 20.00     0.021 C 
HETATM    4  C4  UNL     1     -33.137   6.157   3.237  1.00 20.00     0.058 C 
HETATM    5  C5  UNL     1     -33.311   6.907   5.631  1.00 20.00     0.045 C 
HETATM    6  C6  UNL     1     -33.112   8.372   5.226  1.00 20.00     0.143 C 
HETATM    7  C7  UNL     1     -33.989   6.067   4.528  1.00 20.00    -0.041 C 
HETATM    8  C8  UNL     1     -35.425   6.565   4.265  1.00 20.00     0.015 C 
HETATM    9  C9  UNL     1     -34.068   4.600   4.984  1.00 20.00     0.015 C 
HETATM   10  N10 UNL     1     -31.828   8.038   0.500  1.00 20.00    -0.192 NA
ENDROOT
BRANCH   6  11
HETATM   11  O11 UNL     1     -32.143   8.964   6.089  1.00 20.00    -0.392 OA
HETATM   12  H24 UNL     1     -32.310   9.919   6.077  1.00 20.00     0.210 HD
ENDBRANCH   6  11
TORSDOF 1
ENDMDL
