MODEL 1
REMARK VINA RESULT:      -3.8      0.000      0.000
REMARK  2 active torsions:
REMARK  status: ('A' for Active; 'I' for Inactive)
REMARK    1  A    between atoms: C4_4  and  C5_5 
REMARK    2  A    between atoms: C4_4  and  C6_6 
ROOT
HETATM    1  C1  UNL     1     -31.805  18.465  -0.657  1.00 20.00     0.063 C 
HETATM    2  C2  UNL     1     -34.004  18.286   0.417  1.00 20.00     0.025 C 
HETATM    3  C5  UNL     1     -33.246  18.278  -0.912  1.00 20.00     0.090 C 
HETATM    4  N7  UNL     1     -30.671  18.614  -0.456  1.00 20.00    -0.197 NA
ENDROOT
BRANCH   3   5
HETATM    5  C4  UNL     1     -33.512  16.958  -1.665  1.00 20.00     0.034 C 
BRANCH   5   6
HETATM    6  C6  UNL     1     -33.337  17.035  -3.187  1.00 20.00     0.055 C 
HETATM    7  C3  UNL     1     -33.296  15.650  -3.816  1.00 20.00     0.022 C 
HETATM    8 BR8  UNL     1     -34.838  18.011  -3.990  1.00 20.00    -0.092 Br
ENDBRANCH   5   6
ENDBRANCH   3   5
TORSDOF 2
ENDMDL
MODEL 2
REMARK VINA RESULT:      -3.6     14.756     15.929
REMARK  2 active torsions:
REMARK  status: ('A' for Active; 'I' for Inactive)
REMARK    1  A    between atoms: C4_4  and  C5_5 
REMARK    2  A    between atoms: C4_4  and  C6_6 
ROOT
HETATM    1  C1  UNL     1     -22.353  17.484   9.053  1.00 20.00     0.063 C 
HETATM    2  C2  UNL     1     -24.045  19.257   8.921  1.00 20.00     0.025 C 
HETATM    3  C5  UNL     1     -23.512  18.081   9.743  1.00 20.00     0.090 C 
HETATM    4  N7  UNL     1     -21.442  17.012   8.509  1.00 20.00    -0.197 NA
ENDROOT
BRANCH   3   5
HETATM    5  C4  UNL     1     -23.133  18.557  11.161  1.00 20.00     0.034 C 
BRANCH   5   6
HETATM    6  C6  UNL     1     -24.085  18.097  12.273  1.00 20.00     0.055 C 
HETATM    7  C3  UNL     1     -25.334  18.966  12.332  1.00 20.00     0.022 C 
HETATM    8 BR8  UNL     1     -24.659  16.249  11.948  1.00 20.00    -0.092 Br
ENDBRANCH   5   6
ENDBRANCH   3   5
TORSDOF 2
ENDMDL
MODEL 3
REMARK VINA RESULT:      -3.5     11.482     12.012
REMARK  2 active torsions:
REMARK  status: ('A' for Active; 'I' for Inactive)
REMARK    1  A    between atoms: C4_4  and  C5_5 
REMARK    2  A    between atoms: C4_4  and  C6_6 
ROOT
HETATM    1  C1  UNL     1     -32.713   9.023   2.300  1.00 20.00     0.063 C 
HETATM    2  C2  UNL     1     -32.227   6.684   2.863  1.00 20.00     0.025 C 
HETATM    3  C5  UNL     1     -32.468   8.090   3.417  1.00 20.00     0.090 C 
HETATM    4  N7  UNL     1     -32.904   9.757   1.421  1.00 20.00    -0.197 NA
ENDROOT
BRANCH   3   5
HETATM    5  C4  UNL     1     -33.656   8.075   4.401  1.00 20.00     0.034 C 
BRANCH   5   6
HETATM    6  C6  UNL     1     -33.768   6.808   5.258  1.00 20.00     0.055 C 
HETATM    7  C3  UNL     1     -34.079   7.142   6.711  1.00 20.00     0.022 C 
HETATM    8 BR8  UNL     1     -35.214   5.665   4.586  1.00 20.00    -0.092 Br
ENDBRANCH   5   6
ENDBRANCH   3   5
TORSDOF 2
ENDMDL
MODEL 4
REMARK VINA RESULT:      -3.5     12.386     12.767
REMARK  2 active torsions:
REMARK  status: ('A' for Active; 'I' for Inactive)
REMARK    1  A    between atoms: C4_4  and  C5_5 
REMARK    2  A    between atoms: C4_4  and  C6_6 
ROOT
HETATM    1  C1  UNL     1     -32.420   8.378   4.626  1.00 20.00     0.063 C 
HETATM    2  C2  UNL     1     -32.289   7.235   2.459  1.00 20.00     0.025 C 
HETATM    3  C5  UNL     1     -32.783   7.144   3.904  1.00 20.00     0.090 C 
HETATM    4  N7  UNL     1     -32.133   9.349   5.194  1.00 20.00    -0.197 NA
ENDROOT
BRANCH   3   5
HETATM    5  C4  UNL     1     -34.307   6.909   3.930  1.00 20.00     0.034 C 
BRANCH   5   6
HETATM    6  C6  UNL     1     -34.747   5.584   4.565  1.00 20.00     0.055 C 
HETATM    7  C3  UNL     1     -33.920   4.416   4.046  1.00 20.00     0.022 C 
HETATM    8 BR8  UNL     1     -34.518   5.660   6.512  1.00 20.00    -0.092 Br
ENDBRANCH   5   6
ENDBRANCH   3   5
TORSDOF 2
ENDMDL
MODEL 5
REMARK VINA RESULT:      -3.4     12.536     12.942
REMARK  2 active torsions:
REMARK  status: ('A' for Active; 'I' for Inactive)
REMARK    1  A    between atoms: C4_4  and  C5_5 
REMARK    2  A    between atoms: C4_4  and  C6_6 
ROOT
HETATM    1  C1  UNL     1     -34.146   5.304   4.928  1.00 20.00     0.063 C 
HETATM    2  C2  UNL     1     -34.476   6.797   6.848  1.00 20.00     0.025 C 
HETATM    3  C5  UNL     1     -33.791   6.621   5.491  1.00 20.00     0.090 C 
HETATM    4  N7  UNL     1     -34.424   4.267   4.486  1.00 20.00    -0.197 NA
ENDROOT
BRANCH   3   5
HETATM    5  C4  UNL     1     -34.200   7.764   4.538  1.00 20.00     0.034 C 
BRANCH   5   6
HETATM    6  C6  UNL     1     -33.031   8.497   3.869  1.00 20.00     0.055 C 
HETATM    7  C3  UNL     1     -32.033   9.011   4.897  1.00 20.00     0.022 C 
HETATM    8 BR8  UNL     1     -32.074   7.280   2.663  1.00 20.00    -0.092 Br
ENDBRANCH   5   6
ENDBRANCH   3   5
TORSDOF 2
ENDMDL
MODEL 6
REMARK VINA RESULT:      -3.4     12.381     12.755
REMARK  2 active torsions:
REMARK  status: ('A' for Active; 'I' for Inactive)
REMARK    1  A    between atoms: C4_4  and  C5_5 
REMARK    2  A    between atoms: C4_4  and  C6_6 
ROOT
HETATM    1  C1  UNL     1     -32.587   7.384   3.466  1.00 20.00     0.063 C 
HETATM    2  C2  UNL     1     -32.106   9.245   4.992  1.00 20.00     0.025 C 
HETATM    3  C5  UNL     1     -33.165   8.250   4.511  1.00 20.00     0.090 C 
HETATM    4  N7  UNL     1     -32.133   6.703   2.642  1.00 20.00    -0.197 NA
ENDROOT
BRANCH   3   5
HETATM    5  C4  UNL     1     -33.688   7.418   5.700  1.00 20.00     0.034 C 
BRANCH   5   6
HETATM    6  C6  UNL     1     -34.128   5.992   5.346  1.00 20.00     0.055 C 
HETATM    7  C3  UNL     1     -34.468   5.187   6.592  1.00 20.00     0.022 C 
HETATM    8 BR8  UNL     1     -35.729   6.042   4.213  1.00 20.00    -0.092 Br
ENDBRANCH   5   6
ENDBRANCH   3   5
TORSDOF 2
ENDMDL
MODEL 7
REMARK VINA RESULT:      -3.4     11.826     12.147
REMARK  2 active torsions:
REMARK  status: ('A' for Active; 'I' for Inactive)
REMARK    1  A    between atoms: C4_4  and  C5_5 
REMARK    2  A    between atoms: C4_4  and  C6_6 
ROOT
HETATM    1  C1  UNL     1     -32.826   8.803   2.480  1.00 20.00     0.063 C 
HETATM    2  C2  UNL     1     -32.142   8.969   4.831  1.00 20.00     0.025 C 
HETATM    3  C5  UNL     1     -33.107   8.311   3.842  1.00 20.00     0.090 C 
HETATM    4  N7  UNL     1     -32.605   9.191   1.408  1.00 20.00    -0.197 NA
ENDROOT
BRANCH   3   5
HETATM    5  C4  UNL     1     -32.979   6.776   3.919  1.00 20.00     0.034 C 
BRANCH   5   6
HETATM    6  C6  UNL     1     -34.209   6.052   4.480  1.00 20.00     0.055 C 
HETATM    7  C3  UNL     1     -34.117   4.547   4.267  1.00 20.00     0.022 C 
HETATM    8 BR8  UNL     1     -34.360   6.373   6.410  1.00 20.00    -0.092 Br
ENDBRANCH   5   6
ENDBRANCH   3   5
TORSDOF 2
ENDMDL
MODEL 8
REMARK VINA RESULT:      -3.4      2.555      3.953
REMARK  2 active torsions:
REMARK  status: ('A' for Active; 'I' for Inactive)
REMARK    1  A    between atoms: C4_4  and  C5_5 
REMARK    2  A    between atoms: C4_4  and  C6_6 
ROOT
HETATM    1  C1  UNL     1     -33.287  18.221  -3.653  1.00 20.00     0.063 C 
HETATM    2  C2  UNL     1     -33.484  15.782  -3.469  1.00 20.00     0.025 C 
HETATM    3  C5  UNL     1     -33.008  17.064  -2.781  1.00 20.00     0.090 C 
HETATM    4  N7  UNL     1     -33.505  19.132  -4.339  1.00 20.00    -0.197 NA
ENDROOT
BRANCH   3   5
HETATM    5  C4  UNL     1     -33.700  17.217  -1.411  1.00 20.00     0.034 C 
BRANCH   5   6
HETATM    6  C6  UNL     1     -33.352  18.504  -0.652  1.00 20.00     0.055 C 
HETATM    7  C3  UNL     1     -34.062  18.569   0.693  1.00 20.00     0.022 C 
HETATM    8 BR8  UNL     1     -31.421  18.585  -0.312  1.00 20.00    -0.092 Br
ENDBRANCH   5   6
ENDBRANCH   3   5
TORSDOF 2
ENDMDL
MODEL 9
REMARK VINA RESULT:      -3.3      2.778      4.097
REMARK  2 active torsions:
REMARK  status: ('A' for Active; 'I' for Inactive)
REMARK    1  A    between atoms: C4_4  and  C5_5 
REMARK    2  A    between atoms: C4_4  and  C6_6 
ROOT
HETATM    1  C1  UNL     1     -33.312  16.041  -3.619  1.00 20.00     0.063 C 
HETATM    2  C2  UNL     1     -33.039  18.477  -3.497  1.00 20.00     0.025 C 
HETATM    3  C5  UNL     1     -33.769  17.260  -2.924  1.00 20.00     0.090 C 
HETATM    4  N7  UNL     1     -32.953  15.082  -4.166  1.00 20.00    -0.197 NA
ENDROOT
BRANCH   3   5
HETATM    5  C4  UNL     1     -33.523  17.162  -1.404  1.00 20.00     0.034 C 
BRANCH   5   6
HETATM    6  C6  UNL     1     -33.255  18.501  -0.706  1.00 20.00     0.055 C 
HETATM    7  C3  UNL     1     -34.126  18.670   0.531  1.00 20.00     0.022 C 
HETATM    8 BR8  UNL     1     -31.381  18.601  -0.135  1.00 20.00    -0.092 Br
ENDBRANCH   5   6
ENDBRANCH   3   5
TORSDOF 2
ENDMDL
