MODEL 1
REMARK VINA RESULT:      -4.4      0.000      0.000
REMARK  0 active torsions:
REMARK  status: ('A' for Active; 'I' for Inactive)
ROOT
HETATM    1  C1  UNL     1     -32.570   8.855   2.404  1.00 20.00     0.064 C 
HETATM    2  C2  UNL     1     -32.422   8.638   4.872  1.00 20.00     0.020 C 
HETATM    3  C3  UNL     1     -33.417   7.699   5.559  1.00 20.00     0.017 C 
HETATM    4  C4  UNL     1     -32.814   6.652   3.508  1.00 20.00     0.035 C 
HETATM    5  C5  UNL     1     -32.096   8.005   3.508  1.00 20.00     0.094 C 
HETATM    6  C6  UNL     1     -34.002   6.876   4.428  1.00 20.00     0.059 C 
HETATM    7  N7  UNL     1     -32.945   9.526   1.534  1.00 20.00    -0.197 NA
HETATM    8 BR8  UNL     1     -34.736   5.206   5.064  1.00 20.00    -0.091 Br
ENDROOT
TORSDOF 0
ENDMDL
MODEL 2
REMARK VINA RESULT:      -4.0      3.222      3.930
REMARK  0 active torsions:
REMARK  status: ('A' for Active; 'I' for Inactive)
ROOT
HETATM    1  C1  UNL     1     -34.310   4.629   4.571  1.00 20.00     0.064 C 
HETATM    2  C2  UNL     1     -34.624   6.234   6.438  1.00 20.00     0.020 C 
HETATM    3  C3  UNL     1     -33.680   7.437   6.501  1.00 20.00     0.017 C 
HETATM    4  C4  UNL     1     -34.144   7.071   4.196  1.00 20.00     0.035 C 
HETATM    5  C5  UNL     1     -34.859   5.942   4.945  1.00 20.00     0.094 C 
HETATM    6  C6  UNL     1     -33.020   7.471   5.137  1.00 20.00     0.059 C 
HETATM    7  N7  UNL     1     -33.876   3.593   4.277  1.00 20.00    -0.197 NA
HETATM    8 BR8  UNL     1     -32.332   9.228   4.720  1.00 20.00    -0.091 Br
ENDROOT
TORSDOF 0
ENDMDL
MODEL 3
REMARK VINA RESULT:      -3.9     11.163     12.105
REMARK  0 active torsions:
REMARK  status: ('A' for Active; 'I' for Inactive)
ROOT
HETATM    1  C1  UNL     1     -31.840  18.530  -0.873  1.00 20.00     0.064 C 
HETATM    2  C2  UNL     1     -33.235  19.123  -2.839  1.00 20.00     0.020 C 
HETATM    3  C3  UNL     1     -33.457  18.042  -3.899  1.00 20.00     0.017 C 
HETATM    4  C4  UNL     1     -33.495  16.933  -1.793  1.00 20.00     0.035 C 
HETATM    5  C5  UNL     1     -33.174  18.399  -1.483  1.00 20.00     0.094 C 
HETATM    6  C6  UNL     1     -33.018  16.757  -3.226  1.00 20.00     0.059 C 
HETATM    7  N7  UNL     1     -30.788  18.635  -0.394  1.00 20.00    -0.197 NA
HETATM    8 BR8  UNL     1     -33.815  15.206  -4.057  1.00 20.00    -0.091 Br
ENDROOT
TORSDOF 0
ENDMDL
MODEL 4
REMARK VINA RESULT:      -3.5     11.645     12.504
REMARK  0 active torsions:
REMARK  status: ('A' for Active; 'I' for Inactive)
ROOT
HETATM    1  C1  UNL     1     -34.098  15.162  -6.600  1.00 20.00     0.064 C 
HETATM    2  C2  UNL     1     -33.655  14.803  -4.185  1.00 20.00     0.020 C 
HETATM    3  C3  UNL     1     -33.423  16.043  -3.318  1.00 20.00     0.017 C 
HETATM    4  C4  UNL     1     -35.117  16.628  -4.884  1.00 20.00     0.035 C 
HETATM    5  C5  UNL     1     -34.688  15.204  -5.253  1.00 20.00     0.094 C 
HETATM    6  C6  UNL     1     -33.899  17.198  -4.175  1.00 20.00     0.059 C 
HETATM    7  N7  UNL     1     -33.632  15.129  -7.663  1.00 20.00    -0.197 NA
HETATM    8 BR8  UNL     1     -34.355  18.742  -3.107  1.00 20.00    -0.091 Br
ENDROOT
TORSDOF 0
ENDMDL
MODEL 5
REMARK VINA RESULT:      -3.4     11.258     11.745
REMARK  0 active torsions:
REMARK  status: ('A' for Active; 'I' for Inactive)
ROOT
HETATM    1  C1  UNL     1     -33.068  17.546  -1.733  1.00 20.00     0.064 C 
HETATM    2  C2  UNL     1     -33.688  19.263  -0.050  1.00 20.00     0.020 C 
HETATM    3  C3  UNL     1     -32.949  19.237   1.290  1.00 20.00     0.017 C 
HETATM    4  C4  UNL     1     -31.338  18.685  -0.373  1.00 20.00     0.035 C 
HETATM    5  C5  UNL     1     -32.670  18.823  -1.118  1.00 20.00     0.094 C 
HETATM    6  C6  UNL     1     -31.755  18.335   1.046  1.00 20.00     0.059 C 
HETATM    7  N7  UNL     1     -33.382  16.539  -2.217  1.00 20.00    -0.197 NA
HETATM    8 BR8  UNL     1     -30.334  18.674   2.310  1.00 20.00    -0.091 Br
ENDROOT
TORSDOF 0
ENDMDL
MODEL 6
REMARK VINA RESULT:      -3.4     11.140     11.881
REMARK  0 active torsions:
REMARK  status: ('A' for Active; 'I' for Inactive)
ROOT
HETATM    1  C1  UNL     1     -34.995  14.080  -4.669  1.00 20.00     0.064 C 
HETATM    2  C2  UNL     1     -34.739  16.429  -5.428  1.00 20.00     0.020 C 
HETATM    3  C3  UNL     1     -34.413  17.482  -4.366  1.00 20.00     0.017 C 
HETATM    4  C4  UNL     1     -33.200  15.526  -3.762  1.00 20.00     0.035 C 
HETATM    5  C5  UNL     1     -34.024  15.137  -4.994  1.00 20.00     0.094 C 
HETATM    6  C6  UNL     1     -33.983  16.678  -3.155  1.00 20.00     0.059 C 
HETATM    7  N7  UNL     1     -35.761  13.246  -4.413  1.00 20.00    -0.197 NA
HETATM    8 BR8  UNL     1     -32.893  17.725  -1.952  1.00 20.00    -0.091 Br
ENDROOT
TORSDOF 0
ENDMDL
MODEL 7
REMARK VINA RESULT:      -3.2     11.123     11.730
REMARK  0 active torsions:
REMARK  status: ('A' for Active; 'I' for Inactive)
ROOT
HETATM    1  C1  UNL     1     -33.709  15.431  -3.851  1.00 20.00     0.064 C 
HETATM    2  C2  UNL     1     -34.610  17.741  -3.754  1.00 20.00     0.020 C 
HETATM    3  C3  UNL     1     -34.770  18.379  -2.372  1.00 20.00     0.017 C 
HETATM    4  C4  UNL     1     -32.760  17.107  -2.294  1.00 20.00     0.035 C 
HETATM    5  C5  UNL     1     -33.358  16.850  -3.681  1.00 20.00     0.094 C 
HETATM    6  C6  UNL     1     -33.965  17.487  -1.449  1.00 20.00     0.059 C 
HETATM    7  N7  UNL     1     -33.987  14.312  -3.985  1.00 20.00    -0.197 NA
HETATM    8 BR8  UNL     1     -33.440  18.414   0.163  1.00 20.00    -0.091 Br
ENDROOT
TORSDOF 0
ENDMDL
MODEL 8
REMARK VINA RESULT:      -3.2      3.111      3.772
REMARK  0 active torsions:
REMARK  status: ('A' for Active; 'I' for Inactive)
ROOT
HETATM    1  C1  UNL     1     -34.293   6.059   6.061  1.00 20.00     0.064 C 
HETATM    2  C2  UNL     1     -33.276   8.315   5.870  1.00 20.00     0.020 C 
HETATM    3  C3  UNL     1     -32.352   8.574   4.678  1.00 20.00     0.017 C 
HETATM    4  C4  UNL     1     -34.119   7.199   3.869  1.00 20.00     0.035 C 
HETATM    5  C5  UNL     1     -34.373   7.357   5.372  1.00 20.00     0.094 C 
HETATM    6  C6  UNL     1     -32.621   7.419   3.733  1.00 20.00     0.059 C 
HETATM    7  N7  UNL     1     -34.229   5.035   6.605  1.00 20.00    -0.197 NA
HETATM    8 BR8  UNL     1     -32.127   7.851   1.916  1.00 20.00    -0.091 Br
ENDROOT
TORSDOF 0
ENDMDL
MODEL 9
REMARK VINA RESULT:      -3.2     13.152     13.634
REMARK  0 active torsions:
REMARK  status: ('A' for Active; 'I' for Inactive)
ROOT
HETATM    1  C1  UNL     1     -28.958  -2.916  10.375  1.00 20.00     0.064 C 
HETATM    2  C2  UNL     1     -28.027  -0.619  10.506  1.00 20.00     0.020 C 
HETATM    3  C3  UNL     1     -26.811  -0.401  11.410  1.00 20.00     0.017 C 
HETATM    4  C4  UNL     1     -26.512  -2.529  10.387  1.00 20.00     0.035 C 
HETATM    5  C5  UNL     1     -27.879  -2.029   9.909  1.00 20.00     0.094 C 
HETATM    6  C6  UNL     1     -26.303  -1.798  11.704  1.00 20.00     0.059 C 
HETATM    7  N7  UNL     1     -29.810  -3.614  10.742  1.00 20.00    -0.197 NA
HETATM    8 BR8  UNL     1     -24.443  -1.788  12.225  1.00 20.00    -0.091 Br
ENDROOT
TORSDOF 0
ENDMDL
