MODEL 1
REMARK VINA RESULT:      -4.7      0.000      0.000
REMARK  4 active torsions:
REMARK  status: ('A' for Active; 'I' for Inactive)
REMARK    1  A    between atoms: C2_2  and  C8_8 
REMARK    2  A    between atoms: C6_6  and  C9_9 
REMARK    3  A    between atoms: C8_8  and  C9_9 
REMARK    4  A    between atoms: C9_9  and  O11_11 
ROOT
HETATM    1  C1  UNL     1     -32.552   8.678   1.041  1.00 20.00    -0.111 C 
HETATM    2  C2  UNL     1     -32.268   8.010   1.999  1.00 20.00    -0.104 C 
HETATM    3  C7  UNL     1     -32.895   9.492  -0.124  1.00 20.00     0.112 C 
ENDROOT
BRANCH   2   4
HETATM    4  C8  UNL     1     -31.923   7.190   3.171  1.00 20.00     0.128 C 
BRANCH   4   5
HETATM    5  C9  UNL     1     -32.447   7.819   4.464  1.00 20.00     0.158 C 
BRANCH   5   6
HETATM    6  C6  UNL     1     -33.779   7.215   4.864  1.00 20.00     0.151 C 
HETATM    7  C4  UNL     1     -33.864   6.857   6.338  1.00 20.00     0.036 C 
HETATM    8  C3  UNL     1     -34.900   5.761   6.322  1.00 20.00     0.029 C 
HETATM    9  C5  UNL     1     -34.557   5.025   5.045  1.00 20.00     0.168 C 
HETATM   10  O10 UNL     1     -33.996   5.990   4.142  1.00 20.00    -0.383 OA
ENDBRANCH   5   6
BRANCH   5  11
HETATM   11  O11 UNL     1     -32.628   9.219   4.254  1.00 20.00    -0.392 OA
HETATM   12  H25 UNL     1     -33.295   9.508   4.895  1.00 20.00     0.210 HD
ENDBRANCH   5  11
ENDBRANCH   4   5
ENDBRANCH   2   4
TORSDOF 4
ENDMDL
MODEL 2
REMARK VINA RESULT:      -4.5     11.737     12.609
REMARK  4 active torsions:
REMARK  status: ('A' for Active; 'I' for Inactive)
REMARK    1  A    between atoms: C2_2  and  C8_8 
REMARK    2  A    between atoms: C6_6  and  C9_9 
REMARK    3  A    between atoms: C8_8  and  C9_9 
REMARK    4  A    between atoms: C9_9  and  O11_11 
ROOT
HETATM    1  C1  UNL     1     -29.506  18.516   3.131  1.00 20.00    -0.111 C 
HETATM    2  C2  UNL     1     -30.488  18.516   2.440  1.00 20.00    -0.104 C 
HETATM    3  C7  UNL     1     -28.310  18.513   3.972  1.00 20.00     0.112 C 
ENDROOT
BRANCH   2   4
HETATM    4  C8  UNL     1     -31.692  18.519   1.593  1.00 20.00     0.128 C 
BRANCH   4   5
HETATM    5  C9  UNL     1     -31.425  19.199   0.249  1.00 20.00     0.158 C 
BRANCH   5   6
HETATM    6  C6  UNL     1     -32.652  19.150  -0.642  1.00 20.00     0.151 C 
HETATM    7  C4  UNL     1     -33.431  17.851  -0.529  1.00 20.00     0.036 C 
HETATM    8  C3  UNL     1     -34.112  17.791  -1.873  1.00 20.00     0.029 C 
HETATM    9  C5  UNL     1     -33.041  18.338  -2.792  1.00 20.00     0.168 C 
HETATM   10  O10 UNL     1     -32.259  19.263  -2.020  1.00 20.00    -0.383 OA
ENDBRANCH   5   6
BRANCH   5  11
HETATM   11  O11 UNL     1     -30.359  18.516  -0.409  1.00 20.00    -0.392 OA
HETATM   12  H25 UNL     1     -30.045  17.839   0.210  1.00 20.00     0.210 HD
ENDBRANCH   5  11
ENDBRANCH   4   5
ENDBRANCH   2   4
TORSDOF 4
ENDMDL
MODEL 3
REMARK VINA RESULT:      -4.3     11.213     12.689
REMARK  4 active torsions:
REMARK  status: ('A' for Active; 'I' for Inactive)
REMARK    1  A    between atoms: C2_2  and  C8_8 
REMARK    2  A    between atoms: C6_6  and  C9_9 
REMARK    3  A    between atoms: C8_8  and  C9_9 
REMARK    4  A    between atoms: C9_9  and  O11_11 
ROOT
HETATM    1  C1  UNL     1     -33.561  16.811  -2.468  1.00 20.00    -0.111 C 
HETATM    2  C2  UNL     1     -33.194  15.995  -3.270  1.00 20.00    -0.104 C 
HETATM    3  C7  UNL     1     -34.008  17.802  -1.491  1.00 20.00     0.112 C 
ENDROOT
BRANCH   2   4
HETATM    4  C8  UNL     1     -32.744  14.998  -4.254  1.00 20.00     0.128 C 
BRANCH   4   5
HETATM    5  C9  UNL     1     -33.925  14.402  -5.025  1.00 20.00     0.158 C 
BRANCH   5   6
HETATM    6  C6  UNL     1     -34.626  15.461  -5.853  1.00 20.00     0.151 C 
HETATM    7  C4  UNL     1     -36.103  15.606  -5.527  1.00 20.00     0.036 C 
HETATM    8  C3  UNL     1     -36.645  16.155  -6.823  1.00 20.00     0.029 C 
HETATM    9  C5  UNL     1     -35.828  15.398  -7.849  1.00 20.00     0.168 C 
HETATM   10  O10 UNL     1     -34.556  15.115  -7.247  1.00 20.00    -0.383 OA
ENDBRANCH   5   6
BRANCH   5  11
HETATM   11  O11 UNL     1     -34.859  13.864  -4.090  1.00 20.00    -0.392 OA
HETATM   12  H25 UNL     1     -34.750  12.902  -4.116  1.00 20.00     0.210 HD
ENDBRANCH   5  11
ENDBRANCH   4   5
ENDBRANCH   2   4
TORSDOF 4
ENDMDL
MODEL 4
REMARK VINA RESULT:      -4.3      1.729      1.898
REMARK  4 active torsions:
REMARK  status: ('A' for Active; 'I' for Inactive)
REMARK    1  A    between atoms: C2_2  and  C8_8 
REMARK    2  A    between atoms: C6_6  and  C9_9 
REMARK    3  A    between atoms: C8_8  and  C9_9 
REMARK    4  A    between atoms: C9_9  and  O11_11 
ROOT
HETATM    1  C1  UNL     1     -32.471   8.604   1.114  1.00 20.00    -0.111 C 
HETATM    2  C2  UNL     1     -32.393   7.799   2.003  1.00 20.00    -0.104 C 
HETATM    3  C7  UNL     1     -32.567   9.583   0.032  1.00 20.00     0.112 C 
ENDROOT
BRANCH   2   4
HETATM    4  C8  UNL     1     -32.296   6.814   3.091  1.00 20.00     0.128 C 
BRANCH   4   5
HETATM    5  C9  UNL     1     -33.455   5.817   3.046  1.00 20.00     0.158 C 
BRANCH   5   6
HETATM    6  C6  UNL     1     -34.369   5.986   4.244  1.00 20.00     0.151 C 
HETATM    7  C4  UNL     1     -33.843   6.972   5.274  1.00 20.00     0.036 C 
HETATM    8  C3  UNL     1     -34.511   6.478   6.532  1.00 20.00     0.029 C 
HETATM    9  C5  UNL     1     -34.463   4.977   6.343  1.00 20.00     0.168 C 
HETATM   10  O10 UNL     1     -34.511   4.730   4.930  1.00 20.00    -0.383 OA
ENDBRANCH   5   6
BRANCH   5  11
HETATM   11  O11 UNL     1     -32.923   4.493   3.064  1.00 20.00    -0.392 OA
HETATM   12  H25 UNL     1     -32.018   4.566   3.402  1.00 20.00     0.210 HD
ENDBRANCH   5  11
ENDBRANCH   4   5
ENDBRANCH   2   4
TORSDOF 4
ENDMDL
MODEL 5
REMARK VINA RESULT:      -4.2     11.613     13.023
REMARK  4 active torsions:
REMARK  status: ('A' for Active; 'I' for Inactive)
REMARK    1  A    between atoms: C2_2  and  C8_8 
REMARK    2  A    between atoms: C6_6  and  C9_9 
REMARK    3  A    between atoms: C8_8  and  C9_9 
REMARK    4  A    between atoms: C9_9  and  O11_11 
ROOT
HETATM    1  C1  UNL     1     -33.313  16.608  -2.611  1.00 20.00    -0.111 C 
HETATM    2  C2  UNL     1     -33.613  15.806  -3.454  1.00 20.00    -0.104 C 
HETATM    3  C7  UNL     1     -32.949  17.584  -1.585  1.00 20.00     0.112 C 
ENDROOT
BRANCH   2   4
HETATM    4  C8  UNL     1     -33.979  14.823  -4.486  1.00 20.00     0.128 C 
BRANCH   4   5
HETATM    5  C9  UNL     1     -34.020  15.463  -5.875  1.00 20.00     0.158 C 
BRANCH   5   6
HETATM    6  C6  UNL     1     -35.443  15.558  -6.392  1.00 20.00     0.151 C 
HETATM    7  C4  UNL     1     -35.871  16.975  -6.730  1.00 20.00     0.036 C 
HETATM    8  C3  UNL     1     -37.367  16.884  -6.566  1.00 20.00     0.029 C 
HETATM    9  C5  UNL     1     -37.495  15.969  -5.367  1.00 20.00     0.168 C 
HETATM   10  O10 UNL     1     -36.359  15.092  -5.386  1.00 20.00    -0.383 OA
ENDBRANCH   5   6
BRANCH   5  11
HETATM   11  O11 UNL     1     -33.263  14.655  -6.776  1.00 20.00    -0.392 OA
HETATM   12  H25 UNL     1     -32.776  14.019  -6.230  1.00 20.00     0.210 HD
ENDBRANCH   5  11
ENDBRANCH   4   5
ENDBRANCH   2   4
TORSDOF 4
ENDMDL
MODEL 6
REMARK VINA RESULT:      -4.1     11.446     12.688
REMARK  4 active torsions:
REMARK  status: ('A' for Active; 'I' for Inactive)
REMARK    1  A    between atoms: C2_2  and  C8_8 
REMARK    2  A    between atoms: C6_6  and  C9_9 
REMARK    3  A    between atoms: C8_8  and  C9_9 
REMARK    4  A    between atoms: C9_9  and  O11_11 
ROOT
HETATM    1  C1  UNL     1     -33.710  17.670  -0.709  1.00 20.00    -0.111 C 
HETATM    2  C2  UNL     1     -33.537  17.066  -1.733  1.00 20.00    -0.104 C 
HETATM    3  C7  UNL     1     -33.919  18.407   0.536  1.00 20.00     0.112 C 
ENDROOT
BRANCH   2   4
HETATM    4  C8  UNL     1     -33.326  16.324  -2.986  1.00 20.00     0.128 C 
BRANCH   4   5
HETATM    5  C9  UNL     1     -34.043  16.996  -4.159  1.00 20.00     0.158 C 
BRANCH   5   6
HETATM    6  C6  UNL     1     -34.281  16.014  -5.290  1.00 20.00     0.151 C 
HETATM    7  C4  UNL     1     -35.244  16.527  -6.346  1.00 20.00     0.036 C 
HETATM    8  C3  UNL     1     -35.785  15.239  -6.913  1.00 20.00     0.029 C 
HETATM    9  C5  UNL     1     -35.892  14.374  -5.675  1.00 20.00     0.168 C 
HETATM   10  O10 UNL     1     -34.864  14.805  -4.771  1.00 20.00    -0.383 OA
ENDBRANCH   5   6
BRANCH   5  11
HETATM   11  O11 UNL     1     -33.227  18.060  -4.647  1.00 20.00    -0.392 OA
HETATM   12  H25 UNL     1     -33.673  18.884  -4.398  1.00 20.00     0.210 HD
ENDBRANCH   5  11
ENDBRANCH   4   5
ENDBRANCH   2   4
TORSDOF 4
ENDMDL
MODEL 7
REMARK VINA RESULT:      -4.0     11.392     12.422
REMARK  4 active torsions:
REMARK  status: ('A' for Active; 'I' for Inactive)
REMARK    1  A    between atoms: C2_2  and  C8_8 
REMARK    2  A    between atoms: C6_6  and  C9_9 
REMARK    3  A    between atoms: C8_8  and  C9_9 
REMARK    4  A    between atoms: C9_9  and  O11_11 
ROOT
HETATM    1  C1  UNL     1     -31.330  18.523   0.250  1.00 20.00    -0.111 C 
HETATM    2  C2  UNL     1     -31.875  18.561  -0.820  1.00 20.00    -0.104 C 
HETATM    3  C7  UNL     1     -30.667  18.478   1.552  1.00 20.00     0.112 C 
ENDROOT
BRANCH   2   4
HETATM    4  C8  UNL     1     -32.542  18.606  -2.131  1.00 20.00     0.128 C 
BRANCH   4   5
HETATM    5  C9  UNL     1     -33.437  17.383  -2.342  1.00 20.00     0.158 C 
BRANCH   5   6
HETATM    6  C6  UNL     1     -33.312  16.852  -3.757  1.00 20.00     0.151 C 
HETATM    7  C4  UNL     1     -34.606  16.928  -4.550  1.00 20.00     0.036 C 
HETATM    8  C3  UNL     1     -34.407  15.822  -5.555  1.00 20.00     0.029 C 
HETATM    9  C5  UNL     1     -33.702  14.769  -4.727  1.00 20.00     0.168 C 
HETATM   10  O10 UNL     1     -32.943  15.463  -3.726  1.00 20.00    -0.383 OA
ENDBRANCH   5   6
BRANCH   5  11
HETATM   11  O11 UNL     1     -34.794  17.763  -2.118  1.00 20.00    -0.392 OA
HETATM   12  H25 UNL     1     -35.065  17.338  -1.290  1.00 20.00     0.210 HD
ENDBRANCH   5  11
ENDBRANCH   4   5
ENDBRANCH   2   4
TORSDOF 4
ENDMDL
MODEL 8
REMARK VINA RESULT:      -3.9     11.767     12.461
REMARK  4 active torsions:
REMARK  status: ('A' for Active; 'I' for Inactive)
REMARK    1  A    between atoms: C2_2  and  C8_8 
REMARK    2  A    between atoms: C6_6  and  C9_9 
REMARK    3  A    between atoms: C8_8  and  C9_9 
REMARK    4  A    between atoms: C9_9  and  O11_11 
ROOT
HETATM    1  C1  UNL     1     -30.584  18.602   1.635  1.00 20.00    -0.111 C 
HETATM    2  C2  UNL     1     -31.183  18.516   0.598  1.00 20.00    -0.104 C 
HETATM    3  C7  UNL     1     -29.855  18.706   2.898  1.00 20.00     0.112 C 
ENDROOT
BRANCH   2   4
HETATM    4  C8  UNL     1     -31.916  18.411  -0.674  1.00 20.00     0.128 C 
BRANCH   4   5
HETATM    5  C9  UNL     1     -33.385  18.051  -0.443  1.00 20.00     0.158 C 
BRANCH   5   6
HETATM    6  C6  UNL     1     -33.968  17.331  -1.644  1.00 20.00     0.151 C 
HETATM    7  C4  UNL     1     -32.921  16.892  -2.653  1.00 20.00     0.036 C 
HETATM    8  C3  UNL     1     -33.732  16.839  -3.924  1.00 20.00     0.029 C 
HETATM    9  C5  UNL     1     -34.648  18.033  -3.759  1.00 20.00     0.168 C 
HETATM   10  O10 UNL     1     -34.863  18.206  -2.351  1.00 20.00    -0.383 OA
ENDBRANCH   5   6
BRANCH   5  11
HETATM   11  O11 UNL     1     -34.125  19.253  -0.231  1.00 20.00    -0.392 OA
HETATM   12  H25 UNL     1     -35.020  19.085  -0.563  1.00 20.00     0.210 HD
ENDBRANCH   5  11
ENDBRANCH   4   5
ENDBRANCH   2   4
TORSDOF 4
ENDMDL
MODEL 9
REMARK VINA RESULT:      -3.9     11.131     12.734
REMARK  4 active torsions:
REMARK  status: ('A' for Active; 'I' for Inactive)
REMARK    1  A    between atoms: C2_2  and  C8_8 
REMARK    2  A    between atoms: C6_6  and  C9_9 
REMARK    3  A    between atoms: C8_8  and  C9_9 
REMARK    4  A    between atoms: C9_9  and  O11_11 
ROOT
HETATM    1  C1  UNL     1     -33.456  16.722  -2.332  1.00 20.00    -0.111 C 
HETATM    2  C2  UNL     1     -33.196  16.080  -3.313  1.00 20.00    -0.104 C 
HETATM    3  C7  UNL     1     -33.773  17.504  -1.138  1.00 20.00     0.112 C 
ENDROOT
BRANCH   2   4
HETATM    4  C8  UNL     1     -32.876  15.293  -4.514  1.00 20.00     0.128 C 
BRANCH   4   5
HETATM    5  C9  UNL     1     -34.019  14.343  -4.878  1.00 20.00     0.158 C 
BRANCH   5   6
HETATM    6  C6  UNL     1     -34.966  14.983  -5.875  1.00 20.00     0.151 C 
HETATM    7  C4  UNL     1     -34.263  15.828  -6.923  1.00 20.00     0.036 C 
HETATM    8  C3  UNL     1     -35.351  16.798  -7.308  1.00 20.00     0.029 C 
HETATM    9  C5  UNL     1     -36.023  17.058  -5.976  1.00 20.00     0.168 C 
HETATM   10  O10 UNL     1     -35.870  15.867  -5.190  1.00 20.00    -0.383 OA
ENDBRANCH   5   6
BRANCH   5  11
HETATM   11  O11 UNL     1     -34.751  14.029  -3.694  1.00 20.00    -0.392 OA
HETATM   12  H25 UNL     1     -34.673  14.800  -3.112  1.00 20.00     0.210 HD
ENDBRANCH   5  11
ENDBRANCH   4   5
ENDBRANCH   2   4
TORSDOF 4
ENDMDL
