MODEL 1
REMARK VINA RESULT:      -4.0      0.000      0.000
REMARK  1 active torsions:
REMARK  status: ('A' for Active; 'I' for Inactive)
REMARK    1  A    between atoms: C6_6  and  C8_8 
ROOT
HETATM    1  C1  UNL     1     -23.682  18.645   8.947  1.00 20.00     0.069 C 
HETATM    2  C2  UNL     1     -23.965  16.732  10.474  1.00 20.00     0.051 C 
HETATM    3  C3  UNL     1     -25.065  18.937  10.966  1.00 20.00     0.051 C 
HETATM    4  C4  UNL     1     -24.407  16.284  11.863  1.00 20.00     0.169 C 
HETATM    5  C5  UNL     1     -25.443  18.362  12.328  1.00 20.00     0.169 C 
HETATM    6  C6  UNL     1     -23.811  18.263  10.372  1.00 20.00     0.052 C 
HETATM    7  N9  UNL     1     -23.582  18.944   7.830  1.00 20.00    -0.196 NA
HETATM    8  O10 UNL     1     -25.607  16.948  12.252  1.00 20.00    -0.391 OA
ENDROOT
BRANCH   6   9
HETATM    9  C8  UNL     1     -22.542  18.732  11.106  1.00 20.00     0.020 C 
HETATM   10  C7  UNL     1     -21.318  18.448  10.306  1.00 20.00     0.007 C 
ENDBRANCH   6   9
TORSDOF 1
ENDMDL
MODEL 2
REMARK VINA RESULT:      -3.8      2.839      4.027
REMARK  1 active torsions:
REMARK  status: ('A' for Active; 'I' for Inactive)
REMARK    1  A    between atoms: C6_6  and  C8_8 
ROOT
HETATM    1  C1  UNL     1     -22.043  18.424  11.277  1.00 20.00     0.069 C 
HETATM    2  C2  UNL     1     -21.322  17.563   9.083  1.00 20.00     0.051 C 
HETATM    3  C3  UNL     1     -23.167  19.262   9.249  1.00 20.00     0.051 C 
HETATM    4  C4  UNL     1     -21.669  17.438   7.603  1.00 20.00     0.169 C 
HETATM    5  C5  UNL     1     -23.408  19.037   7.760  1.00 20.00     0.169 C 
HETATM    6  C6  UNL     1     -22.522  18.036   9.930  1.00 20.00     0.052 C 
HETATM    7  N9  UNL     1     -21.669  18.727  12.332  1.00 20.00    -0.196 NA
HETATM    8  O10 UNL     1     -22.200  18.662   7.101  1.00 20.00    -0.391 OA
ENDROOT
BRANCH   6   9
HETATM    9  C8  UNL     1     -23.549  16.903  10.097  1.00 20.00     0.020 C 
HETATM   10  C7  UNL     1     -24.656  17.307  11.008  1.00 20.00     0.007 C 
ENDBRANCH   6   9
TORSDOF 1
ENDMDL
MODEL 3
REMARK VINA RESULT:      -3.7     14.878     16.071
REMARK  1 active torsions:
REMARK  status: ('A' for Active; 'I' for Inactive)
REMARK    1  A    between atoms: C6_6  and  C8_8 
ROOT
HETATM    1  C1  UNL     1     -31.733  18.468  -1.023  1.00 20.00     0.069 C 
HETATM    2  C2  UNL     1     -33.001  16.845  -2.377  1.00 20.00     0.051 C 
HETATM    3  C3  UNL     1     -32.884  19.263  -3.053  1.00 20.00     0.051 C 
HETATM    4  C4  UNL     1     -34.041  16.662  -3.477  1.00 20.00     0.169 C 
HETATM    5  C5  UNL     1     -33.932  18.940  -4.114  1.00 20.00     0.169 C 
HETATM    6  C6  UNL     1     -32.948  18.295  -1.853  1.00 20.00     0.052 C 
HETATM    7  N9  UNL     1     -30.782  18.604  -0.374  1.00 20.00    -0.196 NA
HETATM    8  O10 UNL     1     -33.820  17.585  -4.542  1.00 20.00    -0.391 OA
ENDROOT
BRANCH   6   9
HETATM    9  C8  UNL     1     -34.173  18.599  -0.973  1.00 20.00     0.020 C 
HETATM   10  C7  UNL     1     -34.016  18.023   0.392  1.00 20.00     0.007 C 
ENDBRANCH   6   9
TORSDOF 1
ENDMDL
MODEL 4
REMARK VINA RESULT:      -3.6     17.749     18.570
REMARK  1 active torsions:
REMARK  status: ('A' for Active; 'I' for Inactive)
REMARK    1  A    between atoms: C6_6  and  C8_8 
ROOT
HETATM    1  C1  UNL     1     -41.686  13.941   4.722  1.00 20.00     0.069 C 
HETATM    2  C2  UNL     1     -42.860  13.351   6.807  1.00 20.00     0.051 C 
HETATM    3  C3  UNL     1     -40.649  14.545   6.875  1.00 20.00     0.051 C 
HETATM    4  C4  UNL     1     -42.738  13.193   8.319  1.00 20.00     0.169 C 
HETATM    5  C5  UNL     1     -40.655  14.317   8.383  1.00 20.00     0.169 C 
HETATM    6  C6  UNL     1     -41.486  13.492   6.119  1.00 20.00     0.052 C 
HETATM    7  N9  UNL     1     -41.842  14.293   3.628  1.00 20.00    -0.196 NA
HETATM    8  O10 UNL     1     -41.989  14.267   8.883  1.00 20.00    -0.391 OA
ENDROOT
BRANCH   6   9
HETATM    9  C8  UNL     1     -40.755  12.138   6.084  1.00 20.00     0.020 C 
HETATM   10  C7  UNL     1     -39.404  12.269   5.471  1.00 20.00     0.007 C 
ENDBRANCH   6   9
TORSDOF 1
ENDMDL
MODEL 5
REMARK VINA RESULT:      -3.6     14.897     16.070
REMARK  1 active torsions:
REMARK  status: ('A' for Active; 'I' for Inactive)
REMARK    1  A    between atoms: C6_6  and  C8_8 
ROOT
HETATM    1  C1  UNL     1     -34.267  18.815  -0.143  1.00 20.00     0.069 C 
HETATM    2  C2  UNL     1     -34.512  19.104  -2.578  1.00 20.00     0.051 C 
HETATM    3  C3  UNL     1     -33.589  16.968  -1.627  1.00 20.00     0.051 C 
HETATM    4  C4  UNL     1     -34.124  18.574  -3.954  1.00 20.00     0.169 C 
HETATM    5  C5  UNL     1     -33.253  16.562  -3.059  1.00 20.00     0.169 C 
HETATM    6  C6  UNL     1     -33.648  18.500  -1.451  1.00 20.00     0.052 C 
HETATM    7  N9  UNL     1     -34.752  19.062   0.882  1.00 20.00    -0.196 NA
HETATM    8  O10 UNL     1     -34.169  17.149  -3.980  1.00 20.00    -0.391 OA
ENDROOT
BRANCH   6   9
HETATM    9  C8  UNL     1     -32.233  19.105  -1.467  1.00 20.00     0.020 C 
HETATM   10  C7  UNL     1     -31.374  18.499  -0.413  1.00 20.00     0.007 C 
ENDBRANCH   6   9
TORSDOF 1
ENDMDL
MODEL 6
REMARK VINA RESULT:      -3.5     14.476     15.619
REMARK  1 active torsions:
REMARK  status: ('A' for Active; 'I' for Inactive)
REMARK    1  A    between atoms: C6_6  and  C8_8 
ROOT
HETATM    1  C1  UNL     1     -34.350  18.833  -2.994  1.00 20.00     0.069 C 
HETATM    2  C2  UNL     1     -34.375  18.697  -0.533  1.00 20.00     0.051 C 
HETATM    3  C3  UNL     1     -32.202  18.866  -1.785  1.00 20.00     0.051 C 
HETATM    4  C4  UNL     1     -33.548  18.441   0.722  1.00 20.00     0.169 C 
HETATM    5  C5  UNL     1     -31.501  18.599  -0.457  1.00 20.00     0.169 C 
HETATM    6  C6  UNL     1     -33.631  18.285  -1.821  1.00 20.00     0.052 C 
HETATM    7  N9  UNL     1     -34.913  19.263  -3.913  1.00 20.00    -0.196 NA
HETATM    8  O10 UNL     1     -32.279  19.085   0.634  1.00 20.00    -0.391 OA
ENDROOT
BRANCH   6   9
HETATM    9  C8  UNL     1     -33.593  16.753  -1.959  1.00 20.00     0.020 C 
HETATM   10  C7  UNL     1     -33.189  16.344  -3.333  1.00 20.00     0.007 C 
ENDBRANCH   6   9
TORSDOF 1
ENDMDL
MODEL 7
REMARK VINA RESULT:      -3.4     18.005     19.195
REMARK  1 active torsions:
REMARK  status: ('A' for Active; 'I' for Inactive)
REMARK    1  A    between atoms: C6_6  and  C8_8 
ROOT
HETATM    1  C1  UNL     1     -34.056  15.443  -6.865  1.00 20.00     0.069 C 
HETATM    2  C2  UNL     1     -34.367  17.476  -5.507  1.00 20.00     0.051 C 
HETATM    3  C3  UNL     1     -33.443  15.377  -4.478  1.00 20.00     0.051 C 
HETATM    4  C4  UNL     1     -34.442  18.048  -4.095  1.00 20.00     0.169 C 
HETATM    5  C5  UNL     1     -33.573  16.071  -3.125  1.00 20.00     0.169 C 
HETATM    6  C6  UNL     1     -34.436  15.935  -5.520  1.00 20.00     0.052 C 
HETATM    7  N9  UNL     1     -33.759  15.058  -7.918  1.00 20.00    -0.196 NA
HETATM    8  O10 UNL     1     -33.431  17.483  -3.264  1.00 20.00    -0.391 OA
ENDROOT
BRANCH   6   9
HETATM    9  C8  UNL     1     -35.866  15.452  -5.222  1.00 20.00     0.020 C 
HETATM   10  C7  UNL     1     -35.908  13.977  -5.019  1.00 20.00     0.007 C 
ENDBRANCH   6   9
TORSDOF 1
ENDMDL
MODEL 8
REMARK VINA RESULT:      -3.4     19.139     20.302
REMARK  1 active torsions:
REMARK  status: ('A' for Active; 'I' for Inactive)
REMARK    1  A    between atoms: C6_6  and  C8_8 
ROOT
HETATM    1  C1  UNL     1     -35.549  14.126  -4.864  1.00 20.00     0.069 C 
HETATM    2  C2  UNL     1     -36.486  16.218  -5.768  1.00 20.00     0.051 C 
HETATM    3  C3  UNL     1     -34.430  15.191  -6.785  1.00 20.00     0.051 C 
HETATM    4  C4  UNL     1     -36.234  17.429  -6.660  1.00 20.00     0.169 C 
HETATM    5  C5  UNL     1     -34.295  16.463  -7.617  1.00 20.00     0.169 C 
HETATM    6  C6  UNL     1     -35.194  15.432  -5.465  1.00 20.00     0.052 C 
HETATM    7  N9  UNL     1     -35.828  13.103  -4.394  1.00 20.00    -0.196 NA
HETATM    8  O10 UNL     1     -35.573  17.044  -7.864  1.00 20.00    -0.391 OA
ENDROOT
BRANCH   6   9
HETATM    9  C8  UNL     1     -34.316  16.196  -4.459  1.00 20.00     0.020 C 
HETATM   10  C7  UNL     1     -33.160  15.369  -4.012  1.00 20.00     0.007 C 
ENDBRANCH   6   9
TORSDOF 1
ENDMDL
MODEL 9
REMARK VINA RESULT:      -3.4     17.881     18.784
REMARK  1 active torsions:
REMARK  status: ('A' for Active; 'I' for Inactive)
REMARK    1  A    between atoms: C6_6  and  C8_8 
ROOT
HETATM    1  C1  UNL     1     -40.471  12.773   5.435  1.00 20.00     0.069 C 
HETATM    2  C2  UNL     1     -40.460  13.867   7.643  1.00 20.00     0.051 C 
HETATM    3  C3  UNL     1     -42.433  12.498   6.901  1.00 20.00     0.051 C 
HETATM    4  C4  UNL     1     -41.304  14.302   8.837  1.00 20.00     0.169 C 
HETATM    5  C5  UNL     1     -43.163  13.014   8.137  1.00 20.00     0.169 C 
HETATM    6  C6  UNL     1     -41.323  13.462   6.430  1.00 20.00     0.052 C 
HETATM    7  N9  UNL     1     -39.803  12.233   4.655  1.00 20.00    -0.196 NA
HETATM    8  O10 UNL     1     -42.243  13.289   9.191  1.00 20.00    -0.391 OA
ENDROOT
BRANCH   6   9
HETATM    9  C8  UNL     1     -41.932  14.705   5.757  1.00 20.00     0.020 C 
HETATM   10  C7  UNL     1     -42.749  14.332   4.569  1.00 20.00     0.007 C 
ENDBRANCH   6   9
TORSDOF 1
ENDMDL
