MODEL 1
REMARK VINA RESULT:      -5.0      0.000      0.000
REMARK  3 active torsions:
REMARK  status: ('A' for Active; 'I' for Inactive)
REMARK    1  A    between atoms: C3_3  and  C7_7 
REMARK    2  A    between atoms: C3_3  and  C10_10 
REMARK    3  A    between atoms: C8_8  and  C11_11 
ROOT
HETATM    1  C1  UNL     1     -32.152   8.312   0.911  1.00 20.00     0.012 C 
HETATM    2  C2  UNL     1     -32.318   7.732   1.949  1.00 20.00    -0.110 C 
HETATM    3  C10 UNL     1     -32.516   7.030   3.222  1.00 20.00     0.171 C 
ENDROOT
BRANCH   3   4
HETATM    4  C3  UNL     1     -33.070   5.631   3.034  1.00 20.00     0.142 C 
HETATM    5  O12 UNL     1     -32.576   4.811   2.260  1.00 20.00    -0.297 OA
BRANCH   4   6
HETATM    6  C7  UNL     1     -34.288   5.279   3.864  1.00 20.00     0.057 C 
HETATM    7  C4  UNL     1     -33.863   4.438   5.064  1.00 20.00     0.013 C 
HETATM    8  C5  UNL     1     -34.609   5.037   6.250  1.00 20.00     0.005 C 
HETATM    9  C8  UNL     1     -34.685   6.529   5.934  1.00 20.00    -0.014 C 
HETATM   10  C6  UNL     1     -34.925   6.553   4.421  1.00 20.00     0.016 C 
BRANCH   9  11
HETATM   11  C11 UNL     1     -33.411   7.272   6.332  1.00 20.00     0.000 C 
HETATM   12  C9  UNL     1     -33.350   8.641   5.730  1.00 20.00     0.005 C 
ENDBRANCH   9  11
ENDBRANCH   4   6
ENDBRANCH   3   4
TORSDOF 3
ENDMDL
MODEL 2
REMARK VINA RESULT:      -4.9     11.985     13.589
REMARK  3 active torsions:
REMARK  status: ('A' for Active; 'I' for Inactive)
REMARK    1  A    between atoms: C3_3  and  C7_7 
REMARK    2  A    between atoms: C3_3  and  C10_10 
REMARK    3  A    between atoms: C8_8  and  C11_11 
ROOT
HETATM    1  C1  UNL     1     -33.654  16.974  -1.767  1.00 20.00     0.012 C 
HETATM    2  C2  UNL     1     -33.316  16.395  -2.763  1.00 20.00    -0.110 C 
HETATM    3  C10 UNL     1     -32.895  15.692  -3.980  1.00 20.00     0.171 C 
ENDROOT
BRANCH   3   4
HETATM    4  C3  UNL     1     -33.970  14.767  -4.518  1.00 20.00     0.142 C 
HETATM    5  O12 UNL     1     -34.410  13.808  -3.885  1.00 20.00    -0.297 OA
BRANCH   4   6
HETATM    6  C7  UNL     1     -34.490  15.088  -5.905  1.00 20.00     0.057 C 
HETATM    7  C4  UNL     1     -35.973  14.737  -5.988  1.00 20.00     0.013 C 
HETATM    8  C5  UNL     1     -36.622  15.928  -6.682  1.00 20.00     0.005 C 
HETATM    9  C8  UNL     1     -35.809  17.130  -6.210  1.00 20.00    -0.014 C 
HETATM   10  C6  UNL     1     -34.376  16.589  -6.171  1.00 20.00     0.016 C 
BRANCH   9  11
HETATM   11  C11 UNL     1     -36.272  17.645  -4.848  1.00 20.00     0.000 C 
HETATM   12  C9  UNL     1     -35.543  18.888  -4.442  1.00 20.00     0.005 C 
ENDBRANCH   9  11
ENDBRANCH   4   6
ENDBRANCH   3   4
TORSDOF 3
ENDMDL
MODEL 3
REMARK VINA RESULT:      -4.8     12.134     13.616
REMARK  3 active torsions:
REMARK  status: ('A' for Active; 'I' for Inactive)
REMARK    1  A    between atoms: C3_3  and  C7_7 
REMARK    2  A    between atoms: C3_3  and  C10_10 
REMARK    3  A    between atoms: C8_8  and  C11_11 
ROOT
HETATM    1  C1  UNL     1     -30.367  18.446   2.230  1.00 20.00     0.012 C 
HETATM    2  C2  UNL     1     -30.826  18.576   1.128  1.00 20.00    -0.110 C 
HETATM    3  C10 UNL     1     -31.378  18.737  -0.222  1.00 20.00     0.171 C 
ENDROOT
BRANCH   3   4
HETATM    4  C3  UNL     1     -32.893  18.698  -0.239  1.00 20.00     0.142 C 
HETATM    5  O12 UNL     1     -33.566  18.296   0.710  1.00 20.00    -0.297 OA
BRANCH   4   6
HETATM    6  C7  UNL     1     -33.558  19.191  -1.508  1.00 20.00     0.057 C 
HETATM    7  C4  UNL     1     -32.527  19.263  -2.631  1.00 20.00     0.013 C 
HETATM    8  C5  UNL     1     -33.213  18.638  -3.839  1.00 20.00     0.005 C 
HETATM    9  C8  UNL     1     -34.108  17.553  -3.246  1.00 20.00    -0.014 C 
HETATM   10  C6  UNL     1     -34.630  18.197  -1.957  1.00 20.00     0.016 C 
BRANCH   9  11
HETATM   11  C11 UNL     1     -33.348  16.255  -2.980  1.00 20.00     0.000 C 
HETATM   12  C9  UNL     1     -33.693  15.191  -3.974  1.00 20.00     0.005 C 
ENDBRANCH   9  11
ENDBRANCH   4   6
ENDBRANCH   3   4
TORSDOF 3
ENDMDL
MODEL 4
REMARK VINA RESULT:      -4.6     10.080     11.112
REMARK  3 active torsions:
REMARK  status: ('A' for Active; 'I' for Inactive)
REMARK    1  A    between atoms: C3_3  and  C7_7 
REMARK    2  A    between atoms: C3_3  and  C10_10 
REMARK    3  A    between atoms: C8_8  and  C11_11 
ROOT
HETATM    1  C1  UNL     1     -38.943  11.553   3.945  1.00 20.00     0.012 C 
HETATM    2  C2  UNL     1     -39.598  12.111   4.782  1.00 20.00    -0.110 C 
HETATM    3  C10 UNL     1     -40.394  12.789   5.811  1.00 20.00     0.171 C 
ENDROOT
BRANCH   3   4
HETATM    4  C3  UNL     1     -41.596  13.512   5.235  1.00 20.00     0.142 C 
HETATM    5  O12 UNL     1     -41.605  14.010   4.110  1.00 20.00    -0.297 OA
BRANCH   4   6
HETATM    6  C7  UNL     1     -42.816  13.594   6.130  1.00 20.00     0.057 C 
HETATM    7  C4  UNL     1     -42.803  12.432   7.119  1.00 20.00     0.013 C 
HETATM    8  C5  UNL     1     -43.153  13.055   8.465  1.00 20.00     0.005 C 
HETATM    9  C8  UNL     1     -42.533  14.449   8.408  1.00 20.00    -0.014 C 
HETATM   10  C6  UNL     1     -42.772  14.879   6.957  1.00 20.00     0.016 C 
BRANCH   9  11
HETATM   11  C11 UNL     1     -41.050  14.440   8.774  1.00 20.00     0.000 C 
HETATM   12  C9  UNL     1     -40.330  15.630   8.223  1.00 20.00     0.005 C 
ENDBRANCH   9  11
ENDBRANCH   4   6
ENDBRANCH   3   4
TORSDOF 3
ENDMDL
MODEL 5
REMARK VINA RESULT:      -4.5      1.671      2.715
REMARK  3 active torsions:
REMARK  status: ('A' for Active; 'I' for Inactive)
REMARK    1  A    between atoms: C3_3  and  C7_7 
REMARK    2  A    between atoms: C3_3  and  C10_10 
REMARK    3  A    between atoms: C8_8  and  C11_11 
ROOT
HETATM    1  C1  UNL     1     -32.199   8.554   0.948  1.00 20.00     0.012 C 
HETATM    2  C2  UNL     1     -32.228   7.935   1.976  1.00 20.00    -0.110 C 
HETATM    3  C10 UNL     1     -32.261   7.171   3.228  1.00 20.00     0.171 C 
ENDROOT
BRANCH   3   4
HETATM    4  C3  UNL     1     -32.669   8.020   4.417  1.00 20.00     0.142 C 
HETATM    5  O12 UNL     1     -31.923   8.848   4.939  1.00 20.00    -0.297 OA
BRANCH   4   6
HETATM    6  C7  UNL     1     -34.073   7.799   4.943  1.00 20.00     0.057 C 
HETATM    7  C4  UNL     1     -34.860   6.943   3.955  1.00 20.00     0.013 C 
HETATM    8  C5  UNL     1     -35.573   5.905   4.813  1.00 20.00     0.005 C 
HETATM    9  C8  UNL     1     -34.606   5.635   5.962  1.00 20.00    -0.014 C 
HETATM   10  C6  UNL     1     -34.020   7.020   6.258  1.00 20.00     0.016 C 
BRANCH   9  11
HETATM   11  C11 UNL     1     -33.529   4.618   5.587  1.00 20.00     0.000 C 
HETATM   12  C9  UNL     1     -33.787   3.997   4.250  1.00 20.00     0.005 C 
ENDBRANCH   9  11
ENDBRANCH   4   6
ENDBRANCH   3   4
TORSDOF 3
ENDMDL
MODEL 6
REMARK VINA RESULT:      -4.5      1.620      2.011
REMARK  3 active torsions:
REMARK  status: ('A' for Active; 'I' for Inactive)
REMARK    1  A    between atoms: C3_3  and  C7_7 
REMARK    2  A    between atoms: C3_3  and  C10_10 
REMARK    3  A    between atoms: C8_8  and  C11_11 
ROOT
HETATM    1  C1  UNL     1     -32.536   8.782   0.357  1.00 20.00     0.012 C 
HETATM    2  C2  UNL     1     -32.222   8.357   1.435  1.00 20.00    -0.110 C 
HETATM    3  C10 UNL     1     -31.831   7.835   2.749  1.00 20.00     0.171 C 
ENDROOT
BRANCH   3   4
HETATM    4  C3  UNL     1     -33.021   7.594   3.657  1.00 20.00     0.142 C 
HETATM    5  O12 UNL     1     -33.288   8.312   4.620  1.00 20.00    -0.297 OA
BRANCH   4   6
HETATM    6  C7  UNL     1     -33.888   6.399   3.314  1.00 20.00     0.057 C 
HETATM    7  C4  UNL     1     -33.080   5.116   3.481  1.00 20.00     0.013 C 
HETATM    8  C5  UNL     1     -34.002   4.163   4.230  1.00 20.00     0.005 C 
HETATM    9  C8  UNL     1     -34.815   5.069   5.151  1.00 20.00    -0.014 C 
HETATM   10  C6  UNL     1     -35.063   6.311   4.288  1.00 20.00     0.016 C 
BRANCH   9  11
HETATM   11  C11 UNL     1     -34.071   5.399   6.444  1.00 20.00     0.000 C 
HETATM   12  C9  UNL     1     -34.378   6.782   6.929  1.00 20.00     0.005 C 
ENDBRANCH   9  11
ENDBRANCH   4   6
ENDBRANCH   3   4
TORSDOF 3
ENDMDL
MODEL 7
REMARK VINA RESULT:      -4.4     10.054     11.351
REMARK  3 active torsions:
REMARK  status: ('A' for Active; 'I' for Inactive)
REMARK    1  A    between atoms: C3_3  and  C7_7 
REMARK    2  A    between atoms: C3_3  and  C10_10 
REMARK    3  A    between atoms: C8_8  and  C11_11 
ROOT
HETATM    1  C1  UNL     1     -39.091  11.549   3.992  1.00 20.00     0.012 C 
HETATM    2  C2  UNL     1     -39.344  11.956   5.093  1.00 20.00    -0.110 C 
HETATM    3  C10 UNL     1     -39.645  12.450   6.441  1.00 20.00     0.171 C 
ENDROOT
BRANCH   3   4
HETATM    4  C3  UNL     1     -41.078  12.926   6.580  1.00 20.00     0.142 C 
HETATM    5  O12 UNL     1     -42.010  12.177   6.871  1.00 20.00    -0.297 OA
BRANCH   4   6
HETATM    6  C7  UNL     1     -41.315  14.403   6.337  1.00 20.00     0.057 C 
HETATM    7  C4  UNL     1     -42.790  14.727   6.557  1.00 20.00     0.013 C 
HETATM    8  C5  UNL     1     -42.794  16.002   7.391  1.00 20.00     0.005 C 
HETATM    9  C8  UNL     1     -41.560  15.877   8.279  1.00 20.00    -0.014 C 
HETATM   10  C6  UNL     1     -40.525  15.232   7.351  1.00 20.00     0.016 C 
BRANCH   9  11
HETATM   11  C11 UNL     1     -41.825  15.035   9.526  1.00 20.00     0.000 C 
HETATM   12  C9  UNL     1     -40.571  14.419  10.063  1.00 20.00     0.005 C 
ENDBRANCH   9  11
ENDBRANCH   4   6
ENDBRANCH   3   4
TORSDOF 3
ENDMDL
MODEL 8
REMARK VINA RESULT:      -4.4     12.307     13.726
REMARK  3 active torsions:
REMARK  status: ('A' for Active; 'I' for Inactive)
REMARK    1  A    between atoms: C3_3  and  C7_7 
REMARK    2  A    between atoms: C3_3  and  C10_10 
REMARK    3  A    between atoms: C8_8  and  C11_11 
ROOT
HETATM    1  C1  UNL     1     -31.067  18.965   0.650  1.00 20.00     0.012 C 
HETATM    2  C2  UNL     1     -32.185  18.585   0.432  1.00 20.00    -0.110 C 
HETATM    3  C10 UNL     1     -33.551  18.117   0.174  1.00 20.00     0.171 C 
ENDROOT
BRANCH   3   4
HETATM    4  C3  UNL     1     -33.986  18.354  -1.259  1.00 20.00     0.142 C 
HETATM    5  O12 UNL     1     -34.983  19.010  -1.559  1.00 20.00    -0.297 OA
BRANCH   4   6
HETATM    6  C7  UNL     1     -33.114  17.732  -2.331  1.00 20.00     0.057 C 
HETATM    7  C4  UNL     1     -33.542  16.286  -2.564  1.00 20.00     0.013 C 
HETATM    8  C5  UNL     1     -33.589  16.127  -4.079  1.00 20.00     0.005 C 
HETATM    9  C8  UNL     1     -34.036  17.494  -4.589  1.00 20.00    -0.014 C 
HETATM   10  C6  UNL     1     -33.310  18.470  -3.656  1.00 20.00     0.016 C 
BRANCH   9  11
HETATM   11  C11 UNL     1     -35.553  17.664  -4.539  1.00 20.00     0.000 C 
HETATM   12  C9  UNL     1     -36.263  16.588  -5.299  1.00 20.00     0.005 C 
ENDBRANCH   9  11
ENDBRANCH   4   6
ENDBRANCH   3   4
TORSDOF 3
ENDMDL
MODEL 9
REMARK VINA RESULT:      -4.3     12.450     13.823
REMARK  3 active torsions:
REMARK  status: ('A' for Active; 'I' for Inactive)
REMARK    1  A    between atoms: C3_3  and  C7_7 
REMARK    2  A    between atoms: C3_3  and  C10_10 
REMARK    3  A    between atoms: C8_8  and  C11_11 
ROOT
HETATM    1  C1  UNL     1     -33.702  17.810  -0.677  1.00 20.00     0.012 C 
HETATM    2  C2  UNL     1     -33.563  17.139  -1.662  1.00 20.00    -0.110 C 
HETATM    3  C10 UNL     1     -33.388  16.313  -2.862  1.00 20.00     0.171 C 
ENDROOT
BRANCH   3   4
HETATM    4  C3  UNL     1     -33.986  16.953  -4.101  1.00 20.00     0.142 C 
HETATM    5  O12 UNL     1     -34.334  18.132  -4.147  1.00 20.00    -0.297 OA
BRANCH   4   6
HETATM    6  C7  UNL     1     -34.138  16.050  -5.308  1.00 20.00     0.057 C 
HETATM    7  C4  UNL     1     -34.784  14.734  -4.885  1.00 20.00     0.013 C 
HETATM    8  C5  UNL     1     -35.850  14.460  -5.939  1.00 20.00     0.005 C 
HETATM    9  C8  UNL     1     -36.352  15.846  -6.337  1.00 20.00    -0.014 C 
HETATM   10  C6  UNL     1     -35.077  16.695  -6.328  1.00 20.00     0.016 C 
BRANCH   9  11
HETATM   11  C11 UNL     1     -37.412  16.378  -5.374  1.00 20.00     0.000 C 
HETATM   12  C9  UNL     1     -37.609  17.854  -5.520  1.00 20.00     0.005 C 
ENDBRANCH   9  11
ENDBRANCH   4   6
ENDBRANCH   3   4
TORSDOF 3
ENDMDL
