MODEL 1
REMARK VINA RESULT:      -4.5      0.000      0.000
REMARK  2 active torsions:
REMARK  status: ('A' for Active; 'I' for Inactive)
REMARK    1  A    between atoms: C6_6  and  C10_10 
REMARK    2  A    between atoms: C7_7  and  C11_11 
ROOT
HETATM    1  C1  UNL     1     -34.836  18.851  -1.584  1.00 20.00     0.069 C 
HETATM    2  C2  UNL     1     -33.169  18.953  -4.120  1.00 20.00     0.002 C 
HETATM    3  C3  UNL     1     -33.791  17.584  -4.397  1.00 20.00     0.005 C 
HETATM    4  C4  UNL     1     -32.643  19.116  -2.688  1.00 20.00     0.024 C 
HETATM    5  C5  UNL     1     -33.477  16.813  -1.997  1.00 20.00     0.029 C 
HETATM    6  C6  UNL     1     -33.216  16.502  -3.485  1.00 20.00    -0.013 C 
HETATM    7  C7  UNL     1     -33.449  18.323  -1.643  1.00 20.00     0.049 C 
HETATM    8  N12 UNL     1     -35.919  19.263  -1.538  1.00 20.00    -0.196 NA
ENDROOT
BRANCH   7   9
HETATM    9  C11 UNL     1     -32.818  18.515  -0.254  1.00 20.00     0.020 C 
HETATM   10  C9  UNL     1     -31.331  18.529  -0.334  1.00 20.00     0.007 C 
ENDBRANCH   7   9
BRANCH   6  11
HETATM   11  C10 UNL     1     -33.764  15.123  -3.853  1.00 20.00     0.000 C 
HETATM   12  C8  UNL     1     -33.926  14.971  -5.328  1.00 20.00     0.005 C 
ENDBRANCH   6  11
TORSDOF 2
ENDMDL
MODEL 2
REMARK VINA RESULT:      -4.3     11.640     13.200
REMARK  2 active torsions:
REMARK  status: ('A' for Active; 'I' for Inactive)
REMARK    1  A    between atoms: C6_6  and  C10_10 
REMARK    2  A    between atoms: C7_7  and  C11_11 
ROOT
HETATM    1  C1  UNL     1     -41.468  13.665   4.837  1.00 20.00     0.069 C 
HETATM    2  C2  UNL     1     -43.238  13.498   7.297  1.00 20.00     0.002 C 
HETATM    3  C3  UNL     1     -42.519  14.782   7.711  1.00 20.00     0.005 C 
HETATM    4  C4  UNL     1     -42.299  12.398   6.786  1.00 20.00     0.024 C 
HETATM    5  C5  UNL     1     -40.251  13.895   6.989  1.00 20.00     0.029 C 
HETATM    6  C6  UNL     1     -41.076  14.515   8.135  1.00 20.00    -0.013 C 
HETATM    7  C7  UNL     1     -41.053  12.941   6.064  1.00 20.00     0.049 C 
HETATM    8  N12 UNL     1     -41.793  14.230   3.877  1.00 20.00    -0.196 NA
ENDROOT
BRANCH   7   9
HETATM    9  C11 UNL     1     -40.156  11.768   5.634  1.00 20.00     0.020 C 
HETATM   10  C9  UNL     1     -38.724  12.173   5.584  1.00 20.00     0.007 C 
ENDBRANCH   7   9
BRANCH   6  11
HETATM   11  C10 UNL     1     -40.409  15.790   8.652  1.00 20.00     0.000 C 
HETATM   12  C8  UNL     1     -40.725  16.965   7.787  1.00 20.00     0.005 C 
ENDBRANCH   6  11
TORSDOF 2
ENDMDL
MODEL 3
REMARK VINA RESULT:      -4.1     12.133     13.228
REMARK  2 active torsions:
REMARK  status: ('A' for Active; 'I' for Inactive)
REMARK    1  A    between atoms: C6_6  and  C10_10 
REMARK    2  A    between atoms: C7_7  and  C11_11 
ROOT
HETATM    1  C1  UNL     1     -41.571  14.047   9.301  1.00 20.00     0.069 C 
HETATM    2  C2  UNL     1     -43.051  13.624   6.684  1.00 20.00     0.002 C 
HETATM    3  C3  UNL     1     -42.086  12.451   6.508  1.00 20.00     0.005 C 
HETATM    4  C4  UNL     1     -42.372  14.924   7.136  1.00 20.00     0.024 C 
HETATM    5  C5  UNL     1     -40.094  13.803   7.319  1.00 20.00     0.029 C 
HETATM    6  C6  UNL     1     -40.668  12.923   6.189  1.00 20.00    -0.013 C 
HETATM    7  C7  UNL     1     -41.143  14.694   8.035  1.00 20.00     0.049 C 
HETATM    8  N12 UNL     1     -41.904  13.542  10.290  1.00 20.00    -0.196 NA
ENDROOT
BRANCH   7   9
HETATM    9  C11 UNL     1     -40.508  16.048   8.394  1.00 20.00     0.020 C 
HETATM   10  C9  UNL     1     -40.887  17.099   7.408  1.00 20.00     0.007 C 
ENDBRANCH   7   9
BRANCH   6  11
HETATM   11  C10 UNL     1     -39.745  11.739   5.905  1.00 20.00     0.000 C 
HETATM   12  C8  UNL     1     -39.274  11.736   4.489  1.00 20.00     0.005 C 
ENDBRANCH   6  11
TORSDOF 2
ENDMDL
MODEL 4
REMARK VINA RESULT:      -4.1      2.414      5.105
REMARK  2 active torsions:
REMARK  status: ('A' for Active; 'I' for Inactive)
REMARK    1  A    between atoms: C6_6  and  C10_10 
REMARK    2  A    between atoms: C7_7  and  C11_11 
ROOT
HETATM    1  C1  UNL     1     -36.255  15.356  -5.566  1.00 20.00     0.069 C 
HETATM    2  C2  UNL     1     -33.493  14.528  -4.616  1.00 20.00     0.002 C 
HETATM    3  C3  UNL     1     -33.759  15.515  -3.479  1.00 20.00     0.005 C 
HETATM    4  C4  UNL     1     -33.842  15.075  -6.006  1.00 20.00     0.024 C 
HETATM    5  C5  UNL     1     -34.740  17.255  -5.049  1.00 20.00     0.029 C 
HETATM    6  C6  UNL     1     -33.690  16.965  -3.956  1.00 20.00    -0.013 C 
HETATM    7  C7  UNL     1     -35.023  16.062  -6.000  1.00 20.00     0.049 C 
HETATM    8  N12 UNL     1     -37.218  14.805  -5.228  1.00 20.00    -0.196 NA
ENDROOT
BRANCH   7   9
HETATM    9  C11 UNL     1     -35.263  16.586  -7.426  1.00 20.00     0.020 C 
HETATM   10  C9  UNL     1     -34.278  17.645  -7.783  1.00 20.00     0.007 C 
ENDBRANCH   7   9
BRANCH   6  11
HETATM   11  C10 UNL     1     -33.846  17.937  -2.787  1.00 20.00     0.000 C 
HETATM   12  C8  UNL     1     -33.608  17.264  -1.476  1.00 20.00     0.005 C 
ENDBRANCH   6  11
TORSDOF 2
ENDMDL
MODEL 5
REMARK VINA RESULT:      -4.0     12.294     13.753
REMARK  2 active torsions:
REMARK  status: ('A' for Active; 'I' for Inactive)
REMARK    1  A    between atoms: C6_6  and  C10_10 
REMARK    2  A    between atoms: C7_7  and  C11_11 
ROOT
HETATM    1  C1  UNL     1     -35.617   6.000   4.149  1.00 20.00     0.069 C 
HETATM    2  C2  UNL     1     -34.453   6.689   6.867  1.00 20.00     0.002 C 
HETATM    3  C3  UNL     1     -34.030   7.989   6.183  1.00 20.00     0.005 C 
HETATM    4  C4  UNL     1     -34.146   5.429   6.048  1.00 20.00     0.024 C 
HETATM    5  C5  UNL     1     -33.261   6.784   4.083  1.00 20.00     0.029 C 
HETATM    6  C6  UNL     1     -32.876   7.770   5.206  1.00 20.00    -0.013 C 
HETATM    7  C7  UNL     1     -34.224   5.651   4.527  1.00 20.00     0.049 C 
HETATM    8  N12 UNL     1     -36.705   6.272   3.854  1.00 20.00    -0.196 NA
ENDROOT
BRANCH   7   9
HETATM    9  C11 UNL     1     -33.856   4.348   3.797  1.00 20.00     0.020 C 
HETATM   10  C9  UNL     1     -32.986   4.616   2.618  1.00 20.00     0.007 C 
ENDBRANCH   7   9
BRANCH   6  11
HETATM   11  C10 UNL     1     -32.393   9.095   4.617  1.00 20.00     0.000 C 
HETATM   12  C8  UNL     1     -32.517   9.114   3.130  1.00 20.00     0.005 C 
ENDBRANCH   6  11
TORSDOF 2
ENDMDL
MODEL 6
REMARK VINA RESULT:      -4.0      2.382      4.761
REMARK  2 active torsions:
REMARK  status: ('A' for Active; 'I' for Inactive)
REMARK    1  A    between atoms: C6_6  and  C10_10 
REMARK    2  A    between atoms: C7_7  and  C11_11 
ROOT
HETATM    1  C1  UNL     1     -36.633  16.128  -5.474  1.00 20.00     0.069 C 
HETATM    2  C2  UNL     1     -33.904  14.821  -5.712  1.00 20.00     0.002 C 
HETATM    3  C3  UNL     1     -33.859  14.998  -4.194  1.00 20.00     0.005 C 
HETATM    4  C4  UNL     1     -34.375  16.070  -6.469  1.00 20.00     0.024 C 
HETATM    5  C5  UNL     1     -34.810  17.351  -4.313  1.00 20.00     0.029 C 
HETATM    6  C6  UNL     1     -33.661  16.460  -3.797  1.00 20.00    -0.013 C 
HETATM    7  C7  UNL     1     -35.393  16.916  -5.684  1.00 20.00     0.049 C 
HETATM    8  N12 UNL     1     -37.603  15.512  -5.310  1.00 20.00    -0.196 NA
ENDROOT
BRANCH   7   9
HETATM    9  C11 UNL     1     -35.766  18.163  -6.503  1.00 20.00     0.020 C 
HETATM   10  C9  UNL     1     -34.578  18.719  -7.209  1.00 20.00     0.007 C 
ENDBRANCH   7   9
BRANCH   6  11
HETATM   11  C10 UNL     1     -33.505  16.603  -2.284  1.00 20.00     0.000 C 
HETATM   12  C8  UNL     1     -32.883  17.909  -1.916  1.00 20.00     0.005 C 
ENDBRANCH   6  11
TORSDOF 2
ENDMDL
MODEL 7
REMARK VINA RESULT:      -3.8     11.276     12.560
REMARK  2 active torsions:
REMARK  status: ('A' for Active; 'I' for Inactive)
REMARK    1  A    between atoms: C6_6  and  C10_10 
REMARK    2  A    between atoms: C7_7  and  C11_11 
ROOT
HETATM    1  C1  UNL     1     -42.179  12.518   6.911  1.00 20.00     0.069 C 
HETATM    2  C2  UNL     1     -42.176  15.552   7.018  1.00 20.00     0.002 C 
HETATM    3  C3  UNL     1     -43.039  15.441   5.761  1.00 20.00     0.005 C 
HETATM    4  C4  UNL     1     -40.936  14.649   6.999  1.00 20.00     0.024 C 
HETATM    5  C5  UNL     1     -41.581  13.616   4.765  1.00 20.00     0.029 C 
HETATM    6  C6  UNL     1     -42.224  15.001   4.546  1.00 20.00    -0.013 C 
HETATM    7  C7  UNL     1     -41.144  13.334   6.227  1.00 20.00     0.049 C 
HETATM    8  N12 UNL     1     -42.986  11.880   7.445  1.00 20.00    -0.196 NA
ENDROOT
BRANCH   7   9
HETATM    9  C11 UNL     1     -39.836  12.525   6.227  1.00 20.00     0.020 C 
HETATM   10  C9  UNL     1     -39.595  11.890   4.901  1.00 20.00     0.007 C 
ENDBRANCH   7   9
BRANCH   6  11
HETATM   11  C10 UNL     1     -43.077  15.005   3.278  1.00 20.00     0.000 C 
HETATM   12  C8  UNL     1     -42.418  15.763   2.175  1.00 20.00     0.005 C 
ENDBRANCH   6  11
TORSDOF 2
ENDMDL
MODEL 8
REMARK VINA RESULT:      -3.7     11.192     12.549
REMARK  2 active torsions:
REMARK  status: ('A' for Active; 'I' for Inactive)
REMARK    1  A    between atoms: C6_6  and  C10_10 
REMARK    2  A    between atoms: C7_7  and  C11_11 
ROOT
HETATM    1  C1  UNL     1     -42.199  15.660   5.847  1.00 20.00     0.069 C 
HETATM    2  C2  UNL     1     -42.631  13.122   7.457  1.00 20.00     0.002 C 
HETATM    3  C3  UNL     1     -41.134  12.909   7.230  1.00 20.00     0.005 C 
HETATM    4  C4  UNL     1     -43.398  13.529   6.193  1.00 20.00     0.024 C 
HETATM    5  C5  UNL     1     -41.274  13.610   4.793  1.00 20.00     0.029 C 
HETATM    6  C6  UNL     1     -40.827  12.517   5.786  1.00 20.00    -0.013 C 
HETATM    7  C7  UNL     1     -42.562  14.369   5.210  1.00 20.00     0.049 C 
HETATM    8  N12 UNL     1     -41.915  16.668   6.345  1.00 20.00    -0.196 NA
ENDROOT
BRANCH   7   9
HETATM    9  C11 UNL     1     -43.401  14.685   3.960  1.00 20.00     0.020 C 
HETATM   10  C9  UNL     1     -42.556  15.256   2.874  1.00 20.00     0.007 C 
ENDBRANCH   7   9
BRANCH   6  11
HETATM   11  C10 UNL     1     -39.344  12.198   5.605  1.00 20.00     0.000 C 
HETATM   12  C8  UNL     1     -39.044  11.743   4.216  1.00 20.00     0.005 C 
ENDBRANCH   6  11
TORSDOF 2
ENDMDL
MODEL 9
REMARK VINA RESULT:      -3.7     11.843     12.867
REMARK  2 active torsions:
REMARK  status: ('A' for Active; 'I' for Inactive)
REMARK    1  A    between atoms: C6_6  and  C10_10 
REMARK    2  A    between atoms: C7_7  and  C11_11 
ROOT
HETATM    1  C1  UNL     1     -42.196  12.532   6.792  1.00 20.00     0.069 C 
HETATM    2  C2  UNL     1     -41.239  15.249   7.750  1.00 20.00     0.002 C 
HETATM    3  C3  UNL     1     -42.451  15.774   6.980  1.00 20.00     0.005 C 
HETATM    4  C4  UNL     1     -40.406  14.223   6.971  1.00 20.00     0.024 C 
HETATM    5  C5  UNL     1     -42.017  14.242   5.001  1.00 20.00     0.029 C 
HETATM    6  C6  UNL     1     -42.244  15.695   5.468  1.00 20.00    -0.013 C 
HETATM    7  C7  UNL     1     -41.241  13.356   6.011  1.00 20.00     0.049 C 
HETATM    8  N12 UNL     1     -42.942  11.887   7.403  1.00 20.00    -0.196 NA
ENDROOT
BRANCH   7   9
HETATM    9  C11 UNL     1     -40.313  12.396   5.246  1.00 20.00     0.020 C 
HETATM   10  C9  UNL     1     -39.181  11.945   6.102  1.00 20.00     0.007 C 
ENDBRANCH   7   9
BRANCH   6  11
HETATM   11  C10 UNL     1     -43.415  16.326   4.718  1.00 20.00     0.000 C 
HETATM   12  C8  UNL     1     -43.109  16.502   3.268  1.00 20.00     0.005 C 
ENDBRANCH   6  11
TORSDOF 2
ENDMDL
