MODEL 1
REMARK VINA RESULT:      -4.2      0.000      0.000
REMARK  2 active torsions:
REMARK  status: ('A' for Active; 'I' for Inactive)
REMARK    1  A    between atoms: C5_5  and  C9_9 
REMARK    2  A    between atoms: C6_6  and  C10_10 
ROOT
HETATM    1  C1  UNL     1     -32.710   6.052   2.821  1.00 20.00     0.069 C 
HETATM    2  C2  UNL     1     -32.162   8.774   5.063  1.00 20.00     0.006 C 
HETATM    3  C3  UNL     1     -31.535   7.903   3.978  1.00 20.00     0.025 C 
HETATM    4  C4  UNL     1     -33.983   7.975   3.745  1.00 20.00     0.029 C 
HETATM    5  C5  UNL     1     -33.589   8.254   5.199  1.00 20.00    -0.013 C 
HETATM    6  C6  UNL     1     -32.691   7.514   3.029  1.00 20.00     0.049 C 
HETATM    7  N11 UNL     1     -32.726   4.903   2.657  1.00 20.00    -0.196 NA
ENDROOT
BRANCH   6   8
HETATM    8  C10 UNL     1     -32.549   8.207   1.670  1.00 20.00     0.020 C 
HETATM    9  C8  UNL     1     -32.991   9.631   1.729  1.00 20.00     0.007 C 
ENDBRANCH   6   8
BRANCH   5  10
HETATM   10  C9  UNL     1     -33.681   7.015   6.086  1.00 20.00     0.000 C 
HETATM   11  C7  UNL     1     -34.817   6.126   5.689  1.00 20.00     0.005 C 
ENDBRANCH   5  10
TORSDOF 2
ENDMDL
MODEL 2
REMARK VINA RESULT:      -3.9     11.008     12.968
REMARK  2 active torsions:
REMARK  status: ('A' for Active; 'I' for Inactive)
REMARK    1  A    between atoms: C5_5  and  C9_9 
REMARK    2  A    between atoms: C6_6  and  C10_10 
ROOT
HETATM    1  C1  UNL     1     -35.211  14.063  -4.663  1.00 20.00     0.069 C 
HETATM    2  C2  UNL     1     -34.951  17.231  -6.287  1.00 20.00     0.006 C 
HETATM    3  C3  UNL     1     -35.178  16.525  -4.953  1.00 20.00     0.025 C 
HETATM    4  C4  UNL     1     -33.893  15.102  -6.494  1.00 20.00     0.029 C 
HETATM    5  C5  UNL     1     -34.738  16.102  -7.290  1.00 20.00    -0.013 C 
HETATM    6  C6  UNL     1     -34.360  15.215  -5.024  1.00 20.00     0.049 C 
HETATM    7  N11 UNL     1     -35.879  13.157  -4.380  1.00 20.00    -0.196 NA
ENDROOT
BRANCH   6   8
HETATM    8  C10 UNL     1     -33.158  15.261  -4.075  1.00 20.00     0.020 C 
HETATM    9  C8  UNL     1     -33.340  16.285  -3.006  1.00 20.00     0.007 C 
ENDBRANCH   6   8
BRANCH   5  10
HETATM   10  C9  UNL     1     -36.051  15.502  -7.787  1.00 20.00     0.000 C 
HETATM   11  C7  UNL     1     -37.124  16.537  -7.918  1.00 20.00     0.005 C 
ENDBRANCH   5  10
TORSDOF 2
ENDMDL
MODEL 3
REMARK VINA RESULT:      -3.8     10.169     11.189
REMARK  2 active torsions:
REMARK  status: ('A' for Active; 'I' for Inactive)
REMARK    1  A    between atoms: C5_5  and  C9_9 
REMARK    2  A    between atoms: C6_6  and  C10_10 
ROOT
HETATM    1  C1  UNL     1     -41.482  13.695   4.755  1.00 20.00     0.069 C 
HETATM    2  C2  UNL     1     -42.419  13.425   8.188  1.00 20.00     0.006 C 
HETATM    3  C3  UNL     1     -42.523  12.779   6.810  1.00 20.00     0.025 C 
HETATM    4  C4  UNL     1     -40.491  14.153   6.986  1.00 20.00     0.029 C 
HETATM    5  C5  UNL     1     -41.549  14.659   7.971  1.00 20.00    -0.013 C 
HETATM    6  C6  UNL     1     -41.200  13.116   6.085  1.00 20.00     0.049 C 
HETATM    7  N11 UNL     1     -41.702  14.150   3.710  1.00 20.00    -0.196 NA
ENDROOT
BRANCH   6   8
HETATM    8  C10 UNL     1     -40.331  11.866   5.908  1.00 20.00     0.020 C 
HETATM    9  C8  UNL     1     -38.985  12.206   5.361  1.00 20.00     0.007 C 
ENDBRANCH   6   8
BRANCH   5  10
HETATM   10  C9  UNL     1     -42.340  15.848   7.431  1.00 20.00     0.000 C 
HETATM   11  C7  UNL     1     -41.445  16.965   6.997  1.00 20.00     0.005 C 
ENDBRANCH   5  10
TORSDOF 2
ENDMDL
MODEL 4
REMARK VINA RESULT:      -3.5     10.576     11.497
REMARK  2 active torsions:
REMARK  status: ('A' for Active; 'I' for Inactive)
REMARK    1  A    between atoms: C5_5  and  C9_9 
REMARK    2  A    between atoms: C6_6  and  C10_10 
ROOT
HETATM    1  C1  UNL     1     -42.320  12.524   6.955  1.00 20.00     0.069 C 
HETATM    2  C2  UNL     1     -40.430  15.496   7.533  1.00 20.00     0.006 C 
HETATM    3  C3  UNL     1     -40.415  13.972   7.607  1.00 20.00     0.025 C 
HETATM    4  C4  UNL     1     -42.013  14.756   5.909  1.00 20.00     0.029 C 
HETATM    5  C5  UNL     1     -41.803  15.843   6.968  1.00 20.00    -0.013 C 
HETATM    6  C6  UNL     1     -41.318  13.485   6.450  1.00 20.00     0.049 C 
HETATM    7  N11 UNL     1     -43.108  11.770   7.351  1.00 20.00    -0.196 NA
ENDROOT
BRANCH   6   8
HETATM    8  C10 UNL     1     -40.493  12.809   5.350  1.00 20.00     0.020 C 
HETATM    9  C8  UNL     1     -39.590  11.760   5.907  1.00 20.00     0.007 C 
ENDBRANCH   6   8
BRANCH   5  10
HETATM   10  C9  UNL     1     -42.894  15.846   8.037  1.00 20.00     0.000 C 
HETATM   11  C7  UNL     1     -42.495  16.640   9.241  1.00 20.00     0.005 C 
ENDBRANCH   5  10
TORSDOF 2
ENDMDL
MODEL 5
REMARK VINA RESULT:      -3.5     10.588     11.734
REMARK  2 active torsions:
REMARK  status: ('A' for Active; 'I' for Inactive)
REMARK    1  A    between atoms: C5_5  and  C9_9 
REMARK    2  A    between atoms: C6_6  and  C10_10 
ROOT
HETATM    1  C1  UNL     1     -43.088  12.704   8.115  1.00 20.00     0.069 C 
HETATM    2  C2  UNL     1     -41.745  14.039   5.089  1.00 20.00     0.006 C 
HETATM    3  C3  UNL     1     -43.026  13.733   5.860  1.00 20.00     0.025 C 
HETATM    4  C4  UNL     1     -41.131  14.054   7.395  1.00 20.00     0.029 C 
HETATM    5  C5  UNL     1     -40.620  13.604   6.023  1.00 20.00    -0.013 C 
HETATM    6  C6  UNL     1     -42.669  13.900   7.355  1.00 20.00     0.049 C 
HETATM    7  N11 UNL     1     -43.416  11.766   8.713  1.00 20.00    -0.196 NA
ENDROOT
BRANCH   6   8
HETATM    8  C10 UNL     1     -43.354  15.133   7.953  1.00 20.00     0.020 C 
HETATM    9  C8  UNL     1     -42.494  15.796   8.977  1.00 20.00     0.007 C 
ENDBRANCH   6   8
BRANCH   5  10
HETATM   10  C9  UNL     1     -40.348  12.103   5.955  1.00 20.00     0.000 C 
HETATM   11  C7  UNL     1     -39.326  11.766   4.916  1.00 20.00     0.005 C 
ENDBRANCH   5  10
TORSDOF 2
ENDMDL
MODEL 6
REMARK VINA RESULT:      -3.5     11.466     13.401
REMARK  2 active torsions:
REMARK  status: ('A' for Active; 'I' for Inactive)
REMARK    1  A    between atoms: C5_5  and  C9_9 
REMARK    2  A    between atoms: C6_6  and  C10_10 
ROOT
HETATM    1  C1  UNL     1     -34.036  15.191  -6.795  1.00 20.00     0.069 C 
HETATM    2  C2  UNL     1     -37.157  15.494  -5.090  1.00 20.00     0.006 C 
HETATM    3  C3  UNL     1     -36.071  14.524  -5.545  1.00 20.00     0.025 C 
HETATM    4  C4  UNL     1     -35.164  16.793  -5.268  1.00 20.00     0.029 C 
HETATM    5  C5  UNL     1     -36.669  16.864  -5.549  1.00 20.00    -0.013 C 
HETATM    6  C6  UNL     1     -34.749  15.323  -5.507  1.00 20.00     0.049 C 
HETATM    7  N11 UNL     1     -33.476  15.088  -7.806  1.00 20.00    -0.196 NA
ENDROOT
BRANCH   6   8
HETATM    8  C10 UNL     1     -33.834  14.829  -4.382  1.00 20.00     0.020 C 
HETATM    9  C8  UNL     1     -33.421  15.942  -3.479  1.00 20.00     0.007 C 
ENDBRANCH   6   8
BRANCH   5  10
HETATM   10  C9  UNL     1     -36.985  17.139  -7.017  1.00 20.00     0.000 C 
HETATM   11  C7  UNL     1     -36.098  18.198  -7.592  1.00 20.00     0.005 C 
ENDBRANCH   5  10
TORSDOF 2
ENDMDL
MODEL 7
REMARK VINA RESULT:      -3.4     11.473     12.912
REMARK  2 active torsions:
REMARK  status: ('A' for Active; 'I' for Inactive)
REMARK    1  A    between atoms: C5_5  and  C9_9 
REMARK    2  A    between atoms: C6_6  and  C10_10 
ROOT
HETATM    1  C1  UNL     1     -35.851  18.177  -4.131  1.00 20.00     0.069 C 
HETATM    2  C2  UNL     1     -33.188  15.834  -3.734  1.00 20.00     0.006 C 
HETATM    3  C3  UNL     1     -34.505  16.119  -4.449  1.00 20.00     0.025 C 
HETATM    4  C4  UNL     1     -33.390  18.211  -3.791  1.00 20.00     0.029 C 
HETATM    5  C5  UNL     1     -32.940  17.069  -2.874  1.00 20.00    -0.013 C 
HETATM    6  C6  UNL     1     -34.563  17.653  -4.631  1.00 20.00     0.049 C 
HETATM    7  N11 UNL     1     -36.862  18.590  -3.739  1.00 20.00    -0.196 NA
ENDROOT
BRANCH   6   8
HETATM    8  C10 UNL     1     -34.407  18.043  -6.105  1.00 20.00     0.020 C 
HETATM    9  C8  UNL     1     -34.693  16.893  -7.011  1.00 20.00     0.007 C 
ENDBRANCH   6   8
BRANCH   5  10
HETATM   10  C9  UNL     1     -33.710  17.031  -1.555  1.00 20.00     0.000 C 
HETATM   11  C7  UNL     1     -33.278  18.119  -0.624  1.00 20.00     0.005 C 
ENDBRANCH   5  10
TORSDOF 2
ENDMDL
MODEL 8
REMARK VINA RESULT:      -3.4     11.161     12.977
REMARK  2 active torsions:
REMARK  status: ('A' for Active; 'I' for Inactive)
REMARK    1  A    between atoms: C5_5  and  C9_9 
REMARK    2  A    between atoms: C6_6  and  C10_10 
ROOT
HETATM    1  C1  UNL     1     -32.020  18.599  -0.958  1.00 20.00     0.069 C 
HETATM    2  C2  UNL     1     -34.140  17.044  -3.371  1.00 20.00     0.006 C 
HETATM    3  C3  UNL     1     -33.153  16.800  -2.234  1.00 20.00     0.025 C 
HETATM    4  C4  UNL     1     -34.239  18.995  -2.002  1.00 20.00     0.029 C 
HETATM    5  C5  UNL     1     -34.248  18.562  -3.471  1.00 20.00    -0.013 C 
HETATM    6  C6  UNL     1     -33.331  17.987  -1.260  1.00 20.00     0.049 C 
HETATM    7  N11 UNL     1     -30.991  19.081  -0.721  1.00 20.00    -0.196 NA
ENDROOT
BRANCH   6   8
HETATM    8  C10 UNL     1     -33.980  17.536   0.052  1.00 20.00     0.020 C 
HETATM    9  C8  UNL     1     -34.159  18.675   0.998  1.00 20.00     0.007 C 
ENDBRANCH   6   8
BRANCH   5  10
HETATM   10  C9  UNL     1     -33.107  19.180  -4.277  1.00 20.00     0.000 C 
HETATM   11  C7  UNL     1     -33.431  19.259  -5.736  1.00 20.00     0.005 C 
ENDBRANCH   5  10
TORSDOF 2
ENDMDL
MODEL 9
REMARK VINA RESULT:      -3.4     11.467     13.042
REMARK  2 active torsions:
REMARK  status: ('A' for Active; 'I' for Inactive)
REMARK    1  A    between atoms: C5_5  and  C9_9 
REMARK    2  A    between atoms: C6_6  and  C10_10 
ROOT
HETATM    1  C1  UNL     1     -33.382  18.407  -4.450  1.00 20.00     0.069 C 
HETATM    2  C2  UNL     1     -33.913  14.897  -4.079  1.00 20.00     0.006 C 
HETATM    3  C3  UNL     1     -33.128  16.102  -3.571  1.00 20.00     0.025 C 
HETATM    4  C4  UNL     1     -35.274  16.799  -4.551  1.00 20.00     0.029 C 
HETATM    5  C5  UNL     1     -34.835  15.461  -5.156  1.00 20.00    -0.013 C 
HETATM    6  C6  UNL     1     -34.071  17.317  -3.728  1.00 20.00     0.049 C 
HETATM    7  N11 UNL     1     -32.843  19.263  -5.017  1.00 20.00    -0.196 NA
ENDROOT
BRANCH   6   8
HETATM    8  C10 UNL     1     -34.533  17.840  -2.364  1.00 20.00     0.020 C 
HETATM    9  C8  UNL     1     -33.623  17.394  -1.268  1.00 20.00     0.007 C 
ENDBRANCH   6   8
BRANCH   5  10
HETATM   10  C9  UNL     1     -34.135  15.622  -6.503  1.00 20.00     0.000 C 
HETATM   11  C7  UNL     1     -34.823  16.625  -7.375  1.00 20.00     0.005 C 
ENDBRANCH   5  10
TORSDOF 2
ENDMDL
