MODEL 1
REMARK VINA RESULT:      -4.4      0.000      0.000
REMARK  3 active torsions:
REMARK  status: ('A' for Active; 'I' for Inactive)
REMARK    1  A    between atoms: C6_6  and  C11_11 
REMARK    2  A    between atoms: C7_7  and  C12_12 
REMARK    3  A    between atoms: C12_12  and  C13_13 
ROOT
HETATM    1  C1  UNL     1     -41.635  13.723   5.065  1.00 20.00     0.069 C 
HETATM    2  C2  UNL     1     -43.417  13.571   7.629  1.00 20.00     0.002 C 
HETATM    3  C3  UNL     1     -42.624  14.429   8.609  1.00 20.00     0.005 C 
HETATM    4  C4  UNL     1     -42.544  12.481   7.006  1.00 20.00     0.024 C 
HETATM    5  C5  UNL     1     -40.512  13.987   7.270  1.00 20.00     0.029 C 
HETATM    6  C6  UNL     1     -41.371  15.051   7.983  1.00 20.00    -0.013 C 
HETATM    7  C7  UNL     1     -41.275  13.031   6.323  1.00 20.00     0.050 C 
HETATM    8  N14 UNL     1     -41.917  14.264   4.078  1.00 20.00    -0.196 NA
ENDROOT
BRANCH   7   9
HETATM    9  C12 UNL     1     -40.354  11.853   5.953  1.00 20.00     0.028 C 
BRANCH   9  10
HETATM   10  C13 UNL     1     -39.119  12.286   5.158  1.00 20.00    -0.021 C 
HETATM   11  C9  UNL     1     -37.821  12.129   5.951  1.00 20.00     0.009 C 
HETATM   12  C10 UNL     1     -39.038  11.468   3.866  1.00 20.00     0.009 C 
ENDBRANCH   9  10
ENDBRANCH   7   9
BRANCH   6  13
HETATM   13  C11 UNL     1     -41.718  16.241   7.085  1.00 20.00     0.000 C 
HETATM   14  C8  UNL     1     -40.755  17.368   7.268  1.00 20.00     0.005 C 
ENDBRANCH   6  13
TORSDOF 3
ENDMDL
MODEL 2
REMARK VINA RESULT:      -3.9     11.164     13.503
REMARK  3 active torsions:
REMARK  status: ('A' for Active; 'I' for Inactive)
REMARK    1  A    between atoms: C6_6  and  C11_11 
REMARK    2  A    between atoms: C7_7  and  C12_12 
REMARK    3  A    between atoms: C12_12  and  C13_13 
ROOT
HETATM    1  C1  UNL     1     -33.262  18.541  -4.143  1.00 20.00     0.069 C 
HETATM    2  C2  UNL     1     -33.152  15.419  -4.257  1.00 20.00     0.002 C 
HETATM    3  C3  UNL     1     -34.511  15.082  -4.862  1.00 20.00     0.005 C 
HETATM    4  C4  UNL     1     -33.294  16.327  -3.034  1.00 20.00     0.024 C 
HETATM    5  C5  UNL     1     -35.419  17.304  -4.033  1.00 20.00     0.029 C 
HETATM    6  C6  UNL     1     -35.331  16.327  -5.222  1.00 20.00    -0.013 C 
HETATM    7  C7  UNL     1     -34.081  17.622  -3.323  1.00 20.00     0.050 C 
HETATM    8  N14 UNL     1     -32.619  19.263  -4.786  1.00 20.00    -0.196 NA
ENDROOT
BRANCH   7   9
HETATM    9  C12 UNL     1     -34.379  18.335  -1.990  1.00 20.00     0.028 C 
BRANCH   9  10
HETATM   10  C13 UNL     1     -33.369  17.993  -0.891  1.00 20.00    -0.021 C 
HETATM   11  C9  UNL     1     -32.120  18.875  -0.941  1.00 20.00     0.009 C 
HETATM   12  C10 UNL     1     -34.045  18.130   0.476  1.00 20.00     0.009 C 
ENDBRANCH   9  10
ENDBRANCH   7   9
BRANCH   6  13
HETATM   13  C11 UNL     1     -34.824  16.988  -6.505  1.00 20.00     0.000 C 
HETATM   14  C8  UNL     1     -34.635  15.991  -7.601  1.00 20.00     0.005 C 
ENDBRANCH   6  13
TORSDOF 3
ENDMDL
MODEL 3
REMARK VINA RESULT:      -3.8     11.614     13.892
REMARK  3 active torsions:
REMARK  status: ('A' for Active; 'I' for Inactive)
REMARK    1  A    between atoms: C6_6  and  C11_11 
REMARK    2  A    between atoms: C7_7  and  C12_12 
REMARK    3  A    between atoms: C12_12  and  C13_13 
ROOT
HETATM    1  C1  UNL     1     -36.166  17.501  -4.804  1.00 20.00     0.069 C 
HETATM    2  C2  UNL     1     -34.729  17.100  -7.552  1.00 20.00     0.002 C 
HETATM    3  C3  UNL     1     -34.069  15.738  -7.361  1.00 20.00     0.005 C 
HETATM    4  C4  UNL     1     -34.369  18.059  -6.415  1.00 20.00     0.024 C 
HETATM    5  C5  UNL     1     -34.127  16.074  -4.845  1.00 20.00     0.029 C 
HETATM    6  C6  UNL     1     -34.397  15.098  -6.007  1.00 20.00    -0.013 C 
HETATM    7  C7  UNL     1     -34.701  17.500  -5.016  1.00 20.00     0.050 C 
HETATM    8  N14 UNL     1     -37.314  17.503  -4.638  1.00 20.00    -0.196 NA
ENDROOT
BRANCH   7   9
HETATM    9  C12 UNL     1     -34.081  18.421  -3.949  1.00 20.00     0.028 C 
BRANCH   9  10
HETATM   10  C13 UNL     1     -34.306  17.918  -2.520  1.00 20.00    -0.021 C 
HETATM   11  C9  UNL     1     -33.004  17.528  -1.819  1.00 20.00     0.009 C 
HETATM   12  C10 UNL     1     -35.025  19.000  -1.711  1.00 20.00     0.009 C 
ENDBRANCH   9  10
ENDBRANCH   7   9
BRANCH   6  13
HETATM   13  C11 UNL     1     -35.813  14.515  -5.985  1.00 20.00     0.000 C 
HETATM   14  C8  UNL     1     -36.084  13.777  -4.715  1.00 20.00     0.005 C 
ENDBRANCH   6  13
TORSDOF 3
ENDMDL
MODEL 4
REMARK VINA RESULT:      -3.7     11.064     13.250
REMARK  3 active torsions:
REMARK  status: ('A' for Active; 'I' for Inactive)
REMARK    1  A    between atoms: C6_6  and  C11_11 
REMARK    2  A    between atoms: C7_7  and  C12_12 
REMARK    3  A    between atoms: C12_12  and  C13_13 
ROOT
HETATM    1  C1  UNL     1     -35.303  18.470  -2.703  1.00 20.00     0.069 C 
HETATM    2  C2  UNL     1     -33.743  19.263  -5.293  1.00 20.00     0.002 C 
HETATM    3  C3  UNL     1     -33.999  18.058  -6.192  1.00 20.00     0.005 C 
HETATM    4  C4  UNL     1     -33.186  18.838  -3.934  1.00 20.00     0.024 C 
HETATM    5  C5  UNL     1     -34.432  16.631  -4.136  1.00 20.00     0.029 C 
HETATM    6  C6  UNL     1     -34.920  17.015  -5.546  1.00 20.00    -0.013 C 
HETATM    7  C7  UNL     1     -34.075  17.812  -3.202  1.00 20.00     0.050 C 
HETATM    8  N14 UNL     1     -36.266  18.986  -2.310  1.00 20.00    -0.196 NA
ENDROOT
BRANCH   7   9
HETATM    9  C12 UNL     1     -33.313  17.271  -1.978  1.00 20.00     0.028 C 
BRANCH   9  10
HETATM   10  C13 UNL     1     -33.039  18.345  -0.921  1.00 20.00    -0.021 C 
HETATM   11  C9  UNL     1     -33.767  18.075   0.397  1.00 20.00     0.009 C 
HETATM   12  C10 UNL     1     -31.531  18.433  -0.670  1.00 20.00     0.009 C 
ENDBRANCH   9  10
ENDBRANCH   7   9
BRANCH   6  13
HETATM   13  C11 UNL     1     -36.385  17.459  -5.574  1.00 20.00     0.000 C 
HETATM   14  C8  UNL     1     -37.314  16.300  -5.423  1.00 20.00     0.005 C 
ENDBRANCH   6  13
TORSDOF 3
ENDMDL
MODEL 5
REMARK VINA RESULT:      -3.6     11.841     14.012
REMARK  3 active torsions:
REMARK  status: ('A' for Active; 'I' for Inactive)
REMARK    1  A    between atoms: C6_6  and  C11_11 
REMARK    2  A    between atoms: C7_7  and  C12_12 
REMARK    3  A    between atoms: C12_12  and  C13_13 
ROOT
HETATM    1  C1  UNL     1     -34.379  18.226  -5.836  1.00 20.00     0.069 C 
HETATM    2  C2  UNL     1     -34.245  15.105  -5.968  1.00 20.00     0.002 C 
HETATM    3  C3  UNL     1     -35.712  14.739  -6.167  1.00 20.00     0.005 C 
HETATM    4  C4  UNL     1     -34.056  16.020  -4.757  1.00 20.00     0.024 C 
HETATM    5  C5  UNL     1     -36.394  16.951  -5.122  1.00 20.00     0.029 C 
HETATM    6  C6  UNL     1     -36.625  15.966  -6.285  1.00 20.00    -0.013 C 
HETATM    7  C7  UNL     1     -34.918  17.298  -4.816  1.00 20.00     0.050 C 
HETATM    8  N14 UNL     1     -33.957  18.954  -6.635  1.00 20.00    -0.196 NA
ENDROOT
BRANCH   7   9
HETATM    9  C12 UNL     1     -34.843  18.016  -3.455  1.00 20.00     0.028 C 
BRANCH   9  10
HETATM   10  C13 UNL     1     -33.477  17.872  -2.778  1.00 20.00    -0.021 C 
HETATM   11  C9  UNL     1     -32.709  19.193  -2.712  1.00 20.00     0.009 C 
HETATM   12  C10 UNL     1     -33.671  17.316  -1.365  1.00 20.00     0.009 C 
ENDBRANCH   9  10
ENDBRANCH   7   9
BRANCH   6  13
HETATM   13  C11 UNL     1     -36.511  16.626  -7.661  1.00 20.00     0.000 C 
HETATM   14  C8  UNL     1     -37.492  17.740  -7.820  1.00 20.00     0.005 C 
ENDBRANCH   6  13
TORSDOF 3
ENDMDL
MODEL 6
REMARK VINA RESULT:      -3.6      1.907      4.798
REMARK  3 active torsions:
REMARK  status: ('A' for Active; 'I' for Inactive)
REMARK    1  A    between atoms: C6_6  and  C11_11 
REMARK    2  A    between atoms: C7_7  and  C12_12 
REMARK    3  A    between atoms: C12_12  and  C13_13 
ROOT
HETATM    1  C1  UNL     1     -40.790  15.281   8.531  1.00 20.00     0.069 C 
HETATM    2  C2  UNL     1     -42.930  13.029   8.177  1.00 20.00     0.002 C 
HETATM    3  C3  UNL     1     -42.682  12.588   6.739  1.00 20.00     0.005 C 
HETATM    4  C4  UNL     1     -43.139  14.541   8.270  1.00 20.00     0.024 C 
HETATM    5  C5  UNL     1     -41.648  14.852   6.234  1.00 20.00     0.029 C 
HETATM    6  C6  UNL     1     -41.509  13.325   6.080  1.00 20.00    -0.013 C 
HETATM    7  C7  UNL     1     -41.983  15.358   7.658  1.00 20.00     0.050 C 
HETATM    8  N14 UNL     1     -39.855  15.221   9.216  1.00 20.00    -0.196 NA
ENDROOT
BRANCH   7   9
HETATM    9  C12 UNL     1     -42.400  16.838   7.579  1.00 20.00     0.028 C 
BRANCH   9  10
HETATM   10  C13 UNL     1     -41.733  17.587   6.422  1.00 20.00    -0.021 C 
HETATM   11  C9  UNL     1     -42.732  18.376   5.575  1.00 20.00     0.009 C 
HETATM   12  C10 UNL     1     -40.668  18.534   6.981  1.00 20.00     0.009 C 
ENDBRANCH   9  10
ENDBRANCH   7   9
BRANCH   6  13
HETATM   13  C11 UNL     1     -40.160  12.793   6.569  1.00 20.00     0.000 C 
HETATM   14  C8  UNL     1     -39.647  11.702   5.689  1.00 20.00     0.005 C 
ENDBRANCH   6  13
TORSDOF 3
ENDMDL
MODEL 7
REMARK VINA RESULT:      -3.6      1.998      4.821
REMARK  3 active torsions:
REMARK  status: ('A' for Active; 'I' for Inactive)
REMARK    1  A    between atoms: C6_6  and  C11_11 
REMARK    2  A    between atoms: C7_7  and  C12_12 
REMARK    3  A    between atoms: C12_12  and  C13_13 
ROOT
HETATM    1  C1  UNL     1     -42.766  13.411   8.428  1.00 20.00     0.069 C 
HETATM    2  C2  UNL     1     -43.224  13.999   5.391  1.00 20.00     0.002 C 
HETATM    3  C3  UNL     1     -41.794  14.054   4.866  1.00 20.00     0.005 C 
HETATM    4  C4  UNL     1     -43.417  14.934   6.586  1.00 20.00     0.024 C 
HETATM    5  C5  UNL     1     -40.970  14.621   7.200  1.00 20.00     0.029 C 
HETATM    6  C6  UNL     1     -40.747  13.754   5.946  1.00 20.00    -0.013 C 
HETATM    7  C7  UNL     1     -42.421  14.673   7.734  1.00 20.00     0.050 C 
HETATM    8  N14 UNL     1     -43.037  12.423   8.972  1.00 20.00    -0.196 NA
ENDROOT
BRANCH   7   9
HETATM    9  C12 UNL     1     -42.536  15.811   8.766  1.00 20.00     0.028 C 
BRANCH   9  10
HETATM   10  C13 UNL     1     -41.179  16.412   9.146  1.00 20.00    -0.021 C 
HETATM   11  C9  UNL     1     -41.172  17.940   9.084  1.00 20.00     0.009 C 
HETATM   12  C10 UNL     1     -40.800  15.950  10.555  1.00 20.00     0.009 C 
ENDBRANCH   9  10
ENDBRANCH   7   9
BRANCH   6  13
HETATM   13  C11 UNL     1     -40.670  12.257   6.258  1.00 20.00     0.000 C 
HETATM   14  C8  UNL     1     -39.663  11.567   5.398  1.00 20.00     0.005 C 
ENDBRANCH   6  13
TORSDOF 3
ENDMDL
MODEL 8
REMARK VINA RESULT:      -3.5      2.337      3.393
REMARK  3 active torsions:
REMARK  status: ('A' for Active; 'I' for Inactive)
REMARK    1  A    between atoms: C6_6  and  C11_11 
REMARK    2  A    between atoms: C7_7  and  C12_12 
REMARK    3  A    between atoms: C12_12  and  C13_13 
ROOT
HETATM    1  C1  UNL     1     -42.517  13.354   9.174  1.00 20.00     0.069 C 
HETATM    2  C2  UNL     1     -40.244  15.497   9.300  1.00 20.00     0.002 C 
HETATM    3  C3  UNL     1     -40.976  16.753   8.840  1.00 20.00     0.005 C 
HETATM    4  C4  UNL     1     -40.423  14.350   8.304  1.00 20.00     0.024 C 
HETATM    5  C5  UNL     1     -42.683  15.306   7.639  1.00 20.00     0.029 C 
HETATM    6  C6  UNL     1     -42.467  16.514   8.573  1.00 20.00    -0.013 C 
HETATM    7  C7  UNL     1     -41.900  14.023   8.007  1.00 20.00     0.050 C 
HETATM    8  N14 UNL     1     -43.000  12.828  10.089  1.00 20.00    -0.196 NA
ENDROOT
BRANCH   7   9
HETATM    9  C12 UNL     1     -41.967  13.039   6.823  1.00 20.00     0.028 C 
BRANCH   9  10
HETATM   10  C13 UNL     1     -40.901  13.310   5.759  1.00 20.00    -0.021 C 
HETATM   11  C9  UNL     1     -40.101  12.059   5.392  1.00 20.00     0.009 C 
HETATM   12  C10 UNL     1     -41.571  13.881   4.506  1.00 20.00     0.009 C 
ENDBRANCH   9  10
ENDBRANCH   7   9
BRANCH   6  13
HETATM   13  C11 UNL     1     -43.267  16.416   9.874  1.00 20.00     0.000 C 
HETATM   14  C8  UNL     1     -42.998  17.577  10.774  1.00 20.00     0.005 C 
ENDBRANCH   6  13
TORSDOF 3
ENDMDL
MODEL 9
REMARK VINA RESULT:      -3.4      1.536      2.085
REMARK  3 active torsions:
REMARK  status: ('A' for Active; 'I' for Inactive)
REMARK    1  A    between atoms: C6_6  and  C11_11 
REMARK    2  A    between atoms: C7_7  and  C12_12 
REMARK    3  A    between atoms: C12_12  and  C13_13 
ROOT
HETATM    1  C1  UNL     1     -42.758  14.885   7.021  1.00 20.00     0.069 C 
HETATM    2  C2  UNL     1     -42.676  14.382  10.105  1.00 20.00     0.002 C 
HETATM    3  C3  UNL     1     -41.277  14.870  10.463  1.00 20.00     0.005 C 
HETATM    4  C4  UNL     1     -42.638  13.359   8.969  1.00 20.00     0.024 C 
HETATM    5  C5  UNL     1     -40.538  14.471   8.066  1.00 20.00     0.029 C 
HETATM    6  C6  UNL     1     -40.518  15.445   9.261  1.00 20.00    -0.013 C 
HETATM    7  C7  UNL     1     -41.919  13.876   7.706  1.00 20.00     0.050 C 
HETATM    8  N14 UNL     1     -43.417  15.675   6.483  1.00 20.00    -0.196 NA
ENDROOT
BRANCH   7   9
HETATM    9  C12 UNL     1     -41.719  12.703   6.727  1.00 20.00     0.028 C 
BRANCH   9  10
HETATM   10  C13 UNL     1     -40.441  12.831   5.894  1.00 20.00    -0.021 C 
HETATM   11  C9  UNL     1     -39.634  11.532   5.847  1.00 20.00     0.009 C 
HETATM   12  C10 UNL     1     -40.808  13.263   4.471  1.00 20.00     0.009 C 
ENDBRANCH   9  10
ENDBRANCH   7   9
BRANCH   6  13
HETATM   13  C11 UNL     1     -41.012  16.848   8.899  1.00 20.00     0.000 C 
HETATM   14  C8  UNL     1     -40.428  17.321   7.609  1.00 20.00     0.005 C 
ENDBRANCH   6  13
TORSDOF 3
ENDMDL
