MODEL 1
REMARK VINA RESULT:      -5.1      0.000      0.000
REMARK  3 active torsions:
REMARK  status: ('A' for Active; 'I' for Inactive)
REMARK    1  A    between atoms: C1_1  and  C7_7 
REMARK    2  A    between atoms: C1_1  and  C9_9 
REMARK    3  A    between atoms: C8_8  and  C9_9 
ROOT
HETATM    1  C1  UNL     1     -32.810   7.804   4.257  1.00 20.00     0.155 C 
HETATM    2  O10 UNL     1     -32.197   8.671   4.876  1.00 20.00    -0.295 OA
ENDROOT
BRANCH   1   3
HETATM    3  C7  UNL     1     -34.049   7.189   4.816  1.00 20.00     0.190 C 
HETATM    4  C3  UNL     1     -33.905   6.797   6.274  1.00 20.00     0.042 C 
HETATM    5  C2  UNL     1     -34.678   5.504   6.338  1.00 20.00     0.029 C 
HETATM    6  C6  UNL     1     -34.376   4.893   4.990  1.00 20.00     0.168 C 
HETATM    7  O11 UNL     1     -34.273   5.988   4.069  1.00 20.00    -0.378 OA
ENDBRANCH   1   3
BRANCH   1   8
HETATM    8  C9  UNL     1     -32.367   7.295   2.896  1.00 20.00     0.085 C 
BRANCH   8   9
HETATM    9  C8  UNL     1     -31.928   8.413   1.969  1.00 20.00    -0.007 A 
HETATM   10  C4  UNL     1     -32.400   8.442   0.542  1.00 20.00     0.005 A 
HETATM   11  C5  UNL     1     -32.913   9.458   1.524  1.00 20.00     0.005 A 
ENDBRANCH   8   9
ENDBRANCH   1   8
TORSDOF 3
ENDMDL
MODEL 2
REMARK VINA RESULT:      -4.6      9.688     10.507
REMARK  3 active torsions:
REMARK  status: ('A' for Active; 'I' for Inactive)
REMARK    1  A    between atoms: C1_1  and  C7_7 
REMARK    2  A    between atoms: C1_1  and  C9_9 
REMARK    3  A    between atoms: C8_8  and  C9_9 
ROOT
HETATM    1  C1  UNL     1     -41.776  12.958   6.805  1.00 20.00     0.155 C 
HETATM    2  O10 UNL     1     -42.464  11.968   7.044  1.00 20.00    -0.295 OA
ENDROOT
BRANCH   1   3
HETATM    3  C7  UNL     1     -41.795  14.144   7.711  1.00 20.00     0.190 C 
HETATM    4  C3  UNL     1     -40.697  15.143   7.395  1.00 20.00     0.042 C 
HETATM    5  C2  UNL     1     -40.283  15.611   8.767  1.00 20.00     0.029 C 
HETATM    6  C6  UNL     1     -40.434  14.350   9.586  1.00 20.00     0.168 C 
HETATM    7  O11 UNL     1     -41.553  13.645   9.031  1.00 20.00    -0.378 OA
ENDBRANCH   1   3
BRANCH   1   8
HETATM    8  C9  UNL     1     -40.865  13.057   5.595  1.00 20.00     0.085 C 
BRANCH   8   9
HETATM    9  C8  UNL     1     -39.921  11.874   5.476  1.00 20.00    -0.007 A 
HETATM   10  C4  UNL     1     -39.087  11.693   4.238  1.00 20.00     0.005 A 
HETATM   11  C5  UNL     1     -38.433  12.086   5.533  1.00 20.00     0.005 A 
ENDBRANCH   8   9
ENDBRANCH   1   8
TORSDOF 3
ENDMDL
MODEL 3
REMARK VINA RESULT:      -4.3      1.235      4.145
REMARK  3 active torsions:
REMARK  status: ('A' for Active; 'I' for Inactive)
REMARK    1  A    between atoms: C1_1  and  C7_7 
REMARK    2  A    between atoms: C1_1  and  C9_9 
REMARK    3  A    between atoms: C8_8  and  C9_9 
ROOT
HETATM    1  C1  UNL     1     -33.346   8.095   5.325  1.00 20.00     0.155 C 
HETATM    2  O10 UNL     1     -34.112   9.041   5.501  1.00 20.00    -0.295 OA
ENDROOT
BRANCH   1   3
HETATM    3  C7  UNL     1     -32.321   8.127   4.241  1.00 20.00     0.190 C 
HETATM    4  C3  UNL     1     -32.740   8.981   3.059  1.00 20.00     0.042 C 
HETATM    5  C2  UNL     1     -32.207   8.194   1.888  1.00 20.00     0.029 C 
HETATM    6  C6  UNL     1     -32.405   6.770   2.354  1.00 20.00     0.168 C 
HETATM    7  O11 UNL     1     -32.191   6.780   3.772  1.00 20.00    -0.378 OA
ENDBRANCH   1   3
BRANCH   1   8
HETATM    8  C9  UNL     1     -33.378   6.840   6.178  1.00 20.00     0.085 C 
BRANCH   8   9
HETATM    9  C8  UNL     1     -34.640   6.023   5.968  1.00 20.00    -0.007 A 
HETATM   10  C4  UNL     1     -35.304   5.989   4.620  1.00 20.00     0.005 A 
HETATM   11  C5  UNL     1     -34.599   4.767   5.142  1.00 20.00     0.005 A 
ENDBRANCH   8   9
ENDBRANCH   1   8
TORSDOF 3
ENDMDL
MODEL 4
REMARK VINA RESULT:      -4.2      1.473      1.741
REMARK  3 active torsions:
REMARK  status: ('A' for Active; 'I' for Inactive)
REMARK    1  A    between atoms: C1_1  and  C7_7 
REMARK    2  A    between atoms: C1_1  and  C9_9 
REMARK    3  A    between atoms: C8_8  and  C9_9 
ROOT
HETATM    1  C1  UNL     1     -32.979   6.218   3.199  1.00 20.00     0.155 C 
HETATM    2  O10 UNL     1     -32.772   5.065   2.824  1.00 20.00    -0.295 OA
ENDROOT
BRANCH   1   3
HETATM    3  C7  UNL     1     -34.050   6.523   4.192  1.00 20.00     0.190 C 
HETATM    4  C3  UNL     1     -33.544   7.329   5.373  1.00 20.00     0.042 C 
HETATM    5  C2  UNL     1     -34.318   6.735   6.523  1.00 20.00     0.029 C 
HETATM    6  C6  UNL     1     -34.399   5.279   6.126  1.00 20.00     0.168 C 
HETATM    7  O11 UNL     1     -34.501   5.261   4.695  1.00 20.00    -0.378 OA
ENDBRANCH   1   3
BRANCH   1   8
HETATM    8  C9  UNL     1     -32.178   7.405   2.694  1.00 20.00     0.085 C 
BRANCH   8   9
HETATM    9  C8  UNL     1     -32.882   8.151   1.574  1.00 20.00    -0.007 A 
HETATM   10  C4  UNL     1     -32.744   9.643   1.456  1.00 20.00     0.005 A 
HETATM   11  C5  UNL     1     -32.086   8.745   0.446  1.00 20.00     0.005 A 
ENDBRANCH   8   9
ENDBRANCH   1   8
TORSDOF 3
ENDMDL
MODEL 5
REMARK VINA RESULT:      -4.1     11.259     12.843
REMARK  3 active torsions:
REMARK  status: ('A' for Active; 'I' for Inactive)
REMARK    1  A    between atoms: C1_1  and  C7_7 
REMARK    2  A    between atoms: C1_1  and  C9_9 
REMARK    3  A    between atoms: C8_8  and  C9_9 
ROOT
HETATM    1  C1  UNL     1     -33.955  14.849  -4.608  1.00 20.00     0.155 C 
HETATM    2  O10 UNL     1     -34.548  13.892  -4.114  1.00 20.00    -0.295 OA
ENDROOT
BRANCH   1   3
HETATM    3  C7  UNL     1     -34.153  15.221  -6.040  1.00 20.00     0.190 C 
HETATM    4  C3  UNL     1     -34.440  16.698  -6.230  1.00 20.00     0.042 C 
HETATM    5  C2  UNL     1     -35.459  16.688  -7.342  1.00 20.00     0.029 C 
HETATM    6  C6  UNL     1     -36.246  15.436  -7.032  1.00 20.00     0.168 C 
HETATM    7  O11 UNL     1     -35.307  14.499  -6.485  1.00 20.00    -0.378 OA
ENDBRANCH   1   3
BRANCH   1   8
HETATM    8  C9  UNL     1     -32.992  15.718  -3.820  1.00 20.00     0.085 C 
BRANCH   8   9
HETATM    9  C8  UNL     1     -33.634  16.339  -2.593  1.00 20.00    -0.007 A 
HETATM   10  C4  UNL     1     -32.925  17.427  -1.835  1.00 20.00     0.005 A 
HETATM   11  C5  UNL     1     -34.151  17.750  -2.642  1.00 20.00     0.005 A 
ENDBRANCH   8   9
ENDBRANCH   1   8
TORSDOF 3
ENDMDL
MODEL 6
REMARK VINA RESULT:      -4.1     11.579     12.255
REMARK  3 active torsions:
REMARK  status: ('A' for Active; 'I' for Inactive)
REMARK    1  A    between atoms: C1_1  and  C7_7 
REMARK    2  A    between atoms: C1_1  and  C9_9 
REMARK    3  A    between atoms: C8_8  and  C9_9 
ROOT
HETATM    1  C1  UNL     1     -33.878  18.399  -1.350  1.00 20.00     0.155 C 
HETATM    2  O10 UNL     1     -34.966  18.911  -1.603  1.00 20.00    -0.295 OA
ENDROOT
BRANCH   1   3
HETATM    3  C7  UNL     1     -32.820  19.159  -0.622  1.00 20.00     0.190 C 
HETATM    4  C3  UNL     1     -31.483  18.442  -0.610  1.00 20.00     0.042 C 
HETATM    5  C2  UNL     1     -30.964  18.752   0.772  1.00 20.00     0.029 C 
HETATM    6  C6  UNL     1     -32.234  18.746   1.591  1.00 20.00     0.168 C 
HETATM    7  O11 UNL     1     -33.263  19.263   0.736  1.00 20.00    -0.378 OA
ENDBRANCH   1   3
BRANCH   1   8
HETATM    8  C9  UNL     1     -33.524  16.977  -1.747  1.00 20.00     0.085 C 
BRANCH   8   9
HETATM    9  C8  UNL     1     -33.194  16.847  -3.222  1.00 20.00    -0.007 A 
HETATM   10  C4  UNL     1     -33.296  15.512  -3.906  1.00 20.00     0.005 A 
HETATM   11  C5  UNL     1     -34.287  16.597  -4.223  1.00 20.00     0.005 A 
ENDBRANCH   8   9
ENDBRANCH   1   8
TORSDOF 3
ENDMDL
MODEL 7
REMARK VINA RESULT:      -4.0      1.499      4.516
REMARK  3 active torsions:
REMARK  status: ('A' for Active; 'I' for Inactive)
REMARK    1  A    between atoms: C1_1  and  C7_7 
REMARK    2  A    between atoms: C1_1  and  C9_9 
REMARK    3  A    between atoms: C8_8  and  C9_9 
ROOT
HETATM    1  C1  UNL     1     -33.439   5.881   3.386  1.00 20.00     0.155 C 
HETATM    2  O10 UNL     1     -33.111   4.848   2.806  1.00 20.00    -0.295 OA
ENDROOT
BRANCH   1   3
HETATM    3  C7  UNL     1     -32.479   7.012   3.545  1.00 20.00     0.190 C 
HETATM    4  C3  UNL     1     -33.027   8.134   4.407  1.00 20.00     0.042 C 
HETATM    5  C2  UNL     1     -32.497   9.363   3.713  1.00 20.00     0.029 C 
HETATM    6  C6  UNL     1     -32.555   8.950   2.260  1.00 20.00     0.168 C 
HETATM    7  O11 UNL     1     -32.267   7.545   2.233  1.00 20.00    -0.378 OA
ENDBRANCH   1   3
BRANCH   1   8
HETATM    8  C9  UNL     1     -34.821   6.091   3.979  1.00 20.00     0.085 C 
BRANCH   8   9
HETATM    9  C8  UNL     1     -35.035   5.300   5.256  1.00 20.00    -0.007 A 
HETATM   10  C4  UNL     1     -33.860   4.891   6.100  1.00 20.00     0.005 A 
HETATM   11  C5  UNL     1     -34.808   5.948   6.594  1.00 20.00     0.005 A 
ENDBRANCH   8   9
ENDBRANCH   1   8
TORSDOF 3
ENDMDL
MODEL 8
REMARK VINA RESULT:      -4.0      1.433      4.757
REMARK  3 active torsions:
REMARK  status: ('A' for Active; 'I' for Inactive)
REMARK    1  A    between atoms: C1_1  and  C7_7 
REMARK    2  A    between atoms: C1_1  and  C9_9 
REMARK    3  A    between atoms: C8_8  and  C9_9 
ROOT
HETATM    1  C1  UNL     1     -32.671   6.950   3.314  1.00 20.00     0.155 C 
HETATM    2  O10 UNL     1     -32.736   5.852   2.765  1.00 20.00    -0.295 OA
ENDROOT
BRANCH   1   3
HETATM    3  C7  UNL     1     -32.087   8.129   2.610  1.00 20.00     0.190 C 
HETATM    4  C3  UNL     1     -32.984   9.351   2.663  1.00 20.00     0.042 C 
HETATM    5  C2  UNL     1     -32.787   9.955   1.295  1.00 20.00     0.029 C 
HETATM    6  C6  UNL     1     -32.636   8.725   0.430  1.00 20.00     0.168 C 
HETATM    7  O11 UNL     1     -31.957   7.751   1.235  1.00 20.00    -0.378 OA
ENDBRANCH   1   3
BRANCH   1   8
HETATM    8  C9  UNL     1     -33.171   7.196   4.726  1.00 20.00     0.085 C 
BRANCH   8   9
HETATM    9  C8  UNL     1     -34.488   6.497   5.010  1.00 20.00    -0.007 A 
HETATM   10  C4  UNL     1     -34.533   5.003   5.170  1.00 20.00     0.005 A 
HETATM   11  C5  UNL     1     -34.747   5.893   6.363  1.00 20.00     0.005 A 
ENDBRANCH   8   9
ENDBRANCH   1   8
TORSDOF 3
ENDMDL
MODEL 9
REMARK VINA RESULT:      -4.0     10.206     11.103
REMARK  3 active torsions:
REMARK  status: ('A' for Active; 'I' for Inactive)
REMARK    1  A    between atoms: C1_1  and  C7_7 
REMARK    2  A    between atoms: C1_1  and  C9_9 
REMARK    3  A    between atoms: C8_8  and  C9_9 
ROOT
HETATM    1  C1  UNL     1     -41.935  13.015   6.530  1.00 20.00     0.155 C 
HETATM    2  O10 UNL     1     -42.382  12.160   7.291  1.00 20.00    -0.295 OA
ENDROOT
BRANCH   1   3
HETATM    3  C7  UNL     1     -42.846  13.921   5.770  1.00 20.00     0.190 C 
HETATM    4  C3  UNL     1     -42.256  14.374   4.447  1.00 20.00     0.042 C 
HETATM    5  C2  UNL     1     -42.725  15.804   4.359  1.00 20.00     0.029 C 
HETATM    6  C6  UNL     1     -42.672  16.240   5.805  1.00 20.00     0.168 C 
HETATM    7  O11 UNL     1     -43.021  15.087   6.582  1.00 20.00    -0.378 OA
ENDBRANCH   1   3
BRANCH   1   8
HETATM    8  C9  UNL     1     -40.448  13.219   6.301  1.00 20.00     0.085 C 
BRANCH   8   9
HETATM    9  C8  UNL     1     -39.746  11.951   5.851  1.00 20.00    -0.007 A 
HETATM   10  C4  UNL     1     -39.366  11.768   4.408  1.00 20.00     0.005 A 
HETATM   11  C5  UNL     1     -38.300  11.991   5.444  1.00 20.00     0.005 A 
ENDBRANCH   8   9
ENDBRANCH   1   8
TORSDOF 3
ENDMDL
