MODEL 1
REMARK VINA RESULT:      -4.6      0.000      0.000
REMARK  2 active torsions:
REMARK  status: ('A' for Active; 'I' for Inactive)
REMARK    1  A    between atoms: C9_9  and  C10_10 
REMARK    2  A    between atoms: C9_9  and  N11_11 
ROOT
HETATM    1  C1  UNL     1     -34.140   4.259   4.068  1.00 20.00     0.002 C 
HETATM    2  C2  UNL     1     -33.740   8.742   5.793  1.00 20.00     0.028 C 
HETATM    3  C3  UNL     1     -34.490   4.938   5.403  1.00 20.00     0.007 C 
HETATM    4  C4  UNL     1     -34.056   7.334   6.308  1.00 20.00     0.008 C 
HETATM    5  C5  UNL     1     -33.453   5.329   3.201  1.00 20.00     0.034 C 
HETATM    6  C6  UNL     1     -32.597   8.764   4.775  1.00 20.00     0.235 C 
HETATM    7  C7  UNL     1     -34.288   6.419   5.120  1.00 20.00     0.016 C 
HETATM    8  C8  UNL     1     -33.068   6.397   4.211  1.00 20.00     0.192 C 
HETATM    9  N11 UNL     1     -32.851   7.769   3.652  1.00 20.00    -0.065 N 
HETATM   10  H31 UNL     1     -33.716   8.061   3.175  1.00 20.00     0.280 HD
ENDROOT
BRANCH   9  11
HETATM   11  C9  UNL     1     -31.751   7.823   2.627  1.00 20.00     0.250 C 
BRANCH  11  12
HETATM   12  C10 UNL     1     -32.321   8.190   1.269  1.00 20.00     0.142 C 
HETATM   13 CL12 UNL     1     -32.900   9.873   1.236  1.00 20.00    -0.129 Cl
ENDBRANCH  11  12
ENDBRANCH   9  11
TORSDOF 2
ENDMDL
MODEL 2
REMARK VINA RESULT:      -4.6      0.900      2.682
REMARK  2 active torsions:
REMARK  status: ('A' for Active; 'I' for Inactive)
REMARK    1  A    between atoms: C9_9  and  C10_10 
REMARK    2  A    between atoms: C9_9  and  N11_11 
ROOT
HETATM    1  C1  UNL     1     -34.404   7.078   6.736  1.00 20.00     0.002 C 
HETATM    2  C2  UNL     1     -33.037   4.545   2.870  1.00 20.00     0.028 C 
HETATM    3  C3  UNL     1     -34.750   5.687   6.178  1.00 20.00     0.007 C 
HETATM    4  C4  UNL     1     -34.101   4.482   3.971  1.00 20.00     0.008 C 
HETATM    5  C5  UNL     1     -33.462   7.736   5.713  1.00 20.00     0.034 C 
HETATM    6  C6  UNL     1     -32.817   5.961   2.330  1.00 20.00     0.235 C 
HETATM    7  C7  UNL     1     -33.751   5.491   5.048  1.00 20.00     0.016 C 
HETATM    8  C8  UNL     1     -33.664   6.894   4.465  1.00 20.00     0.192 C 
HETATM    9  N11 UNL     1     -32.550   6.939   3.465  1.00 20.00    -0.065 N 
HETATM   10  H31 UNL     1     -31.686   6.633   3.934  1.00 20.00     0.280 HD
ENDROOT
BRANCH   9  11
HETATM   11  C9  UNL     1     -32.288   8.321   2.933  1.00 20.00     0.250 C 
BRANCH  11  12
HETATM   12  C10 UNL     1     -32.108   8.275   1.427  1.00 20.00     0.142 C 
HETATM   13 CL12 UNL     1     -32.818   9.706   0.640  1.00 20.00    -0.129 Cl
ENDBRANCH  11  12
ENDBRANCH   9  11
TORSDOF 2
ENDMDL
MODEL 3
REMARK VINA RESULT:      -4.0     11.975     12.930
REMARK  2 active torsions:
REMARK  status: ('A' for Active; 'I' for Inactive)
REMARK    1  A    between atoms: C9_9  and  C10_10 
REMARK    2  A    between atoms: C9_9  and  N11_11 
ROOT
HETATM    1  C1  UNL     1     -33.790  14.897  -5.315  1.00 20.00     0.002 C 
HETATM    2  C2  UNL     1     -34.056  17.873  -1.532  1.00 20.00     0.028 C 
HETATM    3  C3  UNL     1     -32.862  15.228  -4.133  1.00 20.00     0.007 C 
HETATM    4  C4  UNL     1     -33.014  16.998  -2.238  1.00 20.00     0.008 C 
HETATM    5  C5  UNL     1     -35.003  15.837  -5.193  1.00 20.00     0.034 C 
HETATM    6  C6  UNL     1     -34.963  18.628  -2.507  1.00 20.00     0.235 C 
HETATM    7  C7  UNL     1     -33.725  16.092  -3.226  1.00 20.00     0.016 C 
HETATM    8  C8  UNL     1     -34.513  16.912  -4.238  1.00 20.00     0.192 C 
HETATM    9  N11 UNL     1     -35.582  17.676  -3.521  1.00 20.00    -0.065 N 
HETATM   10  H31 UNL     1     -36.158  17.005  -2.995  1.00 20.00     0.280 HD
ENDROOT
BRANCH   9  11
HETATM   11  C9  UNL     1     -36.510  18.410  -4.450  1.00 20.00     0.250 C 
BRANCH  11  12
HETATM   12  C10 UNL     1     -37.953  18.120  -4.082  1.00 20.00     0.142 C 
HETATM   13 CL12 UNL     1     -38.517  16.593  -4.802  1.00 20.00    -0.129 Cl
ENDBRANCH  11  12
ENDBRANCH   9  11
TORSDOF 2
ENDMDL
MODEL 4
REMARK VINA RESULT:      -3.9     11.949     13.687
REMARK  2 active torsions:
REMARK  status: ('A' for Active; 'I' for Inactive)
REMARK    1  A    between atoms: C9_9  and  C10_10 
REMARK    2  A    between atoms: C9_9  and  N11_11 
ROOT
HETATM    1  C1  UNL     1     -33.121  18.261  -2.161  1.00 20.00     0.002 C 
HETATM    2  C2  UNL     1     -33.936  14.869  -5.488  1.00 20.00     0.028 C 
HETATM    3  C3  UNL     1     -33.320  16.736  -2.123  1.00 20.00     0.007 C 
HETATM    4  C4  UNL     1     -33.948  15.012  -3.962  1.00 20.00     0.008 C 
HETATM    5  C5  UNL     1     -33.319  18.690  -3.626  1.00 20.00     0.034 C 
HETATM    6  C6  UNL     1     -34.547  16.074  -6.206  1.00 20.00     0.235 C 
HETATM    7  C7  UNL     1     -33.297  16.331  -3.589  1.00 20.00     0.016 C 
HETATM    8  C8  UNL     1     -34.026  17.496  -4.244  1.00 20.00     0.192 C 
HETATM    9  N11 UNL     1     -33.908  17.371  -5.731  1.00 20.00    -0.065 N 
HETATM   10  H31 UNL     1     -32.908  17.323  -5.970  1.00 20.00     0.280 HD
ENDROOT
BRANCH   9  11
HETATM   11  C9  UNL     1     -34.475  18.552  -6.470  1.00 20.00     0.250 C 
BRANCH  11  12
HETATM   12  C10 UNL     1     -35.883  18.244  -6.945  1.00 20.00     0.142 C 
HETATM   13 CL12 UNL     1     -37.099  18.701  -5.728  1.00 20.00    -0.129 Cl
ENDBRANCH  11  12
ENDBRANCH   9  11
TORSDOF 2
ENDMDL
MODEL 5
REMARK VINA RESULT:      -3.9     11.569     13.291
REMARK  2 active torsions:
REMARK  status: ('A' for Active; 'I' for Inactive)
REMARK    1  A    between atoms: C9_9  and  C10_10 
REMARK    2  A    between atoms: C9_9  and  N11_11 
ROOT
HETATM    1  C1  UNL     1     -36.876  17.855  -6.033  1.00 20.00     0.002 C 
HETATM    2  C2  UNL     1     -33.574  14.770  -4.354  1.00 20.00     0.028 C 
HETATM    3  C3  UNL     1     -36.131  16.644  -6.620  1.00 20.00     0.007 C 
HETATM    4  C4  UNL     1     -34.217  15.154  -5.691  1.00 20.00     0.008 C 
HETATM    5  C5  UNL     1     -36.305  18.074  -4.620  1.00 20.00     0.034 C 
HETATM    6  C6  UNL     1     -33.253  15.981  -3.475  1.00 20.00     0.235 C 
HETATM    7  C7  UNL     1     -35.419  16.039  -5.420  1.00 20.00     0.016 C 
HETATM    8  C8  UNL     1     -35.009  17.283  -4.644  1.00 20.00     0.192 C 
HETATM    9  N11 UNL     1     -34.477  16.870  -3.307  1.00 20.00    -0.065 N 
HETATM   10  H31 UNL     1     -35.199  16.309  -2.834  1.00 20.00     0.280 HD
ENDROOT
BRANCH   9  11
HETATM   11  C9  UNL     1     -34.175  18.036  -2.405  1.00 20.00     0.250 C 
BRANCH  11  12
HETATM   12  C10 UNL     1     -33.600  17.543  -1.090  1.00 20.00     0.142 C 
HETATM   13 CL12 UNL     1     -31.979  18.217  -0.792  1.00 20.00    -0.129 Cl
ENDBRANCH  11  12
ENDBRANCH   9  11
TORSDOF 2
ENDMDL
MODEL 6
REMARK VINA RESULT:      -3.9     11.513     13.442
REMARK  2 active torsions:
REMARK  status: ('A' for Active; 'I' for Inactive)
REMARK    1  A    between atoms: C9_9  and  C10_10 
REMARK    2  A    between atoms: C9_9  and  N11_11 
ROOT
HETATM    1  C1  UNL     1     -34.070  14.408  -4.211  1.00 20.00     0.002 C 
HETATM    2  C2  UNL     1     -34.674  18.614  -6.485  1.00 20.00     0.028 C 
HETATM    3  C3  UNL     1     -34.947  14.887  -5.380  1.00 20.00     0.007 C 
HETATM    4  C4  UNL     1     -35.343  17.237  -6.414  1.00 20.00     0.008 C 
HETATM    5  C5  UNL     1     -33.320  15.647  -3.691  1.00 20.00     0.034 C 
HETATM    6  C6  UNL     1     -34.226  19.133  -5.116  1.00 20.00     0.235 C 
HETATM    7  C7  UNL     1     -34.420  16.283  -5.679  1.00 20.00     0.016 C 
HETATM    8  C8  UNL     1     -34.110  16.802  -4.282  1.00 20.00     0.192 C 
HETATM    9  N11 UNL     1     -33.372  18.100  -4.397  1.00 20.00    -0.065 N 
HETATM   10  H31 UNL     1     -32.534  17.942  -4.974  1.00 20.00     0.280 HD
ENDROOT
BRANCH   9  11
HETATM   11  C9  UNL     1     -32.892  18.627  -3.072  1.00 20.00     0.250 C 
BRANCH  11  12
HETATM   12  C10 UNL     1     -34.053  18.729  -2.100  1.00 20.00     0.142 C 
HETATM   13 CL12 UNL     1     -33.819  17.670  -0.688  1.00 20.00    -0.129 Cl
ENDBRANCH  11  12
ENDBRANCH   9  11
TORSDOF 2
ENDMDL
MODEL 7
REMARK VINA RESULT:      -3.9      0.964      1.171
REMARK  2 active torsions:
REMARK  status: ('A' for Active; 'I' for Inactive)
REMARK    1  A    between atoms: C9_9  and  C10_10 
REMARK    2  A    between atoms: C9_9  and  N11_11 
ROOT
HETATM    1  C1  UNL     1     -33.404   4.418   2.802  1.00 20.00     0.002 C 
HETATM    2  C2  UNL     1     -34.321   7.649   6.259  1.00 20.00     0.028 C 
HETATM    3  C3  UNL     1     -33.911   4.334   4.252  1.00 20.00     0.007 C 
HETATM    4  C4  UNL     1     -34.191   6.130   6.108  1.00 20.00     0.008 C 
HETATM    5  C5  UNL     1     -33.088   5.900   2.535  1.00 20.00     0.034 C 
HETATM    6  C6  UNL     1     -33.259   8.422   5.471  1.00 20.00     0.235 C 
HETATM    7  C7  UNL     1     -34.166   5.786   4.631  1.00 20.00     0.016 C 
HETATM    8  C8  UNL     1     -33.015   6.495   3.931  1.00 20.00     0.192 C 
HETATM    9  N11 UNL     1     -33.230   7.974   4.017  1.00 20.00    -0.065 N 
HETATM   10  H31 UNL     1     -34.153   8.188   3.614  1.00 20.00     0.280 HD
ENDROOT
BRANCH   9  11
HETATM   11  C9  UNL     1     -32.220   8.765   3.231  1.00 20.00     0.250 C 
BRANCH  11  12
HETATM   12  C10 UNL     1     -32.904   9.503   2.096  1.00 20.00     0.142 C 
HETATM   13 CL12 UNL     1     -32.425   8.851   0.510  1.00 20.00    -0.129 Cl
ENDBRANCH  11  12
ENDBRANCH   9  11
TORSDOF 2
ENDMDL
MODEL 8
REMARK VINA RESULT:      -3.9     12.064     13.212
REMARK  2 active torsions:
REMARK  status: ('A' for Active; 'I' for Inactive)
REMARK    1  A    between atoms: C9_9  and  C10_10 
REMARK    2  A    between atoms: C9_9  and  N11_11 
ROOT
HETATM    1  C1  UNL     1     -35.377  15.159  -6.550  1.00 20.00     0.002 C 
HETATM    2  C2  UNL     1     -33.438  16.714  -2.420  1.00 20.00     0.028 C 
HETATM    3  C3  UNL     1     -34.069  14.869  -5.794  1.00 20.00     0.007 C 
HETATM    4  C4  UNL     1     -33.023  15.909  -3.656  1.00 20.00     0.008 C 
HETATM    5  C5  UNL     1     -36.109  16.252  -5.752  1.00 20.00     0.034 C 
HETATM    6  C6  UNL     1     -34.305  17.929  -2.761  1.00 20.00     0.235 C 
HETATM    7  C7  UNL     1     -34.266  15.559  -4.452  1.00 20.00     0.016 C 
HETATM    8  C8  UNL     1     -35.017  16.818  -4.859  1.00 20.00     0.192 C 
HETATM    9  N11 UNL     1     -35.490  17.525  -3.627  1.00 20.00    -0.065 N 
HETATM   10  H31 UNL     1     -36.058  16.864  -3.077  1.00 20.00     0.280 HD
ENDROOT
BRANCH   9  11
HETATM   11  C9  UNL     1     -36.368  18.709  -3.923  1.00 20.00     0.250 C 
BRANCH  11  12
HETATM   12  C10 UNL     1     -37.606  18.674  -3.046  1.00 20.00     0.142 C 
HETATM   13 CL12 UNL     1     -38.827  17.545  -3.683  1.00 20.00    -0.129 Cl
ENDBRANCH  11  12
ENDBRANCH   9  11
TORSDOF 2
ENDMDL
MODEL 9
REMARK VINA RESULT:      -3.8     12.007     13.365
REMARK  2 active torsions:
REMARK  status: ('A' for Active; 'I' for Inactive)
REMARK    1  A    between atoms: C9_9  and  C10_10 
REMARK    2  A    between atoms: C9_9  and  N11_11 
ROOT
HETATM    1  C1  UNL     1     -32.904  17.777  -1.567  1.00 20.00     0.002 C 
HETATM    2  C2  UNL     1     -36.618  18.373  -4.581  1.00 20.00     0.028 C 
HETATM    3  C3  UNL     1     -33.838  18.950  -1.912  1.00 20.00     0.007 C 
HETATM    4  C4  UNL     1     -35.700  19.229  -3.702  1.00 20.00     0.008 C 
HETATM    5  C5  UNL     1     -33.293  16.620  -2.504  1.00 20.00     0.034 C 
HETATM    6  C6  UNL     1     -35.871  17.262  -5.323  1.00 20.00     0.235 C 
HETATM    7  C7  UNL     1     -34.911  18.314  -2.784  1.00 20.00     0.016 C 
HETATM    8  C8  UNL     1     -34.099  17.310  -3.590  1.00 20.00     0.192 C 
HETATM    9  N11 UNL     1     -35.036  16.431  -4.359  1.00 20.00    -0.065 N 
HETATM   10  H31 UNL     1     -35.687  15.995  -3.691  1.00 20.00     0.280 HD
ENDROOT
BRANCH   9  11
HETATM   11  C9  UNL     1     -34.339  15.311  -5.080  1.00 20.00     0.250 C 
BRANCH  11  12
HETATM   12  C10 UNL     1     -34.933  15.131  -6.464  1.00 20.00     0.142 C 
HETATM   13 CL12 UNL     1     -33.747  15.503  -7.739  1.00 20.00    -0.129 Cl
ENDBRANCH  11  12
ENDBRANCH   9  11
TORSDOF 2
ENDMDL
