MODEL 1
REMARK VINA RESULT:      -5.2      0.000      0.000
REMARK  3 active torsions:
REMARK  status: ('A' for Active; 'I' for Inactive)
REMARK    1  A    between atoms: C5_5  and  C9_9 
REMARK    2  A    between atoms: C6_6  and  C10_10 
REMARK    3  A    between atoms: C10_10  and  O11_11 
ROOT
HETATM    1  C1  UNL     1     -33.161   8.716   5.453  1.00 20.00     0.001 C 
HETATM    2  C2  UNL     1     -32.223   8.618   4.254  1.00 20.00     0.005 C 
HETATM    3  C3  UNL     1     -33.677   7.345   5.879  1.00 20.00     0.007 C 
HETATM    4  C4  UNL     1     -33.400   6.508   3.510  1.00 20.00     0.011 C 
HETATM    5  C5  UNL     1     -32.884   7.888   3.077  1.00 20.00    -0.014 C 
HETATM    6  C6  UNL     1     -34.348   6.607   4.713  1.00 20.00     0.014 C 
ENDROOT
BRANCH   6   7
HETATM    7  C10 UNL     1     -34.813   5.219   5.150  1.00 20.00     0.118 C 
HETATM    8  C8  UNL     1     -34.530   4.970   6.621  1.00 20.00     0.040 C 
BRANCH   7   9
HETATM    9  O11 UNL     1     -34.141   4.239   4.366  1.00 20.00    -0.396 OA
HETATM   10  H31 UNL     1     -34.445   4.357   3.452  1.00 20.00     0.210 HD
ENDBRANCH   7   9
ENDBRANCH   6   7
BRANCH   5  11
HETATM   11  C9  UNL     1     -31.910   7.758   1.909  1.00 20.00     0.000 C 
HETATM   12  C7  UNL     1     -32.303   8.631   0.763  1.00 20.00     0.005 C 
ENDBRANCH   5  11
TORSDOF 3
ENDMDL
MODEL 2
REMARK VINA RESULT:      -4.4      2.168      4.600
REMARK  3 active torsions:
REMARK  status: ('A' for Active; 'I' for Inactive)
REMARK    1  A    between atoms: C5_5  and  C9_9 
REMARK    2  A    between atoms: C6_6  and  C10_10 
REMARK    3  A    between atoms: C10_10  and  O11_11 
ROOT
HETATM    1  C1  UNL     1     -33.009   4.999   2.457  1.00 20.00     0.001 C 
HETATM    2  C2  UNL     1     -33.669   4.555   3.760  1.00 20.00     0.005 C 
HETATM    3  C3  UNL     1     -32.219   6.292   2.637  1.00 20.00     0.007 C 
HETATM    4  C4  UNL     1     -33.750   6.961   4.534  1.00 20.00     0.011 C 
HETATM    5  C5  UNL     1     -34.550   5.662   4.352  1.00 20.00    -0.014 C 
HETATM    6  C6  UNL     1     -33.091   7.411   3.222  1.00 20.00     0.014 C 
ENDROOT
BRANCH   6   7
HETATM    7  C10 UNL     1     -32.268   8.679   3.439  1.00 20.00     0.118 C 
HETATM    8  C8  UNL     1     -32.312   9.133   4.887  1.00 20.00     0.040 C 
BRANCH   7   9
HETATM    9  O11 UNL     1     -32.780   9.711   2.604  1.00 20.00    -0.396 OA
HETATM   10  H31 UNL     1     -33.108   9.280   1.798  1.00 20.00     0.210 HD
ENDBRANCH   7   9
ENDBRANCH   6   7
BRANCH   5  11
HETATM   11  C9  UNL     1     -35.158   5.213   5.680  1.00 20.00     0.000 C 
HETATM   12  C7  UNL     1     -34.466   5.844   6.844  1.00 20.00     0.005 C 
ENDBRANCH   5  11
TORSDOF 3
ENDMDL
MODEL 3
REMARK VINA RESULT:      -4.4     11.884     12.852
REMARK  3 active torsions:
REMARK  status: ('A' for Active; 'I' for Inactive)
REMARK    1  A    between atoms: C5_5  and  C9_9 
REMARK    2  A    between atoms: C6_6  and  C10_10 
REMARK    3  A    between atoms: C10_10  and  O11_11 
ROOT
HETATM    1  C1  UNL     1     -35.262  18.382  -4.343  1.00 20.00     0.001 C 
HETATM    2  C2  UNL     1     -34.827  18.354  -2.880  1.00 20.00     0.005 C 
HETATM    3  C3  UNL     1     -35.357  16.976  -4.929  1.00 20.00     0.007 C 
HETATM    4  C4  UNL     1     -33.612  16.175  -3.286  1.00 20.00     0.011 C 
HETATM    5  C5  UNL     1     -33.510  17.590  -2.697  1.00 20.00    -0.014 C 
HETATM    6  C6  UNL     1     -34.043  16.203  -4.759  1.00 20.00     0.014 C 
ENDROOT
BRANCH   6   7
HETATM    7  C10 UNL     1     -34.178  14.784  -5.308  1.00 20.00     0.118 C 
HETATM    8  C8  UNL     1     -35.597  14.262  -5.171  1.00 20.00     0.040 C 
BRANCH   7   9
HETATM    9  O11 UNL     1     -33.289  13.928  -4.601  1.00 20.00    -0.396 OA
HETATM   10  H31 UNL     1     -33.690  13.764  -3.733  1.00 20.00     0.210 HD
ENDBRANCH   7   9
ENDBRANCH   6   7
BRANCH   5  11
HETATM   11  C9  UNL     1     -33.122  17.532  -1.220  1.00 20.00     0.000 C 
HETATM   12  C7  UNL     1     -31.977  18.441  -0.916  1.00 20.00     0.005 C 
ENDBRANCH   5  11
TORSDOF 3
ENDMDL
MODEL 4
REMARK VINA RESULT:      -4.3     11.709     12.659
REMARK  3 active torsions:
REMARK  status: ('A' for Active; 'I' for Inactive)
REMARK    1  A    between atoms: C5_5  and  C9_9 
REMARK    2  A    between atoms: C6_6  and  C10_10 
REMARK    3  A    between atoms: C10_10  and  O11_11 
ROOT
HETATM    1  C1  UNL     1     -35.339  18.648  -2.795  1.00 20.00     0.001 C 
HETATM    2  C2  UNL     1     -34.548  17.702  -3.694  1.00 20.00     0.005 C 
HETATM    3  C3  UNL     1     -34.462  19.253  -1.703  1.00 20.00     0.007 C 
HETATM    4  C4  UNL     1     -32.961  17.222  -1.786  1.00 20.00     0.011 C 
HETATM    5  C5  UNL     1     -33.844  16.608  -2.882  1.00 20.00    -0.014 C 
HETATM    6  C6  UNL     1     -33.759  18.168  -0.878  1.00 20.00     0.014 C 
ENDROOT
BRANCH   6   7
HETATM    7  C10 UNL     1     -32.849  18.797   0.176  1.00 20.00     0.118 C 
HETATM    8  C8  UNL     1     -31.382  18.604  -0.162  1.00 20.00     0.040 C 
BRANCH   7   9
HETATM    9  O11 UNL     1     -33.126  18.204   1.439  1.00 20.00    -0.396 OA
HETATM   10  H31 UNL     1     -32.271  17.943   1.818  1.00 20.00     0.210 HD
ENDBRANCH   7   9
ENDBRANCH   6   7
BRANCH   5  11
HETATM   11  C9  UNL     1     -33.019  15.705  -3.797  1.00 20.00     0.000 C 
HETATM   12  C7  UNL     1     -33.822  14.555  -4.309  1.00 20.00     0.005 C 
ENDBRANCH   5  11
TORSDOF 3
ENDMDL
MODEL 5
REMARK VINA RESULT:      -4.1      9.971     11.057
REMARK  3 active torsions:
REMARK  status: ('A' for Active; 'I' for Inactive)
REMARK    1  A    between atoms: C5_5  and  C9_9 
REMARK    2  A    between atoms: C6_6  and  C10_10 
REMARK    3  A    between atoms: C10_10  and  O11_11 
ROOT
HETATM    1  C1  UNL     1     -42.328  14.209   5.259  1.00 20.00     0.001 C 
HETATM    2  C2  UNL     1     -41.157  13.296   4.907  1.00 20.00     0.005 C 
HETATM    3  C3  UNL     1     -41.937  15.252   6.302  1.00 20.00     0.007 C 
HETATM    4  C4  UNL     1     -40.169  13.685   7.201  1.00 20.00     0.011 C 
HETATM    5  C5  UNL     1     -40.563  12.632   6.155  1.00 20.00    -0.014 C 
HETATM    6  C6  UNL     1     -41.349  14.600   7.560  1.00 20.00     0.014 C 
ENDROOT
BRANCH   6   7
HETATM    7  C10 UNL     1     -40.920  15.664   8.568  1.00 20.00     0.118 C 
HETATM    8  C8  UNL     1     -40.738  17.019   7.909  1.00 20.00     0.040 C 
BRANCH   7   9
HETATM    9  O11 UNL     1     -39.695  15.262   9.171  1.00 20.00    -0.396 OA
HETATM   10  H31 UNL     1     -39.167  16.067   9.292  1.00 20.00     0.210 HD
ENDBRANCH   7   9
ENDBRANCH   6   7
BRANCH   5  11
HETATM   11  C9  UNL     1     -39.362  11.764   5.784  1.00 20.00     0.000 C 
HETATM   12  C7  UNL     1     -39.161  11.705   4.305  1.00 20.00     0.005 C 
ENDBRANCH   5  11
TORSDOF 3
ENDMDL
MODEL 6
REMARK VINA RESULT:      -4.0      2.192      3.808
REMARK  3 active torsions:
REMARK  status: ('A' for Active; 'I' for Inactive)
REMARK    1  A    between atoms: C5_5  and  C9_9 
REMARK    2  A    between atoms: C6_6  and  C10_10 
REMARK    3  A    between atoms: C10_10  and  O11_11 
ROOT
HETATM    1  C1  UNL     1     -34.631   5.928   6.501  1.00 20.00     0.001 C 
HETATM    2  C2  UNL     1     -34.765   5.069   5.247  1.00 20.00     0.005 C 
HETATM    3  C3  UNL     1     -34.311   7.380   6.158  1.00 20.00     0.007 C 
HETATM    4  C4  UNL     1     -33.201   6.627   4.016  1.00 20.00     0.011 C 
HETATM    5  C5  UNL     1     -33.516   5.164   4.361  1.00 20.00    -0.014 C 
HETATM    6  C6  UNL     1     -33.059   7.490   5.278  1.00 20.00     0.014 C 
ENDROOT
BRANCH   6   7
HETATM    7  C10 UNL     1     -32.787   8.947   4.907  1.00 20.00     0.118 C 
HETATM    8  C8  UNL     1     -32.607   9.119   3.409  1.00 20.00     0.040 C 
BRANCH   7   9
HETATM    9  O11 UNL     1     -31.612   9.384   5.578  1.00 20.00    -0.396 OA
HETATM   10  H31 UNL     1     -31.004   9.708   4.895  1.00 20.00     0.210 HD
ENDBRANCH   7   9
ENDBRANCH   6   7
BRANCH   5  11
HETATM   11  C9  UNL     1     -33.695   4.336   3.090  1.00 20.00     0.000 C 
HETATM   12  C7  UNL     1     -32.946   4.925   1.939  1.00 20.00     0.005 C 
ENDBRANCH   5  11
TORSDOF 3
ENDMDL
MODEL 7
REMARK VINA RESULT:      -4.0      1.264      2.118
REMARK  3 active torsions:
REMARK  status: ('A' for Active; 'I' for Inactive)
REMARK    1  A    between atoms: C5_5  and  C9_9 
REMARK    2  A    between atoms: C6_6  and  C10_10 
REMARK    3  A    between atoms: C10_10  and  O11_11 
ROOT
HETATM    1  C1  UNL     1     -32.423   5.757   2.543  1.00 20.00     0.001 C 
HETATM    2  C2  UNL     1     -32.444   7.208   2.071  1.00 20.00     0.005 C 
HETATM    3  C3  UNL     1     -33.603   5.444   3.459  1.00 20.00     0.007 C 
HETATM    4  C4  UNL     1     -33.689   7.868   4.170  1.00 20.00     0.011 C 
HETATM    5  C5  UNL     1     -32.498   8.185   3.253  1.00 20.00    -0.014 C 
HETATM    6  C6  UNL     1     -33.665   6.409   4.649  1.00 20.00     0.014 C 
ENDROOT
BRANCH   6   7
HETATM    7  C10 UNL     1     -34.880   6.109   5.525  1.00 20.00     0.118 C 
HETATM    8  C8  UNL     1     -34.523   5.195   6.684  1.00 20.00     0.040 C 
BRANCH   7   9
HETATM    9  O11 UNL     1     -35.883   5.492   4.727  1.00 20.00    -0.396 OA
HETATM   10  H31 UNL     1     -36.711   5.967   4.904  1.00 20.00     0.210 HD
ENDBRANCH   7   9
ENDBRANCH   6   7
BRANCH   5  11
HETATM   11  C9  UNL     1     -32.570   9.627   2.756  1.00 20.00     0.000 C 
HETATM   12  C7  UNL     1     -32.886   9.693   1.298  1.00 20.00     0.005 C 
ENDBRANCH   5  11
TORSDOF 3
ENDMDL
MODEL 8
REMARK VINA RESULT:      -3.9      9.827     11.181
REMARK  3 active torsions:
REMARK  status: ('A' for Active; 'I' for Inactive)
REMARK    1  A    between atoms: C5_5  and  C9_9 
REMARK    2  A    between atoms: C6_6  and  C10_10 
REMARK    3  A    between atoms: C10_10  and  O11_11 
ROOT
HETATM    1  C1  UNL     1     -43.077  13.050   6.886  1.00 20.00     0.001 C 
HETATM    2  C2  UNL     1     -42.893  13.862   8.165  1.00 20.00     0.005 C 
HETATM    3  C3  UNL     1     -41.781  12.369   6.458  1.00 20.00     0.007 C 
HETATM    4  C4  UNL     1     -40.451  14.190   7.599  1.00 20.00     0.011 C 
HETATM    5  C5  UNL     1     -41.754  14.881   8.028  1.00 20.00    -0.014 C 
HETATM    6  C6  UNL     1     -40.635  13.378   6.309  1.00 20.00     0.014 C 
ENDROOT
BRANCH   6   7
HETATM    7  C10 UNL     1     -39.337  12.669   5.928  1.00 20.00     0.118 C 
HETATM    8  C8  UNL     1     -39.563  11.632   4.842  1.00 20.00     0.040 C 
BRANCH   7   9
HETATM    9  O11 UNL     1     -38.801  12.034   7.083  1.00 20.00    -0.396 OA
HETATM   10  H31 UNL     1     -38.730  11.089   6.875  1.00 20.00     0.210 HD
ENDBRANCH   7   9
ENDBRANCH   6   7
BRANCH   5  11
HETATM   11  C9  UNL     1     -41.555  15.644   9.335  1.00 20.00     0.000 C 
HETATM   12  C7  UNL     1     -40.264  15.284   9.993  1.00 20.00     0.005 C 
ENDBRANCH   5  11
TORSDOF 3
ENDMDL
MODEL 9
REMARK VINA RESULT:      -3.8      1.268      4.016
REMARK  3 active torsions:
REMARK  status: ('A' for Active; 'I' for Inactive)
REMARK    1  A    between atoms: C5_5  and  C9_9 
REMARK    2  A    between atoms: C6_6  and  C10_10 
REMARK    3  A    between atoms: C10_10  and  O11_11 
ROOT
HETATM    1  C1  UNL     1     -32.593   9.343   5.316  1.00 20.00     0.001 C 
HETATM    2  C2  UNL     1     -33.706   8.520   5.958  1.00 20.00     0.005 C 
HETATM    3  C3  UNL     1     -32.402   8.981   3.846  1.00 20.00     0.007 C 
HETATM    4  C4  UNL     1     -33.278   6.656   4.305  1.00 20.00     0.011 C 
HETATM    5  C5  UNL     1     -33.467   7.015   5.787  1.00 20.00    -0.014 C 
HETATM    6  C6  UNL     1     -32.154   7.479   3.660  1.00 20.00     0.014 C 
ENDROOT
BRANCH   6   7
HETATM    7  C10 UNL     1     -32.015   7.134   2.179  1.00 20.00     0.118 C 
HETATM    8  C8  UNL     1     -32.436   8.292   1.292  1.00 20.00     0.040 C 
BRANCH   7   9
HETATM    9  O11 UNL     1     -32.822   5.999   1.891  1.00 20.00    -0.396 OA
HETATM   10  H31 UNL     1     -32.217   5.282   1.640  1.00 20.00     0.210 HD
ENDBRANCH   7   9
ENDBRANCH   6   7
BRANCH   5  11
HETATM   11  C9  UNL     1     -34.619   6.215   6.392  1.00 20.00     0.000 C 
HETATM   12  C7  UNL     1     -35.046   5.099   5.496  1.00 20.00     0.005 C 
ENDBRANCH   5  11
TORSDOF 3
ENDMDL
