MODEL 1
REMARK VINA RESULT:      -4.2      0.000      0.000
REMARK  5 active torsions:
REMARK  status: ('A' for Active; 'I' for Inactive)
REMARK    1  A    between atoms: C6_6  and  C8_8 
REMARK    2  A    between atoms: C7_7  and  C11_11 
REMARK    3  A    between atoms: C8_8  and  C10_10 
REMARK    4  A    between atoms: C9_9  and  C10_10 
REMARK    5  A    between atoms: C9_9  and  C11_11 
ROOT
HETATM    1  C1  UNL     1     -33.660   5.280   3.545  1.00 20.00     0.069 C 
HETATM    2  C5  UNL     1     -35.949   6.027   4.048  1.00 20.00     0.031 C 
HETATM    3  C11 UNL     1     -34.460   6.165   4.425  1.00 20.00     0.045 C 
HETATM    4  N12 UNL     1     -33.034   4.579   2.863  1.00 20.00    -0.196 NA
ENDROOT
BRANCH   3   5
HETATM    5  C7  UNL     1     -34.305   5.665   5.894  1.00 20.00     0.020 C 
HETATM    6  C3  UNL     1     -34.332   6.751   6.968  1.00 20.00     0.007 C 
ENDBRANCH   3   5
BRANCH   3   7
HETATM    7  C9  UNL     1     -33.978   7.641   4.310  1.00 20.00     0.028 C 
BRANCH   7   8
HETATM    8  C10 UNL     1     -32.474   7.926   4.040  1.00 20.00    -0.017 C 
HETATM    9  C4  UNL     1     -32.062   9.156   4.865  1.00 20.00     0.010 C 
BRANCH   8  10
HETATM   10  C8  UNL     1     -32.159   8.121   2.543  1.00 20.00     0.004 C 
BRANCH  10  11
HETATM   11  C6  UNL     1     -32.877   9.312   1.901  1.00 20.00    -0.004 C 
HETATM   12  C2  UNL     1     -32.659   9.342   0.395  1.00 20.00     0.005 C 
ENDBRANCH  10  11
ENDBRANCH   8  10
ENDBRANCH   7   8
ENDBRANCH   3   7
TORSDOF 5
ENDMDL
MODEL 2
REMARK VINA RESULT:      -4.0     10.088     11.259
REMARK  5 active torsions:
REMARK  status: ('A' for Active; 'I' for Inactive)
REMARK    1  A    between atoms: C6_6  and  C8_8 
REMARK    2  A    between atoms: C7_7  and  C11_11 
REMARK    3  A    between atoms: C8_8  and  C10_10 
REMARK    4  A    between atoms: C9_9  and  C10_10 
REMARK    5  A    between atoms: C9_9  and  C11_11 
ROOT
HETATM    1  C1  UNL     1     -41.466  13.710   4.859  1.00 20.00     0.069 C 
HETATM    2  C5  UNL     1     -42.335  12.666   6.909  1.00 20.00     0.031 C 
HETATM    3  C11 UNL     1     -41.067  13.120   6.159  1.00 20.00     0.045 C 
HETATM    4  N12 UNL     1     -41.777  14.164   3.836  1.00 20.00    -0.196 NA
ENDROOT
BRANCH   3   5
HETATM    5  C7  UNL     1     -40.214  11.844   5.877  1.00 20.00     0.020 C 
HETATM    6  C3  UNL     1     -38.853  12.089   5.231  1.00 20.00     0.007 C 
ENDBRANCH   3   5
BRANCH   3   7
HETATM    7  C9  UNL     1     -40.241  14.137   6.999  1.00 20.00     0.028 C 
BRANCH   7   8
HETATM    8  C10 UNL     1     -40.961  14.980   8.089  1.00 20.00    -0.017 C 
HETATM    9  C4  UNL     1     -41.241  16.376   7.511  1.00 20.00     0.010 C 
BRANCH   8  10
HETATM   10  C8  UNL     1     -40.166  15.064   9.407  1.00 20.00     0.004 C 
BRANCH  10  11
HETATM   11  C6  UNL     1     -40.756  14.229  10.548  1.00 20.00    -0.004 C 
HETATM   12  C2  UNL     1     -42.260  14.059  10.390  1.00 20.00     0.005 C 
ENDBRANCH  10  11
ENDBRANCH   8  10
ENDBRANCH   7   8
ENDBRANCH   3   7
TORSDOF 5
ENDMDL
MODEL 3
REMARK VINA RESULT:      -4.0     11.209     12.635
REMARK  5 active torsions:
REMARK  status: ('A' for Active; 'I' for Inactive)
REMARK    1  A    between atoms: C6_6  and  C8_8 
REMARK    2  A    between atoms: C7_7  and  C11_11 
REMARK    3  A    between atoms: C8_8  and  C10_10 
REMARK    4  A    between atoms: C9_9  and  C10_10 
REMARK    5  A    between atoms: C9_9  and  C11_11 
ROOT
HETATM    1  C1  UNL     1     -35.305  14.188  -4.759  1.00 20.00     0.069 C 
HETATM    2  C5  UNL     1     -34.133  15.265  -6.634  1.00 20.00     0.031 C 
HETATM    3  C11 UNL     1     -34.699  15.463  -5.214  1.00 20.00     0.045 C 
HETATM    4  N12 UNL     1     -35.788  13.193  -4.405  1.00 20.00    -0.196 NA
ENDROOT
BRANCH   3   5
HETATM    5  C7  UNL     1     -35.829  16.535  -5.310  1.00 20.00     0.020 C 
HETATM    6  C3  UNL     1     -35.710  17.518  -6.472  1.00 20.00     0.007 C 
ENDBRANCH   3   5
BRANCH   3   7
HETATM    7  C9  UNL     1     -33.598  15.937  -4.222  1.00 20.00     0.028 C 
BRANCH   7   8
HETATM    8  C10 UNL     1     -33.898  17.132  -3.273  1.00 20.00    -0.017 C 
HETATM    9  C4  UNL     1     -33.116  18.355  -3.777  1.00 20.00     0.010 C 
BRANCH   8  10
HETATM   10  C8  UNL     1     -33.574  16.824  -1.798  1.00 20.00     0.004 C 
BRANCH  10  11
HETATM   11  C6  UNL     1     -32.903  17.980  -1.049  1.00 20.00    -0.004 C 
HETATM   12  C2  UNL     1     -33.609  18.269   0.269  1.00 20.00     0.005 C 
ENDBRANCH  10  11
ENDBRANCH   8  10
ENDBRANCH   7   8
ENDBRANCH   3   7
TORSDOF 5
ENDMDL
MODEL 4
REMARK VINA RESULT:      -3.9     10.412     11.289
REMARK  5 active torsions:
REMARK  status: ('A' for Active; 'I' for Inactive)
REMARK    1  A    between atoms: C6_6  and  C8_8 
REMARK    2  A    between atoms: C7_7  and  C11_11 
REMARK    3  A    between atoms: C8_8  and  C10_10 
REMARK    4  A    between atoms: C9_9  and  C10_10 
REMARK    5  A    between atoms: C9_9  and  C11_11 
ROOT
HETATM    1  C1  UNL     1     -41.625  14.057   9.681  1.00 20.00     0.069 C 
HETATM    2  C5  UNL     1     -42.904  15.771   8.467  1.00 20.00     0.031 C 
HETATM    3  C11 UNL     1     -41.776  14.726   8.366  1.00 20.00     0.045 C 
HETATM    4  N12 UNL     1     -41.499  13.539  10.713  1.00 20.00    -0.196 NA
ENDROOT
BRANCH   3   5
HETATM    5  C7  UNL     1     -40.456  15.498   8.056  1.00 20.00     0.020 C 
HETATM    6  C3  UNL     1     -40.628  16.944   7.599  1.00 20.00     0.007 C 
ENDBRANCH   3   5
BRANCH   3   7
HETATM    7  C9  UNL     1     -42.061  13.685   7.245  1.00 20.00     0.028 C 
BRANCH   7   8
HETATM    8  C10 UNL     1     -41.055  13.547   6.068  1.00 20.00    -0.017 C 
HETATM    9  C4  UNL     1     -41.772  13.955   4.771  1.00 20.00     0.010 C 
BRANCH   8  10
HETATM   10  C8  UNL     1     -40.452  12.132   5.957  1.00 20.00     0.004 C 
BRANCH  10  11
HETATM   11  C6  UNL     1     -39.005  12.106   5.453  1.00 20.00    -0.004 C 
HETATM   12  C2  UNL     1     -38.932  11.656   4.001  1.00 20.00     0.005 C 
ENDBRANCH  10  11
ENDBRANCH   8  10
ENDBRANCH   7   8
ENDBRANCH   3   7
TORSDOF 5
ENDMDL
MODEL 5
REMARK VINA RESULT:      -3.9     11.579     12.983
REMARK  5 active torsions:
REMARK  status: ('A' for Active; 'I' for Inactive)
REMARK    1  A    between atoms: C6_6  and  C8_8 
REMARK    2  A    between atoms: C7_7  and  C11_11 
REMARK    3  A    between atoms: C8_8  and  C10_10 
REMARK    4  A    between atoms: C9_9  and  C10_10 
REMARK    5  A    between atoms: C9_9  and  C11_11 
ROOT
HETATM    1  C1  UNL     1     -34.202  15.405  -6.891  1.00 20.00     0.069 C 
HETATM    2  C5  UNL     1     -36.391  15.611  -5.788  1.00 20.00     0.031 C 
HETATM    3  C11 UNL     1     -34.870  15.799  -5.627  1.00 20.00     0.045 C 
HETATM    4  N12 UNL     1     -33.678  15.088  -7.877  1.00 20.00    -0.196 NA
ENDROOT
BRANCH   3   5
HETATM    5  C7  UNL     1     -34.399  14.827  -4.501  1.00 20.00     0.020 C 
HETATM    6  C3  UNL     1     -32.889  14.645  -4.373  1.00 20.00     0.007 C 
ENDBRANCH   3   5
BRANCH   3   7
HETATM    7  C9  UNL     1     -34.513  17.266  -5.247  1.00 20.00     0.028 C 
BRANCH   7   8
HETATM    8  C10 UNL     1     -34.732  17.743  -3.783  1.00 20.00    -0.017 C 
HETATM    9  C4  UNL     1     -35.763  18.883  -3.797  1.00 20.00     0.010 C 
BRANCH   8  10
HETATM   10  C8  UNL     1     -33.424  18.175  -3.090  1.00 20.00     0.004 C 
BRANCH  10  11
HETATM   11  C6  UNL     1     -33.051  17.325  -1.872  1.00 20.00    -0.004 C 
HETATM   12  C2  UNL     1     -33.793  17.788  -0.625  1.00 20.00     0.005 C 
ENDBRANCH  10  11
ENDBRANCH   8  10
ENDBRANCH   7   8
ENDBRANCH   3   7
TORSDOF 5
ENDMDL
MODEL 6
REMARK VINA RESULT:      -3.6     11.482     13.209
REMARK  5 active torsions:
REMARK  status: ('A' for Active; 'I' for Inactive)
REMARK    1  A    between atoms: C6_6  and  C8_8 
REMARK    2  A    between atoms: C7_7  and  C11_11 
REMARK    3  A    between atoms: C8_8  and  C10_10 
REMARK    4  A    between atoms: C9_9  and  C10_10 
REMARK    5  A    between atoms: C9_9  and  C11_11 
ROOT
HETATM    1  C1  UNL     1     -34.348  14.815  -4.949  1.00 20.00     0.069 C 
HETATM    2  C5  UNL     1     -34.032  15.460  -7.301  1.00 20.00     0.031 C 
HETATM    3  C11 UNL     1     -34.771  15.785  -5.987  1.00 20.00     0.045 C 
HETATM    4  N12 UNL     1     -34.026  14.050  -4.137  1.00 20.00    -0.196 NA
ENDROOT
BRANCH   3   5
HETATM    5  C7  UNL     1     -36.295  15.586  -6.252  1.00 20.00     0.020 C 
HETATM    6  C3  UNL     1     -37.001  16.746  -6.949  1.00 20.00     0.007 C 
ENDBRANCH   3   5
BRANCH   3   7
HETATM    7  C9  UNL     1     -34.496  17.246  -5.524  1.00 20.00     0.028 C 
BRANCH   7   8
HETATM    8  C10 UNL     1     -34.766  17.633  -4.044  1.00 20.00    -0.017 C 
HETATM    9  C4  UNL     1     -35.655  18.887  -4.029  1.00 20.00     0.010 C 
BRANCH   8  10
HETATM   10  C8  UNL     1     -33.473  17.850  -3.233  1.00 20.00     0.004 C 
BRANCH  10  11
HETATM   11  C6  UNL     1     -33.359  16.967  -1.987  1.00 20.00    -0.004 C 
HETATM   12  C2  UNL     1     -33.734  17.737  -0.728  1.00 20.00     0.005 C 
ENDBRANCH  10  11
ENDBRANCH   8  10
ENDBRANCH   7   8
ENDBRANCH   3   7
TORSDOF 5
ENDMDL
MODEL 7
REMARK VINA RESULT:      -3.6     10.570     11.449
REMARK  5 active torsions:
REMARK  status: ('A' for Active; 'I' for Inactive)
REMARK    1  A    between atoms: C6_6  and  C8_8 
REMARK    2  A    between atoms: C7_7  and  C11_11 
REMARK    3  A    between atoms: C8_8  and  C10_10 
REMARK    4  A    between atoms: C9_9  and  C10_10 
REMARK    5  A    between atoms: C9_9  and  C11_11 
ROOT
HETATM    1  C1  UNL     1     -40.935  16.238   7.765  1.00 20.00     0.069 C 
HETATM    2  C5  UNL     1     -40.224  14.445   9.290  1.00 20.00     0.031 C 
HETATM    3  C11 UNL     1     -41.383  14.994   8.435  1.00 20.00     0.045 C 
HETATM    4  N12 UNL     1     -40.588  17.218   7.247  1.00 20.00    -0.196 NA
ENDROOT
BRANCH   3   5
HETATM    5  C7  UNL     1     -42.547  15.356   9.410  1.00 20.00     0.020 C 
HETATM    6  C3  UNL     1     -42.140  15.614  10.858  1.00 20.00     0.007 C 
ENDBRANCH   3   5
BRANCH   3   7
HETATM    7  C9  UNL     1     -41.869  13.947   7.391  1.00 20.00     0.028 C 
BRANCH   7   8
HETATM    8  C10 UNL     1     -41.012  13.694   6.119  1.00 20.00    -0.017 C 
HETATM    9  C4  UNL     1     -41.853  14.073   4.890  1.00 20.00     0.010 C 
BRANCH   8  10
HETATM   10  C8  UNL     1     -40.493  12.245   6.023  1.00 20.00     0.004 C 
BRANCH  10  11
HETATM   11  C6  UNL     1     -39.048  12.130   5.527  1.00 20.00    -0.004 C 
HETATM   12  C2  UNL     1     -38.995  11.644   4.085  1.00 20.00     0.005 C 
ENDBRANCH  10  11
ENDBRANCH   8  10
ENDBRANCH   7   8
ENDBRANCH   3   7
TORSDOF 5
ENDMDL
MODEL 8
REMARK VINA RESULT:      -3.5     10.601     11.472
REMARK  5 active torsions:
REMARK  status: ('A' for Active; 'I' for Inactive)
REMARK    1  A    between atoms: C6_6  and  C8_8 
REMARK    2  A    between atoms: C7_7  and  C11_11 
REMARK    3  A    between atoms: C8_8  and  C10_10 
REMARK    4  A    between atoms: C9_9  and  C10_10 
REMARK    5  A    between atoms: C9_9  and  C11_11 
ROOT
HETATM    1  C1  UNL     1     -42.290  12.324   6.934  1.00 20.00     0.069 C 
HETATM    2  C5  UNL     1     -40.485  13.914   7.448  1.00 20.00     0.031 C 
HETATM    3  C11 UNL     1     -41.117  13.025   6.359  1.00 20.00     0.045 C 
HETATM    4  N12 UNL     1     -43.202  11.767   7.386  1.00 20.00    -0.196 NA
ENDROOT
BRANCH   3   5
HETATM    5  C7  UNL     1     -40.054  11.955   5.959  1.00 20.00     0.020 C 
HETATM    6  C3  UNL     1     -39.552  12.028   4.519  1.00 20.00     0.007 C 
ENDBRANCH   3   5
BRANCH   3   7
HETATM    7  C9  UNL     1     -41.529  13.859   5.111  1.00 20.00     0.028 C 
BRANCH   7   8
HETATM    8  C10 UNL     1     -42.990  14.374   4.994  1.00 20.00    -0.017 C 
HETATM    9  C4  UNL     1     -43.285  14.654   3.511  1.00 20.00     0.010 C 
BRANCH   8  10
HETATM   10  C8  UNL     1     -43.262  15.615   5.867  1.00 20.00     0.004 C 
BRANCH  10  11
HETATM   11  C6  UNL     1     -42.452  16.852   5.466  1.00 20.00    -0.004 C 
HETATM   12  C2  UNL     1     -41.683  17.418   6.653  1.00 20.00     0.005 C 
ENDBRANCH  10  11
ENDBRANCH   8  10
ENDBRANCH   7   8
ENDBRANCH   3   7
TORSDOF 5
ENDMDL
MODEL 9
REMARK VINA RESULT:      -3.5     11.505     12.942
REMARK  5 active torsions:
REMARK  status: ('A' for Active; 'I' for Inactive)
REMARK    1  A    between atoms: C6_6  and  C8_8 
REMARK    2  A    between atoms: C7_7  and  C11_11 
REMARK    3  A    between atoms: C8_8  and  C10_10 
REMARK    4  A    between atoms: C9_9  and  C10_10 
REMARK    5  A    between atoms: C9_9  and  C11_11 
ROOT
HETATM    1  C1  UNL     1     -35.122  18.444  -2.803  1.00 20.00     0.069 C 
HETATM    2  C5  UNL     1     -32.812  19.211  -2.448  1.00 20.00     0.031 C 
HETATM    3  C11 UNL     1     -33.733  17.981  -2.567  1.00 20.00     0.045 C 
HETATM    4  N12 UNL     1     -36.211  18.806  -2.978  1.00 20.00    -0.196 NA
ENDROOT
BRANCH   3   5
HETATM    5  C7  UNL     1     -33.691  17.237  -1.197  1.00 20.00     0.020 C 
HETATM    6  C3  UNL     1     -33.702  18.131   0.041  1.00 20.00     0.007 C 
ENDBRANCH   3   5
BRANCH   3   7
HETATM    7  C9  UNL     1     -33.267  17.027  -3.706  1.00 20.00     0.028 C 
BRANCH   7   8
HETATM    8  C10 UNL     1     -34.286  16.027  -4.319  1.00 20.00    -0.017 C 
HETATM    9  C4  UNL     1     -33.712  14.608  -4.177  1.00 20.00     0.010 C 
BRANCH   8  10
HETATM   10  C8  UNL     1     -34.637  16.349  -5.785  1.00 20.00     0.004 C 
BRANCH  10  11
HETATM   11  C6  UNL     1     -35.957  15.735  -6.262  1.00 20.00    -0.004 C 
HETATM   12  C2  UNL     1     -37.144  16.327  -5.515  1.00 20.00     0.005 C 
ENDBRANCH  10  11
ENDBRANCH   8  10
ENDBRANCH   7   8
ENDBRANCH   3   7
TORSDOF 5
ENDMDL
