MODEL 1
REMARK VINA RESULT:      -4.8      0.000      0.000
REMARK  3 active torsions:
REMARK  status: ('A' for Active; 'I' for Inactive)
REMARK    1  A    between atoms: C1_1  and  C7_7 
REMARK    2  A    between atoms: C1_1  and  C8_8 
REMARK    3  A    between atoms: C9_9  and  C11_11 
ROOT
HETATM    1  C4  UNL     1     -32.694  19.263  -2.532  1.00 20.00     0.013 C 
HETATM    2  C5  UNL     1     -33.201  18.216  -3.520  1.00 20.00     0.005 C 
HETATM    3  C6  UNL     1     -33.663  17.348  -1.351  1.00 20.00     0.016 C 
HETATM    4  C8  UNL     1     -33.063  18.737  -1.144  1.00 20.00     0.056 C 
HETATM    5  C9  UNL     1     -33.160  16.914  -2.728  1.00 20.00    -0.014 C 
ENDROOT
BRANCH   4   6
HETATM    6  C1  UNL     1     -31.802  18.603  -0.310  1.00 20.00     0.135 C 
HETATM    7  O12 UNL     1     -30.687  18.800  -0.791  1.00 20.00    -0.297 OA
BRANCH   6   8
HETATM    8  C7  UNL     1     -31.982  18.220   1.134  1.00 20.00     0.056 A 
HETATM    9  C2  UNL     1     -30.773  18.143   1.996  1.00 20.00     0.013 A 
HETATM   10  C3  UNL     1     -31.756  19.263   2.168  1.00 20.00     0.013 A 
ENDBRANCH   6   8
ENDBRANCH   4   6
BRANCH   5  11
HETATM   11  C11 UNL     1     -33.998  15.809  -3.349  1.00 20.00     0.000 C 
HETATM   12  C10 UNL     1     -33.178  14.903  -4.212  1.00 20.00     0.005 C 
ENDBRANCH   5  11
TORSDOF 3
ENDMDL
MODEL 2
REMARK VINA RESULT:      -4.5     10.799     11.663
REMARK  3 active torsions:
REMARK  status: ('A' for Active; 'I' for Inactive)
REMARK    1  A    between atoms: C1_1  and  C7_7 
REMARK    2  A    between atoms: C1_1  and  C8_8 
REMARK    3  A    between atoms: C9_9  and  C11_11 
ROOT
HETATM    1  C4  UNL     1     -32.073   6.878   3.271  1.00 20.00     0.013 C 
HETATM    2  C5  UNL     1     -32.142   7.600   1.929  1.00 20.00     0.005 C 
HETATM    3  C6  UNL     1     -32.545   9.260   3.587  1.00 20.00     0.016 C 
HETATM    4  C8  UNL     1     -32.255   7.961   4.335  1.00 20.00     0.056 C 
HETATM    5  C9  UNL     1     -33.026   8.809   2.208  1.00 20.00    -0.014 C 
ENDROOT
BRANCH   4   6
HETATM    6  C1  UNL     1     -33.457   7.617   5.197  1.00 20.00     0.135 C 
HETATM    7  O12 UNL     1     -34.078   8.482   5.812  1.00 20.00    -0.297 OA
BRANCH   6   8
HETATM    8  C7  UNL     1     -33.852   6.166   5.259  1.00 20.00     0.056 A 
HETATM    9  C2  UNL     1     -34.853   5.755   6.279  1.00 20.00     0.013 A 
HETATM   10  C3  UNL     1     -35.225   5.797   4.827  1.00 20.00     0.013 A 
ENDBRANCH   6   8
ENDBRANCH   4   6
BRANCH   5  11
HETATM   11  C11 UNL     1     -32.908   9.894   1.150  1.00 20.00     0.000 C 
HETATM   12  C10 UNL     1     -32.887   9.326  -0.234  1.00 20.00     0.005 C 
ENDBRANCH   5  11
TORSDOF 3
ENDMDL
MODEL 3
REMARK VINA RESULT:      -4.5     10.701     11.948
REMARK  3 active torsions:
REMARK  status: ('A' for Active; 'I' for Inactive)
REMARK    1  A    between atoms: C1_1  and  C7_7 
REMARK    2  A    between atoms: C1_1  and  C8_8 
REMARK    3  A    between atoms: C9_9  and  C11_11 
ROOT
HETATM    1  C4  UNL     1     -32.640   8.556   5.052  1.00 20.00     0.013 C 
HETATM    2  C5  UNL     1     -33.605   7.581   5.720  1.00 20.00     0.005 C 
HETATM    3  C6  UNL     1     -32.998   6.582   3.646  1.00 20.00     0.016 C 
HETATM    4  C8  UNL     1     -32.193   7.875   3.757  1.00 20.00     0.056 C 
HETATM    5  C9  UNL     1     -34.206   6.804   4.556  1.00 20.00    -0.014 C 
ENDROOT
BRANCH   4   6
HETATM    6  C1  UNL     1     -32.539   8.768   2.579  1.00 20.00     0.135 C 
HETATM    7  O12 UNL     1     -32.777   9.966   2.726  1.00 20.00    -0.297 OA
BRANCH   6   8
HETATM    8  C7  UNL     1     -32.576   8.116   1.223  1.00 20.00     0.056 A 
HETATM    9  C2  UNL     1     -32.897   8.964   0.046  1.00 20.00     0.013 A 
HETATM   10  C3  UNL     1     -31.502   8.457   0.254  1.00 20.00     0.013 A 
ENDBRANCH   6   8
ENDBRANCH   4   6
BRANCH   5  11
HETATM   11  C11 UNL     1     -34.877   5.509   4.983  1.00 20.00     0.000 C 
HETATM   12  C10 UNL     1     -34.542   5.144   6.394  1.00 20.00     0.005 C 
ENDBRANCH   5  11
TORSDOF 3
ENDMDL
MODEL 4
REMARK VINA RESULT:      -4.3      2.349      3.726
REMARK  3 active torsions:
REMARK  status: ('A' for Active; 'I' for Inactive)
REMARK    1  A    between atoms: C1_1  and  C7_7 
REMARK    2  A    between atoms: C1_1  and  C8_8 
REMARK    3  A    between atoms: C9_9  and  C11_11 
ROOT
HETATM    1  C4  UNL     1     -32.985  15.678  -3.768  1.00 20.00     0.013 C 
HETATM    2  C5  UNL     1     -33.684  14.660  -4.664  1.00 20.00     0.005 C 
HETATM    3  C6  UNL     1     -34.770  16.741  -5.066  1.00 20.00     0.016 C 
HETATM    4  C8  UNL     1     -33.633  17.026  -4.087  1.00 20.00     0.056 C 
HETATM    5  C9  UNL     1     -35.071  15.254  -4.881  1.00 20.00    -0.014 C 
ENDROOT
BRANCH   4   6
HETATM    6  C1  UNL     1     -34.221  17.611  -2.815  1.00 20.00     0.135 C 
HETATM    7  O12 UNL     1     -35.196  18.360  -2.840  1.00 20.00    -0.297 OA
BRANCH   6   8
HETATM    8  C7  UNL     1     -33.554  17.226  -1.522  1.00 20.00     0.056 A 
HETATM    9  C2  UNL     1     -32.476  18.106  -1.000  1.00 20.00     0.013 A 
HETATM   10  C3  UNL     1     -33.814  18.067  -0.324  1.00 20.00     0.013 A 
ENDBRANCH   6   8
ENDBRANCH   4   6
BRANCH   5  11
HETATM   11  C11 UNL     1     -35.806  14.642  -6.061  1.00 20.00     0.000 C 
HETATM   12  C10 UNL     1     -35.540  15.385  -7.332  1.00 20.00     0.005 C 
ENDBRANCH   5  11
TORSDOF 3
ENDMDL
MODEL 5
REMARK VINA RESULT:      -4.3      1.315      1.878
REMARK  3 active torsions:
REMARK  status: ('A' for Active; 'I' for Inactive)
REMARK    1  A    between atoms: C1_1  and  C7_7 
REMARK    2  A    between atoms: C1_1  and  C8_8 
REMARK    3  A    between atoms: C9_9  and  C11_11 
ROOT
HETATM    1  C4  UNL     1     -34.771  18.295  -3.293  1.00 20.00     0.013 C 
HETATM    2  C5  UNL     1     -34.698  17.095  -4.234  1.00 20.00     0.005 C 
HETATM    3  C6  UNL     1     -33.445  16.489  -2.302  1.00 20.00     0.016 C 
HETATM    4  C8  UNL     1     -34.031  17.871  -2.023  1.00 20.00     0.056 C 
HETATM    5  C9  UNL     1     -33.412  16.387  -3.827  1.00 20.00    -0.014 C 
ENDROOT
BRANCH   4   6
HETATM    6  C1  UNL     1     -32.891  18.840  -1.764  1.00 20.00     0.135 C 
HETATM    7  O12 UNL     1     -32.181  19.260  -2.677  1.00 20.00    -0.297 OA
BRANCH   6   8
HETATM    8  C7  UNL     1     -32.672  19.262  -0.336  1.00 20.00     0.056 A 
HETATM    9  C2  UNL     1     -32.672  18.210   0.714  1.00 20.00     0.013 A 
HETATM   10  C3  UNL     1     -31.392  18.882   0.318  1.00 20.00     0.013 A 
ENDBRANCH   6   8
ENDBRANCH   4   6
BRANCH   5  11
HETATM   11  C11 UNL     1     -33.332  14.955  -4.328  1.00 20.00     0.000 C 
HETATM   12  C10 UNL     1     -34.684  14.321  -4.428  1.00 20.00     0.005 C 
ENDBRANCH   5  11
TORSDOF 3
ENDMDL
MODEL 6
REMARK VINA RESULT:      -4.2     11.688     13.122
REMARK  3 active torsions:
REMARK  status: ('A' for Active; 'I' for Inactive)
REMARK    1  A    between atoms: C1_1  and  C7_7 
REMARK    2  A    between atoms: C1_1  and  C8_8 
REMARK    3  A    between atoms: C9_9  and  C11_11 
ROOT
HETATM    1  C4  UNL     1     -42.381  13.063   7.315  1.00 20.00     0.013 C 
HETATM    2  C5  UNL     1     -41.865  13.753   8.574  1.00 20.00     0.005 C 
HETATM    3  C6  UNL     1     -41.315  15.198   6.763  1.00 20.00     0.016 C 
HETATM    4  C8  UNL     1     -42.095  14.029   6.164  1.00 20.00     0.056 C 
HETATM    5  C9  UNL     1     -40.739  14.647   8.067  1.00 20.00    -0.014 C 
ENDROOT
BRANCH   4   6
HETATM    6  C1  UNL     1     -41.220  13.335   5.136  1.00 20.00     0.135 C 
HETATM    7  O12 UNL     1     -41.181  13.710   3.965  1.00 20.00    -0.297 OA
BRANCH   6   8
HETATM    8  C7  UNL     1     -40.402  12.168   5.620  1.00 20.00     0.056 A 
HETATM    9  C2  UNL     1     -39.444  11.542   4.671  1.00 20.00     0.013 A 
HETATM   10  C3  UNL     1     -38.943  12.371   5.815  1.00 20.00     0.013 A 
ENDBRANCH   6   8
ENDBRANCH   4   6
BRANCH   5  11
HETATM   11  C11 UNL     1     -40.347  15.734   9.053  1.00 20.00     0.000 C 
HETATM   12  C10 UNL     1     -40.283  15.220  10.457  1.00 20.00     0.005 C 
ENDBRANCH   5  11
TORSDOF 3
ENDMDL
MODEL 7
REMARK VINA RESULT:      -4.2      1.664      4.885
REMARK  3 active torsions:
REMARK  status: ('A' for Active; 'I' for Inactive)
REMARK    1  A    between atoms: C1_1  and  C7_7 
REMARK    2  A    between atoms: C1_1  and  C8_8 
REMARK    3  A    between atoms: C9_9  and  C11_11 
ROOT
HETATM    1  C4  UNL     1     -34.328  17.938  -1.185  1.00 20.00     0.013 C 
HETATM    2  C5  UNL     1     -33.328  18.134  -0.049  1.00 20.00     0.005 C 
HETATM    3  C6  UNL     1     -32.337  19.129  -1.972  1.00 20.00     0.016 C 
HETATM    4  C8  UNL     1     -33.723  18.646  -2.397  1.00 20.00     0.056 C 
HETATM    5  C9  UNL     1     -31.987  18.266  -0.760  1.00 20.00    -0.014 C 
ENDROOT
BRANCH   4   6
HETATM    6  C1  UNL     1     -33.563  17.648  -3.530  1.00 20.00     0.135 C 
HETATM    7  O12 UNL     1     -33.580  18.000  -4.708  1.00 20.00    -0.297 OA
BRANCH   6   8
HETATM    8  C7  UNL     1     -33.381  16.205  -3.140  1.00 20.00     0.056 A 
HETATM    9  C2  UNL     1     -34.140  15.174  -3.895  1.00 20.00     0.013 A 
HETATM   10  C3  UNL     1     -32.659  15.312  -4.083  1.00 20.00     0.013 A 
ENDBRANCH   6   8
ENDBRANCH   4   6
BRANCH   5  11
HETATM   11  C11 UNL     1     -30.904  18.876   0.114  1.00 20.00     0.000 C 
HETATM   12  C10 UNL     1     -30.907  18.299   1.494  1.00 20.00     0.005 C 
ENDBRANCH   5  11
TORSDOF 3
ENDMDL
MODEL 8
REMARK VINA RESULT:      -4.2      2.264      5.602
REMARK  3 active torsions:
REMARK  status: ('A' for Active; 'I' for Inactive)
REMARK    1  A    between atoms: C1_1  and  C7_7 
REMARK    2  A    between atoms: C1_1  and  C8_8 
REMARK    3  A    between atoms: C9_9  and  C11_11 
ROOT
HETATM    1  C4  UNL     1     -33.144  18.639  -3.615  1.00 20.00     0.013 C 
HETATM    2  C5  UNL     1     -33.171  19.091  -2.158  1.00 20.00     0.005 C 
HETATM    3  C6  UNL     1     -33.430  16.725  -2.114  1.00 20.00     0.016 C 
HETATM    4  C8  UNL     1     -33.233  17.113  -3.578  1.00 20.00     0.056 C 
HETATM    5  C9  UNL     1     -33.957  17.996  -1.448  1.00 20.00    -0.014 C 
ENDROOT
BRANCH   4   6
HETATM    6  C1  UNL     1     -34.448  16.664  -4.368  1.00 20.00     0.135 C 
HETATM    7  O12 UNL     1     -35.406  17.412  -4.559  1.00 20.00    -0.297 OA
BRANCH   6   8
HETATM    8  C7  UNL     1     -34.423  15.260  -4.910  1.00 20.00     0.056 A 
HETATM    9  C2  UNL     1     -35.476  14.866  -5.883  1.00 20.00     0.013 A 
HETATM   10  C3  UNL     1     -34.062  15.069  -6.339  1.00 20.00     0.013 A 
ENDBRANCH   6   8
ENDBRANCH   4   6
BRANCH   5  11
HETATM   11  C11 UNL     1     -33.767  18.003   0.059  1.00 20.00     0.000 C 
HETATM   12  C10 UNL     1     -32.426  18.539   0.452  1.00 20.00     0.005 C 
ENDBRANCH   5  11
TORSDOF 3
ENDMDL
MODEL 9
REMARK VINA RESULT:      -4.1     11.114     12.518
REMARK  3 active torsions:
REMARK  status: ('A' for Active; 'I' for Inactive)
REMARK    1  A    between atoms: C1_1  and  C7_7 
REMARK    2  A    between atoms: C1_1  and  C8_8 
REMARK    3  A    between atoms: C9_9  and  C11_11 
ROOT
HETATM    1  C4  UNL     1     -40.412  13.796   7.842  1.00 20.00     0.013 C 
HETATM    2  C5  UNL     1     -40.408  15.265   8.256  1.00 20.00     0.005 C 
HETATM    3  C6  UNL     1     -42.064  15.069   6.556  1.00 20.00     0.016 C 
HETATM    4  C8  UNL     1     -41.530  13.660   6.807  1.00 20.00     0.056 C 
HETATM    5  C9  UNL     1     -40.942  15.994   7.029  1.00 20.00    -0.014 C 
ENDROOT
BRANCH   4   6
HETATM    6  C1  UNL     1     -40.948  13.123   5.512  1.00 20.00     0.135 C 
HETATM    7  O12 UNL     1     -41.219  13.629   4.424  1.00 20.00    -0.297 OA
BRANCH   6   8
HETATM    8  C7  UNL     1     -40.020  11.944   5.624  1.00 20.00     0.056 A 
HETATM    9  C2  UNL     1     -39.332  11.473   4.393  1.00 20.00     0.013 A 
HETATM   10  C3  UNL     1     -38.562  12.184   5.466  1.00 20.00     0.013 A 
ENDBRANCH   6   8
ENDBRANCH   4   6
BRANCH   5  11
HETATM   11  C11 UNL     1     -41.418  17.404   7.331  1.00 20.00     0.000 C 
HETATM   12  C10 UNL     1     -40.398  18.432   6.955  1.00 20.00     0.005 C 
ENDBRANCH   5  11
TORSDOF 3
ENDMDL
