MODEL 1
REMARK VINA RESULT:      -4.7      0.000      0.000
REMARK  4 active torsions:
REMARK  status: ('A' for Active; 'I' for Inactive)
REMARK    1  A    between atoms: C6_6  and  C10_10 
REMARK    2  A    between atoms: C7_7  and  C11_11 
REMARK    3  A    between atoms: C9_9  and  C11_11 
REMARK    4  A    between atoms: C11_11  and  O12_12 
ROOT
HETATM    1  C1  UNL     1     -33.249  15.173  -4.129  1.00 20.00     0.012 C 
HETATM    2  C2  UNL     1     -33.364  15.948  -3.220  1.00 20.00    -0.115 C 
HETATM    3  C9  UNL     1     -33.507  16.896  -2.102  1.00 20.00     0.125 C 
ENDROOT
BRANCH   3   4
HETATM    4  C11 UNL     1     -32.633  18.137  -2.302  1.00 20.00     0.133 C 
BRANCH   4   5
HETATM    5  C7  UNL     1     -32.457  18.903  -1.002  1.00 20.00     0.015 C 
HETATM    6  C4  UNL     1     -33.536  18.589   0.036  1.00 20.00     0.007 C 
HETATM    7  C3  UNL     1     -32.866  18.753   1.405  1.00 20.00     0.005 C 
HETATM    8  C6  UNL     1     -31.407  19.122   1.121  1.00 20.00    -0.014 C 
HETATM    9  C5  UNL     1     -31.155  18.569  -0.279  1.00 20.00     0.012 C 
BRANCH   8  10
HETATM   10  C10 UNL     1     -30.438  18.582   2.160  1.00 20.00     0.000 C 
HETATM   11  C8  UNL     1     -30.810  19.008   3.546  1.00 20.00     0.005 C 
ENDBRANCH   8  10
ENDBRANCH   4   5
BRANCH   4  12
HETATM   12  O12 UNL     1     -33.265  18.991  -3.255  1.00 20.00    -0.394 OA
HETATM   13  H30 UNL     1     -33.596  19.756  -2.761  1.00 20.00     0.210 HD
ENDBRANCH   4  12
ENDBRANCH   3   4
TORSDOF 4
ENDMDL
MODEL 2
REMARK VINA RESULT:      -4.6      2.439      4.344
REMARK  4 active torsions:
REMARK  status: ('A' for Active; 'I' for Inactive)
REMARK    1  A    between atoms: C6_6  and  C10_10 
REMARK    2  A    between atoms: C7_7  and  C11_11 
REMARK    3  A    between atoms: C9_9  and  C11_11 
REMARK    4  A    between atoms: C11_11  and  O12_12 
ROOT
HETATM    1  C1  UNL     1     -33.787  15.479  -7.917  1.00 20.00     0.012 C 
HETATM    2  C2  UNL     1     -34.425  15.231  -6.931  1.00 20.00    -0.115 C 
HETATM    3  C9  UNL     1     -35.212  14.926  -5.725  1.00 20.00     0.125 C 
ENDROOT
BRANCH   3   4
HETATM    4  C11 UNL     1     -34.321  14.825  -4.483  1.00 20.00     0.133 C 
BRANCH   4   5
HETATM    5  C7  UNL     1     -33.755  16.182  -4.099  1.00 20.00     0.015 C 
HETATM    6  C4  UNL     1     -34.785  17.311  -4.176  1.00 20.00     0.007 C 
HETATM    7  C3  UNL     1     -34.376  18.328  -3.105  1.00 20.00     0.005 C 
HETATM    8  C6  UNL     1     -33.143  17.743  -2.412  1.00 20.00    -0.014 C 
HETATM    9  C5  UNL     1     -33.264  16.241  -2.655  1.00 20.00     0.012 C 
BRANCH   8  10
HETATM   10  C10 UNL     1     -33.052  18.105  -0.939  1.00 20.00     0.000 C 
HETATM   11  C8  UNL     1     -31.722  18.693  -0.588  1.00 20.00     0.005 C 
ENDBRANCH   8  10
ENDBRANCH   4   5
BRANCH   4  12
HETATM   12  O12 UNL     1     -33.238  13.941  -4.770  1.00 20.00    -0.394 OA
HETATM   13  H30 UNL     1     -32.430  14.403  -4.505  1.00 20.00     0.210 HD
ENDBRANCH   4  12
ENDBRANCH   3   4
TORSDOF 4
ENDMDL
MODEL 3
REMARK VINA RESULT:      -4.6      1.387      5.423
REMARK  4 active torsions:
REMARK  status: ('A' for Active; 'I' for Inactive)
REMARK    1  A    between atoms: C6_6  and  C10_10 
REMARK    2  A    between atoms: C7_7  and  C11_11 
REMARK    3  A    between atoms: C9_9  and  C11_11 
REMARK    4  A    between atoms: C11_11  and  O12_12 
ROOT
HETATM    1  C1  UNL     1     -30.271  18.546   2.592  1.00 20.00     0.012 C 
HETATM    2  C2  UNL     1     -31.230  18.592   1.871  1.00 20.00    -0.115 C 
HETATM    3  C9  UNL     1     -32.410  18.647   0.991  1.00 20.00     0.125 C 
ENDROOT
BRANCH   3   4
HETATM    4  C11 UNL     1     -32.046  19.166  -0.403  1.00 20.00     0.133 C 
BRANCH   4   5
HETATM    5  C7  UNL     1     -33.027  18.666  -1.450  1.00 20.00     0.015 C 
HETATM    6  C4  UNL     1     -32.785  19.261  -2.839  1.00 20.00     0.007 C 
HETATM    7  C3  UNL     1     -33.231  18.192  -3.841  1.00 20.00     0.005 C 
HETATM    8  C6  UNL     1     -33.685  16.991  -3.006  1.00 20.00    -0.014 C 
HETATM    9  C5  UNL     1     -32.939  17.160  -1.685  1.00 20.00     0.012 C 
BRANCH   8  10
HETATM   10  C10 UNL     1     -33.416  15.656  -3.677  1.00 20.00     0.000 C 
HETATM   11  C8  UNL     1     -34.407  15.364  -4.760  1.00 20.00     0.005 C 
ENDBRANCH   8  10
ENDBRANCH   4   5
BRANCH   4  12
HETATM   12  O12 UNL     1     -30.740  18.698  -0.738  1.00 20.00    -0.394 OA
HETATM   13  H30 UNL     1     -30.190  18.837   0.047  1.00 20.00     0.210 HD
ENDBRANCH   4  12
ENDBRANCH   3   4
TORSDOF 4
ENDMDL
MODEL 4
REMARK VINA RESULT:      -4.6     11.365     12.109
REMARK  4 active torsions:
REMARK  status: ('A' for Active; 'I' for Inactive)
REMARK    1  A    between atoms: C6_6  and  C10_10 
REMARK    2  A    between atoms: C7_7  and  C11_11 
REMARK    3  A    between atoms: C9_9  and  C11_11 
REMARK    4  A    between atoms: C11_11  and  O12_12 
ROOT
HETATM    1  C1  UNL     1     -32.900   9.127  -0.073  1.00 20.00     0.012 C 
HETATM    2  C2  UNL     1     -32.820   9.442   1.082  1.00 20.00    -0.115 C 
HETATM    3  C9  UNL     1     -32.724   9.833   2.499  1.00 20.00     0.125 C 
ENDROOT
BRANCH   3   4
HETATM    4  C11 UNL     1     -32.291   8.657   3.379  1.00 20.00     0.133 C 
BRANCH   4   5
HETATM    5  C7  UNL     1     -33.234   7.476   3.224  1.00 20.00     0.015 C 
HETATM    6  C4  UNL     1     -32.537   6.205   2.735  1.00 20.00     0.007 C 
HETATM    7  C3  UNL     1     -33.315   5.035   3.345  1.00 20.00     0.005 C 
HETATM    8  C6  UNL     1     -34.420   5.661   4.202  1.00 20.00    -0.014 C 
HETATM    9  C5  UNL     1     -33.880   7.048   4.539  1.00 20.00     0.012 C 
BRANCH   8  10
HETATM   10  C10 UNL     1     -34.765   4.838   5.431  1.00 20.00     0.000 C 
HETATM   11  C8  UNL     1     -34.440   5.564   6.699  1.00 20.00     0.005 C 
ENDBRANCH   8  10
ENDBRANCH   4   5
BRANCH   4  12
HETATM   12  O12 UNL     1     -32.304   9.079   4.743  1.00 20.00    -0.394 OA
HETATM   13  H30 UNL     1     -32.125  10.031   4.736  1.00 20.00     0.210 HD
ENDBRANCH   4  12
ENDBRANCH   3   4
TORSDOF 4
ENDMDL
MODEL 5
REMARK VINA RESULT:      -4.5     11.429     12.287
REMARK  4 active torsions:
REMARK  status: ('A' for Active; 'I' for Inactive)
REMARK    1  A    between atoms: C6_6  and  C10_10 
REMARK    2  A    between atoms: C7_7  and  C11_11 
REMARK    3  A    between atoms: C9_9  and  C11_11 
REMARK    4  A    between atoms: C11_11  and  O12_12 
ROOT
HETATM    1  C1  UNL     1     -38.896  11.699   3.481  1.00 20.00     0.012 C 
HETATM    2  C2  UNL     1     -39.319  11.716   4.604  1.00 20.00    -0.115 C 
HETATM    3  C9  UNL     1     -39.835  11.733   5.984  1.00 20.00     0.125 C 
ENDROOT
BRANCH   3   4
HETATM    4  C11 UNL     1     -41.055  12.648   6.116  1.00 20.00     0.133 C 
BRANCH   4   5
HETATM    5  C7  UNL     1     -40.665  14.013   6.656  1.00 20.00     0.015 C 
HETATM    6  C4  UNL     1     -41.786  15.049   6.552  1.00 20.00     0.007 C 
HETATM    7  C3  UNL     1     -41.588  16.007   7.731  1.00 20.00     0.005 C 
HETATM    8  C6  UNL     1     -40.379  15.479   8.508  1.00 20.00    -0.014 C 
HETATM    9  C5  UNL     1     -40.329  13.997   8.145  1.00 20.00     0.012 C 
BRANCH   8  10
HETATM   10  C10 UNL     1     -40.472  15.725  10.004  1.00 20.00     0.000 C 
HETATM   11  C8  UNL     1     -40.666  14.453  10.769  1.00 20.00     0.005 C 
ENDBRANCH   8  10
ENDBRANCH   4   5
BRANCH   4  12
HETATM   12  O12 UNL     1     -41.982  12.045   7.021  1.00 20.00    -0.394 OA
HETATM   13  H30 UNL     1     -42.509  11.424   6.498  1.00 20.00     0.210 HD
ENDBRANCH   4  12
ENDBRANCH   3   4
TORSDOF 4
ENDMDL
MODEL 6
REMARK VINA RESULT:      -4.5      2.430      5.866
REMARK  4 active torsions:
REMARK  status: ('A' for Active; 'I' for Inactive)
REMARK    1  A    between atoms: C6_6  and  C10_10 
REMARK    2  A    between atoms: C7_7  and  C11_11 
REMARK    3  A    between atoms: C9_9  and  C11_11 
REMARK    4  A    between atoms: C11_11  and  O12_12 
ROOT
HETATM    1  C1  UNL     1     -27.949  18.151   4.521  1.00 20.00     0.012 C 
HETATM    2  C2  UNL     1     -28.640  18.649   3.675  1.00 20.00    -0.115 C 
HETATM    3  C9  UNL     1     -29.485  19.263   2.636  1.00 20.00     0.125 C 
ENDROOT
BRANCH   3   4
HETATM    4  C11 UNL     1     -30.836  18.552   2.517  1.00 20.00     0.133 C 
BRANCH   4   5
HETATM    5  C7  UNL     1     -31.585  18.995   1.272  1.00 20.00     0.015 C 
HETATM    6  C4  UNL     1     -30.754  18.879  -0.007  1.00 20.00     0.007 C 
HETATM    7  C3  UNL     1     -31.752  18.590  -1.134  1.00 20.00     0.005 C 
HETATM    8  C6  UNL     1     -33.130  18.510  -0.470  1.00 20.00    -0.014 C 
HETATM    9  C5  UNL     1     -32.818  18.145   0.978  1.00 20.00     0.012 C 
BRANCH   8  10
HETATM   10  C10 UNL     1     -34.066  17.525  -1.147  1.00 20.00     0.000 C 
HETATM   11  C8  UNL     1     -33.398  16.803  -2.276  1.00 20.00     0.005 C 
ENDBRANCH   8  10
ENDBRANCH   4   5
BRANCH   4  12
HETATM   12  O12 UNL     1     -31.623  18.875   3.665  1.00 20.00    -0.394 OA
HETATM   13  H30 UNL     1     -32.439  18.359   3.591  1.00 20.00     0.210 HD
ENDBRANCH   4  12
ENDBRANCH   3   4
TORSDOF 4
ENDMDL
MODEL 7
REMARK VINA RESULT:      -4.4     11.053     12.114
REMARK  4 active torsions:
REMARK  status: ('A' for Active; 'I' for Inactive)
REMARK    1  A    between atoms: C6_6  and  C10_10 
REMARK    2  A    between atoms: C7_7  and  C11_11 
REMARK    3  A    between atoms: C9_9  and  C11_11 
REMARK    4  A    between atoms: C11_11  and  O12_12 
ROOT
HETATM    1  C1  UNL     1     -39.023  11.692   3.965  1.00 20.00     0.012 C 
HETATM    2  C2  UNL     1     -39.438  11.971   5.057  1.00 20.00    -0.115 C 
HETATM    3  C9  UNL     1     -39.941  12.312   6.398  1.00 20.00     0.125 C 
ENDROOT
BRANCH   3   4
HETATM    4  C11 UNL     1     -41.411  12.741   6.354  1.00 20.00     0.133 C 
BRANCH   4   5
HETATM    5  C7  UNL     1     -41.633  14.030   7.127  1.00 20.00     0.015 C 
HETATM    6  C4  UNL     1     -40.400  14.486   7.910  1.00 20.00     0.007 C 
HETATM    7  C3  UNL     1     -40.470  16.016   7.954  1.00 20.00     0.005 C 
HETATM    8  C6  UNL     1     -41.723  16.407   7.164  1.00 20.00    -0.014 C 
HETATM    9  C5  UNL     1     -41.949  15.222   6.229  1.00 20.00     0.012 C 
BRANCH   8  10
HETATM   10  C10 UNL     1     -41.583  17.729   6.431  1.00 20.00     0.000 C 
HETATM   11  C8  UNL     1     -40.438  18.540   6.953  1.00 20.00     0.005 C 
ENDBRANCH   8  10
ENDBRANCH   4   5
BRANCH   4  12
HETATM   12  O12 UNL     1     -42.204  11.711   6.944  1.00 20.00    -0.394 OA
HETATM   13  H30 UNL     1     -42.272  11.923   7.886  1.00 20.00     0.210 HD
ENDBRANCH   4  12
ENDBRANCH   3   4
TORSDOF 4
ENDMDL
MODEL 8
REMARK VINA RESULT:      -4.3      2.422      4.077
REMARK  4 active torsions:
REMARK  status: ('A' for Active; 'I' for Inactive)
REMARK    1  A    between atoms: C6_6  and  C10_10 
REMARK    2  A    between atoms: C7_7  and  C11_11 
REMARK    3  A    between atoms: C9_9  and  C11_11 
REMARK    4  A    between atoms: C11_11  and  O12_12 
ROOT
HETATM    1  C1  UNL     1     -37.331  16.105  -5.485  1.00 20.00     0.012 C 
HETATM    2  C2  UNL     1     -36.147  15.930  -5.574  1.00 20.00    -0.115 C 
HETATM    3  C9  UNL     1     -34.694  15.717  -5.689  1.00 20.00     0.125 C 
ENDROOT
BRANCH   3   4
HETATM    4  C11 UNL     1     -34.101  15.177  -4.385  1.00 20.00     0.133 C 
BRANCH   4   5
HETATM    5  C7  UNL     1     -33.261  16.230  -3.683  1.00 20.00     0.015 C 
HETATM    6  C4  UNL     1     -33.502  17.646  -4.210  1.00 20.00     0.007 C 
HETATM    7  C3  UNL     1     -33.264  18.585  -3.022  1.00 20.00     0.005 C 
HETATM    8  C6  UNL     1     -32.929  17.685  -1.830  1.00 20.00    -0.014 C 
HETATM    9  C5  UNL     1     -33.566  16.346  -2.191  1.00 20.00     0.012 C 
BRANCH   8  10
HETATM   10  C10 UNL     1     -33.416  18.239  -0.503  1.00 20.00     0.000 C 
HETATM   11  C8  UNL     1     -32.281  18.592   0.407  1.00 20.00     0.005 C 
ENDBRANCH   8  10
ENDBRANCH   4   5
BRANCH   4  12
HETATM   12  O12 UNL     1     -33.269  14.057  -4.691  1.00 20.00    -0.394 OA
HETATM   13  H30 UNL     1     -33.854  13.287  -4.736  1.00 20.00     0.210 HD
ENDBRANCH   4  12
ENDBRANCH   3   4
TORSDOF 4
ENDMDL
MODEL 9
REMARK VINA RESULT:      -4.1      1.977      6.221
REMARK  4 active torsions:
REMARK  status: ('A' for Active; 'I' for Inactive)
REMARK    1  A    between atoms: C6_6  and  C10_10 
REMARK    2  A    between atoms: C7_7  and  C11_11 
REMARK    3  A    between atoms: C9_9  and  C11_11 
REMARK    4  A    between atoms: C11_11  and  O12_12 
ROOT
HETATM    1  C1  UNL     1     -33.695  18.884   0.985  1.00 20.00     0.012 C 
HETATM    2  C2  UNL     1     -33.675  18.214  -0.011  1.00 20.00    -0.115 C 
HETATM    3  C9  UNL     1     -33.651  17.388  -1.230  1.00 20.00     0.125 C 
ENDROOT
BRANCH   3   4
HETATM    4  C11 UNL     1     -33.481  18.247  -2.487  1.00 20.00     0.133 C 
BRANCH   4   5
HETATM    5  C7  UNL     1     -33.403  17.386  -3.736  1.00 20.00     0.015 C 
HETATM    6  C4  UNL     1     -33.006  15.936  -3.449  1.00 20.00     0.007 C 
HETATM    7  C3  UNL     1     -33.690  15.089  -4.526  1.00 20.00     0.005 C 
HETATM    8  C6  UNL     1     -34.496  16.067  -5.387  1.00 20.00    -0.014 C 
HETATM    9  C5  UNL     1     -34.740  17.255  -4.460  1.00 20.00     0.012 C 
BRANCH   8  10
HETATM   10  C10 UNL     1     -35.776  15.466  -5.940  1.00 20.00     0.000 C 
HETATM   11  C8  UNL     1     -36.156  14.206  -5.228  1.00 20.00     0.005 C 
ENDBRANCH   8  10
ENDBRANCH   4   5
BRANCH   4  12
HETATM   12  O12 UNL     1     -32.271  18.994  -2.369  1.00 20.00    -0.394 OA
HETATM   13  H30 UNL     1     -31.578  18.461  -2.785  1.00 20.00     0.210 HD
ENDBRANCH   4  12
ENDBRANCH   3   4
TORSDOF 4
ENDMDL
