MODEL 1
REMARK VINA RESULT:      -5.0      0.000      0.000
REMARK  5 active torsions:
REMARK  status: ('A' for Active; 'I' for Inactive)
REMARK    1  A    between atoms: C1_1  and  C5_5 
REMARK    2  A    between atoms: C1_1  and  C9_9 
REMARK    3  A    between atoms: C6_6  and  C10_10 
REMARK    4  A    between atoms: C9_9  and  C12_12 
REMARK    5  A    between atoms: C11_11  and  C12_12 
ROOT
HETATM    1  C2  UNL     1     -33.833   6.812   6.421  1.00 20.00     0.012 C 
HETATM    2  C3  UNL     1     -34.664   5.541   6.299  1.00 20.00     0.005 C 
HETATM    3  C4  UNL     1     -34.925   6.707   4.226  1.00 20.00     0.016 C 
HETATM    4  C5  UNL     1     -34.182   7.643   5.187  1.00 20.00     0.056 C 
HETATM    5  C6  UNL     1     -34.766   5.294   4.796  1.00 20.00    -0.014 C 
ENDROOT
BRANCH   4   6
HETATM    6  C1  UNL     1     -32.954   8.201   4.536  1.00 20.00     0.131 C 
HETATM    7  O13 UNL     1     -31.902   8.383   5.157  1.00 20.00    -0.298 OA
BRANCH   6   8
HETATM    8  C9  UNL     1     -33.068   8.537   3.056  1.00 20.00     0.079 C 
BRANCH   8   9
HETATM    9  C12 UNL     1     -31.953   7.915   2.219  1.00 20.00     0.007 C 
BRANCH   9  10
HETATM   10  C11 UNL     1     -32.107   8.264   0.739  1.00 20.00    -0.004 C 
HETATM   11  C8  UNL     1     -32.821   9.594   0.552  1.00 20.00     0.005 C 
ENDBRANCH   9  10
ENDBRANCH   8   9
ENDBRANCH   6   8
ENDBRANCH   4   6
BRANCH   5  12
HETATM   12  C10 UNL     1     -33.538   4.579   4.239  1.00 20.00     0.000 C 
HETATM   13  C7  UNL     1     -33.316   4.890   2.792  1.00 20.00     0.005 C 
ENDBRANCH   5  12
TORSDOF 5
ENDMDL
MODEL 2
REMARK VINA RESULT:      -4.2     10.044     11.420
REMARK  5 active torsions:
REMARK  status: ('A' for Active; 'I' for Inactive)
REMARK    1  A    between atoms: C1_1  and  C5_5 
REMARK    2  A    between atoms: C1_1  and  C9_9 
REMARK    3  A    between atoms: C6_6  and  C10_10 
REMARK    4  A    between atoms: C9_9  and  C12_12 
REMARK    5  A    between atoms: C11_11  and  C12_12 
ROOT
HETATM    1  C2  UNL     1     -42.372  15.200   5.476  1.00 20.00     0.012 C 
HETATM    2  C3  UNL     1     -42.254  16.544   6.183  1.00 20.00     0.005 C 
HETATM    3  C4  UNL     1     -42.781  14.944   7.883  1.00 20.00     0.016 C 
HETATM    4  C5  UNL     1     -42.920  14.237   6.529  1.00 20.00     0.056 C 
HETATM    5  C6  UNL     1     -41.922  16.187   7.629  1.00 20.00    -0.014 C 
ENDROOT
BRANCH   4   6
HETATM    6  C1  UNL     1     -42.168  12.941   6.531  1.00 20.00     0.131 C 
HETATM    7  O13 UNL     1     -42.512  11.979   7.226  1.00 20.00    -0.298 OA
BRANCH   6   8
HETATM    8  C9  UNL     1     -40.947  12.868   5.625  1.00 20.00     0.079 C 
BRANCH   8   9
HETATM    9  C12 UNL     1     -39.795  12.082   6.246  1.00 20.00     0.007 C 
BRANCH   9  10
HETATM   10  C11 UNL     1     -38.574  12.067   5.326  1.00 20.00    -0.004 C 
HETATM   11  C8  UNL     1     -38.945  11.645   3.913  1.00 20.00     0.005 C 
ENDBRANCH   9  10
ENDBRANCH   8   9
ENDBRANCH   6   8
ENDBRANCH   4   6
BRANCH   5  12
HETATM   12  C10 UNL     1     -40.434  15.915   7.835  1.00 20.00     0.000 C 
HETATM   13  C7  UNL     1     -40.188  14.972   8.971  1.00 20.00     0.005 C 
ENDBRANCH   5  12
TORSDOF 5
ENDMDL
MODEL 3
REMARK VINA RESULT:      -4.1     11.462     12.815
REMARK  5 active torsions:
REMARK  status: ('A' for Active; 'I' for Inactive)
REMARK    1  A    between atoms: C1_1  and  C5_5 
REMARK    2  A    between atoms: C1_1  and  C9_9 
REMARK    3  A    between atoms: C6_6  and  C10_10 
REMARK    4  A    between atoms: C9_9  and  C12_12 
REMARK    5  A    between atoms: C11_11  and  C12_12 
ROOT
HETATM    1  C2  UNL     1     -35.059  18.640  -2.109  1.00 20.00     0.012 C 
HETATM    2  C3  UNL     1     -35.018  18.066  -3.520  1.00 20.00     0.005 C 
HETATM    3  C4  UNL     1     -32.766  18.673  -2.984  1.00 20.00     0.016 C 
HETATM    4  C5  UNL     1     -33.665  19.219  -1.868  1.00 20.00     0.056 C 
HETATM    5  C6  UNL     1     -33.579  17.587  -3.695  1.00 20.00    -0.014 C 
ENDROOT
BRANCH   4   6
HETATM    6  C1  UNL     1     -33.134  18.828  -0.524  1.00 20.00     0.131 C 
HETATM    7  O13 UNL     1     -33.851  18.776   0.480  1.00 20.00    -0.298 OA
BRANCH   6   8
HETATM    8  C9  UNL     1     -31.650  18.495  -0.455  1.00 20.00     0.079 C 
BRANCH   8   9
HETATM    9  C12 UNL     1     -30.943  19.175   0.714  1.00 20.00     0.007 C 
BRANCH   9  10
HETATM   10  C11 UNL     1     -30.621  18.177   1.826  1.00 20.00    -0.004 C 
HETATM   11  C8  UNL     1     -29.707  18.789   2.877  1.00 20.00     0.005 C 
ENDBRANCH   9  10
ENDBRANCH   8   9
ENDBRANCH   6   8
ENDBRANCH   4   6
BRANCH   5  12
HETATM   12  C10 UNL     1     -33.349  16.202  -3.095  1.00 20.00     0.000 C 
HETATM   13  C7  UNL     1     -33.403  15.125  -4.132  1.00 20.00     0.005 C 
ENDBRANCH   5  12
TORSDOF 5
ENDMDL
MODEL 4
REMARK VINA RESULT:      -4.0     11.359     13.328
REMARK  5 active torsions:
REMARK  status: ('A' for Active; 'I' for Inactive)
REMARK    1  A    between atoms: C1_1  and  C5_5 
REMARK    2  A    between atoms: C1_1  and  C9_9 
REMARK    3  A    between atoms: C6_6  and  C10_10 
REMARK    4  A    between atoms: C9_9  and  C12_12 
REMARK    5  A    between atoms: C11_11  and  C12_12 
ROOT
HETATM    1  C2  UNL     1     -34.110  15.607  -6.869  1.00 20.00     0.012 C 
HETATM    2  C3  UNL     1     -35.007  16.668  -7.494  1.00 20.00     0.005 C 
HETATM    3  C4  UNL     1     -36.311  15.622  -5.782  1.00 20.00     0.016 C 
HETATM    4  C5  UNL     1     -35.021  14.808  -5.936  1.00 20.00     0.056 C 
HETATM    5  C6  UNL     1     -36.030  16.991  -6.408  1.00 20.00    -0.014 C 
ENDROOT
BRANCH   4   6
HETATM    6  C1  UNL     1     -34.377  14.581  -4.604  1.00 20.00     0.131 C 
HETATM    7  O13 UNL     1     -34.649  13.606  -3.896  1.00 20.00    -0.298 OA
BRANCH   6   8
HETATM    8  C9  UNL     1     -33.358  15.622  -4.160  1.00 20.00     0.079 C 
BRANCH   8   9
HETATM    9  C12 UNL     1     -33.554  16.063  -2.711  1.00 20.00     0.007 C 
BRANCH   9  10
HETATM   10  C11 UNL     1     -33.116  17.514  -2.508  1.00 20.00    -0.004 C 
HETATM   11  C8  UNL     1     -33.301  17.954  -1.064  1.00 20.00     0.005 C 
ENDBRANCH   9  10
ENDBRANCH   8   9
ENDBRANCH   6   8
ENDBRANCH   4   6
BRANCH   5  12
HETATM   12  C10 UNL     1     -35.500  17.997  -5.389  1.00 20.00     0.000 C 
HETATM   13  C7  UNL     1     -36.425  18.154  -4.223  1.00 20.00     0.005 C 
ENDBRANCH   5  12
TORSDOF 5
ENDMDL
MODEL 5
REMARK VINA RESULT:      -4.0     11.469     14.073
REMARK  5 active torsions:
REMARK  status: ('A' for Active; 'I' for Inactive)
REMARK    1  A    between atoms: C1_1  and  C5_5 
REMARK    2  A    between atoms: C1_1  and  C9_9 
REMARK    3  A    between atoms: C6_6  and  C10_10 
REMARK    4  A    between atoms: C9_9  and  C12_12 
REMARK    5  A    between atoms: C11_11  and  C12_12 
ROOT
HETATM    1  C2  UNL     1     -34.387  16.355  -7.560  1.00 20.00     0.012 C 
HETATM    2  C3  UNL     1     -34.750  17.812  -7.818  1.00 20.00     0.005 C 
HETATM    3  C4  UNL     1     -36.672  16.821  -6.795  1.00 20.00     0.016 C 
HETATM    4  C5  UNL     1     -35.689  15.689  -7.113  1.00 20.00     0.056 C 
HETATM    5  C6  UNL     1     -35.853  18.116  -6.809  1.00 20.00    -0.014 C 
ENDROOT
BRANCH   4   6
HETATM    6  C1  UNL     1     -35.476  14.821  -5.911  1.00 20.00     0.131 C 
HETATM    7  O13 UNL     1     -36.396  14.192  -5.379  1.00 20.00    -0.298 OA
BRANCH   6   8
HETATM    8  C9  UNL     1     -34.053  14.752  -5.372  1.00 20.00     0.079 C 
BRANCH   8   9
HETATM    9  C12 UNL     1     -33.979  14.983  -3.865  1.00 20.00     0.007 C 
BRANCH   9  10
HETATM   10  C11 UNL     1     -33.119  16.202  -3.532  1.00 20.00    -0.004 C 
HETATM   11  C8  UNL     1     -33.478  16.782  -2.173  1.00 20.00     0.005 C 
ENDBRANCH   9  10
ENDBRANCH   8   9
ENDBRANCH   6   8
ENDBRANCH   4   6
BRANCH   5  12
HETATM   12  C10 UNL     1     -35.301  18.467  -5.429  1.00 20.00     0.000 C 
HETATM   13  C7  UNL     1     -36.274  18.149  -4.338  1.00 20.00     0.005 C 
ENDBRANCH   5  12
TORSDOF 5
ENDMDL
MODEL 6
REMARK VINA RESULT:      -3.9     10.033     11.385
REMARK  5 active torsions:
REMARK  status: ('A' for Active; 'I' for Inactive)
REMARK    1  A    between atoms: C1_1  and  C5_5 
REMARK    2  A    between atoms: C1_1  and  C9_9 
REMARK    3  A    between atoms: C6_6  and  C10_10 
REMARK    4  A    between atoms: C9_9  and  C12_12 
REMARK    5  A    between atoms: C11_11  and  C12_12 
ROOT
HETATM    1  C2  UNL     1     -40.397  15.335   7.720  1.00 20.00     0.012 C 
HETATM    2  C3  UNL     1     -40.592  16.181   8.972  1.00 20.00     0.005 C 
HETATM    3  C4  UNL     1     -42.682  15.085   8.579  1.00 20.00     0.016 C 
HETATM    4  C5  UNL     1     -41.790  14.818   7.361  1.00 20.00     0.056 C 
HETATM    5  C6  UNL     1     -41.743  15.506   9.713  1.00 20.00    -0.014 C 
ENDROOT
BRANCH   4   6
HETATM    6  C1  UNL     1     -41.765  13.358   7.033  1.00 20.00     0.131 C 
HETATM    7  O13 UNL     1     -42.345  12.515   7.726  1.00 20.00    -0.298 OA
BRANCH   6   8
HETATM    8  C9  UNL     1     -40.982  12.958   5.790  1.00 20.00     0.079 C 
BRANCH   8   9
HETATM    9  C12 UNL     1     -39.975  11.842   6.057  1.00 20.00     0.007 C 
BRANCH   9  10
HETATM   10  C11 UNL     1     -38.698  12.038   5.240  1.00 20.00    -0.004 C 
HETATM   11  C8  UNL     1     -38.906  11.660   3.782  1.00 20.00     0.005 C 
ENDBRANCH   9  10
ENDBRANCH   8   9
ENDBRANCH   6   8
ENDBRANCH   4   6
BRANCH   5  12
HETATM   12  C10 UNL     1     -41.278  14.319  10.553  1.00 20.00     0.000 C 
HETATM   13  C7  UNL     1     -40.204  14.704  11.521  1.00 20.00     0.005 C 
ENDBRANCH   5  12
TORSDOF 5
ENDMDL
MODEL 7
REMARK VINA RESULT:      -3.8     10.438     11.801
REMARK  5 active torsions:
REMARK  status: ('A' for Active; 'I' for Inactive)
REMARK    1  A    between atoms: C1_1  and  C5_5 
REMARK    2  A    between atoms: C1_1  and  C9_9 
REMARK    3  A    between atoms: C6_6  and  C10_10 
REMARK    4  A    between atoms: C9_9  and  C12_12 
REMARK    5  A    between atoms: C11_11  and  C12_12 
ROOT
HETATM    1  C2  UNL     1     -40.601  14.352  10.127  1.00 20.00     0.012 C 
HETATM    2  C3  UNL     1     -40.639  15.759  10.709  1.00 20.00     0.005 C 
HETATM    3  C4  UNL     1     -40.530  16.027   8.334  1.00 20.00     0.016 C 
HETATM    4  C5  UNL     1     -40.313  14.539   8.637  1.00 20.00     0.056 C 
HETATM    5  C6  UNL     1     -41.190  16.625   9.580  1.00 20.00    -0.014 C 
ENDROOT
BRANCH   4   6
HETATM    6  C1  UNL     1     -41.213  13.691   7.793  1.00 20.00     0.131 C 
HETATM    7  O13 UNL     1     -42.212  13.128   8.253  1.00 20.00    -0.298 OA
BRANCH   6   8
HETATM    8  C9  UNL     1     -40.833  13.556   6.325  1.00 20.00     0.079 C 
BRANCH   8   9
HETATM    9  C12 UNL     1     -40.439  12.131   5.944  1.00 20.00     0.007 C 
BRANCH   9  10
HETATM   10  C11 UNL     1     -39.001  12.071   5.428  1.00 20.00    -0.004 C 
HETATM   11  C8  UNL     1     -38.952  11.688   3.958  1.00 20.00     0.005 C 
ENDBRANCH   9  10
ENDBRANCH   8   9
ENDBRANCH   6   8
ENDBRANCH   4   6
BRANCH   5  12
HETATM   12  C10 UNL     1     -42.715  16.584   9.505  1.00 20.00     0.000 C 
HETATM   13  C7  UNL     1     -43.215  16.828   8.116  1.00 20.00     0.005 C 
ENDBRANCH   5  12
TORSDOF 5
ENDMDL
MODEL 8
REMARK VINA RESULT:      -3.8     11.696     13.239
REMARK  5 active torsions:
REMARK  status: ('A' for Active; 'I' for Inactive)
REMARK    1  A    between atoms: C1_1  and  C5_5 
REMARK    2  A    between atoms: C1_1  and  C9_9 
REMARK    3  A    between atoms: C6_6  and  C10_10 
REMARK    4  A    between atoms: C9_9  and  C12_12 
REMARK    5  A    between atoms: C11_11  and  C12_12 
ROOT
HETATM    1  C2  UNL     1     -36.484  16.650  -5.301  1.00 20.00     0.012 C 
HETATM    2  C3  UNL     1     -36.468  15.155  -5.590  1.00 20.00     0.005 C 
HETATM    3  C4  UNL     1     -34.400  16.015  -6.431  1.00 20.00     0.016 C 
HETATM    4  C5  UNL     1     -35.267  17.216  -6.033  1.00 20.00     0.056 C 
HETATM    5  C6  UNL     1     -34.988  14.803  -5.701  1.00 20.00    -0.014 C 
ENDROOT
BRANCH   4   6
HETATM    6  C1  UNL     1     -34.494  18.160  -5.165  1.00 20.00     0.131 C 
HETATM    7  O13 UNL     1     -33.667  18.954  -5.625  1.00 20.00    -0.298 OA
BRANCH   6   8
HETATM    8  C9  UNL     1     -34.782  18.093  -3.672  1.00 20.00     0.079 C 
BRANCH   8   9
HETATM    9  C12 UNL     1     -33.516  18.144  -2.821  1.00 20.00     0.007 C 
BRANCH   9  10
HETATM   10  C11 UNL     1     -33.594  17.165  -1.649  1.00 20.00    -0.004 C 
HETATM   11  C8  UNL     1     -33.699  17.896  -0.320  1.00 20.00     0.005 C 
ENDBRANCH   9  10
ENDBRANCH   8   9
ENDBRANCH   6   8
ENDBRANCH   4   6
BRANCH   5  12
HETATM   12  C10 UNL     1     -34.338  14.576  -4.338  1.00 20.00     0.000 C 
HETATM   13  C7  UNL     1     -32.859  14.802  -4.378  1.00 20.00     0.005 C 
ENDBRANCH   5  12
TORSDOF 5
ENDMDL
MODEL 9
REMARK VINA RESULT:      -3.8     11.759     13.188
REMARK  5 active torsions:
REMARK  status: ('A' for Active; 'I' for Inactive)
REMARK    1  A    between atoms: C1_1  and  C5_5 
REMARK    2  A    between atoms: C1_1  and  C9_9 
REMARK    3  A    between atoms: C6_6  and  C10_10 
REMARK    4  A    between atoms: C9_9  and  C12_12 
REMARK    5  A    between atoms: C11_11  and  C12_12 
ROOT
HETATM    1  C2  UNL     1     -35.526  18.198  -3.718  1.00 20.00     0.012 C 
HETATM    2  C3  UNL     1     -36.483  18.245  -4.902  1.00 20.00     0.005 C 
HETATM    3  C4  UNL     1     -34.479  17.217  -5.709  1.00 20.00     0.016 C 
HETATM    4  C5  UNL     1     -34.187  17.743  -4.299  1.00 20.00     0.056 C 
HETATM    5  C6  UNL     1     -36.004  17.129  -5.825  1.00 20.00    -0.014 C 
ENDROOT
BRANCH   4   6
HETATM    6  C1  UNL     1     -33.557  16.678  -3.456  1.00 20.00     0.131 C 
HETATM    7  O13 UNL     1     -33.110  15.632  -3.939  1.00 20.00    -0.298 OA
BRANCH   6   8
HETATM    8  C9  UNL     1     -33.495  16.949  -1.960  1.00 20.00     0.079 C 
BRANCH   8   9
HETATM    9  C12 UNL     1     -32.499  18.048  -1.598  1.00 20.00     0.007 C 
BRANCH   9  10
HETATM   10  C11 UNL     1     -32.530  18.356  -0.101  1.00 20.00    -0.004 C 
HETATM   11  C8  UNL     1     -31.135  18.628   0.441  1.00 20.00     0.005 C 
ENDBRANCH   9  10
ENDBRANCH   8   9
ENDBRANCH   6   8
ENDBRANCH   4   6
BRANCH   5  12
HETATM   12  C10 UNL     1     -36.540  15.760  -5.411  1.00 20.00     0.000 C 
HETATM   13  C7  UNL     1     -35.766  14.642  -6.037  1.00 20.00     0.005 C 
ENDBRANCH   5  12
TORSDOF 5
ENDMDL
