MODEL 1
REMARK VINA RESULT:      -4.8      0.000      0.000
REMARK  3 active torsions:
REMARK  status: ('A' for Active; 'I' for Inactive)
REMARK    1  A    between atoms: C3_3  and  C7_7 
REMARK    2  A    between atoms: C3_3  and  C10_10 
REMARK    3  A    between atoms: C8_8  and  C11_11 
ROOT
HETATM    1  C1  UNL     1     -29.055  18.756   3.280  1.00 20.00     0.012 C 
HETATM    2  C2  UNL     1     -30.119  18.669   2.728  1.00 20.00    -0.110 C 
HETATM    3  C10 UNL     1     -31.422  18.559   2.063  1.00 20.00     0.171 C 
ENDROOT
BRANCH   3   4
HETATM    4  C3  UNL     1     -31.339  18.834   0.575  1.00 20.00     0.142 C 
HETATM    5  O12 UNL     1     -30.278  18.850  -0.048  1.00 20.00    -0.297 OA
BRANCH   4   6
HETATM    6  C7  UNL     1     -32.657  19.093  -0.130  1.00 20.00     0.057 C 
HETATM    7  C4  UNL     1     -33.679  18.044   0.310  1.00 20.00     0.013 C 
HETATM    8  C5  UNL     1     -34.132  17.344  -0.968  1.00 20.00     0.005 C 
HETATM    9  C8  UNL     1     -32.934  17.473  -1.901  1.00 20.00    -0.014 C 
HETATM   10  C6  UNL     1     -32.455  18.900  -1.631  1.00 20.00     0.016 C 
BRANCH   9  11
HETATM   11  C11 UNL     1     -33.282  17.225  -3.359  1.00 20.00     0.000 C 
HETATM   12  C9  UNL     1     -33.295  15.766  -3.692  1.00 20.00     0.005 C 
ENDBRANCH   9  11
ENDBRANCH   4   6
ENDBRANCH   3   4
TORSDOF 3
ENDMDL
MODEL 2
REMARK VINA RESULT:      -4.3     11.033     12.828
REMARK  3 active torsions:
REMARK  status: ('A' for Active; 'I' for Inactive)
REMARK    1  A    between atoms: C3_3  and  C7_7 
REMARK    2  A    between atoms: C3_3  and  C10_10 
REMARK    3  A    between atoms: C8_8  and  C11_11 
ROOT
HETATM    1  C1  UNL     1     -38.842  11.627   4.043  1.00 20.00     0.012 C 
HETATM    2  C2  UNL     1     -39.658  11.958   4.861  1.00 20.00    -0.110 C 
HETATM    3  C10 UNL     1     -40.651  12.353   5.865  1.00 20.00     0.171 C 
ENDROOT
BRANCH   3   4
HETATM    4  C3  UNL     1     -41.475  13.548   5.428  1.00 20.00     0.142 C 
HETATM    5  O12 UNL     1     -41.596  13.888   4.252  1.00 20.00    -0.297 OA
BRANCH   4   6
HETATM    6  C7  UNL     1     -42.164  14.325   6.535  1.00 20.00     0.057 C 
HETATM    7  C4  UNL     1     -41.955  15.823   6.305  1.00 20.00     0.013 C 
HETATM    8  C5  UNL     1     -41.262  16.342   7.562  1.00 20.00     0.005 C 
HETATM    9  C8  UNL     1     -40.495  15.133   8.084  1.00 20.00    -0.014 C 
HETATM   10  C6  UNL     1     -41.486  13.990   7.861  1.00 20.00     0.016 C 
BRANCH   9  11
HETATM   11  C11 UNL     1     -40.066  15.278   9.535  1.00 20.00     0.000 C 
HETATM   12  C9  UNL     1     -40.786  14.319  10.430  1.00 20.00     0.005 C 
ENDBRANCH   9  11
ENDBRANCH   4   6
ENDBRANCH   3   4
TORSDOF 3
ENDMDL
MODEL 3
REMARK VINA RESULT:      -4.3      1.895      2.846
REMARK  3 active torsions:
REMARK  status: ('A' for Active; 'I' for Inactive)
REMARK    1  A    between atoms: C3_3  and  C7_7 
REMARK    2  A    between atoms: C3_3  and  C10_10 
REMARK    3  A    between atoms: C8_8  and  C11_11 
ROOT
HETATM    1  C1  UNL     1     -30.840  18.754   1.059  1.00 20.00     0.012 C 
HETATM    2  C2  UNL     1     -32.010  18.544   0.884  1.00 20.00    -0.110 C 
HETATM    3  C10 UNL     1     -33.439  18.283   0.681  1.00 20.00     0.171 C 
ENDROOT
BRANCH   3   4
HETATM    4  C3  UNL     1     -33.873  18.517  -0.753  1.00 20.00     0.142 C 
HETATM    5  O12 UNL     1     -34.951  19.028  -1.054  1.00 20.00    -0.297 OA
BRANCH   4   6
HETATM    6  C7  UNL     1     -32.892  18.083  -1.827  1.00 20.00     0.057 C 
HETATM    7  C4  UNL     1     -32.917  19.099  -2.971  1.00 20.00     0.013 C 
HETATM    8  C5  UNL     1     -33.291  18.306  -4.220  1.00 20.00     0.005 C 
HETATM    9  C8  UNL     1     -34.121  17.146  -3.683  1.00 20.00    -0.014 C 
HETATM   10  C6  UNL     1     -33.364  16.756  -2.413  1.00 20.00     0.016 C 
BRANCH   9  11
HETATM   11  C11 UNL     1     -34.260  16.001  -4.672  1.00 20.00     0.000 C 
HETATM   12  C9  UNL     1     -33.544  14.771  -4.209  1.00 20.00     0.005 C 
ENDBRANCH   9  11
ENDBRANCH   4   6
ENDBRANCH   3   4
TORSDOF 3
ENDMDL
MODEL 4
REMARK VINA RESULT:      -4.3      4.356      6.777
REMARK  3 active torsions:
REMARK  status: ('A' for Active; 'I' for Inactive)
REMARK    1  A    between atoms: C3_3  and  C7_7 
REMARK    2  A    between atoms: C3_3  and  C10_10 
REMARK    3  A    between atoms: C8_8  and  C11_11 
ROOT
HETATM    1  C1  UNL     1     -33.513  16.882  -2.240  1.00 20.00     0.012 C 
HETATM    2  C2  UNL     1     -33.354  16.125  -3.159  1.00 20.00    -0.110 C 
HETATM    3  C10 UNL     1     -33.150  15.205  -4.283  1.00 20.00     0.171 C 
ENDROOT
BRANCH   3   4
HETATM    4  C3  UNL     1     -34.395  14.404  -4.611  1.00 20.00     0.142 C 
HETATM    5  O12 UNL     1     -34.818  13.496  -3.896  1.00 20.00    -0.297 OA
BRANCH   4   6
HETATM    6  C7  UNL     1     -35.115  14.785  -5.891  1.00 20.00     0.057 C 
HETATM    7  C4  UNL     1     -34.239  15.747  -6.695  1.00 20.00     0.013 C 
HETATM    8  C5  UNL     1     -35.073  17.012  -6.878  1.00 20.00     0.005 C 
HETATM    9  C8  UNL     1     -35.993  17.024  -5.664  1.00 20.00    -0.014 C 
HETATM   10  C6  UNL     1     -36.384  15.552  -5.529  1.00 20.00     0.016 C 
BRANCH   9  11
HETATM   11  C11 UNL     1     -37.189  17.947  -5.827  1.00 20.00     0.000 C 
HETATM   12  C9  UNL     1     -38.346  17.255  -6.477  1.00 20.00     0.005 C 
ENDBRANCH   9  11
ENDBRANCH   4   6
ENDBRANCH   3   4
TORSDOF 3
ENDMDL
MODEL 5
REMARK VINA RESULT:      -4.2     11.252     11.888
REMARK  3 active torsions:
REMARK  status: ('A' for Active; 'I' for Inactive)
REMARK    1  A    between atoms: C3_3  and  C7_7 
REMARK    2  A    between atoms: C3_3  and  C10_10 
REMARK    3  A    between atoms: C8_8  and  C11_11 
ROOT
HETATM    1  C1  UNL     1     -34.746   5.048   6.734  1.00 20.00     0.012 C 
HETATM    2  C2  UNL     1     -34.638   5.693   5.726  1.00 20.00    -0.110 C 
HETATM    3  C10 UNL     1     -34.516   6.485   4.498  1.00 20.00     0.171 C 
ENDROOT
BRANCH   3   4
HETATM    4  C3  UNL     1     -33.341   6.051   3.642  1.00 20.00     0.142 C 
HETATM    5  O12 UNL     1     -33.281   4.954   3.089  1.00 20.00    -0.297 OA
BRANCH   4   6
HETATM    6  C7  UNL     1     -32.216   7.059   3.493  1.00 20.00     0.057 C 
HETATM    7  C4  UNL     1     -32.498   8.265   4.391  1.00 20.00     0.013 C 
HETATM    8  C5  UNL     1     -32.534   9.475   3.461  1.00 20.00     0.005 C 
HETATM    9  C8  UNL     1     -32.983   8.897   2.125  1.00 20.00    -0.014 C 
HETATM   10  C6  UNL     1     -32.212   7.578   2.058  1.00 20.00     0.016 C 
BRANCH   9  11
HETATM   11  C11 UNL     1     -32.698   9.817   0.949  1.00 20.00     0.000 C 
HETATM   12  C9  UNL     1     -33.036   9.174  -0.359  1.00 20.00     0.005 C 
ENDBRANCH   9  11
ENDBRANCH   4   6
ENDBRANCH   3   4
TORSDOF 3
ENDMDL
MODEL 6
REMARK VINA RESULT:      -4.1     11.772     12.894
REMARK  3 active torsions:
REMARK  status: ('A' for Active; 'I' for Inactive)
REMARK    1  A    between atoms: C3_3  and  C7_7 
REMARK    2  A    between atoms: C3_3  and  C10_10 
REMARK    3  A    between atoms: C8_8  and  C11_11 
ROOT
HETATM    1  C1  UNL     1     -40.439  14.815  10.977  1.00 20.00     0.012 C 
HETATM    2  C2  UNL     1     -41.413  14.655  10.292  1.00 20.00    -0.110 C 
HETATM    3  C10 UNL     1     -42.607  14.465   9.463  1.00 20.00     0.171 C 
ENDROOT
BRANCH   3   4
HETATM    4  C3  UNL     1     -42.336  13.606   8.243  1.00 20.00     0.142 C 
HETATM    5  O12 UNL     1     -42.759  12.457   8.121  1.00 20.00    -0.297 OA
BRANCH   4   6
HETATM    6  C7  UNL     1     -41.500  14.246   7.150  1.00 20.00     0.057 C 
HETATM    7  C4  UNL     1     -42.152  13.973   5.793  1.00 20.00     0.013 C 
HETATM    8  C5  UNL     1     -41.097  13.243   4.966  1.00 20.00     0.005 C 
HETATM    9  C8  UNL     1     -40.248  12.524   6.007  1.00 20.00    -0.014 C 
HETATM   10  C6  UNL     1     -40.133  13.568   7.119  1.00 20.00     0.016 C 
BRANCH   9  11
HETATM   11  C11 UNL     1     -38.900  12.071   5.472  1.00 20.00     0.000 C 
HETATM   12  C9  UNL     1     -38.975  11.675   4.030  1.00 20.00     0.005 C 
ENDBRANCH   9  11
ENDBRANCH   4   6
ENDBRANCH   3   4
TORSDOF 3
ENDMDL
MODEL 7
REMARK VINA RESULT:      -4.1     11.153     12.267
REMARK  3 active torsions:
REMARK  status: ('A' for Active; 'I' for Inactive)
REMARK    1  A    between atoms: C3_3  and  C7_7 
REMARK    2  A    between atoms: C3_3  and  C10_10 
REMARK    3  A    between atoms: C8_8  and  C11_11 
ROOT
HETATM    1  C1  UNL     1     -33.364   9.566  -0.463  1.00 20.00     0.012 C 
HETATM    2  C2  UNL     1     -32.674   8.977   0.323  1.00 20.00    -0.110 C 
HETATM    3  C10 UNL     1     -31.824   8.254   1.276  1.00 20.00     0.171 C 
ENDROOT
BRANCH   3   4
HETATM    4  C3  UNL     1     -32.364   8.309   2.692  1.00 20.00     0.142 C 
HETATM    5  O12 UNL     1     -32.914   9.303   3.164  1.00 20.00    -0.297 OA
BRANCH   4   6
HETATM    6  C7  UNL     1     -32.191   7.049   3.521  1.00 20.00     0.057 C 
HETATM    7  C4  UNL     1     -32.489   5.828   2.649  1.00 20.00     0.013 C 
HETATM    8  C5  UNL     1     -33.625   5.087   3.349  1.00 20.00     0.005 C 
HETATM    9  C8  UNL     1     -34.371   6.184   4.099  1.00 20.00    -0.014 C 
HETATM   10  C6  UNL     1     -33.232   7.052   4.636  1.00 20.00     0.016 C 
BRANCH   9  11
HETATM   11  C11 UNL     1     -35.281   5.649   5.192  1.00 20.00     0.000 C 
HETATM   12  C9  UNL     1     -34.576   5.547   6.508  1.00 20.00     0.005 C 
ENDBRANCH   9  11
ENDBRANCH   4   6
ENDBRANCH   3   4
TORSDOF 3
ENDMDL
MODEL 8
REMARK VINA RESULT:      -4.1     11.948     13.719
REMARK  3 active torsions:
REMARK  status: ('A' for Active; 'I' for Inactive)
REMARK    1  A    between atoms: C3_3  and  C7_7 
REMARK    2  A    between atoms: C3_3  and  C10_10 
REMARK    3  A    between atoms: C8_8  and  C11_11 
ROOT
HETATM    1  C1  UNL     1     -39.115  11.809   5.139  1.00 20.00     0.012 C 
HETATM    2  C2  UNL     1     -40.053  12.546   5.279  1.00 20.00    -0.110 C 
HETATM    3  C10 UNL     1     -41.197  13.450   5.441  1.00 20.00     0.171 C 
ENDROOT
BRANCH   3   4
HETATM    4  C3  UNL     1     -41.913  13.249   6.762  1.00 20.00     0.142 C 
HETATM    5  O12 UNL     1     -42.301  12.150   7.156  1.00 20.00    -0.297 OA
BRANCH   4   6
HETATM    6  C7  UNL     1     -42.134  14.497   7.598  1.00 20.00     0.057 C 
HETATM    7  C4  UNL     1     -41.013  15.498   7.314  1.00 20.00     0.013 C 
HETATM    8  C5  UNL     1     -40.349  15.769   8.661  1.00 20.00     0.005 C 
HETATM    9  C8  UNL     1     -40.583  14.487   9.450  1.00 20.00    -0.014 C 
HETATM   10  C6  UNL     1     -42.020  14.123   9.073  1.00 20.00     0.016 C 
BRANCH   9  11
HETATM   11  C11 UNL     1     -40.383  14.660  10.946  1.00 20.00     0.000 C 
HETATM   12  C9  UNL     1     -41.350  13.838  11.739  1.00 20.00     0.005 C 
ENDBRANCH   9  11
ENDBRANCH   4   6
ENDBRANCH   3   4
TORSDOF 3
ENDMDL
MODEL 9
REMARK VINA RESULT:      -4.1      4.128      7.572
REMARK  3 active torsions:
REMARK  status: ('A' for Active; 'I' for Inactive)
REMARK    1  A    between atoms: C3_3  and  C7_7 
REMARK    2  A    between atoms: C3_3  and  C10_10 
REMARK    3  A    between atoms: C8_8  and  C11_11 
ROOT
HETATM    1  C1  UNL     1     -39.336  15.896  -4.359  1.00 20.00     0.012 C 
HETATM    2  C2  UNL     1     -38.307  16.248  -4.869  1.00 20.00    -0.110 C 
HETATM    3  C10 UNL     1     -37.055  16.688  -5.495  1.00 20.00     0.171 C 
ENDROOT
BRANCH   3   4
HETATM    4  C3  UNL     1     -36.051  15.561  -5.638  1.00 20.00     0.142 C 
HETATM    5  O12 UNL     1     -36.375  14.377  -5.713  1.00 20.00    -0.297 OA
BRANCH   4   6
HETATM    6  C7  UNL     1     -34.590  15.972  -5.688  1.00 20.00     0.057 C 
HETATM    7  C4  UNL     1     -33.719  14.787  -5.267  1.00 20.00     0.013 C 
HETATM    8  C5  UNL     1     -32.913  15.271  -4.065  1.00 20.00     0.005 C 
HETATM    9  C8  UNL     1     -33.799  16.338  -3.434  1.00 20.00    -0.014 C 
HETATM   10  C6  UNL     1     -34.356  17.071  -4.655  1.00 20.00     0.016 C 
BRANCH   9  11
HETATM   11  C11 UNL     1     -33.049  17.251  -2.479  1.00 20.00     0.000 C 
HETATM   12  C9  UNL     1     -33.745  17.376  -1.160  1.00 20.00     0.005 C 
ENDBRANCH   9  11
ENDBRANCH   4   6
ENDBRANCH   3   4
TORSDOF 3
ENDMDL
