MODEL 1
REMARK VINA RESULT:      -4.1      0.000      0.000
REMARK  0 active torsions:
REMARK  status: ('A' for Active; 'I' for Inactive)
ROOT
HETATM    1  C1  UNL     1     -42.684   5.078  -0.906  1.00 20.00     0.071 C 
HETATM    2  C2  UNL     1     -41.348   8.354  -0.459  1.00 20.00     0.034 C 
HETATM    3  C3  UNL     1     -42.836   8.008  -0.418  1.00 20.00     0.036 C 
HETATM    4  C4  UNL     1     -40.740   6.046   0.340  1.00 20.00     0.058 C 
HETATM    5  C5  UNL     1     -40.801   7.531   0.706  1.00 20.00     0.123 C 
HETATM    6  C6  UNL     1     -42.901   6.985   0.719  1.00 20.00     0.144 C 
HETATM    7  C7  UNL     1     -42.229   5.636   0.378  1.00 20.00     0.074 C 
HETATM    8  C8  UNL     1     -42.480   4.609   1.490  1.00 20.00     0.034 C 
HETATM    9  N9  UNL     1     -43.042   4.638  -1.918  1.00 20.00    -0.196 NA
HETATM   10  O10 UNL     1     -41.918   7.557   1.624  1.00 20.00    -0.379 OA
ENDROOT
TORSDOF 0
ENDMDL
MODEL 2
REMARK VINA RESULT:      -3.7     11.676     13.066
REMARK  0 active torsions:
REMARK  status: ('A' for Active; 'I' for Inactive)
ROOT
HETATM    1  C1  UNL     1     -35.251  14.019  -4.647  1.00 20.00     0.071 C 
HETATM    2  C2  UNL     1     -36.039  16.152  -7.395  1.00 20.00     0.034 C 
HETATM    3  C3  UNL     1     -36.628  16.287  -5.991  1.00 20.00     0.036 C 
HETATM    4  C4  UNL     1     -33.935  15.129  -6.466  1.00 20.00     0.058 C 
HETATM    5  C5  UNL     1     -34.549  16.362  -7.134  1.00 20.00     0.123 C 
HETATM    6  C6  UNL     1     -35.376  16.484  -5.131  1.00 20.00     0.144 C 
HETATM    7  C7  UNL     1     -34.492  15.221  -5.028  1.00 20.00     0.074 C 
HETATM    8  C8  UNL     1     -33.355  15.438  -4.020  1.00 20.00     0.034 C 
HETATM    9  N9  UNL     1     -35.849  13.072  -4.348  1.00 20.00    -0.196 NA
HETATM   10  O10 UNL     1     -34.581  17.300  -6.034  1.00 20.00    -0.379 OA
ENDROOT
TORSDOF 0
ENDMDL
MODEL 3
REMARK VINA RESULT:      -3.5      1.804      3.163
REMARK  0 active torsions:
REMARK  status: ('A' for Active; 'I' for Inactive)
ROOT
HETATM    1  C1  UNL     1     -42.763   8.169  -0.147  1.00 20.00     0.071 C 
HETATM    2  C2  UNL     1     -43.417   4.680   0.193  1.00 20.00     0.034 C 
HETATM    3  C3  UNL     1     -42.569   5.302  -0.916  1.00 20.00     0.036 C 
HETATM    4  C4  UNL     1     -42.823   6.554   1.765  1.00 20.00     0.058 C 
HETATM    5  C5  UNL     1     -42.633   5.068   1.444  1.00 20.00     0.123 C 
HETATM    6  C6  UNL     1     -41.468   6.013  -0.124  1.00 20.00     0.144 C 
HETATM    7  C7  UNL     1     -41.971   7.238   0.673  1.00 20.00     0.074 C 
HETATM    8  C8  UNL     1     -40.793   7.995   1.301  1.00 20.00     0.034 C 
HETATM    9  N9  UNL     1     -43.387   8.903  -0.793  1.00 20.00    -0.196 NA
HETATM   10  O10 UNL     1     -41.275   5.051   0.949  1.00 20.00    -0.379 OA
ENDROOT
TORSDOF 0
ENDMDL
MODEL 4
REMARK VINA RESULT:      -3.5      8.959      9.794
REMARK  0 active torsions:
REMARK  status: ('A' for Active; 'I' for Inactive)
ROOT
HETATM    1  C1  UNL     1     -41.563  13.935   4.557  1.00 20.00     0.071 C 
HETATM    2  C2  UNL     1     -42.771  14.911   7.767  1.00 20.00     0.034 C 
HETATM    3  C3  UNL     1     -43.417  13.848   6.881  1.00 20.00     0.036 C 
HETATM    4  C4  UNL     1     -40.509  14.435   6.772  1.00 20.00     0.058 C 
HETATM    5  C5  UNL     1     -41.388  14.314   8.020  1.00 20.00     0.123 C 
HETATM    6  C6  UNL     1     -42.280  12.838   6.703  1.00 20.00     0.144 C 
HETATM    7  C7  UNL     1     -41.114  13.365   5.837  1.00 20.00     0.074 C 
HETATM    8  C8  UNL     1     -40.097  12.249   5.562  1.00 20.00     0.034 C 
HETATM    9  N9  UNL     1     -41.918  14.386   3.548  1.00 20.00    -0.196 NA
HETATM   10  O10 UNL     1     -41.685  12.900   8.028  1.00 20.00    -0.379 OA
ENDROOT
TORSDOF 0
ENDMDL
MODEL 5
REMARK VINA RESULT:      -3.4     19.021     19.688
REMARK  0 active torsions:
REMARK  status: ('A' for Active; 'I' for Inactive)
ROOT
HETATM    1  C1  UNL     1     -30.262  -2.688  11.523  1.00 20.00     0.071 C 
HETATM    2  C2  UNL     1     -27.659  -0.501  10.444  1.00 20.00     0.034 C 
HETATM    3  C3  UNL     1     -28.115  -0.662  11.894  1.00 20.00     0.036 C 
HETATM    4  C4  UNL     1     -28.351  -2.862   9.914  1.00 20.00     0.058 C 
HETATM    5  C5  UNL     1     -27.169  -1.909  10.110  1.00 20.00     0.123 C 
HETATM    6  C6  UNL     1     -27.884  -2.155  12.144  1.00 20.00     0.144 C 
HETATM    7  C7  UNL     1     -28.850  -3.071  11.361  1.00 20.00     0.074 C 
HETATM    8  C8  UNL     1     -28.673  -4.534  11.788  1.00 20.00     0.034 C 
HETATM    9  N9  UNL     1     -31.374  -2.385  11.650  1.00 20.00    -0.196 NA
HETATM   10  O10 UNL     1     -26.656  -2.345  11.389  1.00 20.00    -0.379 OA
ENDROOT
TORSDOF 0
ENDMDL
MODEL 6
REMARK VINA RESULT:      -3.3     12.098     13.171
REMARK  0 active torsions:
REMARK  status: ('A' for Active; 'I' for Inactive)
ROOT
HETATM    1  C1  UNL     1     -33.664  16.079  -3.252  1.00 20.00     0.071 C 
HETATM    2  C2  UNL     1     -36.440  15.815  -5.476  1.00 20.00     0.034 C 
HETATM    3  C3  UNL     1     -35.289  16.808  -5.635  1.00 20.00     0.036 C 
HETATM    4  C4  UNL     1     -34.934  14.186  -4.287  1.00 20.00     0.058 C 
HETATM    5  C5  UNL     1     -35.716  14.474  -5.572  1.00 20.00     0.123 C 
HETATM    6  C6  UNL     1     -34.072  15.882  -5.726  1.00 20.00     0.144 C 
HETATM    7  C7  UNL     1     -33.742  15.161  -4.400  1.00 20.00     0.074 C 
HETATM    8  C8  UNL     1     -32.421  14.390  -4.518  1.00 20.00     0.034 C 
HETATM    9  N9  UNL     1     -33.604  16.803  -2.347  1.00 20.00    -0.196 NA
HETATM   10  O10 UNL     1     -34.648  14.791  -6.494  1.00 20.00    -0.379 OA
ENDROOT
TORSDOF 0
ENDMDL
MODEL 7
REMARK VINA RESULT:      -3.3      9.497     10.459
REMARK  0 active torsions:
REMARK  status: ('A' for Active; 'I' for Inactive)
ROOT
HETATM    1  C1  UNL     1     -40.155  12.539   6.326  1.00 20.00     0.071 C 
HETATM    2  C2  UNL     1     -41.668  14.013   9.199  1.00 20.00     0.034 C 
HETATM    3  C3  UNL     1     -40.417  14.549   8.503  1.00 20.00     0.036 C 
HETATM    4  C4  UNL     1     -42.504  13.024   7.042  1.00 20.00     0.058 C 
HETATM    5  C5  UNL     1     -42.715  14.118   8.093  1.00 20.00     0.123 C 
HETATM    6  C6  UNL     1     -40.924  14.811   7.082  1.00 20.00     0.144 C 
HETATM    7  C7  UNL     1     -41.249  13.523   6.293  1.00 20.00     0.074 C 
HETATM    8  C8  UNL     1     -41.585  13.853   4.833  1.00 20.00     0.034 C 
HETATM    9  N9  UNL     1     -39.292  11.764   6.353  1.00 20.00    -0.196 NA
HETATM   10  O10 UNL     1     -42.263  15.292   7.381  1.00 20.00    -0.379 OA
ENDROOT
TORSDOF 0
ENDMDL
MODEL 8
REMARK VINA RESULT:      -3.3      1.875      2.612
REMARK  0 active torsions:
REMARK  status: ('A' for Active; 'I' for Inactive)
ROOT
HETATM    1  C1  UNL     1     -43.021   5.727   1.476  1.00 20.00     0.071 C 
HETATM    2  C2  UNL     1     -40.799   8.365   0.570  1.00 20.00     0.034 C 
HETATM    3  C3  UNL     1     -40.358   6.995   1.082  1.00 20.00     0.036 C 
HETATM    4  C4  UNL     1     -42.902   7.381  -0.400  1.00 20.00     0.058 C 
HETATM    5  C5  UNL     1     -41.537   7.999  -0.716  1.00 20.00     0.123 C 
HETATM    6  C6  UNL     1     -40.975   6.048   0.048  1.00 20.00     0.144 C 
HETATM    7  C7  UNL     1     -42.517   5.977   0.116  1.00 20.00     0.074 C 
HETATM    8  C8  UNL     1     -43.050   4.889  -0.826  1.00 20.00     0.034 C 
HETATM    9  N9  UNL     1     -43.417   5.531   2.548  1.00 20.00    -0.196 NA
HETATM   10  O10 UNL     1     -40.791   6.842  -1.155  1.00 20.00    -0.379 OA
ENDROOT
TORSDOF 0
ENDMDL
MODEL 9
REMARK VINA RESULT:      -3.2     12.044     13.480
REMARK  0 active torsions:
REMARK  status: ('A' for Active; 'I' for Inactive)
ROOT
HETATM    1  C1  UNL     1     -36.339  17.309  -5.028  1.00 20.00     0.071 C 
HETATM    2  C2  UNL     1     -34.896  14.107  -4.409  1.00 20.00     0.034 C 
HETATM    3  C3  UNL     1     -35.895  14.409  -5.524  1.00 20.00     0.036 C 
HETATM    4  C4  UNL     1     -34.047  16.476  -4.461  1.00 20.00     0.058 C 
HETATM    5  C5  UNL     1     -33.724  15.014  -4.780  1.00 20.00     0.123 C 
HETATM    6  C6  UNL     1     -35.171  15.497  -6.323  1.00 20.00     0.144 C 
HETATM    7  C7  UNL     1     -35.054  16.842  -5.573  1.00 20.00     0.074 C 
HETATM    8  C8  UNL     1     -34.474  17.926  -6.493  1.00 20.00     0.034 C 
HETATM    9  N9  UNL     1     -37.352  17.676  -4.599  1.00 20.00    -0.196 NA
HETATM   10  O10 UNL     1     -33.805  15.009  -6.223  1.00 20.00    -0.379 OA
ENDROOT
TORSDOF 0
ENDMDL
