MODEL 1
REMARK VINA RESULT:      -4.2      0.000      0.000
REMARK  2 active torsions:
REMARK  status: ('A' for Active; 'I' for Inactive)
REMARK    1  A    between atoms: C5_5  and  C8_8 
REMARK    2  A    between atoms: C8_8  and  C9_9 
ROOT
HETATM    1  C1  UNL     1     -35.249  14.069  -4.635  1.00 20.00     0.068 C 
HETATM    2  C6  UNL     1     -35.497  16.492  -4.991  1.00 20.00     0.031 C 
HETATM    3  C7  UNL     1     -34.001  15.132  -6.455  1.00 20.00     0.031 C 
HETATM    4  C9  UNL     1     -34.522  15.304  -5.014  1.00 20.00     0.046 C 
HETATM    5  N10 UNL     1     -35.821  13.102  -4.343  1.00 20.00    -0.196 NA
ENDROOT
BRANCH   4   6
HETATM    6  C8  UNL     1     -33.301  15.535  -4.082  1.00 20.00     0.062 C 
BRANCH   6   7
HETATM    7  C5  UNL     1     -33.344  16.769  -3.207  1.00 20.00    -0.050 A 
HETATM    8  C2  UNL     1     -33.660  16.747  -1.819  1.00 20.00     0.014 A 
HETATM    9  C3  UNL     1     -33.628  18.007  -1.262  1.00 20.00     0.050 A 
HETATM   10  S11 UNL     1     -33.220  19.208  -2.411  1.00 20.00    -0.113 SA
HETATM   11  C4  UNL     1     -33.083  18.043  -3.660  1.00 20.00     0.056 A 
ENDBRANCH   6   7
ENDBRANCH   4   6
TORSDOF 2
ENDMDL
MODEL 2
REMARK VINA RESULT:      -4.2      3.083      4.905
REMARK  2 active torsions:
REMARK  status: ('A' for Active; 'I' for Inactive)
REMARK    1  A    between atoms: C5_5  and  C8_8 
REMARK    2  A    between atoms: C8_8  and  C9_9 
ROOT
HETATM    1  C1  UNL     1     -31.780  18.548  -1.007  1.00 20.00     0.068 C 
HETATM    2  C6  UNL     1     -32.702  19.043  -3.234  1.00 20.00     0.031 C 
HETATM    3  C7  UNL     1     -34.143  19.168  -1.200  1.00 20.00     0.031 C 
HETATM    4  C9  UNL     1     -32.980  18.404  -1.865  1.00 20.00     0.046 C 
HETATM    5  N10 UNL     1     -30.842  18.667  -0.334  1.00 20.00    -0.196 NA
ENDROOT
BRANCH   4   6
HETATM    6  C8  UNL     1     -33.392  16.911  -1.993  1.00 20.00     0.062 C 
BRANCH   6   7
HETATM    7  C5  UNL     1     -33.779  16.434  -3.375  1.00 20.00    -0.050 A 
HETATM    8  C2  UNL     1     -33.223  15.283  -4.004  1.00 20.00     0.014 A 
HETATM    9  C3  UNL     1     -33.750  15.074  -5.260  1.00 20.00     0.050 A 
HETATM   10  S11 UNL     1     -34.909  16.263  -5.676  1.00 20.00    -0.113 SA
HETATM   11  C4  UNL     1     -34.709  17.062  -4.174  1.00 20.00     0.056 A 
ENDBRANCH   6   7
ENDBRANCH   4   6
TORSDOF 2
ENDMDL
MODEL 3
REMARK VINA RESULT:      -3.8      1.441      2.065
REMARK  2 active torsions:
REMARK  status: ('A' for Active; 'I' for Inactive)
REMARK    1  A    between atoms: C5_5  and  C8_8 
REMARK    2  A    between atoms: C8_8  and  C9_9 
ROOT
HETATM    1  C1  UNL     1     -33.908  15.189  -6.407  1.00 20.00     0.068 C 
HETATM    2  C6  UNL     1     -32.666  14.994  -4.291  1.00 20.00     0.031 C 
HETATM    3  C7  UNL     1     -35.011  14.159  -4.478  1.00 20.00     0.031 C 
HETATM    4  C9  UNL     1     -34.036  15.264  -4.933  1.00 20.00     0.046 C 
HETATM    5  N10 UNL     1     -33.807  15.124  -7.562  1.00 20.00    -0.196 NA
ENDROOT
BRANCH   4   6
HETATM    6  C8  UNL     1     -34.622  16.636  -4.498  1.00 20.00     0.062 C 
BRANCH   6   7
HETATM    7  C5  UNL     1     -33.869  17.378  -3.416  1.00 20.00    -0.050 A 
HETATM    8  C2  UNL     1     -33.690  16.885  -2.092  1.00 20.00     0.014 A 
HETATM    9  C3  UNL     1     -32.967  17.758  -1.308  1.00 20.00     0.050 A 
HETATM   10  S11 UNL     1     -32.510  19.166  -2.169  1.00 20.00    -0.113 SA
HETATM   11  C4  UNL     1     -33.279  18.610  -3.595  1.00 20.00     0.056 A 
ENDBRANCH   6   7
ENDBRANCH   4   6
TORSDOF 2
ENDMDL
MODEL 4
REMARK VINA RESULT:      -3.8      2.850      3.937
REMARK  2 active torsions:
REMARK  status: ('A' for Active; 'I' for Inactive)
REMARK    1  A    between atoms: C5_5  and  C8_8 
REMARK    2  A    between atoms: C8_8  and  C9_9 
ROOT
HETATM    1  C1  UNL     1     -35.204  18.627  -2.572  1.00 20.00     0.068 C 
HETATM    2  C6  UNL     1     -32.994  19.080  -3.556  1.00 20.00     0.031 C 
HETATM    3  C7  UNL     1     -34.259  17.013  -4.153  1.00 20.00     0.031 C 
HETATM    4  C9  UNL     1     -33.937  17.996  -3.010  1.00 20.00     0.046 C 
HETATM    5  N10 UNL     1     -36.197  19.122  -2.234  1.00 20.00    -0.196 NA
ENDROOT
BRANCH   4   6
HETATM    6  C8  UNL     1     -33.288  17.192  -1.849  1.00 20.00     0.062 C 
BRANCH   6   7
HETATM    7  C5  UNL     1     -32.769  17.998  -0.678  1.00 20.00    -0.050 A 
HETATM    8  C2  UNL     1     -31.434  18.485  -0.579  1.00 20.00     0.014 A 
HETATM    9  C3  UNL     1     -31.225  19.188   0.588  1.00 20.00     0.050 A 
HETATM   10  S11 UNL     1     -32.634  19.256   1.558  1.00 20.00    -0.113 SA
HETATM   11  C4  UNL     1     -33.530  18.345   0.416  1.00 20.00     0.056 A 
ENDBRANCH   6   7
ENDBRANCH   4   6
TORSDOF 2
ENDMDL
MODEL 5
REMARK VINA RESULT:      -3.7      2.098      3.006
REMARK  2 active torsions:
REMARK  status: ('A' for Active; 'I' for Inactive)
REMARK    1  A    between atoms: C5_5  and  C8_8 
REMARK    2  A    between atoms: C8_8  and  C9_9 
ROOT
HETATM    1  C1  UNL     1     -34.514  16.898  -4.576  1.00 20.00     0.068 C 
HETATM    2  C6  UNL     1     -35.347  18.545  -2.948  1.00 20.00     0.031 C 
HETATM    3  C7  UNL     1     -33.130  18.851  -4.054  1.00 20.00     0.031 C 
HETATM    4  C9  UNL     1     -34.108  17.806  -3.478  1.00 20.00     0.046 C 
HETATM    5  N10 UNL     1     -34.833  16.192  -5.440  1.00 20.00    -0.196 NA
ENDROOT
BRANCH   4   6
HETATM    6  C8  UNL     1     -33.373  17.022  -2.355  1.00 20.00     0.062 C 
BRANCH   6   7
HETATM    7  C5  UNL     1     -32.966  17.817  -1.134  1.00 20.00    -0.050 A 
HETATM    8  C2  UNL     1     -33.794  17.992   0.012  1.00 20.00     0.014 A 
HETATM    9  C3  UNL     1     -33.181  18.758   0.980  1.00 20.00     0.050 A 
HETATM   10  S11 UNL     1     -31.616  19.263   0.505  1.00 20.00    -0.113 SA
HETATM   11  C4  UNL     1     -31.753  18.456  -1.000  1.00 20.00     0.056 A 
ENDBRANCH   6   7
ENDBRANCH   4   6
TORSDOF 2
ENDMDL
MODEL 6
REMARK VINA RESULT:      -3.7      1.305      1.829
REMARK  2 active torsions:
REMARK  status: ('A' for Active; 'I' for Inactive)
REMARK    1  A    between atoms: C5_5  and  C8_8 
REMARK    2  A    between atoms: C8_8  and  C9_9 
ROOT
HETATM    1  C1  UNL     1     -35.393  16.498  -4.912  1.00 20.00     0.068 C 
HETATM    2  C6  UNL     1     -33.962  15.212  -6.448  1.00 20.00     0.031 C 
HETATM    3  C7  UNL     1     -35.166  14.082  -4.576  1.00 20.00     0.031 C 
HETATM    4  C9  UNL     1     -34.432  15.373  -4.993  1.00 20.00     0.046 C 
HETATM    5  N10 UNL     1     -36.149  17.376  -4.852  1.00 20.00    -0.196 NA
ENDROOT
BRANCH   4   6
HETATM    6  C8  UNL     1     -33.242  15.590  -4.018  1.00 20.00     0.062 C 
BRANCH   6   7
HETATM    7  C5  UNL     1     -33.301  16.825  -3.147  1.00 20.00    -0.050 A 
HETATM    8  C2  UNL     1     -33.688  16.813  -1.776  1.00 20.00     0.014 A 
HETATM    9  C3  UNL     1     -33.655  18.072  -1.218  1.00 20.00     0.050 A 
HETATM   10  S11 UNL     1     -33.161  19.262  -2.346  1.00 20.00    -0.113 SA
HETATM   11  C4  UNL     1     -32.988  18.093  -3.586  1.00 20.00     0.056 A 
ENDBRANCH   6   7
ENDBRANCH   4   6
TORSDOF 2
ENDMDL
MODEL 7
REMARK VINA RESULT:      -3.6      3.541      4.994
REMARK  2 active torsions:
REMARK  status: ('A' for Active; 'I' for Inactive)
REMARK    1  A    between atoms: C5_5  and  C8_8 
REMARK    2  A    between atoms: C8_8  and  C9_9 
ROOT
HETATM    1  C1  UNL     1     -31.755  18.406  -0.839  1.00 20.00     0.068 C 
HETATM    2  C6  UNL     1     -34.125  18.428  -0.178  1.00 20.00     0.031 C 
HETATM    3  C7  UNL     1     -33.296  16.829  -1.906  1.00 20.00     0.031 C 
HETATM    4  C9  UNL     1     -33.140  18.257  -1.344  1.00 20.00     0.046 C 
HETATM    5  N10 UNL     1     -30.671  18.518  -0.440  1.00 20.00    -0.196 NA
ENDROOT
BRANCH   4   6
HETATM    6  C8  UNL     1     -33.420  19.263  -2.495  1.00 20.00     0.062 C 
BRANCH   6   7
HETATM    7  C5  UNL     1     -34.417  18.826  -3.545  1.00 20.00    -0.050 A 
HETATM    8  C2  UNL     1     -34.052  18.355  -4.840  1.00 20.00     0.014 A 
HETATM    9  C3  UNL     1     -35.153  18.023  -5.598  1.00 20.00     0.050 A 
HETATM   10  S11 UNL     1     -36.619  18.281  -4.751  1.00 20.00    -0.113 SA
HETATM   11  C4  UNL     1     -35.782  18.837  -3.364  1.00 20.00     0.056 A 
ENDBRANCH   6   7
ENDBRANCH   4   6
TORSDOF 2
ENDMDL
MODEL 8
REMARK VINA RESULT:      -3.5      1.818      2.295
REMARK  2 active torsions:
REMARK  status: ('A' for Active; 'I' for Inactive)
REMARK    1  A    between atoms: C5_5  and  C8_8 
REMARK    2  A    between atoms: C8_8  and  C9_9 
ROOT
HETATM    1  C1  UNL     1     -36.968  16.220  -5.447  1.00 20.00     0.068 C 
HETATM    2  C6  UNL     1     -35.869  15.180  -7.388  1.00 20.00     0.031 C 
HETATM    3  C7  UNL     1     -35.547  14.256  -5.091  1.00 20.00     0.031 C 
HETATM    4  C9  UNL     1     -35.726  15.555  -5.904  1.00 20.00     0.046 C 
HETATM    5  N10 UNL     1     -37.943  16.737  -5.089  1.00 20.00    -0.196 NA
ENDROOT
BRANCH   4   6
HETATM    6  C8  UNL     1     -34.488  16.459  -5.650  1.00 20.00     0.062 C 
BRANCH   6   7
HETATM    7  C5  UNL     1     -34.265  16.912  -4.224  1.00 20.00    -0.050 A 
HETATM    8  C2  UNL     1     -33.455  16.211  -3.285  1.00 20.00     0.014 A 
HETATM    9  C3  UNL     1     -33.423  16.840  -2.059  1.00 20.00     0.050 A 
HETATM   10  S11 UNL     1     -34.367  18.268  -2.044  1.00 20.00    -0.113 SA
HETATM   11  C4  UNL     1     -34.822  18.049  -3.681  1.00 20.00     0.056 A 
ENDBRANCH   6   7
ENDBRANCH   4   6
TORSDOF 2
ENDMDL
MODEL 9
REMARK VINA RESULT:      -3.4     12.540     13.575
REMARK  2 active torsions:
REMARK  status: ('A' for Active; 'I' for Inactive)
REMARK    1  A    between atoms: C5_5  and  C8_8 
REMARK    2  A    between atoms: C8_8  and  C9_9 
ROOT
HETATM    1  C1  UNL     1     -42.057  12.509   6.800  1.00 20.00     0.068 C 
HETATM    2  C6  UNL     1     -41.652  13.920   4.826  1.00 20.00     0.031 C 
HETATM    3  C7  UNL     1     -40.131  12.017   5.369  1.00 20.00     0.031 C 
HETATM    4  C9  UNL     1     -40.999  13.138   5.976  1.00 20.00     0.046 C 
HETATM    5  N10 UNL     1     -42.887  12.012   7.442  1.00 20.00    -0.196 NA
ENDROOT
BRANCH   4   6
HETATM    6  C8  UNL     1     -40.083  14.042   6.847  1.00 20.00     0.062 C 
BRANCH   6   7
HETATM    7  C5  UNL     1     -40.750  14.778   7.988  1.00 20.00    -0.050 A 
HETATM    8  C2  UNL     1     -40.558  14.454   9.362  1.00 20.00     0.014 A 
HETATM    9  C3  UNL     1     -41.282  15.280  10.194  1.00 20.00     0.050 A 
HETATM   10  S11 UNL     1     -42.190  16.438   9.318  1.00 20.00    -0.113 SA
HETATM   11  C4  UNL     1     -41.614  15.837   7.821  1.00 20.00     0.056 A 
ENDBRANCH   6   7
ENDBRANCH   4   6
TORSDOF 2
ENDMDL
