MODEL 1
REMARK VINA RESULT:      -4.7      0.000      0.000
REMARK  1 active torsions:
REMARK  status: ('A' for Active; 'I' for Inactive)
REMARK    1  A    between atoms: C5_5  and  C9_9 
ROOT
HETATM    1  C1  UNL     1     -32.512   7.743   4.399  1.00 20.00     0.069 C 
HETATM    2  C2  UNL     1     -34.509   5.553   6.388  1.00 20.00     0.006 C 
HETATM    3  C3  UNL     1     -33.454   6.655   6.418  1.00 20.00     0.024 C 
HETATM    4  C4  UNL     1     -34.804   6.784   4.366  1.00 20.00     0.029 C 
HETATM    5  C5  UNL     1     -34.815   5.351   4.907  1.00 20.00    -0.013 C 
HETATM    6  C6  UNL     1     -33.744   7.550   5.193  1.00 20.00     0.046 C 
HETATM    7  C7  UNL     1     -34.277   8.922   5.621  1.00 20.00     0.031 C 
HETATM    8  N10 UNL     1     -31.546   7.895   3.775  1.00 20.00    -0.196 NA
ENDROOT
BRANCH   5   9
HETATM    9  C9  UNL     1     -33.797   4.449   4.214  1.00 20.00     0.000 C 
HETATM   10  C8  UNL     1     -33.448   4.947   2.848  1.00 20.00     0.005 C 
ENDBRANCH   5   9
TORSDOF 1
ENDMDL
MODEL 2
REMARK VINA RESULT:      -4.4      1.661      3.145
REMARK  1 active torsions:
REMARK  status: ('A' for Active; 'I' for Inactive)
REMARK    1  A    between atoms: C5_5  and  C9_9 
ROOT
HETATM    1  C1  UNL     1     -32.735   6.153   2.862  1.00 20.00     0.069 C 
HETATM    2  C2  UNL     1     -32.256   8.773   5.237  1.00 20.00     0.006 C 
HETATM    3  C3  UNL     1     -31.615   7.988   4.097  1.00 20.00     0.024 C 
HETATM    4  C4  UNL     1     -34.067   7.970   3.908  1.00 20.00     0.029 C 
HETATM    5  C5  UNL     1     -33.659   8.190   5.368  1.00 20.00    -0.013 C 
HETATM    6  C6  UNL     1     -32.771   7.603   3.148  1.00 20.00     0.046 C 
HETATM    7  C7  UNL     1     -32.681   8.371   1.824  1.00 20.00     0.031 C 
HETATM    8  N10 UNL     1     -32.707   5.015   2.637  1.00 20.00    -0.196 NA
ENDROOT
BRANCH   5   9
HETATM    9  C9  UNL     1     -33.685   6.902   6.189  1.00 20.00     0.000 C 
HETATM   10  C8  UNL     1     -34.812   6.005   5.786  1.00 20.00     0.005 C 
ENDBRANCH   5   9
TORSDOF 1
ENDMDL
MODEL 3
REMARK VINA RESULT:      -3.9      8.683     10.286
REMARK  1 active torsions:
REMARK  status: ('A' for Active; 'I' for Inactive)
REMARK    1  A    between atoms: C5_5  and  C9_9 
ROOT
HETATM    1  C1  UNL     1     -41.953  14.145   4.507  1.00 20.00     0.069 C 
HETATM    2  C2  UNL     1     -40.139  13.767   7.556  1.00 20.00     0.006 C 
HETATM    3  C3  UNL     1     -40.992  14.715   6.720  1.00 20.00     0.024 C 
HETATM    4  C4  UNL     1     -41.499  12.369   6.183  1.00 20.00     0.029 C 
HETATM    5  C5  UNL     1     -40.076  12.480   6.740  1.00 20.00    -0.013 C 
HETATM    6  C6  UNL     1     -41.985  13.818   5.948  1.00 20.00     0.046 C 
HETATM    7  C7  UNL     1     -43.417  14.002   6.466  1.00 20.00     0.031 C 
HETATM    8  N10 UNL     1     -41.929  14.400   3.375  1.00 20.00    -0.196 NA
ENDROOT
BRANCH   5   9
HETATM    9  C9  UNL     1     -39.015  12.531   5.644  1.00 20.00     0.000 C 
HETATM   10  C8  UNL     1     -39.327  11.594   4.520  1.00 20.00     0.005 C 
ENDBRANCH   5   9
TORSDOF 1
ENDMDL
MODEL 4
REMARK VINA RESULT:      -3.7      9.519     11.158
REMARK  1 active torsions:
REMARK  status: ('A' for Active; 'I' for Inactive)
REMARK    1  A    between atoms: C5_5  and  C9_9 
ROOT
HETATM    1  C1  UNL     1     -43.052  12.788   8.212  1.00 20.00     0.069 C 
HETATM    2  C2  UNL     1     -41.748  14.044   5.136  1.00 20.00     0.006 C 
HETATM    3  C3  UNL     1     -43.016  13.803   5.950  1.00 20.00     0.024 C 
HETATM    4  C4  UNL     1     -41.058  14.041   7.420  1.00 20.00     0.029 C 
HETATM    5  C5  UNL     1     -40.614  13.561   6.035  1.00 20.00    -0.013 C 
HETATM    6  C6  UNL     1     -42.603  13.960   7.430  1.00 20.00     0.046 C 
HETATM    7  C7  UNL     1     -43.209  15.227   8.044  1.00 20.00     0.031 C 
HETATM    8  N10 UNL     1     -43.404  11.869   8.827  1.00 20.00    -0.196 NA
ENDROOT
BRANCH   5   9
HETATM    9  C9  UNL     1     -40.415  12.049   5.968  1.00 20.00     0.000 C 
HETATM   10  C8  UNL     1     -39.446  11.658   4.897  1.00 20.00     0.005 C 
ENDBRANCH   5   9
TORSDOF 1
ENDMDL
MODEL 5
REMARK VINA RESULT:      -3.6      9.357     10.933
REMARK  1 active torsions:
REMARK  status: ('A' for Active; 'I' for Inactive)
REMARK    1  A    between atoms: C5_5  and  C9_9 
ROOT
HETATM    1  C1  UNL     1     -40.775  15.036   8.594  1.00 20.00     0.069 C 
HETATM    2  C2  UNL     1     -42.528  12.503   6.790  1.00 20.00     0.006 C 
HETATM    3  C3  UNL     1     -42.454  13.278   8.102  1.00 20.00     0.024 C 
HETATM    4  C4  UNL     1     -41.480  14.579   6.256  1.00 20.00     0.029 C 
HETATM    5  C5  UNL     1     -41.406  13.083   5.934  1.00 20.00    -0.013 C 
HETATM    6  C6  UNL     1     -41.924  14.682   7.734  1.00 20.00     0.046 C 
HETATM    7  C7  UNL     1     -43.014  15.747   7.900  1.00 20.00     0.031 C 
HETATM    8  N10 UNL     1     -39.873  15.315   9.268  1.00 20.00    -0.196 NA
ENDROOT
BRANCH   5   9
HETATM    9  C9  UNL     1     -40.044  12.475   6.261  1.00 20.00     0.000 C 
HETATM   10  C8  UNL     1     -39.420  11.827   5.066  1.00 20.00     0.005 C 
ENDBRANCH   5   9
TORSDOF 1
ENDMDL
MODEL 6
REMARK VINA RESULT:      -3.6     12.755     14.173
REMARK  1 active torsions:
REMARK  status: ('A' for Active; 'I' for Inactive)
REMARK    1  A    between atoms: C5_5  and  C9_9 
ROOT
HETATM    1  C1  UNL     1     -35.871  18.165  -4.130  1.00 20.00     0.069 C 
HETATM    2  C2  UNL     1     -33.196  15.833  -3.752  1.00 20.00     0.006 C 
HETATM    3  C3  UNL     1     -34.517  16.114  -4.460  1.00 20.00     0.024 C 
HETATM    4  C4  UNL     1     -33.409  18.209  -3.802  1.00 20.00     0.029 C 
HETATM    5  C5  UNL     1     -32.948  17.067  -2.890  1.00 20.00    -0.013 C 
HETATM    6  C6  UNL     1     -34.583  17.647  -4.638  1.00 20.00     0.046 C 
HETATM    7  C7  UNL     1     -34.437  18.041  -6.112  1.00 20.00     0.031 C 
HETATM    8  N10 UNL     1     -36.881  18.573  -3.732  1.00 20.00    -0.196 NA
ENDROOT
BRANCH   5   9
HETATM    9  C9  UNL     1     -33.711  17.022  -1.568  1.00 20.00     0.000 C 
HETATM   10  C8  UNL     1     -33.284  18.116  -0.640  1.00 20.00     0.005 C 
ENDBRANCH   5   9
TORSDOF 1
ENDMDL
MODEL 7
REMARK VINA RESULT:      -3.5     12.713     14.003
REMARK  1 active torsions:
REMARK  status: ('A' for Active; 'I' for Inactive)
REMARK    1  A    between atoms: C5_5  and  C9_9 
ROOT
HETATM    1  C1  UNL     1     -36.226  16.106  -5.395  1.00 20.00     0.069 C 
HETATM    2  C2  UNL     1     -33.062  15.628  -3.815  1.00 20.00     0.006 C 
HETATM    3  C3  UNL     1     -34.231  14.933  -4.506  1.00 20.00     0.024 C 
HETATM    4  C4  UNL     1     -34.038  17.272  -5.242  1.00 20.00     0.029 C 
HETATM    5  C5  UNL     1     -33.418  17.111  -3.850  1.00 20.00    -0.013 C 
HETATM    6  C6  UNL     1     -34.765  15.941  -5.547  1.00 20.00     0.046 C 
HETATM    7  C7  UNL     1     -34.465  15.475  -6.976  1.00 20.00     0.031 C 
HETATM    8  N10 UNL     1     -37.373  16.236  -5.277  1.00 20.00    -0.196 NA
ENDROOT
BRANCH   5   9
HETATM    9  C9  UNL     1     -34.371  17.513  -2.728  1.00 20.00     0.000 C 
HETATM   10  C8  UNL     1     -33.740  17.368  -1.379  1.00 20.00     0.005 C 
ENDBRANCH   5   9
TORSDOF 1
ENDMDL
MODEL 8
REMARK VINA RESULT:      -3.5      9.593     11.547
REMARK  1 active torsions:
REMARK  status: ('A' for Active; 'I' for Inactive)
REMARK    1  A    between atoms: C5_5  and  C9_9 
ROOT
HETATM    1  C1  UNL     1     -41.551  13.783   4.748  1.00 20.00     0.069 C 
HETATM    2  C2  UNL     1     -42.468  13.412   8.177  1.00 20.00     0.006 C 
HETATM    3  C3  UNL     1     -42.513  12.768   6.795  1.00 20.00     0.024 C 
HETATM    4  C4  UNL     1     -40.607  14.309   6.985  1.00 20.00     0.029 C 
HETATM    5  C5  UNL     1     -41.706  14.717   7.971  1.00 20.00    -0.013 C 
HETATM    6  C6  UNL     1     -41.224  13.221   6.076  1.00 20.00     0.046 C 
HETATM    7  C7  UNL     1     -40.251  12.051   5.892  1.00 20.00     0.031 C 
HETATM    8  N10 UNL     1     -41.807  14.224   3.706  1.00 20.00    -0.196 NA
ENDROOT
BRANCH   5   9
HETATM    9  C9  UNL     1     -42.595  15.837   7.436  1.00 20.00     0.000 C 
HETATM   10  C8  UNL     1     -41.797  16.912   6.767  1.00 20.00     0.005 C 
ENDBRANCH   5   9
TORSDOF 1
ENDMDL
MODEL 9
REMARK VINA RESULT:      -3.4     13.357     14.454
REMARK  1 active torsions:
REMARK  status: ('A' for Active; 'I' for Inactive)
REMARK    1  A    between atoms: C5_5  and  C9_9 
ROOT
HETATM    1  C1  UNL     1     -35.367  14.132  -4.765  1.00 20.00     0.069 C 
HETATM    2  C2  UNL     1     -34.802  17.307  -6.292  1.00 20.00     0.006 C 
HETATM    3  C3  UNL     1     -35.075  16.584  -4.977  1.00 20.00     0.024 C 
HETATM    4  C4  UNL     1     -33.982  15.087  -6.592  1.00 20.00     0.029 C 
HETATM    5  C5  UNL     1     -34.731  16.198  -7.336  1.00 20.00    -0.013 C 
HETATM    6  C6  UNL     1     -34.404  15.200  -5.109  1.00 20.00     0.046 C 
HETATM    7  C7  UNL     1     -33.185  15.083  -4.187  1.00 20.00     0.031 C 
HETATM    8  N10 UNL     1     -36.121  13.292  -4.495  1.00 20.00    -0.196 NA
ENDROOT
BRANCH   5   9
HETATM    9  C9  UNL     1     -36.111  15.758  -7.820  1.00 20.00     0.000 C 
HETATM   10  C8  UNL     1     -37.062  16.909  -7.917  1.00 20.00     0.005 C 
ENDBRANCH   5   9
TORSDOF 1
ENDMDL
