MODEL 1
REMARK VINA RESULT:      -4.3      0.000      0.000
REMARK  5 active torsions:
REMARK  status: ('A' for Active; 'I' for Inactive)
REMARK    1  A    between atoms: C1_1  and  C6_6 
REMARK    2  A    between atoms: C1_1  and  C10_10 
REMARK    3  A    between atoms: C7_7  and  C11_11 
REMARK    4  A    between atoms: C10_10  and  C13_13 
REMARK    5  A    between atoms: C12_12  and  C13_13 
ROOT
HETATM    1  C2  UNL     1     -33.734   6.081   6.622  1.00 20.00     0.001 C 
HETATM    2  C3  UNL     1     -34.219   7.501   6.337  1.00 20.00     0.012 C 
HETATM    3  C4  UNL     1     -34.491   5.052   5.788  1.00 20.00     0.005 C 
HETATM    4  C5  UNL     1     -34.846   6.784   3.970  1.00 20.00     0.016 C 
HETATM    5  C6  UNL     1     -34.206   7.854   4.854  1.00 20.00     0.056 C 
HETATM    6  C7  UNL     1     -34.424   5.337   4.283  1.00 20.00    -0.014 C 
ENDROOT
BRANCH   5   7
HETATM    7  C1  UNL     1     -32.797   8.155   4.372  1.00 20.00     0.131 C 
HETATM    8  O14 UNL     1     -31.855   8.334   5.153  1.00 20.00    -0.298 OA
BRANCH   7   9
HETATM    9  C10 UNL     1     -32.600   8.223   2.865  1.00 20.00     0.079 C 
BRANCH   9  10
HETATM   10  C13 UNL     1     -32.928   9.598   2.286  1.00 20.00     0.007 C 
BRANCH  10  11
HETATM   11  C12 UNL     1     -32.864   9.587   0.759  1.00 20.00    -0.004 C 
HETATM   12  C9  UNL     1     -32.118   8.369   0.240  1.00 20.00     0.005 C 
ENDBRANCH  10  11
ENDBRANCH   9  10
ENDBRANCH   7   9
ENDBRANCH   5   7
BRANCH   6  13
HETATM   13  C11 UNL     1     -33.054   4.985   3.700  1.00 20.00     0.000 C 
HETATM   14  C8  UNL     1     -33.082   4.946   2.208  1.00 20.00     0.005 C 
ENDBRANCH   6  13
TORSDOF 5
ENDMDL
MODEL 2
REMARK VINA RESULT:      -4.0     10.294     11.788
REMARK  5 active torsions:
REMARK  status: ('A' for Active; 'I' for Inactive)
REMARK    1  A    between atoms: C1_1  and  C6_6 
REMARK    2  A    between atoms: C1_1  and  C10_10 
REMARK    3  A    between atoms: C7_7  and  C11_11 
REMARK    4  A    between atoms: C10_10  and  C13_13 
REMARK    5  A    between atoms: C12_12  and  C13_13 
ROOT
HETATM    1  C2  UNL     1     -42.128  15.276  10.237  1.00 20.00     0.001 C 
HETATM    2  C3  UNL     1     -40.879  14.431   9.993  1.00 20.00     0.012 C 
HETATM    3  C4  UNL     1     -41.948  16.703   9.730  1.00 20.00     0.005 C 
HETATM    4  C5  UNL     1     -40.335  15.870   7.958  1.00 20.00     0.016 C 
HETATM    5  C6  UNL     1     -40.407  14.461   8.544  1.00 20.00     0.056 C 
HETATM    6  C7  UNL     1     -41.554  16.765   8.249  1.00 20.00    -0.014 C 
ENDROOT
BRANCH   5   7
HETATM    7  C1  UNL     1     -41.273  13.575   7.664  1.00 20.00     0.131 C 
HETATM    8  O14 UNL     1     -42.290  13.012   8.090  1.00 20.00    -0.298 OA
BRANCH   7   9
HETATM    9  C10 UNL     1     -40.825  13.413   6.219  1.00 20.00     0.079 C 
BRANCH   9  10
HETATM   10  C13 UNL     1     -40.304  12.011   5.914  1.00 20.00     0.007 C 
BRANCH  10  11
HETATM   11  C12 UNL     1     -38.898  12.059   5.315  1.00 20.00    -0.004 C 
HETATM   12  C9  UNL     1     -38.901  11.651   3.851  1.00 20.00     0.005 C 
ENDBRANCH  10  11
ENDBRANCH   9  10
ENDBRANCH   7   9
ENDBRANCH   5   7
BRANCH   6  13
HETATM   13  C11 UNL     1     -42.741  16.456   7.334  1.00 20.00     0.000 C 
HETATM   14  C8  UNL     1     -42.433  16.769   5.907  1.00 20.00     0.005 C 
ENDBRANCH   6  13
TORSDOF 5
ENDMDL
MODEL 3
REMARK VINA RESULT:      -4.0     11.467     14.111
REMARK  5 active torsions:
REMARK  status: ('A' for Active; 'I' for Inactive)
REMARK    1  A    between atoms: C1_1  and  C6_6 
REMARK    2  A    between atoms: C1_1  and  C10_10 
REMARK    3  A    between atoms: C7_7  and  C11_11 
REMARK    4  A    between atoms: C10_10  and  C13_13 
REMARK    5  A    between atoms: C12_12  and  C13_13 
ROOT
HETATM    1  C2  UNL     1     -34.404  17.647  -6.989  1.00 20.00     0.001 C 
HETATM    2  C3  UNL     1     -34.657  16.359  -7.770  1.00 20.00     0.012 C 
HETATM    3  C4  UNL     1     -35.659  18.511  -6.912  1.00 20.00     0.005 C 
HETATM    4  C5  UNL     1     -37.102  16.430  -7.044  1.00 20.00     0.016 C 
HETATM    5  C6  UNL     1     -35.856  15.571  -7.256  1.00 20.00     0.056 C 
HETATM    6  C7  UNL     1     -36.862  17.767  -6.319  1.00 20.00    -0.014 C 
ENDROOT
BRANCH   5   7
HETATM    7  C1  UNL     1     -35.517  14.822  -5.978  1.00 20.00     0.131 C 
HETATM    8  O14 UNL     1     -36.376  14.237  -5.307  1.00 20.00    -0.298 OA
BRANCH   7   9
HETATM    9  C10 UNL     1     -34.054  14.824  -5.562  1.00 20.00     0.079 C 
BRANCH   9  10
HETATM   10  C13 UNL     1     -33.867  14.999  -4.056  1.00 20.00     0.007 C 
BRANCH  10  11
HETATM   11  C12 UNL     1     -33.344  16.395  -3.719  1.00 20.00    -0.004 C 
HETATM   12  C9  UNL     1     -33.504  16.709  -2.241  1.00 20.00     0.005 C 
ENDBRANCH  10  11
ENDBRANCH   9  10
ENDBRANCH   7   9
ENDBRANCH   5   7
BRANCH   6  13
HETATM   13  C11 UNL     1     -36.733  17.598  -4.804  1.00 20.00     0.000 C 
HETATM   14  C8  UNL     1     -36.390  18.887  -4.133  1.00 20.00     0.005 C 
ENDBRANCH   6  13
TORSDOF 5
ENDMDL
MODEL 4
REMARK VINA RESULT:      -3.9     10.458     12.071
REMARK  5 active torsions:
REMARK  status: ('A' for Active; 'I' for Inactive)
REMARK    1  A    between atoms: C1_1  and  C6_6 
REMARK    2  A    between atoms: C1_1  and  C10_10 
REMARK    3  A    between atoms: C7_7  and  C11_11 
REMARK    4  A    between atoms: C10_10  and  C13_13 
REMARK    5  A    between atoms: C12_12  and  C13_13 
ROOT
HETATM    1  C2  UNL     1     -41.093  16.677   7.034  1.00 20.00     0.001 C 
HETATM    2  C3  UNL     1     -42.470  16.114   6.690  1.00 20.00     0.012 C 
HETATM    3  C4  UNL     1     -41.040  17.193   8.468  1.00 20.00     0.005 C 
HETATM    4  C5  UNL     1     -42.804  15.500   9.144  1.00 20.00     0.016 C 
HETATM    5  C6  UNL     1     -42.958  15.068   7.687  1.00 20.00     0.056 C 
HETATM    6  C7  UNL     1     -41.447  16.134   9.501  1.00 20.00    -0.014 C 
ENDROOT
BRANCH   5   7
HETATM    7  C1  UNL     1     -42.270  13.732   7.464  1.00 20.00     0.131 C 
HETATM    8  O14 UNL     1     -42.320  12.817   8.295  1.00 20.00    -0.298 OA
BRANCH   7   9
HETATM    9  C10 UNL     1     -41.512  13.572   6.155  1.00 20.00     0.079 C 
BRANCH   9  10
HETATM   10  C13 UNL     1     -40.068  13.118   6.358  1.00 20.00     0.007 C 
BRANCH  10  11
HETATM   11  C12 UNL     1     -39.843  11.713   5.802  1.00 20.00    -0.004 C 
HETATM   12  C9  UNL     1     -39.181  11.753   4.434  1.00 20.00     0.005 C 
ENDBRANCH  10  11
ENDBRANCH   9  10
ENDBRANCH   7   9
ENDBRANCH   5   7
BRANCH   6  13
HETATM   13  C11 UNL     1     -40.346  15.090   9.704  1.00 20.00     0.000 C 
HETATM   14  C8  UNL     1     -40.563  14.296  10.949  1.00 20.00     0.005 C 
ENDBRANCH   6  13
TORSDOF 5
ENDMDL
MODEL 5
REMARK VINA RESULT:      -3.8     10.327     11.853
REMARK  5 active torsions:
REMARK  status: ('A' for Active; 'I' for Inactive)
REMARK    1  A    between atoms: C1_1  and  C6_6 
REMARK    2  A    between atoms: C1_1  and  C10_10 
REMARK    3  A    between atoms: C7_7  and  C11_11 
REMARK    4  A    between atoms: C10_10  and  C13_13 
REMARK    5  A    between atoms: C12_12  and  C13_13 
ROOT
HETATM    1  C2  UNL     1     -42.814  15.534   5.793  1.00 20.00     0.001 C 
HETATM    2  C3  UNL     1     -43.100  14.229   6.533  1.00 20.00     0.012 C 
HETATM    3  C4  UNL     1     -43.038  16.748   6.690  1.00 20.00     0.005 C 
HETATM    4  C5  UNL     1     -42.438  15.357   8.723  1.00 20.00     0.016 C 
HETATM    5  C6  UNL     1     -42.342  14.107   7.849  1.00 20.00     0.056 C 
HETATM    6  C7  UNL     1     -42.221  16.691   7.987  1.00 20.00    -0.014 C 
ENDROOT
BRANCH   5   7
HETATM    7  C1  UNL     1     -40.884  13.746   7.615  1.00 20.00     0.131 C 
HETATM    8  O14 UNL     1     -40.045  13.763   8.523  1.00 20.00    -0.298 OA
BRANCH   7   9
HETATM    9  C10 UNL     1     -40.505  13.356   6.194  1.00 20.00     0.079 C 
BRANCH   9  10
HETATM   10  C13 UNL     1     -39.863  11.973   6.110  1.00 20.00     0.007 C 
BRANCH  10  11
HETATM   11  C12 UNL     1     -38.619  11.991   5.223  1.00 20.00    -0.004 C 
HETATM   12  C9  UNL     1     -38.955  11.640   3.783  1.00 20.00     0.005 C 
ENDBRANCH  10  11
ENDBRANCH   9  10
ENDBRANCH   7   9
ENDBRANCH   5   7
BRANCH   6  13
HETATM   13  C11 UNL     1     -40.741  16.991   7.737  1.00 20.00     0.000 C 
HETATM   14  C8  UNL     1     -40.556  18.276   7.000  1.00 20.00     0.005 C 
ENDBRANCH   6  13
TORSDOF 5
ENDMDL
MODEL 6
REMARK VINA RESULT:      -3.7     11.579     13.266
REMARK  5 active torsions:
REMARK  status: ('A' for Active; 'I' for Inactive)
REMARK    1  A    between atoms: C1_1  and  C6_6 
REMARK    2  A    between atoms: C1_1  and  C10_10 
REMARK    3  A    between atoms: C7_7  and  C11_11 
REMARK    4  A    between atoms: C10_10  and  C13_13 
REMARK    5  A    between atoms: C12_12  and  C13_13 
ROOT
HETATM    1  C2  UNL     1     -37.021  15.535  -5.386  1.00 20.00     0.001 C 
HETATM    2  C3  UNL     1     -36.864  16.865  -6.120  1.00 20.00     0.012 C 
HETATM    3  C4  UNL     1     -35.985  14.515  -5.847  1.00 20.00     0.005 C 
HETATM    4  C5  UNL     1     -34.370  16.395  -6.384  1.00 20.00     0.016 C 
HETATM    5  C6  UNL     1     -35.448  17.426  -6.051  1.00 20.00     0.056 C 
HETATM    6  C7  UNL     1     -34.544  15.022  -5.709  1.00 20.00    -0.014 C 
ENDROOT
BRANCH   5   7
HETATM    7  C1  UNL     1     -35.169  18.052  -4.695  1.00 20.00     0.131 C 
HETATM    8  O14 UNL     1     -36.040  18.157  -3.823  1.00 20.00    -0.298 OA
BRANCH   7   9
HETATM    9  C10 UNL     1     -33.749  18.546  -4.459  1.00 20.00     0.079 C 
BRANCH   9  10
HETATM   10  C13 UNL     1     -33.552  19.138  -3.065  1.00 20.00     0.007 C 
BRANCH  10  11
HETATM   11  C12 UNL     1     -32.751  18.193  -2.169  1.00 20.00    -0.004 C 
HETATM   12  C9  UNL     1     -33.663  17.333  -1.309  1.00 20.00     0.005 C 
ENDBRANCH  10  11
ENDBRANCH   9  10
ENDBRANCH   7   9
ENDBRANCH   5   7
BRANCH   6  13
HETATM   13  C11 UNL     1     -34.080  15.021  -4.251  1.00 20.00     0.000 C 
HETATM   14  C8  UNL     1     -32.591  15.028  -4.146  1.00 20.00     0.005 C 
ENDBRANCH   6  13
TORSDOF 5
ENDMDL
MODEL 7
REMARK VINA RESULT:      -3.6     11.524     13.280
REMARK  5 active torsions:
REMARK  status: ('A' for Active; 'I' for Inactive)
REMARK    1  A    between atoms: C1_1  and  C6_6 
REMARK    2  A    between atoms: C1_1  and  C10_10 
REMARK    3  A    between atoms: C7_7  and  C11_11 
REMARK    4  A    between atoms: C10_10  and  C13_13 
REMARK    5  A    between atoms: C12_12  and  C13_13 
ROOT
HETATM    1  C2  UNL     1     -37.205  16.815  -5.346  1.00 20.00     0.001 C 
HETATM    2  C3  UNL     1     -36.598  18.210  -5.477  1.00 20.00     0.012 C 
HETATM    3  C4  UNL     1     -36.457  15.794  -6.197  1.00 20.00     0.005 C 
HETATM    4  C5  UNL     1     -34.327  17.147  -5.949  1.00 20.00     0.016 C 
HETATM    5  C6  UNL     1     -35.098  18.239  -5.209  1.00 20.00     0.056 C 
HETATM    6  C7  UNL     1     -34.956  15.744  -5.888  1.00 20.00    -0.014 C 
ENDROOT
BRANCH   5   7
HETATM    7  C1  UNL     1     -34.803  18.167  -3.720  1.00 20.00     0.131 C 
HETATM    8  O14 UNL     1     -35.699  18.186  -2.867  1.00 20.00    -0.298 OA
BRANCH   7   9
HETATM    9  C10 UNL     1     -33.337  18.066  -3.325  1.00 20.00     0.079 C 
BRANCH   9  10
HETATM   10  C13 UNL     1     -33.125  17.284  -2.030  1.00 20.00     0.007 C 
BRANCH  10  11
HETATM   11  C12 UNL     1     -32.941  18.223  -0.838  1.00 20.00    -0.004 C 
HETATM   12  C9  UNL     1     -31.471  18.442  -0.521  1.00 20.00     0.005 C 
ENDBRANCH  10  11
ENDBRANCH   9  10
ENDBRANCH   7   9
ENDBRANCH   5   7
BRANCH   6  13
HETATM   13  C11 UNL     1     -34.675  15.030  -4.564  1.00 20.00     0.000 C 
HETATM   14  C8  UNL     1     -33.267  14.538  -4.490  1.00 20.00     0.005 C 
ENDBRANCH   6  13
TORSDOF 5
ENDMDL
MODEL 8
REMARK VINA RESULT:      -3.6     11.684     13.839
REMARK  5 active torsions:
REMARK  status: ('A' for Active; 'I' for Inactive)
REMARK    1  A    between atoms: C1_1  and  C6_6 
REMARK    2  A    between atoms: C1_1  and  C10_10 
REMARK    3  A    between atoms: C7_7  and  C11_11 
REMARK    4  A    between atoms: C10_10  and  C13_13 
REMARK    5  A    between atoms: C12_12  and  C13_13 
ROOT
HETATM    1  C2  UNL     1     -36.076  17.912  -4.930  1.00 20.00     0.001 C 
HETATM    2  C3  UNL     1     -35.593  17.897  -6.379  1.00 20.00     0.012 C 
HETATM    3  C4  UNL     1     -37.598  17.965  -4.847  1.00 20.00     0.005 C 
HETATM    4  C5  UNL     1     -37.763  16.743  -7.063  1.00 20.00     0.016 C 
HETATM    5  C6  UNL     1     -36.244  16.804  -7.218  1.00 20.00     0.056 C 
HETATM    6  C7  UNL     1     -38.279  16.825  -5.614  1.00 20.00    -0.014 C 
ENDROOT
BRANCH   5   7
HETATM    7  C1  UNL     1     -35.636  15.444  -6.919  1.00 20.00     0.131 C 
HETATM    8  O14 UNL     1     -36.204  14.386  -7.215  1.00 20.00    -0.298 OA
BRANCH   7   9
HETATM    9  C10 UNL     1     -34.277  15.447  -6.234  1.00 20.00     0.079 C 
BRANCH   9  10
HETATM   10  C13 UNL     1     -34.288  14.715  -4.894  1.00 20.00     0.007 C 
BRANCH  10  11
HETATM   11  C12 UNL     1     -33.070  15.085  -4.049  1.00 20.00    -0.004 C 
HETATM   12  C9  UNL     1     -33.374  16.239  -3.108  1.00 20.00     0.005 C 
ENDBRANCH  10  11
ENDBRANCH   9  10
ENDBRANCH   7   9
ENDBRANCH   5   7
BRANCH   6  13
HETATM   13  C11 UNL     1     -38.160  15.492  -4.872  1.00 20.00     0.000 C 
HETATM   14  C8  UNL     1     -39.408  15.166  -4.121  1.00 20.00     0.005 C 
ENDBRANCH   6  13
TORSDOF 5
ENDMDL
MODEL 9
REMARK VINA RESULT:      -3.6     11.569     13.170
REMARK  5 active torsions:
REMARK  status: ('A' for Active; 'I' for Inactive)
REMARK    1  A    between atoms: C1_1  and  C6_6 
REMARK    2  A    between atoms: C1_1  and  C10_10 
REMARK    3  A    between atoms: C7_7  and  C11_11 
REMARK    4  A    between atoms: C10_10  and  C13_13 
REMARK    5  A    between atoms: C12_12  and  C13_13 
ROOT
HETATM    1  C2  UNL     1     -34.656  15.895  -7.433  1.00 20.00     0.001 C 
HETATM    2  C3  UNL     1     -33.563  15.196  -6.627  1.00 20.00     0.012 C 
HETATM    3  C4  UNL     1     -35.995  15.177  -7.301  1.00 20.00     0.005 C 
HETATM    4  C5  UNL     1     -35.336  14.366  -4.991  1.00 20.00     0.016 C 
HETATM    5  C6  UNL     1     -33.943  14.969  -5.169  1.00 20.00     0.056 C 
HETATM    6  C7  UNL     1     -36.443  15.010  -5.844  1.00 20.00    -0.014 C 
ENDROOT
BRANCH   5   7
HETATM    7  C1  UNL     1     -33.824  16.252  -4.363  1.00 20.00     0.131 C 
HETATM    8  O14 UNL     1     -33.911  17.371  -4.884  1.00 20.00    -0.298 OA
BRANCH   7   9
HETATM    9  C10 UNL     1     -33.593  16.092  -2.868  1.00 20.00     0.079 C 
BRANCH   9  10
HETATM   10  C13 UNL     1     -33.051  17.361  -2.212  1.00 20.00     0.007 C 
BRANCH  10  11
HETATM   11  C12 UNL     1     -34.092  18.000  -1.295  1.00 20.00    -0.004 C 
HETATM   12  C9  UNL     1     -33.585  18.109   0.134  1.00 20.00     0.005 C 
ENDBRANCH  10  11
ENDBRANCH   9  10
ENDBRANCH   7   9
ENDBRANCH   5   7
BRANCH   6  13
HETATM   13  C11 UNL     1     -36.950  16.328  -5.253  1.00 20.00     0.000 C 
HETATM   14  C8  UNL     1     -38.017  16.938  -6.099  1.00 20.00     0.005 C 
ENDBRANCH   6  13
TORSDOF 5
ENDMDL
