MODEL 1
REMARK VINA RESULT:      -5.1      0.000      0.000
REMARK  3 active torsions:
REMARK  status: ('A' for Active; 'I' for Inactive)
REMARK    1  A    between atoms: C1_1  and  C5_5 
REMARK    2  A    between atoms: C1_1  and  C9_9 
REMARK    3  A    between atoms: C6_6  and  C10_10 
ROOT
HETATM    1  C2  UNL     1     -32.936   5.736   2.920  1.00 20.00     0.012 C 
HETATM    2  C3  UNL     1     -33.822   4.754   3.683  1.00 20.00     0.005 C 
HETATM    3  C4  UNL     1     -34.344   7.063   4.307  1.00 20.00     0.016 C 
HETATM    4  C5  UNL     1     -32.900   6.969   3.815  1.00 20.00     0.056 C 
HETATM    5  C6  UNL     1     -34.773   5.614   4.516  1.00 20.00    -0.014 C 
ENDROOT
BRANCH   4   6
HETATM    6  C1  UNL     1     -32.431   8.220   3.091  1.00 20.00     0.130 C 
HETATM    7  O11 UNL     1     -32.268   9.278   3.695  1.00 20.00    -0.298 OA
BRANCH   6   8
HETATM    8  C9  UNL     1     -32.184   8.074   1.601  1.00 20.00     0.074 C 
HETATM    9  C7  UNL     1     -32.667   9.274   0.808  1.00 20.00     0.013 C 
ENDBRANCH   6   8
ENDBRANCH   4   6
BRANCH   5  10
HETATM   10  C10 UNL     1     -34.608   5.264   5.984  1.00 20.00     0.000 C 
HETATM   11  C8  UNL     1     -34.365   6.479   6.825  1.00 20.00     0.005 C 
ENDBRANCH   5  10
TORSDOF 3
ENDMDL
MODEL 2
REMARK VINA RESULT:      -5.0      1.215      1.652
REMARK  3 active torsions:
REMARK  status: ('A' for Active; 'I' for Inactive)
REMARK    1  A    between atoms: C1_1  and  C5_5 
REMARK    2  A    between atoms: C1_1  and  C9_9 
REMARK    3  A    between atoms: C6_6  and  C10_10 
ROOT
HETATM    1  C2  UNL     1     -33.015   5.272   2.953  1.00 20.00     0.012 C 
HETATM    2  C3  UNL     1     -33.907   4.417   3.848  1.00 20.00     0.005 C 
HETATM    3  C4  UNL     1     -34.354   6.799   4.195  1.00 20.00     0.016 C 
HETATM    4  C5  UNL     1     -32.925   6.604   3.688  1.00 20.00     0.056 C 
HETATM    5  C6  UNL     1     -34.815   5.399   4.590  1.00 20.00    -0.014 C 
ENDROOT
BRANCH   4   6
HETATM    6  C1  UNL     1     -32.442   7.743   2.806  1.00 20.00     0.130 C 
HETATM    7  O11 UNL     1     -32.073   7.537   1.651  1.00 20.00    -0.298 OA
BRANCH   6   8
HETATM    8  C9  UNL     1     -32.446   9.123   3.437  1.00 20.00     0.074 C 
HETATM    9  C7  UNL     1     -32.159   9.086   4.927  1.00 20.00     0.013 C 
ENDBRANCH   6   8
ENDBRANCH   4   6
BRANCH   5  10
HETATM   10  C10 UNL     1     -34.624   5.227   6.085  1.00 20.00     0.000 C 
HETATM   11  C8  UNL     1     -34.372   6.534   6.773  1.00 20.00     0.005 C 
ENDBRANCH   5  10
TORSDOF 3
ENDMDL
MODEL 3
REMARK VINA RESULT:      -4.5     11.283     12.556
REMARK  3 active torsions:
REMARK  status: ('A' for Active; 'I' for Inactive)
REMARK    1  A    between atoms: C1_1  and  C5_5 
REMARK    2  A    between atoms: C1_1  and  C9_9 
REMARK    3  A    between atoms: C6_6  and  C10_10 
ROOT
HETATM    1  C2  UNL     1     -32.720  19.066  -2.457  1.00 20.00     0.012 C 
HETATM    2  C3  UNL     1     -33.161  18.285  -3.692  1.00 20.00     0.005 C 
HETATM    3  C4  UNL     1     -33.608  17.010  -1.649  1.00 20.00     0.016 C 
HETATM    4  C5  UNL     1     -32.456  17.987  -1.414  1.00 20.00     0.056 C 
HETATM    5  C6  UNL     1     -33.796  16.998  -3.164  1.00 20.00    -0.014 C 
ENDROOT
BRANCH   4   6
HETATM    6  C1  UNL     1     -32.408  18.526   0.005  1.00 20.00     0.130 C 
HETATM    7  O11 UNL     1     -33.430  18.614   0.684  1.00 20.00    -0.298 OA
BRANCH   6   8
HETATM    8  C9  UNL     1     -31.041  18.940   0.516  1.00 20.00     0.074 C 
HETATM    9  C7  UNL     1     -30.712  18.334   1.867  1.00 20.00     0.013 C 
ENDBRANCH   6   8
ENDBRANCH   4   6
BRANCH   5  10
HETATM   10  C10 UNL     1     -33.058  15.803  -3.737  1.00 20.00     0.000 C 
HETATM   11  C8  UNL     1     -33.991  14.696  -4.117  1.00 20.00     0.005 C 
ENDBRANCH   5  10
TORSDOF 3
ENDMDL
MODEL 4
REMARK VINA RESULT:      -4.5     11.345     12.357
REMARK  3 active torsions:
REMARK  status: ('A' for Active; 'I' for Inactive)
REMARK    1  A    between atoms: C1_1  and  C5_5 
REMARK    2  A    between atoms: C1_1  and  C9_9 
REMARK    3  A    between atoms: C6_6  and  C10_10 
ROOT
HETATM    1  C2  UNL     1     -34.044  17.416  -0.817  1.00 20.00     0.012 C 
HETATM    2  C3  UNL     1     -33.364  18.243   0.271  1.00 20.00     0.005 C 
HETATM    3  C4  UNL     1     -32.392  18.725  -1.925  1.00 20.00     0.016 C 
HETATM    4  C5  UNL     1     -32.992  17.319  -1.916  1.00 20.00     0.056 C 
HETATM    5  C6  UNL     1     -32.355  19.134  -0.455  1.00 20.00    -0.014 C 
ENDROOT
BRANCH   4   6
HETATM    6  C1  UNL     1     -33.569  16.906  -3.260  1.00 20.00     0.130 C 
HETATM    7  O11 UNL     1     -34.430  17.585  -3.816  1.00 20.00    -0.298 OA
BRANCH   6   8
HETATM    8  C9  UNL     1     -33.019  15.623  -3.855  1.00 20.00     0.074 C 
HETATM    9  C7  UNL     1     -34.097  14.584  -4.102  1.00 20.00     0.013 C 
ENDBRANCH   6   8
ENDBRANCH   4   6
BRANCH   5  10
HETATM   10  C10 UNL     1     -30.965  18.865   0.090  1.00 20.00     0.000 C 
HETATM   11  C8  UNL     1     -31.004  18.335   1.491  1.00 20.00     0.005 C 
ENDBRANCH   5  10
TORSDOF 3
ENDMDL
MODEL 5
REMARK VINA RESULT:      -4.3      1.849      4.485
REMARK  3 active torsions:
REMARK  status: ('A' for Active; 'I' for Inactive)
REMARK    1  A    between atoms: C1_1  and  C5_5 
REMARK    2  A    between atoms: C1_1  and  C9_9 
REMARK    3  A    between atoms: C6_6  and  C10_10 
ROOT
HETATM    1  C2  UNL     1     -32.833   5.756   2.692  1.00 20.00     0.012 C 
HETATM    2  C3  UNL     1     -32.136   7.005   2.159  1.00 20.00     0.005 C 
HETATM    3  C4  UNL     1     -32.979   7.378   4.427  1.00 20.00     0.016 C 
HETATM    4  C5  UNL     1     -33.805   6.294   3.735  1.00 20.00     0.056 C 
HETATM    5  C6  UNL     1     -32.168   8.018   3.304  1.00 20.00    -0.014 C 
ENDROOT
BRANCH   4   6
HETATM    6  C1  UNL     1     -34.310   5.225   4.689  1.00 20.00     0.130 C 
HETATM    7  O11 UNL     1     -34.097   4.033   4.476  1.00 20.00    -0.298 OA
BRANCH   6   8
HETATM    8  C9  UNL     1     -35.080   5.721   5.899  1.00 20.00     0.074 C 
HETATM    9  C7  UNL     1     -34.268   6.670   6.761  1.00 20.00     0.013 C 
ENDBRANCH   6   8
ENDBRANCH   4   6
BRANCH   5  10
HETATM   10  C10 UNL     1     -32.884   9.274   2.841  1.00 20.00     0.000 C 
HETATM   11  C8  UNL     1     -32.824   9.438   1.354  1.00 20.00     0.005 C 
ENDBRANCH   5  10
TORSDOF 3
ENDMDL
MODEL 6
REMARK VINA RESULT:      -4.2      1.492      4.467
REMARK  3 active torsions:
REMARK  status: ('A' for Active; 'I' for Inactive)
REMARK    1  A    between atoms: C1_1  and  C5_5 
REMARK    2  A    between atoms: C1_1  and  C9_9 
REMARK    3  A    between atoms: C6_6  and  C10_10 
ROOT
HETATM    1  C2  UNL     1     -32.835   6.427   3.675  1.00 20.00     0.012 C 
HETATM    2  C3  UNL     1     -32.260   7.232   2.513  1.00 20.00     0.005 C 
HETATM    3  C4  UNL     1     -32.796   8.693   4.404  1.00 20.00     0.016 C 
HETATM    4  C5  UNL     1     -33.672   7.441   4.446  1.00 20.00     0.056 C 
HETATM    5  C6  UNL     1     -32.169   8.674   3.012  1.00 20.00    -0.014 C 
ENDROOT
BRANCH   4   6
HETATM    6  C1  UNL     1     -34.004   6.991   5.859  1.00 20.00     0.130 C 
HETATM    7  O11 UNL     1     -33.900   7.762   6.811  1.00 20.00    -0.298 OA
BRANCH   6   8
HETATM    8  C9  UNL     1     -34.463   5.553   6.010  1.00 20.00     0.074 C 
HETATM    9  C7  UNL     1     -35.377   5.109   4.883  1.00 20.00     0.013 C 
ENDBRANCH   6   8
ENDBRANCH   4   6
BRANCH   5  10
HETATM   10  C10 UNL     1     -32.983   9.573   2.100  1.00 20.00     0.000 C 
HETATM   11  C8  UNL     1     -32.701   9.307   0.653  1.00 20.00     0.005 C 
ENDBRANCH   5  10
TORSDOF 3
ENDMDL
MODEL 7
REMARK VINA RESULT:      -4.0     11.728     12.658
REMARK  3 active torsions:
REMARK  status: ('A' for Active; 'I' for Inactive)
REMARK    1  A    between atoms: C1_1  and  C5_5 
REMARK    2  A    between atoms: C1_1  and  C9_9 
REMARK    3  A    between atoms: C6_6  and  C10_10 
ROOT
HETATM    1  C2  UNL     1     -33.187  18.464  -3.877  1.00 20.00     0.012 C 
HETATM    2  C3  UNL     1     -32.761  18.912  -2.482  1.00 20.00     0.005 C 
HETATM    3  C4  UNL     1     -33.395  16.547  -2.481  1.00 20.00     0.016 C 
HETATM    4  C5  UNL     1     -34.110  17.279  -3.616  1.00 20.00     0.056 C 
HETATM    5  C6  UNL     1     -32.825  17.661  -1.606  1.00 20.00    -0.014 C 
ENDROOT
BRANCH   4   6
HETATM    6  C1  UNL     1     -34.329  16.411  -4.844  1.00 20.00     0.130 C 
HETATM    7  O11 UNL     1     -34.659  16.907  -5.920  1.00 20.00    -0.298 OA
BRANCH   6   8
HETATM    8  C9  UNL     1     -34.118  14.921  -4.653  1.00 20.00     0.074 C 
HETATM    9  C7  UNL     1     -35.397  14.122  -4.821  1.00 20.00     0.013 C 
ENDBRANCH   6   8
ENDBRANCH   4   6
BRANCH   5  10
HETATM   10  C10 UNL     1     -33.778  17.907  -0.450  1.00 20.00     0.000 C 
HETATM   11  C8  UNL     1     -33.086  18.526   0.725  1.00 20.00     0.005 C 
ENDBRANCH   5  10
TORSDOF 3
ENDMDL
MODEL 8
REMARK VINA RESULT:      -4.0      9.735     10.832
REMARK  3 active torsions:
REMARK  status: ('A' for Active; 'I' for Inactive)
REMARK    1  A    between atoms: C1_1  and  C5_5 
REMARK    2  A    between atoms: C1_1  and  C9_9 
REMARK    3  A    between atoms: C6_6  and  C10_10 
ROOT
HETATM    1  C2  UNL     1     -42.234  13.258   7.282  1.00 20.00     0.012 C 
HETATM    2  C3  UNL     1     -42.299  14.160   8.511  1.00 20.00     0.005 C 
HETATM    3  C4  UNL     1     -40.446  14.812   7.049  1.00 20.00     0.016 C 
HETATM    4  C5  UNL     1     -40.775  13.333   6.847  1.00 20.00     0.056 C 
HETATM    5  C6  UNL     1     -41.195  15.201   8.321  1.00 20.00    -0.014 C 
ENDROOT
BRANCH   4   6
HETATM    6  C1  UNL     1     -40.551  12.858   5.422  1.00 20.00     0.130 C 
HETATM    7  O11 UNL     1     -41.110  13.409   4.475  1.00 20.00    -0.298 OA
BRANCH   6   8
HETATM    8  C9  UNL     1     -39.609  11.681   5.251  1.00 20.00     0.074 C 
HETATM    9  C7  UNL     1     -38.923  11.672   3.897  1.00 20.00     0.013 C 
ENDBRANCH   6   8
ENDBRANCH   4   6
BRANCH   5  10
HETATM   10  C10 UNL     1     -40.233  15.132   9.492  1.00 20.00     0.000 C 
HETATM   11  C8  UNL     1     -40.740  14.238  10.582  1.00 20.00     0.005 C 
ENDBRANCH   5  10
TORSDOF 3
ENDMDL
MODEL 9
REMARK VINA RESULT:      -4.0     11.753     12.630
REMARK  3 active torsions:
REMARK  status: ('A' for Active; 'I' for Inactive)
REMARK    1  A    between atoms: C1_1  and  C5_5 
REMARK    2  A    between atoms: C1_1  and  C9_9 
REMARK    3  A    between atoms: C6_6  and  C10_10 
ROOT
HETATM    1  C2  UNL     1     -32.970  15.560  -3.792  1.00 20.00     0.012 C 
HETATM    2  C3  UNL     1     -33.692  14.743  -4.860  1.00 20.00     0.005 C 
HETATM    3  C4  UNL     1     -34.385  17.090  -4.943  1.00 20.00     0.016 C 
HETATM    4  C5  UNL     1     -33.905  16.737  -3.536  1.00 20.00     0.056 C 
HETATM    5  C6  UNL     1     -34.544  15.743  -5.643  1.00 20.00    -0.014 C 
ENDROOT
BRANCH   4   6
HETATM    6  C1  UNL     1     -33.226  17.896  -2.826  1.00 20.00     0.130 C 
HETATM    7  O11 UNL     1     -32.844  18.884  -3.450  1.00 20.00    -0.298 OA
BRANCH   6   8
HETATM    8  C9  UNL     1     -33.055  17.751  -1.326  1.00 20.00     0.074 C 
HETATM    9  C7  UNL     1     -31.808  18.443  -0.809  1.00 20.00     0.013 C 
ENDBRANCH   6   8
ENDBRANCH   4   6
BRANCH   5  10
HETATM   10  C10 UNL     1     -36.000  15.325  -5.571  1.00 20.00     0.000 C 
HETATM   11  C8  UNL     1     -36.167  13.976  -4.943  1.00 20.00     0.005 C 
ENDBRANCH   5  10
TORSDOF 3
ENDMDL
