MODEL 1
REMARK VINA RESULT:      -4.4      0.000      0.000
REMARK  3 active torsions:
REMARK  status: ('A' for Active; 'I' for Inactive)
REMARK    1  A    between atoms: C6_6  and  C9_9 
REMARK    2  A    between atoms: C9_9  and  C11_11 
REMARK    3  A    between atoms: C10_10  and  C11_11 
ROOT
HETATM    1  C1  UNL     1     -34.307  18.750   0.061  1.00 20.00     0.069 C 
HETATM    2  C2  UNL     1     -34.029  18.182  -3.605  1.00 20.00     0.006 C 
HETATM    3  C3  UNL     1     -34.467  19.019  -2.400  1.00 20.00     0.025 C 
HETATM    4  C4  UNL     1     -33.458  17.046  -1.524  1.00 20.00     0.029 C 
HETATM    5  C5  UNL     1     -33.256  16.981  -3.042  1.00 20.00    -0.017 C 
HETATM    6  C6  UNL     1     -33.611  18.542  -1.221  1.00 20.00     0.049 C 
HETATM    7  C7  UNL     1     -33.699  15.654  -3.638  1.00 20.00     0.010 C 
HETATM    8  N12 UNL     1     -34.856  18.914   1.070  1.00 20.00    -0.196 NA
ENDROOT
BRANCH   6   9
HETATM    9  C9  UNL     1     -32.255  19.262  -1.185  1.00 20.00     0.024 C 
BRANCH   9  10
HETATM   10  C11 UNL     1     -31.238  18.482  -0.357  1.00 20.00     0.001 C 
BRANCH  10  11
HETATM   11  C10 UNL     1     -30.845  19.258   0.899  1.00 20.00    -0.004 C 
HETATM   12  C8  UNL     1     -31.169  18.474   2.161  1.00 20.00     0.005 C 
ENDBRANCH  10  11
ENDBRANCH   9  10
ENDBRANCH   6   9
TORSDOF 3
ENDMDL
MODEL 2
REMARK VINA RESULT:      -4.1     10.682     12.368
REMARK  3 active torsions:
REMARK  status: ('A' for Active; 'I' for Inactive)
REMARK    1  A    between atoms: C6_6  and  C9_9 
REMARK    2  A    between atoms: C9_9  and  C11_11 
REMARK    3  A    between atoms: C10_10  and  C11_11 
ROOT
HETATM    1  C1  UNL     1     -41.721  13.996   4.769  1.00 20.00     0.069 C 
HETATM    2  C2  UNL     1     -42.146  13.811   8.460  1.00 20.00     0.006 C 
HETATM    3  C3  UNL     1     -42.660  13.605   7.032  1.00 20.00     0.025 C 
HETATM    4  C4  UNL     1     -40.479  14.546   6.840  1.00 20.00     0.029 C 
HETATM    5  C5  UNL     1     -40.691  14.284   8.335  1.00 20.00    -0.017 C 
HETATM    6  C6  UNL     1     -41.413  13.552   6.139  1.00 20.00     0.049 C 
HETATM    7  C7  UNL     1     -40.384  15.501   9.194  1.00 20.00     0.010 C 
HETATM    8  N12 UNL     1     -41.965  14.346   3.690  1.00 20.00    -0.196 NA
ENDROOT
BRANCH   6   9
HETATM    9  C9  UNL     1     -40.817  12.138   6.093  1.00 20.00     0.024 C 
BRANCH   9  10
HETATM   10  C11 UNL     1     -39.338  12.151   6.468  1.00 20.00     0.001 C 
BRANCH  10  11
HETATM   11  C10 UNL     1     -38.456  12.061   5.223  1.00 20.00    -0.004 C 
HETATM   12  C8  UNL     1     -39.219  11.484   4.041  1.00 20.00     0.005 C 
ENDBRANCH  10  11
ENDBRANCH   9  10
ENDBRANCH   6   9
TORSDOF 3
ENDMDL
MODEL 3
REMARK VINA RESULT:      -4.1      1.950      4.796
REMARK  3 active torsions:
REMARK  status: ('A' for Active; 'I' for Inactive)
REMARK    1  A    between atoms: C6_6  and  C9_9 
REMARK    2  A    between atoms: C9_9  and  C11_11 
REMARK    3  A    between atoms: C10_10  and  C11_11 
ROOT
HETATM    1  C1  UNL     1     -33.145  18.781  -3.369  1.00 20.00     0.069 C 
HETATM    2  C2  UNL     1     -33.964  18.705   0.259  1.00 20.00     0.006 C 
HETATM    3  C3  UNL     1     -34.358  18.901  -1.208  1.00 20.00     0.025 C 
HETATM    4  C4  UNL     1     -32.025  18.413  -1.190  1.00 20.00     0.029 C 
HETATM    5  C5  UNL     1     -32.496  18.254   0.259  1.00 20.00    -0.017 C 
HETATM    6  C6  UNL     1     -33.285  18.177  -2.033  1.00 20.00     0.049 C 
HETATM    7  C7  UNL     1     -31.635  19.027   1.245  1.00 20.00     0.010 C 
HETATM    8  N12 UNL     1     -33.035  19.256  -4.422  1.00 20.00    -0.196 NA
ENDROOT
BRANCH   6   9
HETATM    9  C9  UNL     1     -33.606  16.683  -2.181  1.00 20.00     0.024 C 
BRANCH   9  10
HETATM   10  C11 UNL     1     -32.945  16.098  -3.425  1.00 20.00     0.001 C 
BRANCH  10  11
HETATM   11  C10 UNL     1     -33.786  14.963  -4.010  1.00 20.00    -0.004 C 
HETATM   12  C8  UNL     1     -34.397  15.355  -5.345  1.00 20.00     0.005 C 
ENDBRANCH  10  11
ENDBRANCH   9  10
ENDBRANCH   6   9
TORSDOF 3
ENDMDL
MODEL 4
REMARK VINA RESULT:      -3.8      3.693      5.650
REMARK  3 active torsions:
REMARK  status: ('A' for Active; 'I' for Inactive)
REMARK    1  A    between atoms: C6_6  and  C9_9 
REMARK    2  A    between atoms: C9_9  and  C11_11 
REMARK    3  A    between atoms: C10_10  and  C11_11 
ROOT
HETATM    1  C1  UNL     1     -34.120  15.416  -6.930  1.00 20.00     0.069 C 
HETATM    2  C2  UNL     1     -37.078  16.785  -5.137  1.00 20.00     0.006 C 
HETATM    3  C3  UNL     1     -36.388  15.696  -5.964  1.00 20.00     0.025 C 
HETATM    4  C4  UNL     1     -34.790  17.438  -5.666  1.00 20.00     0.029 C 
HETATM    5  C5  UNL     1     -36.007  17.840  -4.827  1.00 20.00    -0.017 C 
HETATM    6  C6  UNL     1     -34.881  15.910  -5.770  1.00 20.00     0.049 C 
HETATM    7  C7  UNL     1     -36.471  19.261  -5.108  1.00 20.00     0.010 C 
HETATM    8  N12 UNL     1     -33.521  15.026  -7.844  1.00 20.00    -0.196 NA
ENDROOT
BRANCH   6   9
HETATM    9  C9  UNL     1     -34.376  15.217  -4.497  1.00 20.00     0.024 C 
BRANCH   9  10
HETATM   10  C11 UNL     1     -33.211  15.982  -3.878  1.00 20.00     0.001 C 
BRANCH  10  11
HETATM   11  C10 UNL     1     -33.534  16.408  -2.446  1.00 20.00    -0.004 C 
HETATM   12  C8  UNL     1     -32.954  17.778  -2.130  1.00 20.00     0.005 C 
ENDBRANCH  10  11
ENDBRANCH   9  10
ENDBRANCH   6   9
TORSDOF 3
ENDMDL
MODEL 5
REMARK VINA RESULT:      -3.7      2.245      4.458
REMARK  3 active torsions:
REMARK  status: ('A' for Active; 'I' for Inactive)
REMARK    1  A    between atoms: C6_6  and  C9_9 
REMARK    2  A    between atoms: C9_9  and  C11_11 
REMARK    3  A    between atoms: C10_10  and  C11_11 
ROOT
HETATM    1  C1  UNL     1     -32.586  18.539  -1.844  1.00 20.00     0.069 C 
HETATM    2  C2  UNL     1     -34.916  18.344  -4.737  1.00 20.00     0.006 C 
HETATM    3  C3  UNL     1     -33.506  18.401  -4.144  1.00 20.00     0.025 C 
HETATM    4  C4  UNL     1     -35.019  18.513  -2.306  1.00 20.00     0.029 C 
HETATM    5  C5  UNL     1     -35.885  18.274  -3.548  1.00 20.00    -0.017 C 
HETATM    6  C6  UNL     1     -33.643  17.950  -2.684  1.00 20.00     0.049 C 
HETATM    7  C7  UNL     1     -37.038  19.260  -3.659  1.00 20.00     0.010 C 
HETATM    8  N12 UNL     1     -31.753  19.003  -1.183  1.00 20.00    -0.196 NA
ENDROOT
BRANCH   6   9
HETATM    9  C9  UNL     1     -33.595  16.421  -2.563  1.00 20.00     0.024 C 
BRANCH   9  10
HETATM   10  C11 UNL     1     -32.949  15.790  -3.794  1.00 20.00     0.001 C 
BRANCH  10  11
HETATM   11  C10 UNL     1     -33.661  14.495  -4.183  1.00 20.00    -0.004 C 
HETATM   12  C8  UNL     1     -34.857  14.765  -5.080  1.00 20.00     0.005 C 
ENDBRANCH  10  11
ENDBRANCH   9  10
ENDBRANCH   6   9
TORSDOF 3
ENDMDL
MODEL 6
REMARK VINA RESULT:      -3.7     11.088     12.864
REMARK  3 active torsions:
REMARK  status: ('A' for Active; 'I' for Inactive)
REMARK    1  A    between atoms: C6_6  and  C9_9 
REMARK    2  A    between atoms: C9_9  and  C11_11 
REMARK    3  A    between atoms: C10_10  and  C11_11 
ROOT
HETATM    1  C1  UNL     1     -42.528  15.254   5.829  1.00 20.00     0.069 C 
HETATM    2  C2  UNL     1     -42.179  14.055   9.333  1.00 20.00     0.006 C 
HETATM    3  C3  UNL     1     -43.017  14.339   8.083  1.00 20.00     0.025 C 
HETATM    4  C4  UNL     1     -40.789  15.018   7.577  1.00 20.00     0.029 C 
HETATM    5  C5  UNL     1     -40.722  14.360   8.959  1.00 20.00    -0.017 C 
HETATM    6  C6  UNL     1     -42.024  14.395   6.914  1.00 20.00     0.049 C 
HETATM    7  C7  UNL     1     -40.012  15.226   9.988  1.00 20.00     0.010 C 
HETATM    8  N12 UNL     1     -42.925  15.931   4.974  1.00 20.00    -0.196 NA
ENDROOT
BRANCH   6   9
HETATM    9  C9  UNL     1     -41.733  12.993   6.359  1.00 20.00     0.024 C 
BRANCH   9  10
HETATM   10  C11 UNL     1     -40.656  13.040   5.280  1.00 20.00     0.001 C 
BRANCH  10  11
HETATM   11  C10 UNL     1     -39.661  11.893   5.448  1.00 20.00    -0.004 C 
HETATM   12  C8  UNL     1     -38.938  11.588   4.145  1.00 20.00     0.005 C 
ENDBRANCH  10  11
ENDBRANCH   9  10
ENDBRANCH   6   9
TORSDOF 3
ENDMDL
MODEL 7
REMARK VINA RESULT:      -3.7     11.301     12.703
REMARK  3 active torsions:
REMARK  status: ('A' for Active; 'I' for Inactive)
REMARK    1  A    between atoms: C6_6  and  C9_9 
REMARK    2  A    between atoms: C9_9  and  C11_11 
REMARK    3  A    between atoms: C10_10  and  C11_11 
ROOT
HETATM    1  C1  UNL     1     -41.782  14.900   6.299  1.00 20.00     0.069 C 
HETATM    2  C2  UNL     1     -39.336  12.107   6.526  1.00 20.00     0.006 C 
HETATM    3  C3  UNL     1     -40.066  13.311   7.127  1.00 20.00     0.025 C 
HETATM    4  C4  UNL     1     -40.857  13.085   4.890  1.00 20.00     0.029 C 
HETATM    5  C5  UNL     1     -39.948  11.876   5.137  1.00 20.00    -0.017 C 
HETATM    6  C6  UNL     1     -41.337  13.496   6.288  1.00 20.00     0.049 C 
HETATM    7  C7  UNL     1     -38.902  11.696   4.047  1.00 20.00     0.010 C 
HETATM    8  N12 UNL     1     -42.132  16.006   6.309  1.00 20.00    -0.196 NA
ENDROOT
BRANCH   6   9
HETATM    9  C9  UNL     1     -42.475  12.598   6.792  1.00 20.00     0.024 C 
BRANCH   9  10
HETATM   10  C11 UNL     1     -43.417  13.365   7.714  1.00 20.00     0.001 C 
BRANCH  10  11
HETATM   11  C10 UNL     1     -43.230  12.937   9.168  1.00 20.00    -0.004 C 
HETATM   12  C8  UNL     1     -42.479  13.991   9.966  1.00 20.00     0.005 C 
ENDBRANCH  10  11
ENDBRANCH   9  10
ENDBRANCH   6   9
TORSDOF 3
ENDMDL
MODEL 8
REMARK VINA RESULT:      -3.5     11.189     13.005
REMARK  3 active torsions:
REMARK  status: ('A' for Active; 'I' for Inactive)
REMARK    1  A    between atoms: C6_6  and  C9_9 
REMARK    2  A    between atoms: C9_9  and  C11_11 
REMARK    3  A    between atoms: C10_10  and  C11_11 
ROOT
HETATM    1  C1  UNL     1     -42.335  13.015   7.764  1.00 20.00     0.069 C 
HETATM    2  C2  UNL     1     -40.147  15.642   9.230  1.00 20.00     0.006 C 
HETATM    3  C3  UNL     1     -40.534  14.176   9.015  1.00 20.00     0.025 C 
HETATM    4  C4  UNL     1     -42.146  15.483   7.843  1.00 20.00     0.029 C 
HETATM    5  C5  UNL     1     -41.100  16.475   8.361  1.00 20.00    -0.017 C 
HETATM    6  C6  UNL     1     -41.395  14.149   7.746  1.00 20.00     0.049 C 
HETATM    7  C7  UNL     1     -41.720  17.645   9.110  1.00 20.00     0.010 C 
HETATM    8  N12 UNL     1     -43.074  12.121   7.779  1.00 20.00    -0.196 NA
ENDROOT
BRANCH   6   9
HETATM    9  C9  UNL     1     -40.527  14.069   6.482  1.00 20.00     0.024 C 
BRANCH   9  10
HETATM   10  C11 UNL     1     -39.813  12.725   6.387  1.00 20.00     0.001 C 
BRANCH  10  11
HETATM   11  C10 UNL     1     -40.015  12.093   5.011  1.00 20.00    -0.004 C 
HETATM   12  C8  UNL     1     -38.690  11.686   4.386  1.00 20.00     0.005 C 
ENDBRANCH  10  11
ENDBRANCH   9  10
ENDBRANCH   6   9
TORSDOF 3
ENDMDL
MODEL 9
REMARK VINA RESULT:      -3.5     11.561     12.734
REMARK  3 active torsions:
REMARK  status: ('A' for Active; 'I' for Inactive)
REMARK    1  A    between atoms: C6_6  and  C9_9 
REMARK    2  A    between atoms: C9_9  and  C11_11 
REMARK    3  A    between atoms: C10_10  and  C11_11 
ROOT
HETATM    1  C1  UNL     1     -42.702  12.801   8.074  1.00 20.00     0.069 C 
HETATM    2  C2  UNL     1     -41.403  13.644   4.691  1.00 20.00     0.006 C 
HETATM    3  C3  UNL     1     -42.502  13.667   5.757  1.00 20.00     0.025 C 
HETATM    4  C4  UNL     1     -40.670  12.467   6.697  1.00 20.00     0.029 C 
HETATM    5  C5  UNL     1     -40.175  12.996   5.346  1.00 20.00    -0.017 C 
HETATM    6  C6  UNL     1     -41.795  13.430   7.097  1.00 20.00     0.049 C 
HETATM    7  C7  UNL     1     -39.543  11.912   4.487  1.00 20.00     0.010 C 
HETATM    8  N12 UNL     1     -43.417  12.307   8.842  1.00 20.00    -0.196 NA
ENDROOT
BRANCH   6   9
HETATM    9  C9  UNL     1     -41.249  14.740   7.682  1.00 20.00     0.024 C 
BRANCH   9  10
HETATM   10  C11 UNL     1     -40.160  14.471   8.716  1.00 20.00     0.001 C 
BRANCH  10  11
HETATM   11  C10 UNL     1     -40.459  15.195  10.028  1.00 20.00    -0.004 C 
HETATM   12  C8  UNL     1     -40.944  14.229  11.097  1.00 20.00     0.005 C 
ENDBRANCH  10  11
ENDBRANCH   9  10
ENDBRANCH   6   9
TORSDOF 3
ENDMDL
