MODEL 1
REMARK VINA RESULT:      -4.3      0.000      0.000
REMARK  4 active torsions:
REMARK  status: ('A' for Active; 'I' for Inactive)
REMARK    1  A    between atoms: C5_5  and  C9_9 
REMARK    2  A    between atoms: C6_6  and  C10_10 
REMARK    3  A    between atoms: C10_10  and  C12_12 
REMARK    4  A    between atoms: C11_11  and  C12_12 
ROOT
HETATM    1  C1  UNL     1     -42.534  12.769   7.185  1.00 20.00     0.069 C 
HETATM    2  C2  UNL     1     -41.861  15.784   7.539  1.00 20.00     0.006 C 
HETATM    3  C3  UNL     1     -41.948  14.980   6.248  1.00 20.00     0.025 C 
HETATM    4  C4  UNL     1     -40.384  13.863   7.752  1.00 20.00     0.029 C 
HETATM    5  C5  UNL     1     -40.515  15.353   8.114  1.00 20.00    -0.013 C 
HETATM    6  C6  UNL     1     -41.426  13.588   6.643  1.00 20.00     0.049 C 
HETATM    7  N13 UNL     1     -43.402  12.128   7.610  1.00 20.00    -0.196 NA
ENDROOT
BRANCH   6   8
HETATM    8  C10 UNL     1     -40.810  12.862   5.446  1.00 20.00     0.024 C 
BRANCH   8   9
HETATM    9  C12 UNL     1     -39.780  11.831   5.897  1.00 20.00     0.001 C 
BRANCH   9  10
HETATM   10  C11 UNL     1     -38.538  11.872   5.008  1.00 20.00    -0.004 C 
HETATM   11  C8  UNL     1     -38.894  11.668   3.543  1.00 20.00     0.005 C 
ENDBRANCH   9  10
ENDBRANCH   8   9
ENDBRANCH   6   8
BRANCH   5  12
HETATM   12  C9  UNL     1     -40.394  15.622   9.605  1.00 20.00     0.000 C 
HETATM   13  C7  UNL     1     -40.706  14.407  10.420  1.00 20.00     0.005 C 
ENDBRANCH   5  12
TORSDOF 4
ENDMDL
MODEL 2
REMARK VINA RESULT:      -4.3     12.309     14.149
REMARK  4 active torsions:
REMARK  status: ('A' for Active; 'I' for Inactive)
REMARK    1  A    between atoms: C5_5  and  C9_9 
REMARK    2  A    between atoms: C6_6  and  C10_10 
REMARK    3  A    between atoms: C10_10  and  C12_12 
REMARK    4  A    between atoms: C11_11  and  C12_12 
ROOT
HETATM    1  C1  UNL     1     -35.269  14.064  -4.659  1.00 20.00     0.069 C 
HETATM    2  C2  UNL     1     -34.978  15.637  -7.325  1.00 20.00     0.006 C 
HETATM    3  C3  UNL     1     -33.878  15.115  -6.410  1.00 20.00     0.025 C 
HETATM    4  C4  UNL     1     -35.389  16.502  -5.089  1.00 20.00     0.029 C 
HETATM    5  C5  UNL     1     -35.477  16.871  -6.580  1.00 20.00    -0.013 C 
HETATM    6  C6  UNL     1     -34.468  15.263  -4.998  1.00 20.00     0.049 C 
HETATM    7  N13 UNL     1     -35.896  13.125  -4.393  1.00 20.00    -0.196 NA
ENDROOT
BRANCH   6   8
HETATM    8  C10 UNL     1     -33.370  15.441  -3.949  1.00 20.00     0.024 C 
BRANCH   8   9
HETATM    9  C12 UNL     1     -33.319  16.879  -3.442  1.00 20.00     0.001 C 
BRANCH   9  10
HETATM   10  C11 UNL     1     -33.472  16.931  -1.923  1.00 20.00    -0.004 C 
HETATM   11  C8  UNL     1     -32.591  18.010  -1.312  1.00 20.00     0.005 C 
ENDBRANCH   9  10
ENDBRANCH   8   9
ENDBRANCH   6   8
BRANCH   5  12
HETATM   12  C9  UNL     1     -36.870  17.301  -7.011  1.00 20.00     0.000 C 
HETATM   13  C7  UNL     1     -37.930  16.744  -6.115  1.00 20.00     0.005 C 
ENDBRANCH   5  12
TORSDOF 4
ENDMDL
MODEL 3
REMARK VINA RESULT:      -4.0     11.762     12.599
REMARK  4 active torsions:
REMARK  status: ('A' for Active; 'I' for Inactive)
REMARK    1  A    between atoms: C5_5  and  C9_9 
REMARK    2  A    between atoms: C6_6  and  C10_10 
REMARK    3  A    between atoms: C10_10  and  C12_12 
REMARK    4  A    between atoms: C11_11  and  C12_12 
ROOT
HETATM    1  C1  UNL     1     -35.177  18.620  -2.291  1.00 20.00     0.069 C 
HETATM    2  C2  UNL     1     -32.216  19.263  -1.592  1.00 20.00     0.006 C 
HETATM    3  C3  UNL     1     -32.789  18.763  -2.913  1.00 20.00     0.025 C 
HETATM    4  C4  UNL     1     -33.476  17.231  -1.142  1.00 20.00     0.029 C 
HETATM    5  C5  UNL     1     -32.210  18.004  -0.731  1.00 20.00    -0.013 C 
HETATM    6  C6  UNL     1     -33.938  17.833  -2.489  1.00 20.00     0.049 C 
HETATM    7  N13 UNL     1     -36.147  19.236  -2.136  1.00 20.00    -0.196 NA
ENDROOT
BRANCH   6   8
HETATM    8  C10 UNL     1     -34.198  16.752  -3.539  1.00 20.00     0.024 C 
BRANCH   8   9
HETATM    9  C12 UNL     1     -33.097  15.697  -3.530  1.00 20.00     0.001 C 
BRANCH   9  10
HETATM   10  C11 UNL     1     -33.377  14.603  -4.559  1.00 20.00    -0.004 C 
HETATM   11  C8  UNL     1     -34.860  14.508  -4.882  1.00 20.00     0.005 C 
ENDBRANCH   9  10
ENDBRANCH   8   9
ENDBRANCH   6   8
BRANCH   5  12
HETATM   12  C9  UNL     1     -32.147  18.305   0.758  1.00 20.00     0.000 C 
HETATM   13  C7  UNL     1     -30.960  19.146   1.108  1.00 20.00     0.005 C 
ENDBRANCH   5  12
TORSDOF 4
ENDMDL
MODEL 4
REMARK VINA RESULT:      -4.0      1.353      1.747
REMARK  4 active torsions:
REMARK  status: ('A' for Active; 'I' for Inactive)
REMARK    1  A    between atoms: C5_5  and  C9_9 
REMARK    2  A    between atoms: C6_6  and  C10_10 
REMARK    3  A    between atoms: C10_10  and  C12_12 
REMARK    4  A    between atoms: C11_11  and  C12_12 
ROOT
HETATM    1  C1  UNL     1     -42.485  12.743   7.626  1.00 20.00     0.069 C 
HETATM    2  C2  UNL     1     -42.813  15.501   6.229  1.00 20.00     0.006 C 
HETATM    3  C3  UNL     1     -42.644  14.130   5.587  1.00 20.00     0.025 C 
HETATM    4  C4  UNL     1     -40.796  14.491   7.140  1.00 20.00     0.029 C 
HETATM    5  C5  UNL     1     -41.397  15.834   6.689  1.00 20.00    -0.013 C 
HETATM    6  C6  UNL     1     -41.700  13.386   6.546  1.00 20.00     0.049 C 
HETATM    7  N13 UNL     1     -43.099  12.240   8.472  1.00 20.00    -0.196 NA
ENDROOT
BRANCH   6   8
HETATM    8  C10 UNL     1     -40.890  12.314   5.815  1.00 20.00     0.024 C 
BRANCH   8   9
HETATM    9  C12 UNL     1     -39.493  12.178   6.410  1.00 20.00     0.001 C 
BRANCH   9  10
HETATM   10  C11 UNL     1     -38.445  11.994   5.314  1.00 20.00    -0.004 C 
HETATM   11  C8  UNL     1     -39.093  11.757   3.958  1.00 20.00     0.005 C 
ENDBRANCH   9  10
ENDBRANCH   8   9
ENDBRANCH   6   8
BRANCH   5  12
HETATM   12  C9  UNL     1     -41.361  16.902   7.770  1.00 20.00     0.000 C 
HETATM   13  C7  UNL     1     -40.554  18.091   7.355  1.00 20.00     0.005 C 
ENDBRANCH   5  12
TORSDOF 4
ENDMDL
MODEL 5
REMARK VINA RESULT:      -4.0      1.705      4.510
REMARK  4 active torsions:
REMARK  status: ('A' for Active; 'I' for Inactive)
REMARK    1  A    between atoms: C5_5  and  C9_9 
REMARK    2  A    between atoms: C6_6  and  C10_10 
REMARK    3  A    between atoms: C10_10  and  C12_12 
REMARK    4  A    between atoms: C11_11  and  C12_12 
ROOT
HETATM    1  C1  UNL     1     -42.294  14.577   4.579  1.00 20.00     0.069 C 
HETATM    2  C2  UNL     1     -41.838  12.220   6.554  1.00 20.00     0.006 C 
HETATM    3  C3  UNL     1     -42.656  13.487   6.767  1.00 20.00     0.025 C 
HETATM    4  C4  UNL     1     -40.395  14.127   6.107  1.00 20.00     0.029 C 
HETATM    5  C5  UNL     1     -40.404  12.714   6.716  1.00 20.00    -0.013 C 
HETATM    6  C6  UNL     1     -41.874  14.566   6.000  1.00 20.00     0.049 C 
HETATM    7  N13 UNL     1     -42.623  14.587   3.467  1.00 20.00    -0.196 NA
ENDROOT
BRANCH   6   8
HETATM    8  C10 UNL     1     -42.103  15.955   6.597  1.00 20.00     0.024 C 
BRANCH   8   9
HETATM    9  C12 UNL     1     -40.891  16.418   7.397  1.00 20.00     0.001 C 
BRANCH   9  10
HETATM   10  C11 UNL     1     -41.153  16.317   8.899  1.00 20.00    -0.004 C 
HETATM   11  C8  UNL     1     -40.216  15.319   9.562  1.00 20.00     0.005 C 
ENDBRANCH   9  10
ENDBRANCH   8   9
ENDBRANCH   6   8
BRANCH   5  12
HETATM   12  C9  UNL     1     -39.381  11.781   6.087  1.00 20.00     0.000 C 
HETATM   13  C7  UNL     1     -39.431  11.824   4.593  1.00 20.00     0.005 C 
ENDBRANCH   5  12
TORSDOF 4
ENDMDL
MODEL 6
REMARK VINA RESULT:      -3.9     11.968     13.496
REMARK  4 active torsions:
REMARK  status: ('A' for Active; 'I' for Inactive)
REMARK    1  A    between atoms: C5_5  and  C9_9 
REMARK    2  A    between atoms: C6_6  and  C10_10 
REMARK    3  A    between atoms: C10_10  and  C12_12 
REMARK    4  A    between atoms: C11_11  and  C12_12 
ROOT
HETATM    1  C1  UNL     1     -34.793  18.867  -1.797  1.00 20.00     0.069 C 
HETATM    2  C2  UNL     1     -33.921  16.102  -2.921  1.00 20.00     0.006 C 
HETATM    3  C3  UNL     1     -33.292  16.903  -1.788  1.00 20.00     0.025 C 
HETATM    4  C4  UNL     1     -33.398  18.320  -3.772  1.00 20.00     0.029 C 
HETATM    5  C5  UNL     1     -33.425  16.833  -4.165  1.00 20.00    -0.013 C 
HETATM    6  C6  UNL     1     -33.467  18.367  -2.228  1.00 20.00     0.049 C 
HETATM    7  N13 UNL     1     -35.831  19.259  -1.460  1.00 20.00    -0.196 NA
ENDROOT
BRANCH   6   8
HETATM    8  C10 UNL     1     -32.380  19.263  -1.633  1.00 20.00     0.024 C 
BRANCH   8   9
HETATM    9  C12 UNL     1     -31.508  18.492  -0.648  1.00 20.00     0.001 C 
BRANCH   9  10
HETATM   10  C11 UNL     1     -31.662  19.043   0.769  1.00 20.00    -0.004 C 
HETATM   11  C8  UNL     1     -30.826  18.257   1.766  1.00 20.00     0.005 C 
ENDBRANCH   9  10
ENDBRANCH   8   9
ENDBRANCH   6   8
BRANCH   5  12
HETATM   12  C9  UNL     1     -34.273  16.551  -5.395  1.00 20.00     0.000 C 
HETATM   13  C7  UNL     1     -34.236  15.106  -5.780  1.00 20.00     0.005 C 
ENDBRANCH   5  12
TORSDOF 4
ENDMDL
MODEL 7
REMARK VINA RESULT:      -3.8     12.678     13.959
REMARK  4 active torsions:
REMARK  status: ('A' for Active; 'I' for Inactive)
REMARK    1  A    between atoms: C5_5  and  C9_9 
REMARK    2  A    between atoms: C6_6  and  C10_10 
REMARK    3  A    between atoms: C10_10  and  C12_12 
REMARK    4  A    between atoms: C11_11  and  C12_12 
ROOT
HETATM    1  C1  UNL     1     -34.212  15.295  -6.577  1.00 20.00     0.069 C 
HETATM    2  C2  UNL     1     -33.207  15.713  -3.665  1.00 20.00     0.006 C 
HETATM    3  C3  UNL     1     -34.245  14.721  -4.173  1.00 20.00     0.025 C 
HETATM    4  C4  UNL     1     -34.905  16.962  -4.878  1.00 20.00     0.029 C 
HETATM    5  C5  UNL     1     -33.977  17.030  -3.653  1.00 20.00    -0.013 C 
HETATM    6  C6  UNL     1     -34.955  15.478  -5.308  1.00 20.00     0.049 C 
HETATM    7  N13 UNL     1     -33.631  15.152  -7.570  1.00 20.00    -0.196 NA
ENDROOT
BRANCH   6   8
HETATM    8  C10 UNL     1     -36.390  14.984  -5.497  1.00 20.00     0.024 C 
BRANCH   8   9
HETATM    9  C12 UNL     1     -37.332  16.139  -5.821  1.00 20.00     0.001 C 
BRANCH   9  10
HETATM   10  C11 UNL     1     -38.536  16.146  -4.880  1.00 20.00    -0.004 C 
HETATM   11  C8  UNL     1     -38.610  17.437  -4.080  1.00 20.00     0.005 C 
ENDBRANCH   9  10
ENDBRANCH   8   9
ENDBRANCH   6   8
BRANCH   5  12
HETATM   12  C9  UNL     1     -33.068  18.249  -3.654  1.00 20.00     0.000 C 
HETATM   13  C7  UNL     1     -32.661  18.643  -2.269  1.00 20.00     0.005 C 
ENDBRANCH   5  12
TORSDOF 4
ENDMDL
MODEL 8
REMARK VINA RESULT:      -3.8     20.953     23.116
REMARK  4 active torsions:
REMARK  status: ('A' for Active; 'I' for Inactive)
REMARK    1  A    between atoms: C5_5  and  C9_9 
REMARK    2  A    between atoms: C6_6  and  C10_10 
REMARK    3  A    between atoms: C10_10  and  C12_12 
REMARK    4  A    between atoms: C11_11  and  C12_12 
ROOT
HETATM    1  C1  UNL     1     -24.410  -2.060  11.709  1.00 20.00     0.069 C 
HETATM    2  C2  UNL     1     -27.156  -3.498  11.956  1.00 20.00     0.006 C 
HETATM    3  C3  UNL     1     -25.769  -4.120  11.841  1.00 20.00     0.025 C 
HETATM    4  C4  UNL     1     -26.090  -2.592   9.966  1.00 20.00     0.029 C 
HETATM    5  C5  UNL     1     -27.446  -3.057  10.524  1.00 20.00    -0.013 C 
HETATM    6  C6  UNL     1     -25.008  -3.158  10.914  1.00 20.00     0.049 C 
HETATM    7  N13 UNL     1     -23.941  -1.200  12.331  1.00 20.00    -0.196 NA
ENDROOT
BRANCH   6   8
HETATM    8  C10 UNL     1     -23.897  -3.880  10.150  1.00 20.00     0.024 C 
BRANCH   8   9
HETATM    9  C12 UNL     1     -23.086  -2.905   9.304  1.00 20.00     0.001 C 
BRANCH   9  10
HETATM   10  C11 UNL     1     -23.099  -3.313   7.832  1.00 20.00    -0.004 C 
HETATM   11  C8  UNL     1     -22.184  -4.500   7.574  1.00 20.00     0.005 C 
ENDBRANCH   9  10
ENDBRANCH   8   9
ENDBRANCH   6   8
BRANCH   5  12
HETATM   12  C9  UNL     1     -28.528  -1.993  10.440  1.00 20.00     0.000 C 
HETATM   13  C7  UNL     1     -27.952  -0.620  10.299  1.00 20.00     0.005 C 
ENDBRANCH   5  12
TORSDOF 4
ENDMDL
MODEL 9
REMARK VINA RESULT:      -3.8      1.701      2.092
REMARK  4 active torsions:
REMARK  status: ('A' for Active; 'I' for Inactive)
REMARK    1  A    between atoms: C5_5  and  C9_9 
REMARK    2  A    between atoms: C6_6  and  C10_10 
REMARK    3  A    between atoms: C10_10  and  C12_12 
REMARK    4  A    between atoms: C11_11  and  C12_12 
ROOT
HETATM    1  C1  UNL     1     -42.435  15.417   6.027  1.00 20.00     0.069 C 
HETATM    2  C2  UNL     1     -40.813  15.384   8.679  1.00 20.00     0.006 C 
HETATM    3  C3  UNL     1     -40.327  15.071   7.270  1.00 20.00     0.025 C 
HETATM    4  C4  UNL     1     -42.252  13.652   7.758  1.00 20.00     0.029 C 
HETATM    5  C5  UNL     1     -41.578  14.120   9.060  1.00 20.00    -0.013 C 
HETATM    6  C6  UNL     1     -41.535  14.391   6.604  1.00 20.00     0.049 C 
HETATM    7  N13 UNL     1     -43.140  16.219   5.575  1.00 20.00    -0.196 NA
ENDROOT
BRANCH   6   8
HETATM    8  C10 UNL     1     -41.097  13.434   5.495  1.00 20.00     0.024 C 
BRANCH   8   9
HETATM    9  C12 UNL     1     -40.409  12.201   6.072  1.00 20.00     0.001 C 
BRANCH   9  10
HETATM   10  C11 UNL     1     -38.989  12.059   5.525  1.00 20.00    -0.004 C 
HETATM   11  C8  UNL     1     -38.994  11.668   4.056  1.00 20.00     0.005 C 
ENDBRANCH   9  10
ENDBRANCH   8   9
ENDBRANCH   6   8
BRANCH   5  12
HETATM   12  C9  UNL     1     -42.560  14.341  10.199  1.00 20.00     0.000 C 
HETATM   13  C7  UNL     1     -42.493  13.246  11.215  1.00 20.00     0.005 C 
ENDBRANCH   5  12
TORSDOF 4
ENDMDL
