MODEL 1
REMARK VINA RESULT:      -5.4      0.000      0.000
REMARK  1 active torsions:
REMARK  status: ('A' for Active; 'I' for Inactive)
REMARK    1  A    between atoms: C1_1  and  N10_10 
ROOT
HETATM    1  C2  UNL     1     -32.216   9.081   4.282  1.00 20.00     0.002 C 
HETATM    2  C3  UNL     1     -34.545   5.384   6.318  1.00 20.00     0.020 C 
HETATM    3  C4  UNL     1     -32.930   8.853   5.623  1.00 20.00     0.007 C 
HETATM    4  C5  UNL     1     -34.342   6.885   6.546  1.00 20.00     0.008 C 
HETATM    5  C6  UNL     1     -32.438   7.806   3.450  1.00 20.00     0.026 C 
HETATM    6  C7  UNL     1     -34.772   5.034   4.844  1.00 20.00     0.125 C 
HETATM    7  C8  UNL     1     -33.237   7.364   5.622  1.00 20.00     0.009 C 
HETATM    8  C9  UNL     1     -33.596   7.107   4.158  1.00 20.00     0.090 C 
HETATM    9  N10 UNL     1     -33.831   5.686   3.928  1.00 20.00    -0.354 N 
ENDROOT
BRANCH   9  10
HETATM   10  C1  UNL     1     -33.502   5.064   2.732  1.00 20.00     0.351 C 
HETATM   11  O11 UNL     1     -32.450   4.499   2.452  1.00 20.00    -0.284 OA
ENDBRANCH   9  10
TORSDOF 1
ENDMDL
MODEL 2
REMARK VINA RESULT:      -5.1      0.718      2.930
REMARK  1 active torsions:
REMARK  status: ('A' for Active; 'I' for Inactive)
REMARK    1  A    between atoms: C1_1  and  N10_10 
ROOT
HETATM    1  C2  UNL     1     -34.906   5.476   6.336  1.00 20.00     0.002 C 
HETATM    2  C3  UNL     1     -32.511   8.762   3.748  1.00 20.00     0.020 C 
HETATM    3  C4  UNL     1     -34.337   6.875   6.617  1.00 20.00     0.007 C 
HETATM    4  C5  UNL     1     -32.873   8.487   5.210  1.00 20.00     0.008 C 
HETATM    5  C6  UNL     1     -34.473   5.110   4.906  1.00 20.00     0.026 C 
HETATM    6  C7  UNL     1     -32.081   7.498   2.997  1.00 20.00     0.125 C 
HETATM    7  C8  UNL     1     -33.900   7.370   5.247  1.00 20.00     0.009 C 
HETATM    8  C9  UNL     1     -33.349   6.097   4.602  1.00 20.00     0.090 C 
HETATM    9  N10 UNL     1     -32.962   6.347   3.219  1.00 20.00    -0.354 N 
ENDROOT
BRANCH   9  10
HETATM   10  C1  UNL     1     -33.089   5.385   2.227  1.00 20.00     0.351 C 
HETATM   11  O11 UNL     1     -32.605   4.258   2.217  1.00 20.00    -0.284 OA
ENDBRANCH   9  10
TORSDOF 1
ENDMDL
MODEL 3
REMARK VINA RESULT:      -4.8      1.995      3.901
REMARK  1 active torsions:
REMARK  status: ('A' for Active; 'I' for Inactive)
REMARK    1  A    between atoms: C1_1  and  N10_10 
ROOT
HETATM    1  C2  UNL     1     -34.948   5.828   6.609  1.00 20.00     0.002 C 
HETATM    2  C3  UNL     1     -32.472   5.844   2.473  1.00 20.00     0.020 C 
HETATM    3  C4  UNL     1     -34.910   4.930   5.363  1.00 20.00     0.007 C 
HETATM    4  C5  UNL     1     -33.686   5.142   3.087  1.00 20.00     0.008 C 
HETATM    5  C6  UNL     1     -34.014   7.014   6.318  1.00 20.00     0.026 C 
HETATM    6  C7  UNL     1     -32.435   7.344   2.787  1.00 20.00     0.125 C 
HETATM    7  C8  UNL     1     -33.725   5.461   4.570  1.00 20.00     0.009 C 
HETATM    8  C9  UNL     1     -33.828   6.969   4.804  1.00 20.00     0.090 C 
HETATM    9  N10 UNL     1     -32.699   7.662   4.193  1.00 20.00    -0.354 N 
ENDROOT
BRANCH   9  10
HETATM   10  C1  UNL     1     -32.140   8.803   4.750  1.00 20.00     0.351 C 
HETATM   11  O11 UNL     1     -32.109   9.930   4.265  1.00 20.00    -0.284 OA
ENDBRANCH   9  10
TORSDOF 1
ENDMDL
MODEL 4
REMARK VINA RESULT:      -4.8      1.698      3.346
REMARK  1 active torsions:
REMARK  status: ('A' for Active; 'I' for Inactive)
REMARK    1  A    between atoms: C1_1  and  N10_10 
ROOT
HETATM    1  C2  UNL     1     -34.076   4.262   3.968  1.00 20.00     0.002 C 
HETATM    2  C3  UNL     1     -33.507   8.838   5.371  1.00 20.00     0.020 C 
HETATM    3  C4  UNL     1     -34.376   5.049   5.253  1.00 20.00     0.007 C 
HETATM    4  C5  UNL     1     -33.837   7.476   5.988  1.00 20.00     0.008 C 
HETATM    5  C6  UNL     1     -33.351   5.234   3.023  1.00 20.00     0.026 C 
HETATM    6  C7  UNL     1     -32.386   8.760   4.329  1.00 20.00     0.125 C 
HETATM    7  C8  UNL     1     -34.110   6.495   4.863  1.00 20.00     0.009 C 
HETATM    8  C9  UNL     1     -32.896   6.364   3.942  1.00 20.00     0.090 C 
HETATM    9  N10 UNL     1     -32.540   7.659   3.373  1.00 20.00    -0.354 N 
ENDROOT
BRANCH   9  10
HETATM   10  C1  UNL     1     -32.020   7.790   2.094  1.00 20.00     0.351 C 
HETATM   11  O11 UNL     1     -32.357   8.596   1.233  1.00 20.00    -0.284 OA
ENDBRANCH   9  10
TORSDOF 1
ENDMDL
MODEL 5
REMARK VINA RESULT:      -4.5      2.049      3.413
REMARK  1 active torsions:
REMARK  status: ('A' for Active; 'I' for Inactive)
REMARK    1  A    between atoms: C1_1  and  N10_10 
ROOT
HETATM    1  C2  UNL     1     -32.937   5.015   2.210  1.00 20.00     0.002 C 
HETATM    2  C3  UNL     1     -34.861   6.272   6.447  1.00 20.00     0.020 C 
HETATM    3  C4  UNL     1     -33.693   4.272   3.322  1.00 20.00     0.007 C 
HETATM    4  C5  UNL     1     -34.509   4.998   5.674  1.00 20.00     0.008 C 
HETATM    5  C6  UNL     1     -32.727   6.453   2.713  1.00 20.00     0.026 C 
HETATM    6  C7  UNL     1     -33.775   7.347   6.343  1.00 20.00     0.125 C 
HETATM    7  C8  UNL     1     -34.161   5.385   4.248  1.00 20.00     0.009 C 
HETATM    8  C9  UNL     1     -32.978   6.353   4.216  1.00 20.00     0.090 C 
HETATM    9  N10 UNL     1     -33.278   7.558   4.980  1.00 20.00    -0.354 N 
ENDROOT
BRANCH   9  10
HETATM   10  C1  UNL     1     -32.794   8.807   4.617  1.00 20.00     0.351 C 
HETATM   11  O11 UNL     1     -31.997   9.505   5.236  1.00 20.00    -0.284 OA
ENDBRANCH   9  10
TORSDOF 1
ENDMDL
MODEL 6
REMARK VINA RESULT:      -4.5      1.775      3.597
REMARK  1 active torsions:
REMARK  status: ('A' for Active; 'I' for Inactive)
REMARK    1  A    between atoms: C1_1  and  N10_10 
ROOT
HETATM    1  C2  UNL     1     -32.998   5.063   2.303  1.00 20.00     0.002 C 
HETATM    2  C3  UNL     1     -32.531   8.986   5.065  1.00 20.00     0.020 C 
HETATM    3  C4  UNL     1     -32.397   6.464   2.107  1.00 20.00     0.007 C 
HETATM    4  C5  UNL     1     -32.382   8.588   3.594  1.00 20.00     0.008 C 
HETATM    5  C6  UNL     1     -33.646   5.060   3.697  1.00 20.00     0.026 C 
HETATM    6  C7  UNL     1     -33.770   8.370   5.722  1.00 20.00     0.125 C 
HETATM    7  C8  UNL     1     -32.439   7.074   3.500  1.00 20.00     0.009 C 
HETATM    8  C9  UNL     1     -33.764   6.541   4.048  1.00 20.00     0.090 C 
HETATM    9  N10 UNL     1     -33.944   6.942   5.438  1.00 20.00    -0.354 N 
ENDROOT
BRANCH   9  10
HETATM   10  C1  UNL     1     -34.590   6.137   6.366  1.00 20.00     0.351 C 
HETATM   11  O11 UNL     1     -34.216   5.050   6.794  1.00 20.00    -0.284 OA
ENDBRANCH   9  10
TORSDOF 1
ENDMDL
MODEL 7
REMARK VINA RESULT:      -4.4      1.429      2.322
REMARK  1 active torsions:
REMARK  status: ('A' for Active; 'I' for Inactive)
REMARK    1  A    between atoms: C1_1  and  N10_10 
ROOT
HETATM    1  C2  UNL     1     -33.724   8.439   6.347  1.00 20.00     0.002 C 
HETATM    2  C3  UNL     1     -33.735   4.258   3.949  1.00 20.00     0.020 C 
HETATM    3  C4  UNL     1     -34.437   7.089   6.522  1.00 20.00     0.007 C 
HETATM    4  C5  UNL     1     -34.537   4.957   5.050  1.00 20.00     0.008 C 
HETATM    5  C6  UNL     1     -32.937   8.347   5.030  1.00 20.00     0.026 C 
HETATM    6  C7  UNL     1     -33.363   5.199   2.798  1.00 20.00     0.125 C 
HETATM    7  C8  UNL     1     -33.772   6.192   5.488  1.00 20.00     0.009 C 
HETATM    8  C9  UNL     1     -33.560   7.150   4.315  1.00 20.00     0.090 C 
HETATM    9  N10 UNL     1     -32.830   6.492   3.238  1.00 20.00    -0.354 N 
ENDROOT
BRANCH   9  10
HETATM   10  C1  UNL     1     -31.932   7.170   2.426  1.00 20.00     0.351 C 
HETATM   11  O11 UNL     1     -32.195   7.902   1.477  1.00 20.00    -0.284 OA
ENDBRANCH   9  10
TORSDOF 1
ENDMDL
MODEL 8
REMARK VINA RESULT:      -4.4      1.255      1.705
REMARK  1 active torsions:
REMARK  status: ('A' for Active; 'I' for Inactive)
REMARK    1  A    between atoms: C1_1  and  N10_10 
ROOT
HETATM    1  C2  UNL     1     -32.024   7.986   2.416  1.00 20.00     0.002 C 
HETATM    2  C3  UNL     1     -34.154   7.142   6.657  1.00 20.00     0.020 C 
HETATM    3  C4  UNL     1     -32.401   8.846   3.632  1.00 20.00     0.007 C 
HETATM    4  C5  UNL     1     -33.742   8.336   5.791  1.00 20.00     0.008 C 
HETATM    5  C6  UNL     1     -32.581   6.579   2.690  1.00 20.00     0.026 C 
HETATM    6  C7  UNL     1     -34.778   6.006   5.839  1.00 20.00     0.125 C 
HETATM    7  C8  UNL     1     -32.856   7.830   4.668  1.00 20.00     0.009 C 
HETATM    8  C9  UNL     1     -33.594   6.800   3.810  1.00 20.00     0.090 C 
HETATM    9  N10 UNL     1     -34.030   5.671   4.623  1.00 20.00    -0.354 N 
ENDROOT
BRANCH   9  10
HETATM   10  C1  UNL     1     -34.078   4.375   4.129  1.00 20.00     0.351 C 
HETATM   11  O11 UNL     1     -33.681   3.354   4.680  1.00 20.00    -0.284 OA
ENDBRANCH   9  10
TORSDOF 1
ENDMDL
MODEL 9
REMARK VINA RESULT:      -4.0      1.750      2.927
REMARK  1 active torsions:
REMARK  status: ('A' for Active; 'I' for Inactive)
REMARK    1  A    between atoms: C1_1  and  N10_10 
ROOT
HETATM    1  C2  UNL     1     -32.690   9.214   5.173  1.00 20.00     0.002 C 
HETATM    2  C3  UNL     1     -33.169   5.306   2.392  1.00 20.00     0.020 C 
HETATM    3  C4  UNL     1     -31.999   8.693   3.903  1.00 20.00     0.007 C 
HETATM    4  C5  UNL     1     -32.187   6.464   2.593  1.00 20.00     0.008 C 
HETATM    5  C6  UNL     1     -33.672   8.116   5.614  1.00 20.00     0.026 C 
HETATM    6  C7  UNL     1     -33.684   4.729   3.715  1.00 20.00     0.125 C 
HETATM    7  C8  UNL     1     -32.840   7.492   3.500  1.00 20.00     0.009 C 
HETATM    8  C9  UNL     1     -33.201   6.879   4.853  1.00 20.00     0.090 C 
HETATM    9  N10 UNL     1     -34.106   5.748   4.681  1.00 20.00    -0.354 N 
ENDROOT
BRANCH   9  10
HETATM   10  C1  UNL     1     -35.097   5.443   5.603  1.00 20.00     0.351 C 
HETATM   11  O11 UNL     1     -34.957   5.236   6.804  1.00 20.00    -0.284 OA
ENDBRANCH   9  10
TORSDOF 1
ENDMDL
