MODEL 1
REMARK VINA RESULT:      -4.2      0.000      0.000
REMARK  3 active torsions:
REMARK  status: ('A' for Active; 'I' for Inactive)
REMARK    1  A    between atoms: C5_5  and  C9_9 
REMARK    2  A    between atoms: C6_6  and  C10_10 
REMARK    3  A    between atoms: C10_10  and  C11_11 
ROOT
HETATM    1  C1  UNL     1     -42.458  12.289   7.018  1.00 20.00     0.069 C 
HETATM    2  C2  UNL     1     -41.895  15.169   5.913  1.00 20.00     0.006 C 
HETATM    3  C3  UNL     1     -41.590  13.813   5.265  1.00 20.00     0.025 C 
HETATM    4  C4  UNL     1     -40.533  13.808   7.404  1.00 20.00     0.029 C 
HETATM    5  C5  UNL     1     -41.365  15.094   7.351  1.00 20.00    -0.013 C 
HETATM    6  C6  UNL     1     -41.235  12.865   6.419  1.00 20.00     0.049 C 
HETATM    7  N12 UNL     1     -43.417  11.837   7.488  1.00 20.00    -0.196 NA
ENDROOT
BRANCH   6   8
HETATM    8  C10 UNL     1     -40.316  11.731   5.964  1.00 20.00     0.024 C 
BRANCH   8   9
HETATM    9  C11 UNL     1     -39.064  12.274   5.287  1.00 20.00    -0.003 C 
HETATM   10  C8  UNL     1     -38.878  11.669   3.905  1.00 20.00     0.005 C 
ENDBRANCH   8   9
ENDBRANCH   6   8
BRANCH   5  11
HETATM   11  C9  UNL     1     -40.574  16.327   7.761  1.00 20.00     0.000 C 
HETATM   12  C7  UNL     1     -41.185  17.584   7.226  1.00 20.00     0.005 C 
ENDBRANCH   5  11
TORSDOF 3
ENDMDL
MODEL 2
REMARK VINA RESULT:      -4.2     12.452     13.611
REMARK  3 active torsions:
REMARK  status: ('A' for Active; 'I' for Inactive)
REMARK    1  A    between atoms: C5_5  and  C9_9 
REMARK    2  A    between atoms: C6_6  and  C10_10 
REMARK    3  A    between atoms: C10_10  and  C11_11 
ROOT
HETATM    1  C1  UNL     1     -34.344  15.373  -6.986  1.00 20.00     0.069 C 
HETATM    2  C2  UNL     1     -34.117  14.410  -4.010  1.00 20.00     0.006 C 
HETATM    3  C3  UNL     1     -35.323  14.343  -4.954  1.00 20.00     0.025 C 
HETATM    4  C4  UNL     1     -34.645  16.629  -4.866  1.00 20.00     0.029 C 
HETATM    5  C5  UNL     1     -33.578  15.845  -4.094  1.00 20.00    -0.013 C 
HETATM    6  C6  UNL     1     -35.242  15.599  -5.833  1.00 20.00     0.049 C 
HETATM    7  N12 UNL     1     -33.640  15.197  -7.891  1.00 20.00    -0.196 NA
ENDROOT
BRANCH   6   8
HETATM    8  C10 UNL     1     -36.618  16.028  -6.344  1.00 20.00     0.024 C 
BRANCH   8   9
HETATM    9  C11 UNL     1     -37.365  16.843  -5.295  1.00 20.00    -0.003 C 
HETATM   10  C8  UNL     1     -38.668  16.166  -4.898  1.00 20.00     0.005 C 
ENDBRANCH   8   9
ENDBRANCH   6   8
BRANCH   5  11
HETATM   11  C9  UNL     1     -33.272  16.447  -2.732  1.00 20.00     0.000 C 
HETATM   12  C7  UNL     1     -34.057  17.698  -2.486  1.00 20.00     0.005 C 
ENDBRANCH   5  11
TORSDOF 3
ENDMDL
MODEL 3
REMARK VINA RESULT:      -4.1     11.936     13.713
REMARK  3 active torsions:
REMARK  status: ('A' for Active; 'I' for Inactive)
REMARK    1  A    between atoms: C5_5  and  C9_9 
REMARK    2  A    between atoms: C6_6  and  C10_10 
REMARK    3  A    between atoms: C10_10  and  C11_11 
ROOT
HETATM    1  C1  UNL     1     -35.239  14.029  -4.629  1.00 20.00     0.069 C 
HETATM    2  C2  UNL     1     -34.974  15.577  -7.344  1.00 20.00     0.006 C 
HETATM    3  C3  UNL     1     -33.868  15.115  -6.387  1.00 20.00     0.025 C 
HETATM    4  C4  UNL     1     -35.366  16.462  -5.109  1.00 20.00     0.029 C 
HETATM    5  C5  UNL     1     -36.024  16.292  -6.483  1.00 20.00    -0.013 C 
HETATM    6  C6  UNL     1     -34.455  15.235  -4.974  1.00 20.00     0.049 C 
HETATM    7  N12 UNL     1     -35.853  13.084  -4.358  1.00 20.00    -0.196 NA
ENDROOT
BRANCH   6   8
HETATM    8  C10 UNL     1     -33.368  15.447  -3.920  1.00 20.00     0.024 C 
BRANCH   8   9
HETATM    9  C11 UNL     1     -33.353  16.888  -3.425  1.00 20.00    -0.003 C 
HETATM   10  C8  UNL     1     -33.463  16.952  -1.910  1.00 20.00     0.005 C 
ENDBRANCH   8   9
ENDBRANCH   6   8
BRANCH   5  11
HETATM   11  C9  UNL     1     -36.489  17.610  -7.082  1.00 20.00     0.000 C 
HETATM   12  C7  UNL     1     -35.474  18.695  -6.898  1.00 20.00     0.005 C 
ENDBRANCH   5  11
TORSDOF 3
ENDMDL
MODEL 4
REMARK VINA RESULT:      -4.0      1.858      2.666
REMARK  3 active torsions:
REMARK  status: ('A' for Active; 'I' for Inactive)
REMARK    1  A    between atoms: C5_5  and  C9_9 
REMARK    2  A    between atoms: C6_6  and  C10_10 
REMARK    3  A    between atoms: C10_10  and  C11_11 
ROOT
HETATM    1  C1  UNL     1     -41.640  13.825   4.881  1.00 20.00     0.069 C 
HETATM    2  C2  UNL     1     -41.340  15.174   7.697  1.00 20.00     0.006 C 
HETATM    3  C3  UNL     1     -40.350  14.270   6.952  1.00 20.00     0.025 C 
HETATM    4  C4  UNL     1     -42.399  13.058   7.118  1.00 20.00     0.029 C 
HETATM    5  C5  UNL     1     -42.701  14.466   7.645  1.00 20.00    -0.013 C 
HETATM    6  C6  UNL     1     -41.205  13.258   6.176  1.00 20.00     0.049 C 
HETATM    7  N12 UNL     1     -41.982  14.269   3.866  1.00 20.00    -0.196 NA
ENDROOT
BRANCH   6   8
HETATM    8  C10 UNL     1     -40.454  11.950   5.924  1.00 20.00     0.024 C 
BRANCH   8   9
HETATM    9  C11 UNL     1     -39.054  12.215   5.382  1.00 20.00    -0.003 C 
HETATM   10  C8  UNL     1     -38.867  11.586   4.010  1.00 20.00     0.005 C 
ENDBRANCH   8   9
ENDBRANCH   6   8
BRANCH   5  11
HETATM   11  C9  UNL     1     -43.417  14.452   8.987  1.00 20.00     0.000 C 
HETATM   12  C7  UNL     1     -43.025  13.270   9.817  1.00 20.00     0.005 C 
ENDBRANCH   5  11
TORSDOF 3
ENDMDL
MODEL 5
REMARK VINA RESULT:      -4.0      1.940      4.453
REMARK  3 active torsions:
REMARK  status: ('A' for Active; 'I' for Inactive)
REMARK    1  A    between atoms: C5_5  and  C9_9 
REMARK    2  A    between atoms: C6_6  and  C10_10 
REMARK    3  A    between atoms: C10_10  and  C11_11 
ROOT
HETATM    1  C1  UNL     1     -42.254  15.526   6.299  1.00 20.00     0.069 C 
HETATM    2  C2  UNL     1     -42.171  12.412   6.656  1.00 20.00     0.006 C 
HETATM    3  C3  UNL     1     -42.510  13.491   7.692  1.00 20.00     0.025 C 
HETATM    4  C4  UNL     1     -40.351  14.022   6.825  1.00 20.00     0.029 C 
HETATM    5  C5  UNL     1     -40.867  12.853   5.978  1.00 20.00    -0.013 C 
HETATM    6  C6  UNL     1     -41.624  14.698   7.349  1.00 20.00     0.049 C 
HETATM    7  N12 UNL     1     -42.748  16.177   5.475  1.00 20.00    -0.196 NA
ENDROOT
BRANCH   6   8
HETATM    8  C10 UNL     1     -41.345  15.567   8.575  1.00 20.00     0.024 C 
BRANCH   8   9
HETATM    9  C11 UNL     1     -40.149  15.042   9.361  1.00 20.00    -0.003 C 
HETATM   10  C8  UNL     1     -40.573  14.515  10.723  1.00 20.00     0.005 C 
ENDBRANCH   8   9
ENDBRANCH   6   8
BRANCH   5  11
HETATM   11  C9  UNL     1     -39.853  11.727   5.846  1.00 20.00     0.000 C 
HETATM   12  C7  UNL     1     -39.192  11.728   4.503  1.00 20.00     0.005 C 
ENDBRANCH   5  11
TORSDOF 3
ENDMDL
MODEL 6
REMARK VINA RESULT:      -4.0      1.364      3.864
REMARK  3 active torsions:
REMARK  status: ('A' for Active; 'I' for Inactive)
REMARK    1  A    between atoms: C5_5  and  C9_9 
REMARK    2  A    between atoms: C6_6  and  C10_10 
REMARK    3  A    between atoms: C10_10  and  C11_11 
ROOT
HETATM    1  C1  UNL     1     -42.745  12.539   7.095  1.00 20.00     0.069 C 
HETATM    2  C2  UNL     1     -39.708  13.308   7.250  1.00 20.00     0.006 C 
HETATM    3  C3  UNL     1     -40.933  14.229   7.190  1.00 20.00     0.025 C 
HETATM    4  C4  UNL     1     -41.059  12.791   5.290  1.00 20.00     0.029 C 
HETATM    5  C5  UNL     1     -39.886  12.274   6.130  1.00 20.00    -0.013 C 
HETATM    6  C6  UNL     1     -41.959  13.510   6.303  1.00 20.00     0.049 C 
HETATM    7  N12 UNL     1     -43.362  11.778   7.715  1.00 20.00    -0.196 NA
ENDROOT
BRANCH   6   8
HETATM    8  C10 UNL     1     -42.913  14.492   5.622  1.00 20.00     0.024 C 
BRANCH   8   9
HETATM    9  C11 UNL     1     -42.665  14.547   4.119  1.00 20.00    -0.003 C 
HETATM   10  C8  UNL     1     -42.708  15.978   3.606  1.00 20.00     0.005 C 
ENDBRANCH   8   9
ENDBRANCH   6   8
BRANCH   5  11
HETATM   11  C9  UNL     1     -38.623  12.059   5.311  1.00 20.00     0.000 C 
HETATM   12  C7  UNL     1     -38.933  11.692   3.893  1.00 20.00     0.005 C 
ENDBRANCH   5  11
TORSDOF 3
ENDMDL
MODEL 7
REMARK VINA RESULT:      -3.8      1.085      4.155
REMARK  3 active torsions:
REMARK  status: ('A' for Active; 'I' for Inactive)
REMARK    1  A    between atoms: C5_5  and  C9_9 
REMARK    2  A    between atoms: C6_6  and  C10_10 
REMARK    3  A    between atoms: C10_10  and  C11_11 
ROOT
HETATM    1  C1  UNL     1     -42.701  12.598   6.873  1.00 20.00     0.069 C 
HETATM    2  C2  UNL     1     -39.616  13.022   7.246  1.00 20.00     0.006 C 
HETATM    3  C3  UNL     1     -40.743  14.062   7.287  1.00 20.00     0.025 C 
HETATM    4  C4  UNL     1     -40.913  12.945   5.185  1.00 20.00     0.029 C 
HETATM    5  C5  UNL     1     -39.837  12.191   5.975  1.00 20.00    -0.013 C 
HETATM    6  C6  UNL     1     -41.789  13.591   6.266  1.00 20.00     0.049 C 
HETATM    7  N12 UNL     1     -43.417  11.819   7.348  1.00 20.00    -0.196 NA
ENDROOT
BRANCH   6   8
HETATM    8  C10 UNL     1     -42.610  14.755   5.712  1.00 20.00     0.024 C 
BRANCH   8   9
HETATM    9  C11 UNL     1     -42.261  16.061   6.417  1.00 20.00    -0.003 C 
HETATM   10  C8  UNL     1     -42.644  17.264   5.571  1.00 20.00     0.005 C 
ENDBRANCH   8   9
ENDBRANCH   6   8
BRANCH   5  11
HETATM   11  C9  UNL     1     -38.562  11.973   5.176  1.00 20.00     0.000 C 
HETATM   12  C7  UNL     1     -38.850  11.640   3.746  1.00 20.00     0.005 C 
ENDBRANCH   5  11
TORSDOF 3
ENDMDL
MODEL 8
REMARK VINA RESULT:      -3.6     11.642     12.652
REMARK  3 active torsions:
REMARK  status: ('A' for Active; 'I' for Inactive)
REMARK    1  A    between atoms: C5_5  and  C9_9 
REMARK    2  A    between atoms: C6_6  and  C10_10 
REMARK    3  A    between atoms: C10_10  and  C11_11 
ROOT
HETATM    1  C1  UNL     1     -35.207  18.060  -3.232  1.00 20.00     0.069 C 
HETATM    2  C2  UNL     1     -32.532  19.263  -2.122  1.00 20.00     0.006 C 
HETATM    3  C3  UNL     1     -32.755  18.401  -3.371  1.00 20.00     0.025 C 
HETATM    4  C4  UNL     1     -33.638  17.177  -1.523  1.00 20.00     0.029 C 
HETATM    5  C5  UNL     1     -33.256  18.554  -0.969  1.00 20.00    -0.013 C 
HETATM    6  C6  UNL     1     -33.888  17.427  -3.015  1.00 20.00     0.049 C 
HETATM    7  N12 UNL     1     -36.242  18.555  -3.403  1.00 20.00    -0.196 NA
ENDROOT
BRANCH   6   8
HETATM    8  C10 UNL     1     -33.809  16.137  -3.830  1.00 20.00     0.024 C 
BRANCH   8   9
HETATM    9  C11 UNL     1     -34.538  16.280  -5.161  1.00 20.00    -0.003 C 
HETATM   10  C8  UNL     1     -34.139  15.178  -6.130  1.00 20.00     0.005 C 
ENDBRANCH   8   9
ENDBRANCH   6   8
BRANCH   5  11
HETATM   11  C9  UNL     1     -32.419  18.470   0.298  1.00 20.00     0.000 C 
HETATM   12  C7  UNL     1     -30.983  18.805   0.041  1.00 20.00     0.005 C 
ENDBRANCH   5  11
TORSDOF 3
ENDMDL
MODEL 9
REMARK VINA RESULT:      -3.5      2.219      4.533
REMARK  3 active torsions:
REMARK  status: ('A' for Active; 'I' for Inactive)
REMARK    1  A    between atoms: C5_5  and  C9_9 
REMARK    2  A    between atoms: C6_6  and  C10_10 
REMARK    3  A    between atoms: C10_10  and  C11_11 
ROOT
HETATM    1  C1  UNL     1     -41.131  15.947   7.382  1.00 20.00     0.069 C 
HETATM    2  C2  UNL     1     -41.317  13.632   5.274  1.00 20.00     0.006 C 
HETATM    3  C3  UNL     1     -42.410  14.183   6.199  1.00 20.00     0.025 C 
HETATM    4  C4  UNL     1     -40.589  13.534   7.597  1.00 20.00     0.029 C 
HETATM    5  C5  UNL     1     -40.086  13.382   6.157  1.00 20.00    -0.013 C 
HETATM    6  C6  UNL     1     -41.700  14.587   7.498  1.00 20.00     0.049 C 
HETATM    7  N12 UNL     1     -40.685  17.014   7.292  1.00 20.00    -0.196 NA
ENDROOT
BRANCH   6   8
HETATM    8  C10 UNL     1     -42.640  14.536   8.702  1.00 20.00     0.024 C 
BRANCH   8   9
HETATM    9  C11 UNL     1     -43.375  13.203   8.772  1.00 20.00    -0.003 C 
HETATM   10  C8  UNL     1     -43.395  12.658  10.191  1.00 20.00     0.005 C 
ENDBRANCH   8   9
ENDBRANCH   6   8
BRANCH   5  11
HETATM   11  C9  UNL     1     -39.432  12.034   5.899  1.00 20.00     0.000 C 
HETATM   12  C7  UNL     1     -39.263  11.766   4.436  1.00 20.00     0.005 C 
ENDBRANCH   5  11
TORSDOF 3
ENDMDL
