MODEL 1
REMARK VINA RESULT:      -4.7      0.000      0.000
REMARK  2 active torsions:
REMARK  status: ('A' for Active; 'I' for Inactive)
REMARK    1  A    between atoms: C3_3  and  C8_8 
REMARK    2  A    between atoms: C3_3  and  C9_9 
ROOT
HETATM    1  C1  UNL     1     -32.489   8.811   0.772  1.00 20.00     0.012 C 
HETATM    2  C2  UNL     1     -32.293   8.186   1.778  1.00 20.00    -0.110 C 
HETATM    3  C9  UNL     1     -32.045   7.425   3.007  1.00 20.00     0.171 C 
ENDROOT
BRANCH   3   4
HETATM    4  C3  UNL     1     -33.118   6.387   3.275  1.00 20.00     0.142 C 
HETATM    5  O10 UNL     1     -33.016   5.211   2.930  1.00 20.00    -0.297 OA
BRANCH   4   6
HETATM    6  C8  UNL     1     -34.354   6.880   4.008  1.00 20.00     0.060 C 
HETATM    7  C4  UNL     1     -35.185   5.683   4.456  1.00 20.00     0.038 C 
HETATM    8  C6  UNL     1     -34.611   5.002   5.695  1.00 20.00     0.168 C 
HETATM    9  O11 UNL     1     -34.390   5.948   6.738  1.00 20.00    -0.391 OA
HETATM   10  C7  UNL     1     -33.430   6.935   6.369  1.00 20.00     0.168 C 
HETATM   11  C5  UNL     1     -33.922   7.753   5.180  1.00 20.00     0.038 C 
ENDBRANCH   4   6
ENDBRANCH   3   4
TORSDOF 2
ENDMDL
MODEL 2
REMARK VINA RESULT:      -4.6      1.462      1.524
REMARK  2 active torsions:
REMARK  status: ('A' for Active; 'I' for Inactive)
REMARK    1  A    between atoms: C3_3  and  C8_8 
REMARK    2  A    between atoms: C3_3  and  C9_9 
ROOT
HETATM    1  C1  UNL     1     -32.149   8.523   0.901  1.00 20.00     0.012 C 
HETATM    2  C2  UNL     1     -32.303   7.790   1.839  1.00 20.00    -0.110 C 
HETATM    3  C9  UNL     1     -32.493   6.888   2.980  1.00 20.00     0.171 C 
ENDROOT
BRANCH   3   4
HETATM    4  C3  UNL     1     -32.855   7.628   4.253  1.00 20.00     0.142 C 
HETATM    5  O10 UNL     1     -32.079   8.386   4.833  1.00 20.00    -0.297 OA
BRANCH   4   6
HETATM    6  C8  UNL     1     -34.254   7.384   4.791  1.00 20.00     0.060 C 
HETATM    7  C4  UNL     1     -34.863   6.177   4.087  1.00 20.00     0.038 C 
HETATM    8  C6  UNL     1     -34.328   4.853   4.624  1.00 20.00     0.168 C 
HETATM    9  O11 UNL     1     -34.455   4.791   6.042  1.00 20.00    -0.391 OA
HETATM   10  C7  UNL     1     -33.687   5.802   6.691  1.00 20.00     0.168 C 
HETATM   11  C5  UNL     1     -34.178   7.192   6.302  1.00 20.00     0.038 C 
ENDBRANCH   4   6
ENDBRANCH   3   4
TORSDOF 2
ENDMDL
MODEL 3
REMARK VINA RESULT:      -4.1     11.690     13.045
REMARK  2 active torsions:
REMARK  status: ('A' for Active; 'I' for Inactive)
REMARK    1  A    between atoms: C3_3  and  C8_8 
REMARK    2  A    between atoms: C3_3  and  C9_9 
ROOT
HETATM    1  C1  UNL     1     -33.613  16.984  -1.758  1.00 20.00     0.012 C 
HETATM    2  C2  UNL     1     -33.283  16.389  -2.746  1.00 20.00    -0.110 C 
HETATM    3  C9  UNL     1     -32.872  15.667  -3.956  1.00 20.00     0.171 C 
ENDROOT
BRANCH   3   4
HETATM    4  C3  UNL     1     -33.986  14.814  -4.531  1.00 20.00     0.142 C 
HETATM    5  O10 UNL     1     -34.479  13.860  -3.931  1.00 20.00    -0.297 OA
BRANCH   4   6
HETATM    6  C8  UNL     1     -34.477  15.202  -5.915  1.00 20.00     0.060 C 
HETATM    7  C4  UNL     1     -35.864  14.612  -6.142  1.00 20.00     0.038 C 
HETATM    8  C6  UNL     1     -36.960  15.402  -5.432  1.00 20.00     0.168 C 
HETATM    9  O11 UNL     1     -36.883  16.786  -5.763  1.00 20.00    -0.391 OA
HETATM   10  C7  UNL     1     -35.656  17.371  -5.333  1.00 20.00     0.168 C 
HETATM   11  C5  UNL     1     -34.469  16.721  -6.037  1.00 20.00     0.038 C 
ENDBRANCH   4   6
ENDBRANCH   3   4
TORSDOF 2
ENDMDL
MODEL 4
REMARK VINA RESULT:      -4.0     11.951     13.128
REMARK  2 active torsions:
REMARK  status: ('A' for Active; 'I' for Inactive)
REMARK    1  A    between atoms: C3_3  and  C8_8 
REMARK    2  A    between atoms: C3_3  and  C9_9 
ROOT
HETATM    1  C1  UNL     1     -33.669  17.760  -0.678  1.00 20.00     0.012 C 
HETATM    2  C2  UNL     1     -33.522  17.188  -1.723  1.00 20.00    -0.110 C 
HETATM    3  C9  UNL     1     -33.336  16.486  -2.998  1.00 20.00     0.171 C 
ENDROOT
BRANCH   3   4
HETATM    4  C3  UNL     1     -34.262  16.996  -4.084  1.00 20.00     0.142 C 
HETATM    5  O10 UNL     1     -35.012  17.960  -3.930  1.00 20.00    -0.297 OA
BRANCH   4   6
HETATM    6  C8  UNL     1     -34.221  16.245  -5.404  1.00 20.00     0.060 C 
HETATM    7  C4  UNL     1     -34.076  14.753  -5.131  1.00 20.00     0.038 C 
HETATM    8  C6  UNL     1     -35.389  14.106  -4.699  1.00 20.00     0.168 C 
HETATM    9  O11 UNL     1     -36.430  14.403  -5.626  1.00 20.00    -0.391 OA
HETATM   10  C7  UNL     1     -36.702  15.801  -5.693  1.00 20.00     0.168 C 
HETATM   11  C5  UNL     1     -35.483  16.567  -6.197  1.00 20.00     0.038 C 
ENDBRANCH   4   6
ENDBRANCH   3   4
TORSDOF 2
ENDMDL
MODEL 5
REMARK VINA RESULT:      -3.9     11.822     13.314
REMARK  2 active torsions:
REMARK  status: ('A' for Active; 'I' for Inactive)
REMARK    1  A    between atoms: C3_3  and  C8_8 
REMARK    2  A    between atoms: C3_3  and  C9_9 
ROOT
HETATM    1  C1  UNL     1     -33.637  17.349  -1.471  1.00 20.00     0.012 C 
HETATM    2  C2  UNL     1     -33.350  16.698  -2.437  1.00 20.00    -0.110 C 
HETATM    3  C9  UNL     1     -32.992  15.905  -3.619  1.00 20.00     0.171 C 
ENDROOT
BRANCH   3   4
HETATM    4  C3  UNL     1     -34.190  15.217  -4.243  1.00 20.00     0.142 C 
HETATM    5  O10 UNL     1     -34.413  14.013  -4.119  1.00 20.00    -0.297 OA
BRANCH   4   6
HETATM    6  C8  UNL     1     -35.126  16.103  -5.047  1.00 20.00     0.060 C 
HETATM    7  C4  UNL     1     -34.355  16.736  -6.199  1.00 20.00     0.038 C 
HETATM    8  C6  UNL     1     -34.130  15.768  -7.357  1.00 20.00     0.168 C 
HETATM    9  O11 UNL     1     -35.359  15.176  -7.769  1.00 20.00    -0.391 OA
HETATM   10  C7  UNL     1     -35.951  14.396  -6.733  1.00 20.00     0.168 C 
HETATM   11  C5  UNL     1     -36.306  15.268  -5.533  1.00 20.00     0.038 C 
ENDBRANCH   4   6
ENDBRANCH   3   4
TORSDOF 2
ENDMDL
MODEL 6
REMARK VINA RESULT:      -3.8      9.718     10.760
REMARK  2 active torsions:
REMARK  status: ('A' for Active; 'I' for Inactive)
REMARK    1  A    between atoms: C3_3  and  C8_8 
REMARK    2  A    between atoms: C3_3  and  C9_9 
ROOT
HETATM    1  C1  UNL     1     -39.152  11.494   4.079  1.00 20.00     0.012 C 
HETATM    2  C2  UNL     1     -39.367  12.063   5.114  1.00 20.00    -0.110 C 
HETATM    3  C9  UNL     1     -39.622  12.757   6.382  1.00 20.00     0.171 C 
ENDROOT
BRANCH   3   4
HETATM    4  C3  UNL     1     -41.101  12.954   6.649  1.00 20.00     0.142 C 
HETATM    5  O10 UNL     1     -41.909  12.027   6.675  1.00 20.00    -0.297 OA
BRANCH   4   6
HETATM    6  C8  UNL     1     -41.550  14.386   6.890  1.00 20.00     0.060 C 
HETATM    7  C4  UNL     1     -42.801  14.382   7.760  1.00 20.00     0.038 C 
HETATM    8  C6  UNL     1     -42.490  14.136   9.233  1.00 20.00     0.168 C 
HETATM    9  O11 UNL     1     -41.491  15.040   9.699  1.00 20.00    -0.391 OA
HETATM   10  C7  UNL     1     -40.252  14.865   9.016  1.00 20.00     0.168 C 
HETATM   11  C5  UNL     1     -40.406  15.165   7.528  1.00 20.00     0.038 C 
ENDBRANCH   4   6
ENDBRANCH   3   4
TORSDOF 2
ENDMDL
MODEL 7
REMARK VINA RESULT:      -3.7     10.012     11.054
REMARK  2 active torsions:
REMARK  status: ('A' for Active; 'I' for Inactive)
REMARK    1  A    between atoms: C3_3  and  C8_8 
REMARK    2  A    between atoms: C3_3  and  C9_9 
ROOT
HETATM    1  C1  UNL     1     -38.872  11.564   3.851  1.00 20.00     0.012 C 
HETATM    2  C2  UNL     1     -39.362  11.976   4.866  1.00 20.00    -0.110 C 
HETATM    3  C9  UNL     1     -39.958  12.474   6.111  1.00 20.00     0.171 C 
ENDROOT
BRANCH   3   4
HETATM    4  C3  UNL     1     -41.143  13.387   5.865  1.00 20.00     0.142 C 
HETATM    5  O10 UNL     1     -41.480  13.761   4.743  1.00 20.00    -0.297 OA
BRANCH   4   6
HETATM    6  C8  UNL     1     -41.914  13.828   7.097  1.00 20.00     0.060 C 
HETATM    7  C4  UNL     1     -40.930  14.240   8.187  1.00 20.00     0.038 C 
HETATM    8  C6  UNL     1     -40.339  15.626   7.949  1.00 20.00     0.168 C 
HETATM    9  O11 UNL     1     -41.368  16.588   7.737  1.00 20.00    -0.391 OA
HETATM   10  C7  UNL     1     -42.137  16.299   6.572  1.00 20.00     0.168 C 
HETATM   11  C5  UNL     1     -42.857  14.962   6.713  1.00 20.00     0.038 C 
ENDBRANCH   4   6
ENDBRANCH   3   4
TORSDOF 2
ENDMDL
MODEL 8
REMARK VINA RESULT:      -3.6     10.338     11.562
REMARK  2 active torsions:
REMARK  status: ('A' for Active; 'I' for Inactive)
REMARK    1  A    between atoms: C3_3  and  C8_8 
REMARK    2  A    between atoms: C3_3  and  C9_9 
ROOT
HETATM    1  C1  UNL     1     -39.371  11.754   4.873  1.00 20.00     0.012 C 
HETATM    2  C2  UNL     1     -40.166  12.555   5.282  1.00 20.00    -0.110 C 
HETATM    3  C9  UNL     1     -41.138  13.538   5.776  1.00 20.00     0.171 C 
ENDROOT
BRANCH   3   4
HETATM    4  C3  UNL     1     -41.367  13.429   7.270  1.00 20.00     0.142 C 
HETATM    5  O10 UNL     1     -42.216  12.693   7.768  1.00 20.00    -0.297 OA
BRANCH   4   6
HETATM    6  C8  UNL     1     -40.475  14.294   8.146  1.00 20.00     0.060 C 
HETATM    7  C4  UNL     1     -40.377  15.690   7.543  1.00 20.00     0.038 C 
HETATM    8  C6  UNL     1     -41.618  16.535   7.815  1.00 20.00     0.168 C 
HETATM    9  O11 UNL     1     -41.927  16.551   9.207  1.00 20.00    -0.391 OA
HETATM   10  C7  UNL     1     -42.239  15.249   9.699  1.00 20.00     0.168 C 
HETATM   11  C5  UNL     1     -41.041  14.315   9.562  1.00 20.00     0.038 C 
ENDBRANCH   4   6
ENDBRANCH   3   4
TORSDOF 2
ENDMDL
MODEL 9
REMARK VINA RESULT:      -3.5     12.512     13.838
REMARK  2 active torsions:
REMARK  status: ('A' for Active; 'I' for Inactive)
REMARK    1  A    between atoms: C3_3  and  C8_8 
REMARK    2  A    between atoms: C3_3  and  C9_9 
ROOT
HETATM    1  C1  UNL     1     -33.647  17.161  -1.391  1.00 20.00     0.012 C 
HETATM    2  C2  UNL     1     -33.615  17.356  -2.575  1.00 20.00    -0.110 C 
HETATM    3  C9  UNL     1     -33.571  17.598  -4.022  1.00 20.00     0.171 C 
ENDROOT
BRANCH   3   4
HETATM    4  C3  UNL     1     -34.847  17.174  -4.722  1.00 20.00     0.142 C 
HETATM    5  O10 UNL     1     -35.686  17.974  -5.132  1.00 20.00    -0.297 OA
BRANCH   4   6
HETATM    6  C8  UNL     1     -35.045  15.678  -4.899  1.00 20.00     0.060 C 
HETATM    7  C4  UNL     1     -36.358  15.426  -5.631  1.00 20.00     0.038 C 
HETATM    8  C6  UNL     1     -36.251  15.682  -7.131  1.00 20.00     0.168 C 
HETATM    9  O11 UNL     1     -35.156  14.963  -7.692  1.00 20.00    -0.391 OA
HETATM   10  C7  UNL     1     -33.907  15.383  -7.147  1.00 20.00     0.168 C 
HETATM   11  C5  UNL     1     -33.848  15.104  -5.649  1.00 20.00     0.038 C 
ENDBRANCH   4   6
ENDBRANCH   3   4
TORSDOF 2
ENDMDL
