MODEL 1
REMARK VINA RESULT:      -4.7      0.000      0.000
REMARK  3 active torsions:
REMARK  status: ('A' for Active; 'I' for Inactive)
REMARK    1  A    between atoms: C3_3  and  C7_7 
REMARK    2  A    between atoms: C3_3  and  C9_9 
REMARK    3  A    between atoms: C8_8  and  C9_9 
ROOT
HETATM    1  C1  UNL     1     -32.609   8.987   0.652  1.00 20.00     0.012 C 
HETATM    2  C2  UNL     1     -32.625   9.109   1.846  1.00 20.00    -0.117 C 
HETATM    3  C8  UNL     1     -32.645   9.263   3.308  1.00 20.00     0.100 C 
ENDROOT
BRANCH   3   4
HETATM    4  C9  UNL     1     -32.186   7.994   4.022  1.00 20.00     0.091 C 
BRANCH   4   5
HETATM    5  C3  UNL     1     -33.160   6.831   3.894  1.00 20.00     0.134 C 
HETATM    6  O10 UNL     1     -32.953   5.861   3.167  1.00 20.00    -0.297 OA
BRANCH   5   7
HETATM    7  C7  UNL     1     -34.419   6.920   4.740  1.00 20.00     0.081 C 
HETATM    8  C4  UNL     1     -34.045   6.853   6.198  1.00 20.00     0.040 C 
HETATM    9  C5  UNL     1     -33.980   5.365   6.468  1.00 20.00     0.168 C 
HETATM   10  O11 UNL     1     -34.890   4.735   5.559  1.00 20.00    -0.390 OA
HETATM   11  C6  UNL     1     -35.259   5.678   4.541  1.00 20.00     0.179 C 
ENDBRANCH   5   7
ENDBRANCH   4   5
ENDBRANCH   3   4
TORSDOF 3
ENDMDL
MODEL 2
REMARK VINA RESULT:      -4.4      1.580      2.192
REMARK  3 active torsions:
REMARK  status: ('A' for Active; 'I' for Inactive)
REMARK    1  A    between atoms: C3_3  and  C7_7 
REMARK    2  A    between atoms: C3_3  and  C9_9 
REMARK    3  A    between atoms: C8_8  and  C9_9 
ROOT
HETATM    1  C1  UNL     1     -32.111   7.256   2.331  1.00 20.00     0.012 C 
HETATM    2  C2  UNL     1     -32.251   7.866   3.356  1.00 20.00    -0.117 C 
HETATM    3  C8  UNL     1     -32.418   8.614   4.611  1.00 20.00     0.100 C 
ENDROOT
BRANCH   3   4
HETATM    4  C9  UNL     1     -33.776   8.350   5.255  1.00 20.00     0.091 C 
BRANCH   4   5
HETATM    5  C3  UNL     1     -33.809   7.105   6.131  1.00 20.00     0.134 C 
HETATM    6  O10 UNL     1     -32.988   6.891   7.021  1.00 20.00    -0.297 OA
BRANCH   5   7
HETATM    7  C7  UNL     1     -34.941   6.129   5.860  1.00 20.00     0.081 C 
HETATM    8  C4  UNL     1     -34.435   4.720   6.026  1.00 20.00     0.040 C 
HETATM    9  C5  UNL     1     -33.849   4.404   4.666  1.00 20.00     0.168 C 
HETATM   10  O11 UNL     1     -34.574   5.183   3.707  1.00 20.00    -0.390 OA
HETATM   11  C6  UNL     1     -35.330   6.188   4.400  1.00 20.00     0.179 C 
ENDBRANCH   5   7
ENDBRANCH   4   5
ENDBRANCH   3   4
TORSDOF 3
ENDMDL
MODEL 3
REMARK VINA RESULT:      -4.3     11.978     12.797
REMARK  3 active torsions:
REMARK  status: ('A' for Active; 'I' for Inactive)
REMARK    1  A    between atoms: C3_3  and  C7_7 
REMARK    2  A    between atoms: C3_3  and  C9_9 
REMARK    3  A    between atoms: C8_8  and  C9_9 
ROOT
HETATM    1  C1  UNL     1     -28.722  18.564   3.649  1.00 20.00     0.012 C 
HETATM    2  C2  UNL     1     -29.760  18.872   3.128  1.00 20.00    -0.117 C 
HETATM    3  C8  UNL     1     -31.030  19.252   2.494  1.00 20.00     0.100 C 
ENDROOT
BRANCH   3   4
HETATM    4  C9  UNL     1     -31.540  18.170   1.545  1.00 20.00     0.091 C 
BRANCH   4   5
HETATM    5  C3  UNL     1     -31.502  18.573   0.078  1.00 20.00     0.134 C 
HETATM    6  O10 UNL     1     -30.474  18.552  -0.596  1.00 20.00    -0.297 OA
BRANCH   5   7
HETATM    7  C7  UNL     1     -32.829  18.992  -0.533  1.00 20.00     0.081 C 
HETATM    8  C4  UNL     1     -33.780  17.824  -0.508  1.00 20.00     0.040 C 
HETATM    9  C5  UNL     1     -33.440  17.079  -1.782  1.00 20.00     0.168 C 
HETATM   10  O11 UNL     1     -32.947  18.048  -2.714  1.00 20.00    -0.390 OA
HETATM   11  C6  UNL     1     -32.651  19.263  -2.010  1.00 20.00     0.179 C 
ENDBRANCH   5   7
ENDBRANCH   4   5
ENDBRANCH   3   4
TORSDOF 3
ENDMDL
MODEL 4
REMARK VINA RESULT:      -4.3     11.427     12.724
REMARK  3 active torsions:
REMARK  status: ('A' for Active; 'I' for Inactive)
REMARK    1  A    between atoms: C3_3  and  C7_7 
REMARK    2  A    between atoms: C3_3  and  C9_9 
REMARK    3  A    between atoms: C8_8  and  C9_9 
ROOT
HETATM    1  C1  UNL     1     -32.158  18.323  -1.132  1.00 20.00     0.012 C 
HETATM    2  C2  UNL     1     -32.833  17.490  -1.672  1.00 20.00    -0.117 C 
HETATM    3  C8  UNL     1     -33.663  16.470  -2.330  1.00 20.00     0.100 C 
ENDROOT
BRANCH   3   4
HETATM    4  C9  UNL     1     -33.133  16.111  -3.716  1.00 20.00     0.091 C 
BRANCH   4   5
HETATM    5  C3  UNL     1     -33.963  15.059  -4.437  1.00 20.00     0.134 C 
HETATM    6  O10 UNL     1     -34.240  13.968  -3.941  1.00 20.00    -0.297 OA
BRANCH   5   7
HETATM    7  C7  UNL     1     -34.462  15.438  -5.821  1.00 20.00     0.081 C 
HETATM    8  C4  UNL     1     -35.008  16.841  -5.788  1.00 20.00     0.040 C 
HETATM    9  C5  UNL     1     -36.440  16.642  -5.337  1.00 20.00     0.168 C 
HETATM   10  O11 UNL     1     -36.840  15.340  -5.780  1.00 20.00    -0.390 OA
HETATM   11  C6  UNL     1     -35.672  14.604  -6.175  1.00 20.00     0.179 C 
ENDBRANCH   5   7
ENDBRANCH   4   5
ENDBRANCH   3   4
TORSDOF 3
ENDMDL
MODEL 5
REMARK VINA RESULT:      -4.1      0.997      1.119
REMARK  3 active torsions:
REMARK  status: ('A' for Active; 'I' for Inactive)
REMARK    1  A    between atoms: C3_3  and  C7_7 
REMARK    2  A    between atoms: C3_3  and  C9_9 
REMARK    3  A    between atoms: C8_8  and  C9_9 
ROOT
HETATM    1  C1  UNL     1     -32.744   9.581   0.507  1.00 20.00     0.012 C 
HETATM    2  C2  UNL     1     -32.349   8.610   1.093  1.00 20.00    -0.117 C 
HETATM    3  C8  UNL     1     -31.864   7.419   1.807  1.00 20.00     0.100 C 
ENDROOT
BRANCH   3   4
HETATM    4  C9  UNL     1     -32.384   7.363   3.241  1.00 20.00     0.091 C 
BRANCH   4   5
HETATM    5  C3  UNL     1     -33.314   6.190   3.512  1.00 20.00     0.134 C 
HETATM    6  O10 UNL     1     -33.103   5.055   3.087  1.00 20.00    -0.297 OA
BRANCH   5   7
HETATM    7  C7  UNL     1     -34.533   6.489   4.369  1.00 20.00     0.081 C 
HETATM    8  C4  UNL     1     -34.130   7.381   5.514  1.00 20.00     0.040 C 
HETATM    9  C5  UNL     1     -33.647   6.398   6.560  1.00 20.00     0.168 C 
HETATM   10  O11 UNL     1     -34.362   5.175   6.346  1.00 20.00    -0.390 OA
HETATM   11  C6  UNL     1     -34.996   5.226   5.059  1.00 20.00     0.179 C 
ENDBRANCH   5   7
ENDBRANCH   4   5
ENDBRANCH   3   4
TORSDOF 3
ENDMDL
MODEL 6
REMARK VINA RESULT:      -4.0     11.500     13.084
REMARK  3 active torsions:
REMARK  status: ('A' for Active; 'I' for Inactive)
REMARK    1  A    between atoms: C3_3  and  C7_7 
REMARK    2  A    between atoms: C3_3  and  C9_9 
REMARK    3  A    between atoms: C8_8  and  C9_9 
ROOT
HETATM    1  C1  UNL     1     -32.162  18.623  -1.079  1.00 20.00     0.012 C 
HETATM    2  C2  UNL     1     -32.790  17.725  -1.569  1.00 20.00    -0.117 C 
HETATM    3  C8  UNL     1     -33.560  16.623  -2.165  1.00 20.00     0.100 C 
ENDROOT
BRANCH   3   4
HETATM    4  C9  UNL     1     -33.080  16.289  -3.575  1.00 20.00     0.091 C 
BRANCH   4   5
HETATM    5  C3  UNL     1     -33.926  15.239  -4.280  1.00 20.00     0.134 C 
HETATM    6  O10 UNL     1     -33.667  14.037  -4.247  1.00 20.00    -0.297 OA
BRANCH   5   7
HETATM    7  C7  UNL     1     -35.145  15.756  -5.025  1.00 20.00     0.081 C 
HETATM    8  C4  UNL     1     -35.376  14.911  -6.250  1.00 20.00     0.040 C 
HETATM    9  C5  UNL     1     -34.480  15.556  -7.286  1.00 20.00     0.168 C 
HETATM   10  O11 UNL     1     -34.369  16.941  -6.938  1.00 20.00    -0.390 OA
HETATM   11  C6  UNL     1     -34.852  17.124  -5.599  1.00 20.00     0.179 C 
ENDBRANCH   5   7
ENDBRANCH   4   5
ENDBRANCH   3   4
TORSDOF 3
ENDMDL
MODEL 7
REMARK VINA RESULT:      -4.0     11.248     12.432
REMARK  3 active torsions:
REMARK  status: ('A' for Active; 'I' for Inactive)
REMARK    1  A    between atoms: C3_3  and  C7_7 
REMARK    2  A    between atoms: C3_3  and  C9_9 
REMARK    3  A    between atoms: C8_8  and  C9_9 
ROOT
HETATM    1  C1  UNL     1     -31.372  18.519  -0.256  1.00 20.00     0.012 C 
HETATM    2  C2  UNL     1     -32.362  18.229  -0.870  1.00 20.00    -0.117 C 
HETATM    3  C8  UNL     1     -33.577  17.875  -1.620  1.00 20.00     0.100 C 
ENDROOT
BRANCH   3   4
HETATM    4  C9  UNL     1     -33.347  16.686  -2.549  1.00 20.00     0.091 C 
BRANCH   4   5
HETATM    5  C3  UNL     1     -34.068  16.803  -3.885  1.00 20.00     0.134 C 
HETATM    6  O10 UNL     1     -34.869  17.701  -4.137  1.00 20.00    -0.297 OA
BRANCH   5   7
HETATM    7  C7  UNL     1     -33.726  15.744  -4.920  1.00 20.00     0.081 C 
HETATM    8  C4  UNL     1     -34.937  15.475  -5.775  1.00 20.00     0.040 C 
HETATM    9  C5  UNL     1     -35.696  14.436  -4.976  1.00 20.00     0.168 C 
HETATM   10  O11 UNL     1     -34.728  13.703  -4.218  1.00 20.00    -0.390 OA
HETATM   11  C6  UNL     1     -33.483  14.418  -4.236  1.00 20.00     0.179 C 
ENDBRANCH   5   7
ENDBRANCH   4   5
ENDBRANCH   3   4
TORSDOF 3
ENDMDL
MODEL 8
REMARK VINA RESULT:      -3.9     12.168     13.742
REMARK  3 active torsions:
REMARK  status: ('A' for Active; 'I' for Inactive)
REMARK    1  A    between atoms: C3_3  and  C7_7 
REMARK    2  A    between atoms: C3_3  and  C9_9 
REMARK    3  A    between atoms: C8_8  and  C9_9 
ROOT
HETATM    1  C1  UNL     1     -33.472  16.981  -2.303  1.00 20.00     0.012 C 
HETATM    2  C2  UNL     1     -33.330  16.129  -3.137  1.00 20.00    -0.117 C 
HETATM    3  C8  UNL     1     -33.152  15.086  -4.158  1.00 20.00     0.100 C 
ENDROOT
BRANCH   3   4
HETATM    4  C9  UNL     1     -34.460  14.762  -4.876  1.00 20.00     0.091 C 
BRANCH   4   5
HETATM    5  C3  UNL     1     -34.517  15.274  -6.309  1.00 20.00     0.134 C 
HETATM    6  O10 UNL     1     -33.698  14.951  -7.168  1.00 20.00    -0.297 OA
BRANCH   5   7
HETATM    7  C7  UNL     1     -35.671  16.206  -6.638  1.00 20.00     0.081 C 
HETATM    8  C4  UNL     1     -35.129  17.477  -7.236  1.00 20.00     0.040 C 
HETATM    9  C5  UNL     1     -34.807  18.320  -6.020  1.00 20.00     0.168 C 
HETATM   10  O11 UNL     1     -35.707  17.915  -4.982  1.00 20.00    -0.390 OA
HETATM   11  C6  UNL     1     -36.328  16.677  -5.360  1.00 20.00     0.179 C 
ENDBRANCH   5   7
ENDBRANCH   4   5
ENDBRANCH   3   4
TORSDOF 3
ENDMDL
MODEL 9
REMARK VINA RESULT:      -3.9      9.898     10.573
REMARK  3 active torsions:
REMARK  status: ('A' for Active; 'I' for Inactive)
REMARK    1  A    between atoms: C3_3  and  C7_7 
REMARK    2  A    between atoms: C3_3  and  C9_9 
REMARK    3  A    between atoms: C8_8  and  C9_9 
ROOT
HETATM    1  C1  UNL     1     -38.889  11.562   3.687  1.00 20.00     0.012 C 
HETATM    2  C2  UNL     1     -39.284  11.903   4.768  1.00 20.00    -0.117 C 
HETATM    3  C8  UNL     1     -39.765  12.318   6.094  1.00 20.00     0.100 C 
ENDROOT
BRANCH   3   4
HETATM    4  C9  UNL     1     -40.953  13.273   5.997  1.00 20.00     0.091 C 
BRANCH   4   5
HETATM    5  C3  UNL     1     -41.996  13.068   7.085  1.00 20.00     0.134 C 
HETATM    6  O10 UNL     1     -42.579  11.999   7.262  1.00 20.00    -0.297 OA
BRANCH   5   7
HETATM    7  C7  UNL     1     -42.275  14.268   7.976  1.00 20.00     0.081 C 
HETATM    8  C4  UNL     1     -41.017  15.082   8.122  1.00 20.00     0.040 C 
HETATM    9  C5  UNL     1     -40.303  14.406   9.274  1.00 20.00     0.168 C 
HETATM   10  O11 UNL     1     -41.311  13.821  10.105  1.00 20.00    -0.390 OA
HETATM   11  C6  UNL     1     -42.554  13.803   9.387  1.00 20.00     0.179 C 
ENDBRANCH   5   7
ENDBRANCH   4   5
ENDBRANCH   3   4
TORSDOF 3
ENDMDL
