MODEL 1
REMARK VINA RESULT:      -4.3      0.000      0.000
REMARK  4 active torsions:
REMARK  status: ('A' for Active; 'I' for Inactive)
REMARK    1  A    between atoms: C6_6  and  C10_10 
REMARK    2  A    between atoms: C7_7  and  C11_11 
REMARK    3  A    between atoms: C9_9  and  C11_11 
REMARK    4  A    between atoms: C11_11  and  O12_12 
ROOT
HETATM    1  C1  UNL     1     -33.292  16.630  -2.737  1.00 20.00     0.012 C 
HETATM    2  C2  UNL     1     -33.531  15.748  -3.516  1.00 20.00    -0.115 C 
HETATM    3  C9  UNL     1     -33.823  14.665  -4.468  1.00 20.00     0.125 C 
ENDROOT
BRANCH   3   4
HETATM    4  C11 UNL     1     -34.162  15.213  -5.858  1.00 20.00     0.133 C 
BRANCH   4   5
HETATM    5  C7  UNL     1     -35.546  14.754  -6.312  1.00 20.00     0.015 C 
HETATM    6  C4  UNL     1     -35.981  15.450  -7.604  1.00 20.00     0.007 C 
HETATM    7  C3  UNL     1     -36.852  16.639  -7.191  1.00 20.00     0.005 C 
HETATM    8  C6  UNL     1     -36.968  16.584  -5.665  1.00 20.00    -0.014 C 
HETATM    9  C5  UNL     1     -36.644  15.132  -5.317  1.00 20.00     0.012 C 
BRANCH   8  10
HETATM   10  C10 UNL     1     -38.326  17.029  -5.150  1.00 20.00     0.000 C 
HETATM   11  C8  UNL     1     -39.111  15.887  -4.584  1.00 20.00     0.005 C 
ENDBRANCH   8  10
ENDBRANCH   4   5
BRANCH   4  12
HETATM   12  O12 UNL     1     -33.192  14.732  -6.788  1.00 20.00    -0.394 OA
HETATM   13  H30 UNL     1     -33.646  14.080  -7.343  1.00 20.00     0.210 HD
ENDBRANCH   4  12
ENDBRANCH   3   4
TORSDOF 4
ENDMDL
MODEL 2
REMARK VINA RESULT:      -4.1      2.230      5.332
REMARK  4 active torsions:
REMARK  status: ('A' for Active; 'I' for Inactive)
REMARK    1  A    between atoms: C6_6  and  C10_10 
REMARK    2  A    between atoms: C7_7  and  C11_11 
REMARK    3  A    between atoms: C9_9  and  C11_11 
REMARK    4  A    between atoms: C11_11  and  O12_12 
ROOT
HETATM    1  C1  UNL     1     -35.895  14.404  -5.504  1.00 20.00     0.012 C 
HETATM    2  C2  UNL     1     -34.920  14.619  -4.837  1.00 20.00    -0.115 C 
HETATM    3  C9  UNL     1     -33.724  14.879  -4.019  1.00 20.00     0.125 C 
ENDROOT
BRANCH   3   4
HETATM    4  C11 UNL     1     -33.352  16.365  -4.023  1.00 20.00     0.133 C 
BRANCH   4   5
HETATM    5  C7  UNL     1     -34.125  17.133  -2.952  1.00 20.00     0.015 C 
HETATM    6  C4  UNL     1     -34.151  18.636  -3.236  1.00 20.00     0.007 C 
HETATM    7  C3  UNL     1     -33.014  19.258  -2.421  1.00 20.00     0.005 C 
HETATM    8  C6  UNL     1     -32.380  18.118  -1.620  1.00 20.00    -0.014 C 
HETATM    9  C5  UNL     1     -33.464  17.043  -1.576  1.00 20.00     0.012 C 
BRANCH   8  10
HETATM   10  C10 UNL     1     -31.909  18.544  -0.239  1.00 20.00     0.000 C 
HETATM   11  C8  UNL     1     -33.056  18.844   0.674  1.00 20.00     0.005 C 
ENDBRANCH   8  10
ENDBRANCH   4   5
BRANCH   4  12
HETATM   12  O12 UNL     1     -33.674  16.914  -5.301  1.00 20.00    -0.394 OA
HETATM   13  H30 UNL     1     -34.253  17.672  -5.134  1.00 20.00     0.210 HD
ENDBRANCH   4  12
ENDBRANCH   3   4
TORSDOF 4
ENDMDL
MODEL 3
REMARK VINA RESULT:      -4.0     12.314     13.839
REMARK  4 active torsions:
REMARK  status: ('A' for Active; 'I' for Inactive)
REMARK    1  A    between atoms: C6_6  and  C10_10 
REMARK    2  A    between atoms: C7_7  and  C11_11 
REMARK    3  A    between atoms: C9_9  and  C11_11 
REMARK    4  A    between atoms: C11_11  and  O12_12 
ROOT
HETATM    1  C1  UNL     1     -38.995  11.705   3.803  1.00 20.00     0.012 C 
HETATM    2  C2  UNL     1     -39.223  11.938   4.959  1.00 20.00    -0.115 C 
HETATM    3  C9  UNL     1     -39.500  12.223   6.376  1.00 20.00     0.125 C 
ENDROOT
BRANCH   3   4
HETATM    4  C11 UNL     1     -40.848  12.927   6.556  1.00 20.00     0.133 C 
BRANCH   4   5
HETATM    5  C7  UNL     1     -40.818  13.886   7.744  1.00 20.00     0.015 C 
HETATM    6  C4  UNL     1     -42.204  14.065   8.368  1.00 20.00     0.007 C 
HETATM    7  C3  UNL     1     -42.801  15.335   7.756  1.00 20.00     0.005 C 
HETATM    8  C6  UNL     1     -41.729  15.917   6.831  1.00 20.00    -0.014 C 
HETATM    9  C5  UNL     1     -40.424  15.308   7.340  1.00 20.00     0.012 C 
BRANCH   8  10
HETATM   10  C10 UNL     1     -41.709  17.437   6.818  1.00 20.00     0.000 C 
HETATM   11  C8  UNL     1     -40.785  17.993   7.856  1.00 20.00     0.005 C 
ENDBRANCH   8  10
ENDBRANCH   4   5
BRANCH   4  12
HETATM   12  O12 UNL     1     -41.852  11.940   6.790  1.00 20.00    -0.394 OA
HETATM   13  H30 UNL     1     -42.640  12.418   7.089  1.00 20.00     0.210 HD
ENDBRANCH   4  12
ENDBRANCH   3   4
TORSDOF 4
ENDMDL
MODEL 4
REMARK VINA RESULT:      -3.9     12.547     14.107
REMARK  4 active torsions:
REMARK  status: ('A' for Active; 'I' for Inactive)
REMARK    1  A    between atoms: C6_6  and  C10_10 
REMARK    2  A    between atoms: C7_7  and  C11_11 
REMARK    3  A    between atoms: C9_9  and  C11_11 
REMARK    4  A    between atoms: C11_11  and  O12_12 
ROOT
HETATM    1  C1  UNL     1     -38.914  11.605   4.128  1.00 20.00     0.012 C 
HETATM    2  C2  UNL     1     -39.698  11.984   4.956  1.00 20.00    -0.115 C 
HETATM    3  C9  UNL     1     -40.657  12.445   5.971  1.00 20.00     0.125 C 
ENDROOT
BRANCH   3   4
HETATM    4  C11 UNL     1     -41.056  13.907   5.745  1.00 20.00     0.133 C 
BRANCH   4   5
HETATM    5  C7  UNL     1     -41.945  14.419   6.877  1.00 20.00     0.015 C 
HETATM    6  C4  UNL     1     -41.985  15.949   6.922  1.00 20.00     0.007 C 
HETATM    7  C3  UNL     1     -40.946  16.385   7.959  1.00 20.00     0.005 C 
HETATM    8  C6  UNL     1     -40.359  15.102   8.552  1.00 20.00    -0.014 C 
HETATM    9  C5  UNL     1     -41.414  14.037   8.259  1.00 20.00     0.012 C 
BRANCH   8  10
HETATM   10  C10 UNL     1     -40.031  15.221  10.031  1.00 20.00     0.000 C 
HETATM   11  C8  UNL     1     -40.873  14.307  10.866  1.00 20.00     0.005 C 
ENDBRANCH   8  10
ENDBRANCH   4   5
BRANCH   4  12
HETATM   12  O12 UNL     1     -41.779  13.999   4.518  1.00 20.00    -0.394 OA
HETATM   13  H30 UNL     1     -42.702  14.171   4.757  1.00 20.00     0.210 HD
ENDBRANCH   4  12
ENDBRANCH   3   4
TORSDOF 4
ENDMDL
MODEL 5
REMARK VINA RESULT:      -3.9      2.466      5.242
REMARK  4 active torsions:
REMARK  status: ('A' for Active; 'I' for Inactive)
REMARK    1  A    between atoms: C6_6  and  C10_10 
REMARK    2  A    between atoms: C7_7  and  C11_11 
REMARK    3  A    between atoms: C9_9  and  C11_11 
REMARK    4  A    between atoms: C11_11  and  O12_12 
ROOT
HETATM    1  C1  UNL     1     -33.984  15.649  -7.768  1.00 20.00     0.012 C 
HETATM    2  C2  UNL     1     -34.531  16.486  -7.102  1.00 20.00    -0.115 C 
HETATM    3  C9  UNL     1     -35.202  17.512  -6.289  1.00 20.00     0.125 C 
ENDROOT
BRANCH   3   4
HETATM    4  C11 UNL     1     -35.094  17.203  -4.792  1.00 20.00     0.133 C 
BRANCH   4   5
HETATM    5  C7  UNL     1     -33.635  17.107  -4.350  1.00 20.00     0.015 C 
HETATM    6  C4  UNL     1     -33.446  16.077  -3.234  1.00 20.00     0.007 C 
HETATM    7  C3  UNL     1     -33.471  16.852  -1.913  1.00 20.00     0.005 C 
HETATM    8  C6  UNL     1     -33.610  18.331  -2.279  1.00 20.00    -0.014 C 
HETATM    9  C5  UNL     1     -33.125  18.406  -3.726  1.00 20.00     0.012 C 
BRANCH   8  10
HETATM   10  C10 UNL     1     -32.842  19.254  -1.347  1.00 20.00     0.000 C 
HETATM   11  C8  UNL     1     -31.724  18.543  -0.651  1.00 20.00     0.005 C 
ENDBRANCH   8  10
ENDBRANCH   4   5
BRANCH   4  12
HETATM   12  O12 UNL     1     -35.734  15.953  -4.536  1.00 20.00    -0.394 OA
HETATM   13  H30 UNL     1     -35.062  15.379  -4.139  1.00 20.00     0.210 HD
ENDBRANCH   4  12
ENDBRANCH   3   4
TORSDOF 4
ENDMDL
MODEL 6
REMARK VINA RESULT:      -3.9      3.359      5.277
REMARK  4 active torsions:
REMARK  status: ('A' for Active; 'I' for Inactive)
REMARK    1  A    between atoms: C6_6  and  C10_10 
REMARK    2  A    between atoms: C7_7  and  C11_11 
REMARK    3  A    between atoms: C9_9  and  C11_11 
REMARK    4  A    between atoms: C11_11  and  O12_12 
ROOT
HETATM    1  C1  UNL     1     -30.964  18.806   0.354  1.00 20.00     0.012 C 
HETATM    2  C2  UNL     1     -32.120  18.481   0.354  1.00 20.00    -0.115 C 
HETATM    3  C9  UNL     1     -33.537  18.082   0.356  1.00 20.00     0.125 C 
ENDROOT
BRANCH   3   4
HETATM    4  C11 UNL     1     -34.097  17.986  -1.066  1.00 20.00     0.133 C 
BRANCH   4   5
HETATM    5  C7  UNL     1     -33.009  17.597  -2.065  1.00 20.00     0.015 C 
HETATM    6  C4  UNL     1     -32.924  18.587  -3.229  1.00 20.00     0.007 C 
HETATM    7  C3  UNL     1     -33.751  17.993  -4.372  1.00 20.00     0.005 C 
HETATM    8  C6  UNL     1     -34.255  16.632  -3.883  1.00 20.00    -0.014 C 
HETATM    9  C5  UNL     1     -33.295  16.262  -2.754  1.00 20.00     0.012 C 
BRANCH   8  10
HETATM   10  C10 UNL     1     -34.312  15.584  -4.981  1.00 20.00     0.000 C 
HETATM   11  C8  UNL     1     -33.370  14.450  -4.721  1.00 20.00     0.005 C 
ENDBRANCH   8  10
ENDBRANCH   4   5
BRANCH   4  12
HETATM   12  O12 UNL     1     -34.625  19.259  -1.437  1.00 20.00    -0.394 OA
HETATM   13  H30 UNL     1     -33.934  19.909  -1.241  1.00 20.00     0.210 HD
ENDBRANCH   4  12
ENDBRANCH   3   4
TORSDOF 4
ENDMDL
MODEL 7
REMARK VINA RESULT:      -3.8     12.726     14.349
REMARK  4 active torsions:
REMARK  status: ('A' for Active; 'I' for Inactive)
REMARK    1  A    between atoms: C6_6  and  C10_10 
REMARK    2  A    between atoms: C7_7  and  C11_11 
REMARK    3  A    between atoms: C9_9  and  C11_11 
REMARK    4  A    between atoms: C11_11  and  O12_12 
ROOT
HETATM    1  C1  UNL     1     -39.278  11.778   5.094  1.00 20.00     0.012 C 
HETATM    2  C2  UNL     1     -40.172  12.566   5.248  1.00 20.00    -0.115 C 
HETATM    3  C9  UNL     1     -41.266  13.531   5.434  1.00 20.00     0.125 C 
ENDROOT
BRANCH   3   4
HETATM    4  C11 UNL     1     -41.841  13.465   6.852  1.00 20.00     0.133 C 
BRANCH   4   5
HETATM    5  C7  UNL     1     -40.856  14.024   7.876  1.00 20.00     0.015 C 
HETATM    6  C4  UNL     1     -41.508  14.218   9.247  1.00 20.00     0.007 C 
HETATM    7  C3  UNL     1     -41.941  15.684   9.325  1.00 20.00     0.005 C 
HETATM    8  C6  UNL     1     -41.478  16.344   8.023  1.00 20.00    -0.014 C 
HETATM    9  C5  UNL     1     -40.368  15.427   7.514  1.00 20.00     0.012 C 
BRANCH   8  10
HETATM   10  C10 UNL     1     -41.024  17.782   8.208  1.00 20.00     0.000 C 
HETATM   11  C8  UNL     1     -40.400  18.335   6.966  1.00 20.00     0.005 C 
ENDBRANCH   8  10
ENDBRANCH   4   5
BRANCH   4  12
HETATM   12  O12 UNL     1     -42.109  12.100   7.173  1.00 20.00    -0.394 OA
HETATM   13  H30 UNL     1     -42.000  12.019   8.132  1.00 20.00     0.210 HD
ENDBRANCH   4  12
ENDBRANCH   3   4
TORSDOF 4
ENDMDL
MODEL 8
REMARK VINA RESULT:      -3.8      1.295      4.284
REMARK  4 active torsions:
REMARK  status: ('A' for Active; 'I' for Inactive)
REMARK    1  A    between atoms: C6_6  and  C10_10 
REMARK    2  A    between atoms: C7_7  and  C11_11 
REMARK    3  A    between atoms: C9_9  and  C11_11 
REMARK    4  A    between atoms: C11_11  and  O12_12 
ROOT
HETATM    1  C1  UNL     1     -38.981  16.247  -4.644  1.00 20.00     0.012 C 
HETATM    2  C2  UNL     1     -38.025  16.243  -5.370  1.00 20.00    -0.115 C 
HETATM    3  C9  UNL     1     -36.854  16.240  -6.262  1.00 20.00     0.125 C 
ENDROOT
BRANCH   3   4
HETATM    4  C11 UNL     1     -35.855  15.145  -5.876  1.00 20.00     0.133 C 
BRANCH   4   5
HETATM    5  C7  UNL     1     -34.425  15.682  -5.855  1.00 20.00     0.015 C 
HETATM    6  C4  UNL     1     -33.507  14.822  -4.984  1.00 20.00     0.007 C 
HETATM    7  C3  UNL     1     -33.449  15.495  -3.609  1.00 20.00     0.005 C 
HETATM    8  C6  UNL     1     -34.282  16.774  -3.717  1.00 20.00    -0.014 C 
HETATM    9  C5  UNL     1     -34.328  17.067  -5.215  1.00 20.00     0.012 C 
BRANCH   8  10
HETATM   10  C10 UNL     1     -33.718  17.928  -2.904  1.00 20.00     0.000 C 
HETATM   11  C8  UNL     1     -33.282  17.490  -1.540  1.00 20.00     0.005 C 
ENDBRANCH   8  10
ENDBRANCH   4   5
BRANCH   4  12
HETATM   12  O12 UNL     1     -35.936  14.093  -6.838  1.00 20.00    -0.394 OA
HETATM   13  H30 UNL     1     -36.827  13.721  -6.762  1.00 20.00     0.210 HD
ENDBRANCH   4  12
ENDBRANCH   3   4
TORSDOF 4
ENDMDL
MODEL 9
REMARK VINA RESULT:      -3.7      1.836      2.277
REMARK  4 active torsions:
REMARK  status: ('A' for Active; 'I' for Inactive)
REMARK    1  A    between atoms: C6_6  and  C10_10 
REMARK    2  A    between atoms: C7_7  and  C11_11 
REMARK    3  A    between atoms: C9_9  and  C11_11 
REMARK    4  A    between atoms: C11_11  and  O12_12 
ROOT
HETATM    1  C1  UNL     1     -32.914  18.040  -1.856  1.00 20.00     0.012 C 
HETATM    2  C2  UNL     1     -33.265  17.014  -2.373  1.00 20.00    -0.115 C 
HETATM    3  C9  UNL     1     -33.697  15.756  -3.003  1.00 20.00     0.125 C 
ENDROOT
BRANCH   3   4
HETATM    4  C11 UNL     1     -33.218  15.661  -4.455  1.00 20.00     0.133 C 
BRANCH   4   5
HETATM    5  C7  UNL     1     -34.339  15.185  -5.378  1.00 20.00     0.015 C 
HETATM    6  C4  UNL     1     -33.921  15.225  -6.849  1.00 20.00     0.007 C 
HETATM    7  C3  UNL     1     -34.437  16.549  -7.418  1.00 20.00     0.005 C 
HETATM    8  C6  UNL     1     -35.207  17.237  -6.287  1.00 20.00    -0.014 C 
HETATM    9  C5  UNL     1     -35.564  16.100  -5.332  1.00 20.00     0.012 C 
BRANCH   8  10
HETATM   10  C10 UNL     1     -36.422  18.009  -6.772  1.00 20.00     0.000 C 
HETATM   11  C8  UNL     1     -37.102  17.321  -7.914  1.00 20.00     0.005 C 
ENDBRANCH   8  10
ENDBRANCH   4   5
BRANCH   4  12
HETATM   12  O12 UNL     1     -32.142  14.725  -4.522  1.00 20.00    -0.394 OA
HETATM   13  H30 UNL     1     -32.515  13.906  -4.883  1.00 20.00     0.210 HD
ENDBRANCH   4  12
ENDBRANCH   3   4
TORSDOF 4
ENDMDL
