MODEL 1
REMARK VINA RESULT:      -3.6      0.000      0.000
REMARK  0 active torsions:
REMARK  status: ('A' for Active; 'I' for Inactive)
ROOT
HETATM    1  C1  UNL     1     -22.444  17.384   9.240  1.00 20.00     0.071 C 
HETATM    2  C2  UNL     1     -22.953  18.806  11.190  1.00 20.00     0.052 C 
HETATM    3  C3  UNL     1     -22.694  17.740  12.239  1.00 20.00     0.169 C 
HETATM    4  C4  UNL     1     -24.327  16.942  10.772  1.00 20.00     0.192 C 
HETATM    5  C5  UNL     1     -23.527  18.009  10.029  1.00 20.00     0.069 C 
HETATM    6  C6  UNL     1     -24.400  18.854   9.106  1.00 20.00     0.033 C 
HETATM    7  N7  UNL     1     -21.594  16.894   8.620  1.00 20.00    -0.196 NA
HETATM    8  O8  UNL     1     -23.648  16.693  12.015  1.00 20.00    -0.389 OA
ENDROOT
TORSDOF 0
ENDMDL
MODEL 2
REMARK VINA RESULT:      -3.6     14.551     15.703
REMARK  0 active torsions:
REMARK  status: ('A' for Active; 'I' for Inactive)
ROOT
HETATM    1  C1  UNL     1     -31.804  18.572  -0.768  1.00 20.00     0.071 C 
HETATM    2  C2  UNL     1     -33.663  17.118  -1.485  1.00 20.00     0.052 C 
HETATM    3  C3  UNL     1     -33.126  16.846  -2.879  1.00 20.00     0.169 C 
HETATM    4  C4  UNL     1     -33.335  19.157  -2.614  1.00 20.00     0.192 C 
HETATM    5  C5  UNL     1     -33.212  18.546  -1.220  1.00 20.00     0.069 C 
HETATM    6  C6  UNL     1     -34.084  19.260  -0.192  1.00 20.00     0.033 C 
HETATM    7  N7  UNL     1     -30.699  18.594  -0.414  1.00 20.00    -0.196 NA
HETATM    8  O8  UNL     1     -33.076  18.106  -3.561  1.00 20.00    -0.389 OA
ENDROOT
TORSDOF 0
ENDMDL
MODEL 3
REMARK VINA RESULT:      -3.5      1.840      2.331
REMARK  0 active torsions:
REMARK  status: ('A' for Active; 'I' for Inactive)
ROOT
HETATM    1  C1  UNL     1     -22.434  18.193  11.563  1.00 20.00     0.071 C 
HETATM    2  C2  UNL     1     -24.522  18.733  10.367  1.00 20.00     0.052 C 
HETATM    3  C3  UNL     1     -25.449  18.501  11.546  1.00 20.00     0.169 C 
HETATM    4  C4  UNL     1     -24.229  16.543  11.179  1.00 20.00     0.192 C 
HETATM    5  C5  UNL     1     -23.428  17.700  10.586  1.00 20.00     0.069 C 
HETATM    6  C6  UNL     1     -22.714  17.311   9.294  1.00 20.00     0.033 C 
HETATM    7  N7  UNL     1     -21.654  18.579  12.331  1.00 20.00    -0.196 NA
HETATM    8  O8  UNL     1     -25.326  17.119  11.910  1.00 20.00    -0.389 OA
ENDROOT
TORSDOF 0
ENDMDL
MODEL 4
REMARK VINA RESULT:      -3.5      2.444      3.293
REMARK  0 active torsions:
REMARK  status: ('A' for Active; 'I' for Inactive)
ROOT
HETATM    1  C1  UNL     1     -24.086  18.895   9.462  1.00 20.00     0.071 C 
HETATM    2  C2  UNL     1     -21.675  19.203   9.040  1.00 20.00     0.052 C 
HETATM    3  C3  UNL     1     -21.656  18.502   7.694  1.00 20.00     0.169 C 
HETATM    4  C4  UNL     1     -22.500  17.012   9.282  1.00 20.00     0.192 C 
HETATM    5  C5  UNL     1     -22.729  18.425   9.813  1.00 20.00     0.069 C 
HETATM    6  C6  UNL     1     -22.540  18.516  11.325  1.00 20.00     0.033 C 
HETATM    7  N7  UNL     1     -25.151  19.263   9.186  1.00 20.00    -0.196 NA
HETATM    8  O8  UNL     1     -22.038  17.140   7.926  1.00 20.00    -0.389 OA
ENDROOT
TORSDOF 0
ENDMDL
MODEL 5
REMARK VINA RESULT:      -3.5      2.431      3.047
REMARK  0 active torsions:
REMARK  status: ('A' for Active; 'I' for Inactive)
ROOT
HETATM    1  C1  UNL     1     -24.991  18.436  11.282  1.00 20.00     0.071 C 
HETATM    2  C2  UNL     1     -22.783  17.884  12.234  1.00 20.00     0.052 C 
HETATM    3  C3  UNL     1     -21.971  18.686  11.233  1.00 20.00     0.169 C 
HETATM    4  C4  UNL     1     -23.278  17.153  10.053  1.00 20.00     0.192 C 
HETATM    5  C5  UNL     1     -23.954  17.388  11.401  1.00 20.00     0.069 C 
HETATM    6  C6  UNL     1     -24.585  16.118  11.964  1.00 20.00     0.033 C 
HETATM    7  N7  UNL     1     -25.804  19.259  11.189  1.00 20.00    -0.196 NA
HETATM    8  O8  UNL     1     -22.210  18.110   9.942  1.00 20.00    -0.389 OA
ENDROOT
TORSDOF 0
ENDMDL
MODEL 6
REMARK VINA RESULT:      -3.4      2.272      2.931
REMARK  0 active torsions:
REMARK  status: ('A' for Active; 'I' for Inactive)
ROOT
HETATM    1  C1  UNL     1     -24.418  16.940  11.806  1.00 20.00     0.071 C 
HETATM    2  C2  UNL     1     -23.887  18.780  10.251  1.00 20.00     0.052 C 
HETATM    3  C3  UNL     1     -22.431  18.402  10.046  1.00 20.00     0.169 C 
HETATM    4  C4  UNL     1     -22.789  18.719  12.332  1.00 20.00     0.192 C 
HETATM    5  C5  UNL     1     -24.138  18.389  11.699  1.00 20.00     0.069 C 
HETATM    6  C6  UNL     1     -25.285  19.171  12.332  1.00 20.00     0.033 C 
HETATM    7  N7  UNL     1     -24.636  15.804  11.891  1.00 20.00    -0.196 NA
HETATM    8  O8  UNL     1     -21.786  18.513  11.322  1.00 20.00    -0.389 OA
ENDROOT
TORSDOF 0
ENDMDL
MODEL 7
REMARK VINA RESULT:      -3.4     23.831     24.657
REMARK  0 active torsions:
REMARK  status: ('A' for Active; 'I' for Inactive)
ROOT
HETATM    1  C1  UNL     1     -42.690   5.210  -0.891  1.00 20.00     0.071 C 
HETATM    2  C2  UNL     1     -43.043   7.276   0.409  1.00 20.00     0.052 C 
HETATM    3  C3  UNL     1     -42.242   8.183  -0.509  1.00 20.00     0.169 C 
HETATM    4  C4  UNL     1     -40.851   6.445   0.198  1.00 20.00     0.192 C 
HETATM    5  C5  UNL     1     -42.292   5.957   0.322  1.00 20.00     0.069 C 
HETATM    6  C6  UNL     1     -42.504   5.074   1.549  1.00 20.00     0.033 C 
HETATM    7  N7  UNL     1     -43.001   4.624  -1.843  1.00 20.00    -0.196 NA
HETATM    8  O8  UNL     1     -40.890   7.707  -0.491  1.00 20.00    -0.389 OA
ENDROOT
TORSDOF 0
ENDMDL
MODEL 8
REMARK VINA RESULT:      -3.4      2.151      2.474
REMARK  0 active torsions:
REMARK  status: ('A' for Active; 'I' for Inactive)
ROOT
HETATM    1  C1  UNL     1     -24.983  18.880  10.237  1.00 20.00     0.071 C 
HETATM    2  C2  UNL     1     -23.682  18.932  12.332  1.00 20.00     0.052 C 
HETATM    3  C3  UNL     1     -22.791  17.749  11.998  1.00 20.00     0.169 C 
HETATM    4  C4  UNL     1     -25.015  17.044  11.886  1.00 20.00     0.192 C 
HETATM    5  C5  UNL     1     -25.003  18.557  11.680  1.00 20.00     0.069 C 
HETATM    6  C6  UNL     1     -26.200  19.242  12.332  1.00 20.00     0.033 C 
HETATM    7  N7  UNL     1     -24.966  19.133   9.104  1.00 20.00    -0.196 NA
HETATM    8  O8  UNL     1     -23.646  16.604  11.870  1.00 20.00    -0.389 OA
ENDROOT
TORSDOF 0
ENDMDL
MODEL 9
REMARK VINA RESULT:      -3.3     18.656     19.727
REMARK  0 active torsions:
REMARK  status: ('A' for Active; 'I' for Inactive)
ROOT
HETATM    1  C1  UNL     1     -34.289  15.316  -6.854  1.00 20.00     0.071 C 
HETATM    2  C2  UNL     1     -34.319  16.288  -4.587  1.00 20.00     0.052 C 
HETATM    3  C3  UNL     1     -33.527  15.176  -3.924  1.00 20.00     0.169 C 
HETATM    4  C4  UNL     1     -35.405  14.231  -4.939  1.00 20.00     0.192 C 
HETATM    5  C5  UNL     1     -35.116  15.550  -5.651  1.00 20.00     0.069 C 
HETATM    6  C6  UNL     1     -36.391  16.286  -6.052  1.00 20.00     0.033 C 
HETATM    7  N7  UNL     1     -33.639  15.132  -7.798  1.00 20.00    -0.196 NA
HETATM    8  O8  UNL     1     -34.301  13.976  -4.054  1.00 20.00    -0.389 OA
ENDROOT
TORSDOF 0
ENDMDL
