MODEL 1
REMARK VINA RESULT:      -4.2      0.000      0.000
REMARK  3 active torsions:
REMARK  status: ('A' for Active; 'I' for Inactive)
REMARK    1  A    between atoms: C6_6  and  C10_10 
REMARK    2  A    between atoms: C7_7  and  C11_11 
REMARK    3  A    between atoms: C11_11  and  C12_12 
ROOT
HETATM    1  C1  UNL     1     -41.582  13.745   4.922  1.00 20.00     0.069 C 
HETATM    2  C2  UNL     1     -43.264  13.934   7.519  1.00 20.00     0.006 C 
HETATM    3  C3  UNL     1     -41.139  15.296   7.570  1.00 20.00     0.006 C 
HETATM    4  C4  UNL     1     -42.483  12.727   6.993  1.00 20.00     0.025 C 
HETATM    5  C5  UNL     1     -40.351  14.093   7.043  1.00 20.00     0.025 C 
HETATM    6  C6  UNL     1     -42.378  14.861   8.360  1.00 20.00    -0.015 C 
HETATM    7  C7  UNL     1     -41.211  13.118   6.212  1.00 20.00     0.049 C 
HETATM    8  N13 UNL     1     -41.873  14.235   3.911  1.00 20.00    -0.196 NA
ENDROOT
BRANCH   7   9
HETATM    9  C11 UNL     1     -40.392  11.852   5.907  1.00 20.00     0.024 C 
BRANCH   9  10
HETATM   10  C12 UNL     1     -39.026  12.213   5.344  1.00 20.00    -0.003 C 
HETATM   11  C9  UNL     1     -38.844  11.633   3.951  1.00 20.00     0.005 C 
ENDBRANCH   9  10
ENDBRANCH   7   9
BRANCH   6  12
HETATM   12  C10 UNL     1     -43.170  16.077   8.836  1.00 20.00     0.000 C 
HETATM   13  C8  UNL     1     -42.367  17.332   8.732  1.00 20.00     0.005 C 
ENDBRANCH   6  12
TORSDOF 3
ENDMDL
MODEL 2
REMARK VINA RESULT:      -4.1      1.815      2.404
REMARK  3 active torsions:
REMARK  status: ('A' for Active; 'I' for Inactive)
REMARK    1  A    between atoms: C6_6  and  C10_10 
REMARK    2  A    between atoms: C7_7  and  C11_11 
REMARK    3  A    between atoms: C11_11  and  C12_12 
ROOT
HETATM    1  C1  UNL     1     -42.377  12.854   7.677  1.00 20.00     0.069 C 
HETATM    2  C2  UNL     1     -40.416  15.137   8.418  1.00 20.00     0.006 C 
HETATM    3  C3  UNL     1     -42.082  15.756   6.626  1.00 20.00     0.006 C 
HETATM    4  C4  UNL     1     -40.101  13.833   7.681  1.00 20.00     0.025 C 
HETATM    5  C5  UNL     1     -41.773  14.453   5.883  1.00 20.00     0.025 C 
HETATM    6  C6  UNL     1     -40.885  16.234   7.455  1.00 20.00    -0.015 C 
HETATM    7  C7  UNL     1     -41.271  13.328   6.811  1.00 20.00     0.049 C 
HETATM    8  N13 UNL     1     -43.242  12.482   8.354  1.00 20.00    -0.196 NA
ENDROOT
BRANCH   7   9
HETATM    9  C11 UNL     1     -40.794  12.139   5.957  1.00 20.00     0.024 C 
BRANCH   9  10
HETATM   10  C12 UNL     1     -39.288  12.187   5.756  1.00 20.00    -0.003 C 
HETATM   11  C9  UNL     1     -38.917  11.763   4.343  1.00 20.00     0.005 C 
ENDBRANCH   9  10
ENDBRANCH   7   9
BRANCH   6  12
HETATM   12  C10 UNL     1     -41.233  17.510   8.219  1.00 20.00     0.000 C 
HETATM   13  C8  UNL     1     -40.772  18.730   7.493  1.00 20.00     0.005 C 
ENDBRANCH   6  12
TORSDOF 3
ENDMDL
MODEL 3
REMARK VINA RESULT:      -4.1     12.028     13.174
REMARK  3 active torsions:
REMARK  status: ('A' for Active; 'I' for Inactive)
REMARK    1  A    between atoms: C6_6  and  C10_10 
REMARK    2  A    between atoms: C7_7  and  C11_11 
REMARK    3  A    between atoms: C11_11  and  C12_12 
ROOT
HETATM    1  C1  UNL     1     -35.539  18.109  -3.758  1.00 20.00     0.069 C 
HETATM    2  C2  UNL     1     -33.553  17.008  -1.648  1.00 20.00     0.006 C 
HETATM    3  C3  UNL     1     -32.912  19.263  -2.584  1.00 20.00     0.006 C 
HETATM    4  C4  UNL     1     -33.801  16.486  -3.066  1.00 20.00     0.025 C 
HETATM    5  C5  UNL     1     -33.158  18.748  -4.005  1.00 20.00     0.025 C 
HETATM    6  C6  UNL     1     -32.510  18.131  -1.632  1.00 20.00    -0.015 C 
HETATM    7  C7  UNL     1     -34.183  17.596  -4.066  1.00 20.00     0.049 C 
HETATM    8  N13 UNL     1     -36.601  18.510  -3.519  1.00 20.00    -0.196 NA
ENDROOT
BRANCH   7   9
HETATM    9  C11 UNL     1     -34.208  17.013  -5.490  1.00 20.00     0.024 C 
BRANCH   9  10
HETATM   10  C12 UNL     1     -34.196  15.494  -5.453  1.00 20.00    -0.003 C 
HETATM   11  C9  UNL     1     -35.464  14.927  -6.074  1.00 20.00     0.005 C 
ENDBRANCH   9  10
ENDBRANCH   7   9
BRANCH   6  12
HETATM   12  C10 UNL     1     -32.313  18.663  -0.214  1.00 20.00     0.000 C 
HETATM   13  C8  UNL     1     -30.885  18.579   0.213  1.00 20.00     0.005 C 
ENDBRANCH   6  12
TORSDOF 3
ENDMDL
MODEL 4
REMARK VINA RESULT:      -4.0     12.005     13.145
REMARK  3 active torsions:
REMARK  status: ('A' for Active; 'I' for Inactive)
REMARK    1  A    between atoms: C6_6  and  C10_10 
REMARK    2  A    between atoms: C7_7  and  C11_11 
REMARK    3  A    between atoms: C11_11  and  C12_12 
ROOT
HETATM    1  C1  UNL     1     -33.829  18.471  -4.861  1.00 20.00     0.069 C 
HETATM    2  C2  UNL     1     -34.772  18.771  -1.924  1.00 20.00     0.006 C 
HETATM    3  C3  UNL     1     -32.919  17.087  -2.240  1.00 20.00     0.006 C 
HETATM    4  C4  UNL     1     -35.538  18.154  -3.097  1.00 20.00     0.025 C 
HETATM    5  C5  UNL     1     -33.679  16.465  -3.415  1.00 20.00     0.025 C 
HETATM    6  C6  UNL     1     -33.869  17.743  -1.233  1.00 20.00    -0.015 C 
HETATM    7  C7  UNL     1     -34.622  17.459  -4.125  1.00 20.00     0.049 C 
HETATM    8  N13 UNL     1     -33.209  19.263  -5.439  1.00 20.00    -0.196 NA
ENDROOT
BRANCH   7   9
HETATM    9  C11 UNL     1     -35.487  16.698  -5.146  1.00 20.00     0.024 C 
BRANCH   9  10
HETATM   10  C12 UNL     1     -34.925  15.309  -5.403  1.00 20.00    -0.003 C 
HETATM   11  C9  UNL     1     -34.273  15.234  -6.774  1.00 20.00     0.005 C 
ENDBRANCH   9  10
ENDBRANCH   7   9
BRANCH   6  12
HETATM   12  C10 UNL     1     -33.085  18.393  -0.095  1.00 20.00     0.000 C 
HETATM   13  C8  UNL     1     -31.631  18.503  -0.420  1.00 20.00     0.005 C 
ENDBRANCH   6  12
TORSDOF 3
ENDMDL
MODEL 5
REMARK VINA RESULT:      -4.0     11.806     13.355
REMARK  3 active torsions:
REMARK  status: ('A' for Active; 'I' for Inactive)
REMARK    1  A    between atoms: C6_6  and  C10_10 
REMARK    2  A    between atoms: C7_7  and  C11_11 
REMARK    3  A    between atoms: C11_11  and  C12_12 
ROOT
HETATM    1  C1  UNL     1     -34.393  18.971  -1.171  1.00 20.00     0.069 C 
HETATM    2  C2  UNL     1     -33.819  18.390  -4.162  1.00 20.00     0.006 C 
HETATM    3  C3  UNL     1     -33.779  16.339  -2.691  1.00 20.00     0.006 C 
HETATM    4  C4  UNL     1     -32.927  19.130  -3.161  1.00 20.00     0.025 C 
HETATM    5  C5  UNL     1     -32.887  17.073  -1.686  1.00 20.00     0.025 C 
HETATM    6  C6  UNL     1     -33.590  16.875  -4.114  1.00 20.00    -0.015 C 
HETATM    7  C7  UNL     1     -33.065  18.605  -1.718  1.00 20.00     0.049 C 
HETATM    8  N13 UNL     1     -35.432  19.259  -0.743  1.00 20.00    -0.196 NA
ENDROOT
BRANCH   7   9
HETATM    9  C11 UNL     1     -31.990  19.260  -0.832  1.00 20.00     0.024 C 
BRANCH   9  10
HETATM   10  C12 UNL     1     -31.123  18.206  -0.163  1.00 20.00    -0.003 C 
HETATM   11  C9  UNL     1     -30.897  18.541   1.303  1.00 20.00     0.005 C 
ENDBRANCH   9  10
ENDBRANCH   7   9
BRANCH   6  12
HETATM   12  C10 UNL     1     -34.521  16.158  -5.089  1.00 20.00     0.000 C 
HETATM   13  C8  UNL     1     -34.627  14.701  -4.780  1.00 20.00     0.005 C 
ENDBRANCH   6  12
TORSDOF 3
ENDMDL
MODEL 6
REMARK VINA RESULT:      -3.8      1.824      2.001
REMARK  3 active torsions:
REMARK  status: ('A' for Active; 'I' for Inactive)
REMARK    1  A    between atoms: C6_6  and  C10_10 
REMARK    2  A    between atoms: C7_7  and  C11_11 
REMARK    3  A    between atoms: C11_11  and  C12_12 
ROOT
HETATM    1  C1  UNL     1     -42.198  15.297   6.103  1.00 20.00     0.069 C 
HETATM    2  C2  UNL     1     -42.570  13.930   8.859  1.00 20.00     0.006 C 
HETATM    3  C3  UNL     1     -40.397  15.193   8.624  1.00 20.00     0.006 C 
HETATM    4  C4  UNL     1     -42.332  13.259   7.504  1.00 20.00     0.025 C 
HETATM    5  C5  UNL     1     -40.152  14.527   7.268  1.00 20.00     0.025 C 
HETATM    6  C6  UNL     1     -41.252  14.313   9.543  1.00 20.00    -0.015 C 
HETATM    7  C7  UNL     1     -41.452  14.099   6.555  1.00 20.00     0.049 C 
HETATM    8  N13 UNL     1     -42.782  16.234   5.747  1.00 20.00    -0.196 NA
ENDROOT
BRANCH   7   9
HETATM    9  C11 UNL     1     -41.099  13.262   5.313  1.00 20.00     0.024 C 
BRANCH   9  10
HETATM   10  C12 UNL     1     -40.140  12.139   5.672  1.00 20.00    -0.003 C 
HETATM   11  C9  UNL     1     -39.271  11.768   4.480  1.00 20.00     0.005 C 
ENDBRANCH   9  10
ENDBRANCH   7   9
BRANCH   6  12
HETATM   12  C10 UNL     1     -41.518  15.018  10.871  1.00 20.00     0.000 C 
HETATM   13  C8  UNL     1     -40.283  15.109  11.704  1.00 20.00     0.005 C 
ENDBRANCH   6  12
TORSDOF 3
ENDMDL
MODEL 7
REMARK VINA RESULT:      -3.8     11.122     12.704
REMARK  3 active torsions:
REMARK  status: ('A' for Active; 'I' for Inactive)
REMARK    1  A    between atoms: C6_6  and  C10_10 
REMARK    2  A    between atoms: C7_7  and  C11_11 
REMARK    3  A    between atoms: C11_11  and  C12_12 
ROOT
HETATM    1  C1  UNL     1     -33.465  17.075  -2.745  1.00 20.00     0.069 C 
HETATM    2  C2  UNL     1     -31.738  18.801  -0.834  1.00 20.00     0.006 C 
HETATM    3  C3  UNL     1     -33.974  18.129   0.126  1.00 20.00     0.006 C 
HETATM    4  C4  UNL     1     -32.423  19.237  -2.133  1.00 20.00     0.025 C 
HETATM    5  C5  UNL     1     -34.666  18.563  -1.169  1.00 20.00     0.025 C 
HETATM    6  C6  UNL     1     -32.681  18.914   0.370  1.00 20.00    -0.015 C 
HETATM    7  C7  UNL     1     -33.745  18.491  -2.405  1.00 20.00     0.049 C 
HETATM    8  N13 UNL     1     -33.247  15.968  -3.012  1.00 20.00    -0.196 NA
ENDROOT
BRANCH   7   9
HETATM    9  C11 UNL     1     -34.456  19.136  -3.607  1.00 20.00     0.024 C 
BRANCH   9  10
HETATM   10  C12 UNL     1     -35.916  18.715  -3.663  1.00 20.00    -0.003 C 
HETATM   11  C9  UNL     1     -36.232  18.033  -4.984  1.00 20.00     0.005 C 
ENDBRANCH   9  10
ENDBRANCH   7   9
BRANCH   6  12
HETATM   12  C10 UNL     1     -31.988  18.433   1.643  1.00 20.00     0.000 C 
HETATM   13  C8  UNL     1     -30.506  18.367   1.474  1.00 20.00     0.005 C 
ENDBRANCH   6  12
TORSDOF 3
ENDMDL
MODEL 8
REMARK VINA RESULT:      -3.7      2.103      4.939
REMARK  3 active torsions:
REMARK  status: ('A' for Active; 'I' for Inactive)
REMARK    1  A    between atoms: C6_6  and  C10_10 
REMARK    2  A    between atoms: C7_7  and  C11_11 
REMARK    3  A    between atoms: C11_11  and  C12_12 
ROOT
HETATM    1  C1  UNL     1     -42.576  13.645   9.246  1.00 20.00     0.069 C 
HETATM    2  C2  UNL     1     -42.000  12.387   6.472  1.00 20.00     0.006 C 
HETATM    3  C3  UNL     1     -40.082  13.736   7.407  1.00 20.00     0.006 C 
HETATM    4  C4  UNL     1     -42.967  13.526   6.803  1.00 20.00     0.025 C 
HETATM    5  C5  UNL     1     -41.043  14.880   7.741  1.00 20.00     0.025 C 
HETATM    6  C6  UNL     1     -40.579  12.905   6.219  1.00 20.00    -0.015 C 
HETATM    7  C7  UNL     1     -42.493  14.407   7.977  1.00 20.00     0.049 C 
HETATM    8  N13 UNL     1     -42.642  13.049  10.239  1.00 20.00    -0.196 NA
ENDROOT
BRANCH   7   9
HETATM    9  C11 UNL     1     -43.414  15.634   8.099  1.00 20.00     0.024 C 
BRANCH   9  10
HETATM   10  C12 UNL     1     -42.718  16.886   7.591  1.00 20.00    -0.003 C 
HETATM   11  C9  UNL     1     -43.327  17.347   6.276  1.00 20.00     0.005 C 
ENDBRANCH   9  10
ENDBRANCH   7   9
BRANCH   6  12
HETATM   12  C10 UNL     1     -39.626  11.747   5.934  1.00 20.00     0.000 C 
HETATM   13  C8  UNL     1     -39.237  11.694   4.493  1.00 20.00     0.005 C 
ENDBRANCH   6  12
TORSDOF 3
ENDMDL
MODEL 9
REMARK VINA RESULT:      -3.5      2.135      5.002
REMARK  3 active torsions:
REMARK  status: ('A' for Active; 'I' for Inactive)
REMARK    1  A    between atoms: C6_6  and  C10_10 
REMARK    2  A    between atoms: C7_7  and  C11_11 
REMARK    3  A    between atoms: C11_11  and  C12_12 
ROOT
HETATM    1  C1  UNL     1     -42.861  15.643   8.152  1.00 20.00     0.069 C 
HETATM    2  C2  UNL     1     -40.298  14.214   7.154  1.00 20.00     0.006 C 
HETATM    3  C3  UNL     1     -42.426  12.929   6.716  1.00 20.00     0.006 C 
HETATM    4  C4  UNL     1     -40.735  14.453   8.602  1.00 20.00     0.025 C 
HETATM    5  C5  UNL     1     -42.870  13.165   8.162  1.00 20.00     0.025 C 
HETATM    6  C6  UNL     1     -40.899  12.923   6.586  1.00 20.00    -0.015 C 
HETATM    7  C7  UNL     1     -42.267  14.441   8.785  1.00 20.00     0.049 C 
HETATM    8  N13 UNL     1     -43.326  16.583   7.658  1.00 20.00    -0.196 NA
ENDROOT
BRANCH   7   9
HETATM    9  C11 UNL     1     -42.601  14.482  10.286  1.00 20.00     0.024 C 
BRANCH   9  10
HETATM   10  C12 UNL     1     -41.570  13.706  11.091  1.00 20.00    -0.003 C 
HETATM   11  C9  UNL     1     -42.239  12.638  11.942  1.00 20.00     0.005 C 
ENDBRANCH   9  10
ENDBRANCH   7   9
BRANCH   6  12
HETATM   12  C10 UNL     1     -40.482  12.730   5.129  1.00 20.00     0.000 C 
HETATM   13  C8  UNL     1     -39.346  11.769   5.004  1.00 20.00     0.005 C 
ENDBRANCH   6  12
TORSDOF 3
ENDMDL
