MODEL 1
REMARK VINA RESULT:      -3.8      0.000      0.000
REMARK  3 active torsions:
REMARK  status: ('A' for Active; 'I' for Inactive)
REMARK    1  A    between atoms: C5_5  and  C7_7 
REMARK    2  A    between atoms: C6_6  and  C8_8 
REMARK    3  A    between atoms: C7_7  and  C8_8 
ROOT
HETATM    1  C1  UNL     1     -41.763  13.987   4.829  1.00 20.00     0.069 C 
HETATM    2  C4  UNL     1     -40.562  14.541   6.895  1.00 20.00     0.031 C 
HETATM    3  C8  UNL     1     -41.431  13.484   6.185  1.00 20.00     0.045 C 
HETATM    4  N9  UNL     1     -42.023  14.381   3.769  1.00 20.00    -0.196 NA
ENDROOT
BRANCH   3   5
HETATM    5  C6  UNL     1     -42.742  13.324   7.009  1.00 20.00     0.020 C 
HETATM    6  C3  UNL     1     -43.218  11.891   7.224  1.00 20.00     0.007 C 
ENDBRANCH   3   5
BRANCH   3   7
HETATM    7  C7  UNL     1     -40.685  12.125   6.077  1.00 20.00     0.024 C 
BRANCH   7   8
HETATM    8  C5  UNL     1     -39.222  12.210   5.618  1.00 20.00    -0.003 C 
HETATM    9  C2  UNL     1     -39.055  11.661   4.209  1.00 20.00     0.005 C 
ENDBRANCH   7   8
ENDBRANCH   3   7
TORSDOF 3
ENDMDL
MODEL 2
REMARK VINA RESULT:      -3.7      9.522     10.403
REMARK  3 active torsions:
REMARK  status: ('A' for Active; 'I' for Inactive)
REMARK    1  A    between atoms: C5_5  and  C7_7 
REMARK    2  A    between atoms: C6_6  and  C8_8 
REMARK    3  A    between atoms: C7_7  and  C8_8 
ROOT
HETATM    1  C1  UNL     1     -33.619   5.469   3.405  1.00 20.00     0.069 C 
HETATM    2  C4  UNL     1     -35.930   6.124   3.903  1.00 20.00     0.031 C 
HETATM    3  C8  UNL     1     -34.505   5.990   4.475  1.00 20.00     0.045 C 
HETATM    4  N9  UNL     1     -32.926   5.062   2.568  1.00 20.00    -0.196 NA
ENDROOT
BRANCH   3   5
HETATM    5  C6  UNL     1     -34.563   4.960   5.641  1.00 20.00     0.020 C 
HETATM    6  C3  UNL     1     -33.814   5.355   6.910  1.00 20.00     0.007 C 
ENDBRANCH   3   5
BRANCH   3   7
HETATM    7  C7  UNL     1     -33.974   7.360   4.982  1.00 20.00     0.024 C 
BRANCH   7   8
HETATM    8  C5  UNL     1     -32.908   8.022   4.098  1.00 20.00    -0.003 C 
HETATM    9  C2  UNL     1     -32.132   9.080   4.870  1.00 20.00     0.005 C 
ENDBRANCH   7   8
ENDBRANCH   3   7
TORSDOF 3
ENDMDL
MODEL 3
REMARK VINA RESULT:      -3.7      1.685      2.522
REMARK  3 active torsions:
REMARK  status: ('A' for Active; 'I' for Inactive)
REMARK    1  A    between atoms: C5_5  and  C7_7 
REMARK    2  A    between atoms: C6_6  and  C8_8 
REMARK    3  A    between atoms: C7_7  and  C8_8 
ROOT
HETATM    1  C1  UNL     1     -42.229  12.658   6.854  1.00 20.00     0.069 C 
HETATM    2  C4  UNL     1     -41.845  14.005   4.840  1.00 20.00     0.031 C 
HETATM    3  C8  UNL     1     -41.302  13.637   6.235  1.00 20.00     0.045 C 
HETATM    4  N9  UNL     1     -42.954  11.892   7.338  1.00 20.00    -0.196 NA
ENDROOT
BRANCH   3   5
HETATM    5  C6  UNL     1     -41.284  14.938   7.090  1.00 20.00     0.020 C 
HETATM    6  C3  UNL     1     -40.393  14.904   8.328  1.00 20.00     0.007 C 
ENDBRANCH   3   5
BRANCH   3   7
HETATM    7  C7  UNL     1     -39.875  13.028   6.138  1.00 20.00     0.024 C 
BRANCH   7   8
HETATM    8  C5  UNL     1     -39.797  11.630   5.508  1.00 20.00    -0.003 C 
HETATM    9  C2  UNL     1     -39.047  11.664   4.184  1.00 20.00     0.005 C 
ENDBRANCH   7   8
ENDBRANCH   3   7
TORSDOF 3
ENDMDL
MODEL 4
REMARK VINA RESULT:      -3.7      1.746      2.552
REMARK  3 active torsions:
REMARK  status: ('A' for Active; 'I' for Inactive)
REMARK    1  A    between atoms: C5_5  and  C7_7 
REMARK    2  A    between atoms: C6_6  and  C8_8 
REMARK    3  A    between atoms: C7_7  and  C8_8 
ROOT
HETATM    1  C1  UNL     1     -40.714  13.860   7.416  1.00 20.00     0.069 C 
HETATM    2  C4  UNL     1     -42.652  12.439   6.926  1.00 20.00     0.031 C 
HETATM    3  C8  UNL     1     -41.321  12.992   6.378  1.00 20.00     0.045 C 
HETATM    4  N9  UNL     1     -40.238  14.538   8.229  1.00 20.00    -0.196 NA
ENDROOT
BRANCH   3   5
HETATM    5  C6  UNL     1     -41.652  13.850   5.122  1.00 20.00     0.020 C 
HETATM    6  C3  UNL     1     -42.698  14.942   5.323  1.00 20.00     0.007 C 
ENDBRANCH   3   5
BRANCH   3   7
HETATM    7  C7  UNL     1     -40.344  11.841   6.011  1.00 20.00     0.024 C 
BRANCH   7   8
HETATM    8  C5  UNL     1     -39.035  12.277   5.338  1.00 20.00    -0.003 C 
HETATM    9  C2  UNL     1     -38.893  11.656   3.955  1.00 20.00     0.005 C 
ENDBRANCH   7   8
ENDBRANCH   3   7
TORSDOF 3
ENDMDL
MODEL 5
REMARK VINA RESULT:      -3.6     11.673     12.825
REMARK  3 active torsions:
REMARK  status: ('A' for Active; 'I' for Inactive)
REMARK    1  A    between atoms: C5_5  and  C7_7 
REMARK    2  A    between atoms: C6_6  and  C8_8 
REMARK    3  A    between atoms: C7_7  and  C8_8 
ROOT
HETATM    1  C1  UNL     1     -35.275  14.070  -4.674  1.00 20.00     0.069 C 
HETATM    2  C4  UNL     1     -33.903  15.108  -6.422  1.00 20.00     0.031 C 
HETATM    3  C8  UNL     1     -34.503  15.291  -5.014  1.00 20.00     0.045 C 
HETATM    4  N9  UNL     1     -35.879  13.115  -4.408  1.00 20.00    -0.196 NA
ENDROOT
BRANCH   3   5
HETATM    5  C6  UNL     1     -35.469  16.510  -5.070  1.00 20.00     0.020 C 
HETATM    6  C3  UNL     1     -36.726  16.321  -5.915  1.00 20.00     0.007 C 
ENDBRANCH   3   5
BRANCH   3   7
HETATM    7  C7  UNL     1     -33.389  15.525  -3.956  1.00 20.00     0.024 C 
BRANCH   7   8
HETATM    8  C5  UNL     1     -33.311  16.948  -3.385  1.00 20.00    -0.003 C 
HETATM    9  C2  UNL     1     -33.499  16.947  -1.875  1.00 20.00     0.005 C 
ENDBRANCH   7   8
ENDBRANCH   3   7
TORSDOF 3
ENDMDL
MODEL 6
REMARK VINA RESULT:      -3.6      1.054      3.302
REMARK  3 active torsions:
REMARK  status: ('A' for Active; 'I' for Inactive)
REMARK    1  A    between atoms: C5_5  and  C7_7 
REMARK    2  A    between atoms: C6_6  and  C8_8 
REMARK    3  A    between atoms: C7_7  and  C8_8 
ROOT
HETATM    1  C1  UNL     1     -41.527  13.745   4.811  1.00 20.00     0.069 C 
HETATM    2  C4  UNL     1     -42.340  12.695   6.873  1.00 20.00     0.031 C 
HETATM    3  C8  UNL     1     -41.088  13.150   6.097  1.00 20.00     0.045 C 
HETATM    4  N9  UNL     1     -41.871  14.210   3.805  1.00 20.00    -0.196 NA
ENDROOT
BRANCH   3   5
HETATM    5  C6  UNL     1     -40.228  11.886   5.811  1.00 20.00     0.020 C 
HETATM    6  C3  UNL     1     -38.763  12.145   5.469  1.00 20.00     0.007 C 
ENDBRANCH   3   5
BRANCH   3   7
HETATM    7  C7  UNL     1     -40.273  14.193   6.912  1.00 20.00     0.024 C 
BRANCH   7   8
HETATM    8  C5  UNL     1     -40.479  14.148   8.433  1.00 20.00    -0.003 C 
HETATM    9  C2  UNL     1     -40.288  15.524   9.055  1.00 20.00     0.005 C 
ENDBRANCH   7   8
ENDBRANCH   3   7
TORSDOF 3
ENDMDL
MODEL 7
REMARK VINA RESULT:      -3.5     10.611     12.221
REMARK  3 active torsions:
REMARK  status: ('A' for Active; 'I' for Inactive)
REMARK    1  A    between atoms: C5_5  and  C7_7 
REMARK    2  A    between atoms: C6_6  and  C8_8 
REMARK    3  A    between atoms: C7_7  and  C8_8 
ROOT
HETATM    1  C1  UNL     1     -31.743  18.506  -0.852  1.00 20.00     0.069 C 
HETATM    2  C4  UNL     1     -33.083  19.178  -2.793  1.00 20.00     0.031 C 
HETATM    3  C8  UNL     1     -33.116  18.492  -1.413  1.00 20.00     0.045 C 
HETATM    4  N9  UNL     1     -30.669  18.517  -0.413  1.00 20.00    -0.196 NA
ENDROOT
BRANCH   3   5
HETATM    5  C6  UNL     1     -33.567  17.019  -1.632  1.00 20.00     0.020 C 
HETATM    6  C3  UNL     1     -33.287  16.439  -3.015  1.00 20.00     0.007 C 
ENDBRANCH   3   5
BRANCH   3   7
HETATM    7  C7  UNL     1     -34.090  19.223  -0.447  1.00 20.00     0.024 C 
BRANCH   7   8
HETATM    8  C5  UNL     1     -33.957  18.846   1.035  1.00 20.00    -0.003 C 
HETATM    9  C2  UNL     1     -35.190  19.263   1.823  1.00 20.00     0.005 C 
ENDBRANCH   7   8
ENDBRANCH   3   7
TORSDOF 3
ENDMDL
MODEL 8
REMARK VINA RESULT:      -3.5      9.592     10.769
REMARK  3 active torsions:
REMARK  status: ('A' for Active; 'I' for Inactive)
REMARK    1  A    between atoms: C5_5  and  C7_7 
REMARK    2  A    between atoms: C6_6  and  C8_8 
REMARK    3  A    between atoms: C7_7  and  C8_8 
ROOT
HETATM    1  C1  UNL     1     -32.806   6.391   3.018  1.00 20.00     0.069 C 
HETATM    2  C4  UNL     1     -31.362   8.021   4.147  1.00 20.00     0.031 C 
HETATM    3  C8  UNL     1     -32.765   7.772   3.558  1.00 20.00     0.045 C 
HETATM    4  N9  UNL     1     -32.838   5.311   2.595  1.00 20.00    -0.196 NA
ENDROOT
BRANCH   3   5
HETATM    5  C6  UNL     1     -32.972   8.785   2.395  1.00 20.00     0.020 C 
HETATM    6  C3  UNL     1     -32.211   8.480   1.108  1.00 20.00     0.007 C 
ENDBRANCH   3   5
BRANCH   3   7
HETATM    7  C7  UNL     1     -33.867   7.950   4.640  1.00 20.00     0.024 C 
BRANCH   7   8
HETATM    8  C5  UNL     1     -33.597   7.247   5.978  1.00 20.00    -0.003 C 
HETATM    9  C2  UNL     1     -34.558   6.086   6.193  1.00 20.00     0.005 C 
ENDBRANCH   7   8
ENDBRANCH   3   7
TORSDOF 3
ENDMDL
MODEL 9
REMARK VINA RESULT:      -3.5     10.896     11.847
REMARK  3 active torsions:
REMARK  status: ('A' for Active; 'I' for Inactive)
REMARK    1  A    between atoms: C5_5  and  C7_7 
REMARK    2  A    between atoms: C6_6  and  C8_8 
REMARK    3  A    between atoms: C7_7  and  C8_8 
ROOT
HETATM    1  C1  UNL     1     -34.992  18.511  -2.245  1.00 20.00     0.069 C 
HETATM    2  C4  UNL     1     -32.595  19.006  -2.099  1.00 20.00     0.031 C 
HETATM    3  C8  UNL     1     -33.709  18.028  -1.679  1.00 20.00     0.045 C 
HETATM    4  N9  UNL     1     -35.996  18.889  -2.689  1.00 20.00    -0.196 NA
ENDROOT
BRANCH   3   5
HETATM    5  C6  UNL     1     -33.793  18.051  -0.125  1.00 20.00     0.020 C 
HETATM    6  C3  UNL     1     -32.542  18.543   0.598  1.00 20.00     0.007 C 
ENDBRANCH   3   5
BRANCH   3   7
HETATM    7  C7  UNL     1     -33.413  16.590  -2.188  1.00 20.00     0.024 C 
BRANCH   7   8
HETATM    8  C5  UNL     1     -33.476  16.403  -3.711  1.00 20.00    -0.003 C 
HETATM    9  C2  UNL     1     -33.729  14.948  -4.078  1.00 20.00     0.005 C 
ENDBRANCH   7   8
ENDBRANCH   3   7
TORSDOF 3
ENDMDL
