MODEL 1
REMARK VINA RESULT:      -6.0      0.000      0.000
REMARK  2 active torsions:
REMARK  status: ('A' for Active; 'I' for Inactive)
REMARK    1  A    between atoms: C2_2  and  C3_3 
REMARK    2  A    between atoms: C3_3  and  C4_4 
ROOT
HETATM    1  C3  UNL     1     -34.228   6.207   4.813  1.00 20.00     0.402 C 
HETATM    2  F7  UNL     1     -35.458   6.438   4.276  1.00 20.00    -0.189 F 
HETATM    3  F8  UNL     1     -33.744   5.096   4.199  1.00 20.00    -0.189 F 
ENDROOT
BRANCH   1   4
HETATM    4  C2  UNL     1     -33.340   7.392   4.480  1.00 20.00     0.313 C 
HETATM    5  C1  UNL     1     -32.449   7.216   3.268  1.00 20.00     0.097 C 
HETATM    6  F5  UNL     1     -34.137   8.476   4.266  1.00 20.00    -0.200 F 
HETATM    7  F6  UNL     1     -32.567   7.694   5.555  1.00 20.00    -0.200 F 
ENDBRANCH   1   4
BRANCH   1   8
HETATM    8  C4  UNL     1     -34.408   5.912   6.282  1.00 20.00     0.460 C 
HETATM    9  F9  UNL     1     -33.314   5.334   6.817  1.00 20.00    -0.165 F 
HETATM   10  F10 UNL     1     -35.445   5.065   6.469  1.00 20.00    -0.165 F 
HETATM   11  F11 UNL     1     -34.669   7.038   6.981  1.00 20.00    -0.165 F 
ENDBRANCH   1   8
TORSDOF 2
ENDMDL
MODEL 2
REMARK VINA RESULT:      -5.9      0.015      1.139
REMARK  2 active torsions:
REMARK  status: ('A' for Active; 'I' for Inactive)
REMARK    1  A    between atoms: C2_2  and  C3_3 
REMARK    2  A    between atoms: C3_3  and  C4_4 
ROOT
HETATM    1  C3  UNL     1     -34.228   6.210   4.813  1.00 20.00     0.402 C 
HETATM    2  F7  UNL     1     -35.454   6.434   4.267  1.00 20.00    -0.189 F 
HETATM    3  F8  UNL     1     -33.738   5.095   4.210  1.00 20.00    -0.189 F 
ENDROOT
BRANCH   1   4
HETATM    4  C2  UNL     1     -33.339   7.393   4.477  1.00 20.00     0.313 C 
HETATM    5  C1  UNL     1     -32.451   7.216   3.265  1.00 20.00     0.097 C 
HETATM    6  F5  UNL     1     -34.136   8.477   4.264  1.00 20.00    -0.200 F 
HETATM    7  F6  UNL     1     -32.564   7.696   5.551  1.00 20.00    -0.200 F 
ENDBRANCH   1   4
BRANCH   1   8
HETATM    8  C4  UNL     1     -34.416   5.925   6.283  1.00 20.00     0.460 C 
HETATM    9  F9  UNL     1     -34.661   7.049   6.987  1.00 20.00    -0.165 F 
HETATM   10  F10 UNL     1     -33.302   5.359   6.800  1.00 20.00    -0.165 F 
HETATM   11  F11 UNL     1     -35.441   5.071   6.491  1.00 20.00    -0.165 F 
ENDBRANCH   1   8
TORSDOF 2
ENDMDL
MODEL 3
REMARK VINA RESULT:      -5.9      1.038      2.412
REMARK  2 active torsions:
REMARK  status: ('A' for Active; 'I' for Inactive)
REMARK    1  A    between atoms: C2_2  and  C3_3 
REMARK    2  A    between atoms: C3_3  and  C4_4 
ROOT
HETATM    1  C3  UNL     1     -33.910   6.833   5.847  1.00 20.00     0.402 C 
HETATM    2  F7  UNL     1     -32.823   6.407   6.547  1.00 20.00    -0.189 F 
HETATM    3  F8  UNL     1     -34.594   7.667   6.673  1.00 20.00    -0.189 F 
ENDROOT
BRANCH   1   4
HETATM    4  C2  UNL     1     -33.417   7.614   4.642  1.00 20.00     0.313 C 
HETATM    5  C1  UNL     1     -32.242   8.534   4.899  1.00 20.00     0.097 C 
HETATM    6  F5  UNL     1     -33.056   6.725   3.676  1.00 20.00    -0.200 F 
HETATM    7  F6  UNL     1     -34.441   8.342   4.126  1.00 20.00    -0.200 F 
ENDBRANCH   1   4
BRANCH   1   8
HETATM    8  C4  UNL     1     -34.771   5.632   5.545  1.00 20.00     0.460 C 
HETATM    9  F9  UNL     1     -35.760   5.926   4.677  1.00 20.00    -0.165 F 
HETATM   10  F10 UNL     1     -35.350   5.171   6.677  1.00 20.00    -0.165 F 
HETATM   11  F11 UNL     1     -34.042   4.624   5.020  1.00 20.00    -0.165 F 
ENDBRANCH   1   8
TORSDOF 2
ENDMDL
MODEL 4
REMARK VINA RESULT:      -5.9      1.034      2.245
REMARK  2 active torsions:
REMARK  status: ('A' for Active; 'I' for Inactive)
REMARK    1  A    between atoms: C2_2  and  C3_3 
REMARK    2  A    between atoms: C3_3  and  C4_4 
ROOT
HETATM    1  C3  UNL     1     -33.909   6.835   5.853  1.00 20.00     0.402 C 
HETATM    2  F7  UNL     1     -32.820   6.420   6.557  1.00 20.00    -0.189 F 
HETATM    3  F8  UNL     1     -34.599   7.671   6.672  1.00 20.00    -0.189 F 
ENDROOT
BRANCH   1   4
HETATM    4  C2  UNL     1     -33.419   7.610   4.643  1.00 20.00     0.313 C 
HETATM    5  C1  UNL     1     -32.243   8.530   4.892  1.00 20.00     0.097 C 
HETATM    6  F5  UNL     1     -33.062   6.716   3.680  1.00 20.00    -0.200 F 
HETATM    7  F6  UNL     1     -34.445   8.336   4.127  1.00 20.00    -0.200 F 
ENDBRANCH   1   4
BRANCH   1   8
HETATM    8  C4  UNL     1     -34.762   5.626   5.559  1.00 20.00     0.460 C 
HETATM    9  F9  UNL     1     -34.046   4.626   5.005  1.00 20.00    -0.165 F 
HETATM   10  F10 UNL     1     -35.748   5.946   4.691  1.00 20.00    -0.165 F 
HETATM   11  F11 UNL     1     -35.344   5.151   6.681  1.00 20.00    -0.165 F 
ENDBRANCH   1   8
TORSDOF 2
ENDMDL
MODEL 5
REMARK VINA RESULT:      -5.8      1.036      2.320
REMARK  2 active torsions:
REMARK  status: ('A' for Active; 'I' for Inactive)
REMARK    1  A    between atoms: C2_2  and  C3_3 
REMARK    2  A    between atoms: C3_3  and  C4_4 
ROOT
HETATM    1  C3  UNL     1     -33.910   6.842   5.851  1.00 20.00     0.402 C 
HETATM    2  F7  UNL     1     -32.823   6.417   6.553  1.00 20.00    -0.189 F 
HETATM    3  F8  UNL     1     -34.591   7.682   6.673  1.00 20.00    -0.189 F 
ENDROOT
BRANCH   1   4
HETATM    4  C2  UNL     1     -33.417   7.614   4.642  1.00 20.00     0.313 C 
HETATM    5  C1  UNL     1     -32.242   8.535   4.893  1.00 20.00     0.097 C 
HETATM    6  F5  UNL     1     -33.056   6.718   3.682  1.00 20.00    -0.200 F 
HETATM    7  F6  UNL     1     -34.440   8.339   4.120  1.00 20.00    -0.200 F 
ENDBRANCH   1   4
BRANCH   1   8
HETATM    8  C4  UNL     1     -34.775   5.641   5.558  1.00 20.00     0.460 C 
HETATM    9  F9  UNL     1     -35.351   5.150   6.674  1.00 20.00    -0.165 F 
HETATM   10  F10 UNL     1     -34.034   4.648   5.016  1.00 20.00    -0.165 F 
HETATM   11  F11 UNL     1     -35.755   5.944   4.680  1.00 20.00    -0.165 F 
ENDBRANCH   1   8
TORSDOF 2
ENDMDL
MODEL 6
REMARK VINA RESULT:      -5.8      1.105      2.297
REMARK  2 active torsions:
REMARK  status: ('A' for Active; 'I' for Inactive)
REMARK    1  A    between atoms: C2_2  and  C3_3 
REMARK    2  A    between atoms: C3_3  and  C4_4 
ROOT
HETATM    1  C3  UNL     1     -33.984   6.825   5.895  1.00 20.00     0.402 C 
HETATM    2  F7  UNL     1     -32.839   6.412   6.505  1.00 20.00    -0.189 F 
HETATM    3  F8  UNL     1     -34.891   7.034   6.885  1.00 20.00    -0.189 F 
ENDROOT
BRANCH   1   4
HETATM    4  C2  UNL     1     -33.696   8.140   5.194  1.00 20.00     0.313 C 
HETATM    5  C1  UNL     1     -32.263   8.339   4.748  1.00 20.00     0.097 C 
HETATM    6  F5  UNL     1     -34.498   8.223   4.097  1.00 20.00    -0.200 F 
HETATM    7  F6  UNL     1     -34.051   9.171   6.004  1.00 20.00    -0.200 F 
ENDBRANCH   1   4
BRANCH   1   8
HETATM    8  C4  UNL     1     -34.474   5.704   5.013  1.00 20.00     0.460 C 
HETATM    9  F9  UNL     1     -33.748   5.598   3.882  1.00 20.00    -0.165 F 
HETATM   10  F10 UNL     1     -35.759   5.918   4.649  1.00 20.00    -0.165 F 
HETATM   11  F11 UNL     1     -34.424   4.517   5.654  1.00 20.00    -0.165 F 
ENDBRANCH   1   8
TORSDOF 2
ENDMDL
MODEL 7
REMARK VINA RESULT:      -5.8      1.076      3.266
REMARK  2 active torsions:
REMARK  status: ('A' for Active; 'I' for Inactive)
REMARK    1  A    between atoms: C2_2  and  C3_3 
REMARK    2  A    between atoms: C3_3  and  C4_4 
ROOT
HETATM    1  C3  UNL     1     -33.863   6.830   5.873  1.00 20.00     0.402 C 
HETATM    2  F7  UNL     1     -34.586   7.628   6.707  1.00 20.00    -0.189 F 
HETATM    3  F8  UNL     1     -32.853   6.312   6.619  1.00 20.00    -0.189 F 
ENDROOT
BRANCH   1   4
HETATM    4  C2  UNL     1     -34.765   5.705   5.400  1.00 20.00     0.313 C 
HETATM    5  C1  UNL     1     -34.077   4.607   4.615  1.00 20.00     0.097 C 
HETATM    6  F5  UNL     1     -35.352   5.142   6.491  1.00 20.00    -0.200 F 
HETATM    7  F6  UNL     1     -35.772   6.219   4.647  1.00 20.00    -0.200 F 
ENDBRANCH   1   4
BRANCH   1   8
HETATM    8  C4  UNL     1     -33.273   7.700   4.791  1.00 20.00     0.460 C 
HETATM    9  F9  UNL     1     -32.701   6.969   3.813  1.00 20.00    -0.165 F 
HETATM   10  F10 UNL     1     -32.317   8.507   5.304  1.00 20.00    -0.165 F 
HETATM   11  F11 UNL     1     -34.213   8.488   4.226  1.00 20.00    -0.165 F 
ENDBRANCH   1   8
TORSDOF 2
ENDMDL
MODEL 8
REMARK VINA RESULT:      -5.7      1.290      3.465
REMARK  2 active torsions:
REMARK  status: ('A' for Active; 'I' for Inactive)
REMARK    1  A    between atoms: C2_2  and  C3_3 
REMARK    2  A    between atoms: C3_3  and  C4_4 
ROOT
HETATM    1  C3  UNL     1     -33.542   7.379   4.972  1.00 20.00     0.402 C 
HETATM    2  F7  UNL     1     -34.408   8.422   5.102  1.00 20.00    -0.189 F 
HETATM    3  F8  UNL     1     -32.834   7.323   6.130  1.00 20.00    -0.189 F 
ENDROOT
BRANCH   1   4
HETATM    4  C2  UNL     1     -34.356   6.108   4.820  1.00 20.00     0.313 C 
HETATM    5  C1  UNL     1     -34.627   5.351   6.103  1.00 20.00     0.097 C 
HETATM    6  F5  UNL     1     -35.554   6.433   4.259  1.00 20.00    -0.200 F 
HETATM    7  F6  UNL     1     -33.737   5.277   3.941  1.00 20.00    -0.200 F 
ENDBRANCH   1   4
BRANCH   1   8
HETATM    8  C4  UNL     1     -32.597   7.696   3.839  1.00 20.00     0.460 C 
HETATM    9  F9  UNL     1     -32.430   6.642   3.014  1.00 20.00    -0.165 F 
HETATM   10  F10 UNL     1     -31.379   8.030   4.321  1.00 20.00    -0.165 F 
HETATM   11  F11 UNL     1     -33.044   8.735   3.102  1.00 20.00    -0.165 F 
ENDBRANCH   1   8
TORSDOF 2
ENDMDL
MODEL 9
REMARK VINA RESULT:      -5.6      0.757      2.079
REMARK  2 active torsions:
REMARK  status: ('A' for Active; 'I' for Inactive)
REMARK    1  A    between atoms: C2_2  and  C3_3 
REMARK    2  A    between atoms: C3_3  and  C4_4 
ROOT
HETATM    1  C3  UNL     1     -33.854   6.869   5.985  1.00 20.00     0.402 C 
HETATM    2  F7  UNL     1     -32.808   6.380   6.706  1.00 20.00    -0.189 F 
HETATM    3  F8  UNL     1     -34.581   7.638   6.838  1.00 20.00    -0.189 F 
ENDROOT
BRANCH   1   4
HETATM    4  C2  UNL     1     -33.295   7.741   4.877  1.00 20.00     0.313 C 
HETATM    5  C1  UNL     1     -32.725   6.996   3.688  1.00 20.00     0.097 C 
HETATM    6  F5  UNL     1     -34.291   8.554   4.429  1.00 20.00    -0.200 F 
HETATM    7  F6  UNL     1     -32.336   8.558   5.384  1.00 20.00    -0.200 F 
ENDBRANCH   1   4
BRANCH   1   8
HETATM    8  C4  UNL     1     -34.701   5.702   5.541  1.00 20.00     0.460 C 
HETATM    9  F9  UNL     1     -35.380   5.152   6.568  1.00 20.00    -0.165 F 
HETATM   10  F10 UNL     1     -33.923   4.733   5.006  1.00 20.00    -0.165 F 
HETATM   11  F11 UNL     1     -35.595   6.073   4.600  1.00 20.00    -0.165 F 
ENDBRANCH   1   8
TORSDOF 2
ENDMDL
