MODEL 1
REMARK VINA RESULT:      -4.1      0.000      0.000
REMARK  2 active torsions:
REMARK  status: ('A' for Active; 'I' for Inactive)
REMARK    1  A    between atoms: C1_1  and  C7_7 
REMARK    2  A    between atoms: C6_6  and  C10_10 
ROOT
HETATM    1  C2  UNL     1     -34.182   5.830   6.664  1.00 20.00     0.002 C 
HETATM    2  C3  UNL     1     -35.261   5.562   5.616  1.00 20.00     0.005 C 
HETATM    3  C4  UNL     1     -33.051   6.741   6.184  1.00 20.00     0.020 C 
HETATM    4  C5  UNL     1     -34.116   7.014   3.873  1.00 20.00     0.025 C 
HETATM    5  C6  UNL     1     -34.761   5.646   4.174  1.00 20.00    -0.014 C 
HETATM    6  C7  UNL     1     -33.478   7.712   5.088  1.00 20.00     0.045 C 
HETATM    7  C8  UNL     1     -34.343   8.853   5.630  1.00 20.00     0.027 C 
ENDROOT
BRANCH   6   8
HETATM    8  C1  UNL     1     -32.228   8.435   4.596  1.00 20.00     0.181 C 
HETATM    9  O11 UNL     1     -31.987   9.540   5.157  1.00 20.00    -0.647 OA
HETATM   10  O12 UNL     1     -31.590   7.833   3.686  1.00 20.00    -0.647 OA
ENDBRANCH   6   8
BRANCH   5  11
HETATM   11  C10 UNL     1     -33.825   4.483   3.829  1.00 20.00     0.000 C 
HETATM   12  C9  UNL     1     -32.910   4.829   2.701  1.00 20.00     0.005 C 
ENDBRANCH   5  11
TORSDOF 2
ENDMDL
MODEL 2
REMARK VINA RESULT:      -3.9      2.460      3.720
REMARK  2 active torsions:
REMARK  status: ('A' for Active; 'I' for Inactive)
REMARK    1  A    between atoms: C1_1  and  C7_7 
REMARK    2  A    between atoms: C6_6  and  C10_10 
ROOT
HETATM    1  C2  UNL     1     -33.472   9.041   5.368  1.00 20.00     0.002 C 
HETATM    2  C3  UNL     1     -32.104   8.723   4.766  1.00 20.00     0.005 C 
HETATM    3  C4  UNL     1     -34.529   7.962   5.132  1.00 20.00     0.020 C 
HETATM    4  C5  UNL     1     -32.881   6.483   3.850  1.00 20.00     0.025 C 
HETATM    5  C6  UNL     1     -32.163   7.812   3.539  1.00 20.00    -0.014 C 
HETATM    6  C7  UNL     1     -33.943   6.564   4.961  1.00 20.00     0.045 C 
HETATM    7  C8  UNL     1     -33.452   5.976   6.286  1.00 20.00     0.027 C 
ENDROOT
BRANCH   6   8
HETATM    8  C1  UNL     1     -35.084   5.627   4.573  1.00 20.00     0.181 C 
HETATM    9  O11 UNL     1     -36.120   6.194   4.129  1.00 20.00    -0.647 OA
HETATM   10  O12 UNL     1     -34.844   4.399   4.748  1.00 20.00    -0.647 OA
ENDBRANCH   6   8
BRANCH   5  11
HETATM   11  C10 UNL     1     -32.777   8.526   2.330  1.00 20.00     0.000 C 
HETATM   12  C9  UNL     1     -32.042   8.207   1.070  1.00 20.00     0.005 C 
ENDBRANCH   5  11
TORSDOF 2
ENDMDL
MODEL 3
REMARK VINA RESULT:      -3.9      9.199     10.927
REMARK  2 active torsions:
REMARK  status: ('A' for Active; 'I' for Inactive)
REMARK    1  A    between atoms: C1_1  and  C7_7 
REMARK    2  A    between atoms: C6_6  and  C10_10 
ROOT
HETATM    1  C2  UNL     1     -43.141  13.190   6.789  1.00 20.00     0.002 C 
HETATM    2  C3  UNL     1     -42.320  13.618   5.574  1.00 20.00     0.005 C 
HETATM    3  C4  UNL     1     -42.429  13.382   8.129  1.00 20.00     0.020 C 
HETATM    4  C5  UNL     1     -40.345  14.346   6.998  1.00 20.00     0.025 C 
HETATM    5  C6  UNL     1     -40.809  13.521   5.780  1.00 20.00    -0.014 C 
HETATM    6  C7  UNL     1     -41.396  14.505   8.112  1.00 20.00     0.045 C 
HETATM    7  C8  UNL     1     -42.047  15.890   8.111  1.00 20.00     0.027 C 
ENDROOT
BRANCH   6   8
HETATM    8  C1  UNL     1     -40.657  14.475   9.446  1.00 20.00     0.181 C 
HETATM    9  O11 UNL     1     -41.041  13.586  10.256  1.00 20.00    -0.647 OA
HETATM   10  O12 UNL     1     -39.752  15.348   9.571  1.00 20.00    -0.647 OA
ENDBRANCH   6   8
BRANCH   5  11
HETATM   11  C10 UNL     1     -40.339  12.065   5.862  1.00 20.00     0.000 C 
HETATM   12  C9  UNL     1     -39.406  11.724   4.748  1.00 20.00     0.005 C 
ENDBRANCH   5  11
TORSDOF 2
ENDMDL
MODEL 4
REMARK VINA RESULT:      -3.8     12.336     13.689
REMARK  2 active torsions:
REMARK  status: ('A' for Active; 'I' for Inactive)
REMARK    1  A    between atoms: C1_1  and  C7_7 
REMARK    2  A    between atoms: C6_6  and  C10_10 
ROOT
HETATM    1  C2  UNL     1     -33.707  14.159  -4.243  1.00 20.00     0.002 C 
HETATM    2  C3  UNL     1     -32.655  15.260  -4.121  1.00 20.00     0.005 C 
HETATM    3  C4  UNL     1     -35.110  14.664  -4.581  1.00 20.00     0.020 C 
HETATM    4  C5  UNL     1     -34.326  17.099  -4.655  1.00 20.00     0.025 C 
HETATM    5  C6  UNL     1     -33.221  16.615  -3.694  1.00 20.00    -0.014 C 
HETATM    6  C7  UNL     1     -35.111  15.977  -5.358  1.00 20.00     0.045 C 
HETATM    7  C8  UNL     1     -34.687  15.788  -6.816  1.00 20.00     0.027 C 
ENDROOT
BRANCH   6   8
HETATM    8  C1  UNL     1     -36.560  16.441  -5.481  1.00 20.00     0.181 C 
HETATM    9  O11 UNL     1     -37.327  15.656  -6.105  1.00 20.00    -0.647 OA
HETATM   10  O12 UNL     1     -36.807  17.556  -4.941  1.00 20.00    -0.647 OA
ENDBRANCH   6   8
BRANCH   5  11
HETATM   11  C10 UNL     1     -33.695  16.599  -2.238  1.00 20.00     0.000 C 
HETATM   12  C9  UNL     1     -33.051  17.682  -1.437  1.00 20.00     0.005 C 
ENDBRANCH   5  11
TORSDOF 2
ENDMDL
MODEL 5
REMARK VINA RESULT:      -3.7     12.791     14.166
REMARK  2 active torsions:
REMARK  status: ('A' for Active; 'I' for Inactive)
REMARK    1  A    between atoms: C1_1  and  C7_7 
REMARK    2  A    between atoms: C6_6  and  C10_10 
ROOT
HETATM    1  C2  UNL     1     -33.436  15.894  -3.469  1.00 20.00     0.002 C 
HETATM    2  C3  UNL     1     -33.276  17.324  -3.985  1.00 20.00     0.005 C 
HETATM    3  C4  UNL     1     -34.540  15.095  -4.161  1.00 20.00     0.020 C 
HETATM    4  C5  UNL     1     -35.140  17.055  -5.692  1.00 20.00     0.025 C 
HETATM    5  C6  UNL     1     -34.561  17.924  -4.557  1.00 20.00    -0.014 C 
HETATM    6  C7  UNL     1     -34.818  15.554  -5.589  1.00 20.00     0.045 C 
HETATM    7  C8  UNL     1     -33.717  15.122  -6.561  1.00 20.00     0.027 C 
ENDROOT
BRANCH   6   8
HETATM    8  C1  UNL     1     -36.038  14.788  -6.093  1.00 20.00     0.181 C 
HETATM    9  O11 UNL     1     -35.966  14.384  -7.287  1.00 20.00    -0.647 OA
HETATM   10  O12 UNL     1     -36.968  14.657  -5.248  1.00 20.00    -0.647 OA
ENDBRANCH   6   8
BRANCH   5  11
HETATM   11  C10 UNL     1     -35.596  18.199  -3.461  1.00 20.00     0.000 C 
HETATM   12  C9  UNL     1     -36.985  18.227  -4.009  1.00 20.00     0.005 C 
ENDBRANCH   5  11
TORSDOF 2
ENDMDL
MODEL 6
REMARK VINA RESULT:      -3.5      9.416     11.607
REMARK  2 active torsions:
REMARK  status: ('A' for Active; 'I' for Inactive)
REMARK    1  A    between atoms: C1_1  and  C7_7 
REMARK    2  A    between atoms: C6_6  and  C10_10 
ROOT
HETATM    1  C2  UNL     1     -42.901  15.282   5.891  1.00 20.00     0.002 C 
HETATM    2  C3  UNL     1     -42.833  15.620   7.380  1.00 20.00     0.005 C 
HETATM    3  C4  UNL     1     -41.839  14.288   5.421  1.00 20.00     0.020 C 
HETATM    4  C5  UNL     1     -40.854  14.074   7.774  1.00 20.00     0.025 C 
HETATM    5  C6  UNL     1     -41.434  15.488   7.982  1.00 20.00    -0.014 C 
HETATM    6  C7  UNL     1     -41.366  13.341   6.521  1.00 20.00     0.045 C 
HETATM    7  C8  UNL     1     -42.408  12.271   6.851  1.00 20.00     0.027 C 
ENDROOT
BRANCH   6   8
HETATM    8  C1  UNL     1     -40.203  12.526   5.961  1.00 20.00     0.181 C 
HETATM    9  O11 UNL     1     -40.150  12.456   4.702  1.00 20.00    -0.647 OA
HETATM   10  O12 UNL     1     -39.440  12.023   6.833  1.00 20.00    -0.647 OA
ENDBRANCH   6   8
BRANCH   5  11
HETATM   11  C10 UNL     1     -40.488  16.577   7.465  1.00 20.00     0.000 C 
HETATM   12  C9  UNL     1     -40.984  17.944   7.803  1.00 20.00     0.005 C 
ENDBRANCH   5  11
TORSDOF 2
ENDMDL
MODEL 7
REMARK VINA RESULT:      -3.5     13.752     15.074
REMARK  2 active torsions:
REMARK  status: ('A' for Active; 'I' for Inactive)
REMARK    1  A    between atoms: C1_1  and  C7_7 
REMARK    2  A    between atoms: C6_6  and  C10_10 
ROOT
HETATM    1  C2  UNL     1     -34.566  18.945  -6.457  1.00 20.00     0.002 C 
HETATM    2  C3  UNL     1     -35.242  18.984  -5.087  1.00 20.00     0.005 C 
HETATM    3  C4  UNL     1     -34.410  17.542  -7.042  1.00 20.00     0.020 C 
HETATM    4  C5  UNL     1     -35.543  16.461  -5.018  1.00 20.00     0.025 C 
HETATM    5  C6  UNL     1     -35.047  17.711  -4.263  1.00 20.00    -0.014 C 
HETATM    6  C7  UNL     1     -35.469  16.559  -6.553  1.00 20.00     0.045 C 
HETATM    7  C8  UNL     1     -36.836  16.814  -7.191  1.00 20.00     0.027 C 
ENDROOT
BRANCH   6   8
HETATM    8  C1  UNL     1     -35.098  15.176  -7.082  1.00 20.00     0.181 C 
HETATM    9  O11 UNL     1     -36.069  14.394  -7.276  1.00 20.00    -0.647 OA
HETATM   10  O12 UNL     1     -33.860  14.990  -7.257  1.00 20.00    -0.647 OA
ENDBRANCH   6   8
BRANCH   5  11
HETATM   11  C10 UNL     1     -33.598  17.557  -3.789  1.00 20.00     0.000 C 
HETATM   12  C9  UNL     1     -33.288  16.145  -3.415  1.00 20.00     0.005 C 
ENDBRANCH   5  11
TORSDOF 2
ENDMDL
MODEL 8
REMARK VINA RESULT:      -3.5     13.236     14.567
REMARK  2 active torsions:
REMARK  status: ('A' for Active; 'I' for Inactive)
REMARK    1  A    between atoms: C1_1  and  C7_7 
REMARK    2  A    between atoms: C6_6  and  C10_10 
ROOT
HETATM    1  C2  UNL     1     -34.718  16.160  -7.905  1.00 20.00     0.002 C 
HETATM    2  C3  UNL     1     -35.734  17.218  -7.478  1.00 20.00     0.005 C 
HETATM    3  C4  UNL     1     -34.016  15.456  -6.742  1.00 20.00     0.020 C 
HETATM    4  C5  UNL     1     -35.323  16.806  -5.004  1.00 20.00     0.025 C 
HETATM    5  C6  UNL     1     -35.431  17.861  -6.125  1.00 20.00    -0.014 C 
HETATM    6  C7  UNL     1     -34.851  15.416  -5.465  1.00 20.00     0.045 C 
HETATM    7  C8  UNL     1     -35.997  14.406  -5.555  1.00 20.00     0.027 C 
ENDROOT
BRANCH   6   8
HETATM    8  C1  UNL     1     -33.974  14.840  -4.357  1.00 20.00     0.181 C 
HETATM    9  O11 UNL     1     -34.343  13.721  -3.903  1.00 20.00    -0.647 OA
HETATM   10  O12 UNL     1     -32.986  15.559  -4.034  1.00 20.00    -0.647 OA
ENDBRANCH   6   8
BRANCH   5  11
HETATM   11  C10 UNL     1     -34.190  18.758  -6.187  1.00 20.00     0.000 C 
HETATM   12  C9  UNL     1     -33.611  18.992  -4.832  1.00 20.00     0.005 C 
ENDBRANCH   5  11
TORSDOF 2
ENDMDL
MODEL 9
REMARK VINA RESULT:      -3.5     12.984     13.926
REMARK  2 active torsions:
REMARK  status: ('A' for Active; 'I' for Inactive)
REMARK    1  A    between atoms: C1_1  and  C7_7 
REMARK    2  A    between atoms: C6_6  and  C10_10 
ROOT
HETATM    1  C2  UNL     1     -24.177  -1.717  12.331  1.00 20.00     0.002 C 
HETATM    2  C3  UNL     1     -23.712  -3.121  11.948  1.00 20.00     0.005 C 
HETATM    3  C4  UNL     1     -25.410  -1.232  11.568  1.00 20.00     0.020 C 
HETATM    4  C5  UNL     1     -25.582  -3.420  10.252  1.00 20.00     0.025 C 
HETATM    5  C6  UNL     1     -24.066  -3.522  10.515  1.00 20.00    -0.014 C 
HETATM    6  C7  UNL     1     -26.318  -2.365  11.098  1.00 20.00     0.045 C 
HETATM    7  C8  UNL     1     -27.113  -2.985  12.248  1.00 20.00     0.027 C 
ENDROOT
BRANCH   6   8
HETATM    8  C1  UNL     1     -27.406  -1.753  10.220  1.00 20.00     0.181 C 
HETATM    9  O11 UNL     1     -28.146  -2.582   9.622  1.00 20.00    -0.647 OA
HETATM   10  O12 UNL     1     -27.427  -0.490  10.205  1.00 20.00    -0.647 OA
ENDBRANCH   6   8
BRANCH   5  11
HETATM   11  C10 UNL     1     -23.252  -2.731   9.486  1.00 20.00     0.000 C 
HETATM   12  C9  UNL     1     -23.369  -3.320   8.120  1.00 20.00     0.005 C 
ENDBRANCH   5  11
TORSDOF 2
ENDMDL
