MODEL 1
REMARK VINA RESULT:      -5.2      0.000      0.000
REMARK  3 active torsions:
REMARK  status: ('A' for Active; 'I' for Inactive)
REMARK    1  A    between atoms: C3_3  and  C5_5 
REMARK    2  A    between atoms: C3_3  and  C9_9 
REMARK    3  A    between atoms: C8_8  and  C9_9 
ROOT
HETATM    1  C1  UNL     1     -34.769   4.900   5.936  1.00 20.00     0.012 C 
HETATM    2  C2  UNL     1     -34.379   6.011   6.172  1.00 20.00    -0.117 C 
HETATM    3  C8  UNL     1     -33.903   7.372   6.463  1.00 20.00     0.100 C 
ENDROOT
BRANCH   3   4
HETATM    4  C9  UNL     1     -33.920   8.260   5.222  1.00 20.00     0.090 C 
BRANCH   4   5
HETATM    5  C3  UNL     1     -32.541   8.508   4.627  1.00 20.00     0.132 C 
HETATM    6  O10 UNL     1     -31.852   9.485   4.917  1.00 20.00    -0.298 OA
BRANCH   5   7
HETATM    7  C5  UNL     1     -32.042   7.468   3.658  1.00 20.00     0.059 A 
HETATM    8  C4  UNL     1     -32.235   7.716   2.205  1.00 20.00     0.017 A 
HETATM    9  C6  UNL     1     -33.060   6.670   2.906  1.00 20.00    -0.007 A 
HETATM   10  C7  UNL     1     -32.808   5.223   2.656  1.00 20.00     0.011 C 
ENDBRANCH   5   7
ENDBRANCH   4   5
ENDBRANCH   3   4
TORSDOF 3
ENDMDL
MODEL 2
REMARK VINA RESULT:      -4.8      2.120      3.216
REMARK  3 active torsions:
REMARK  status: ('A' for Active; 'I' for Inactive)
REMARK    1  A    between atoms: C3_3  and  C5_5 
REMARK    2  A    between atoms: C3_3  and  C9_9 
REMARK    3  A    between atoms: C8_8  and  C9_9 
ROOT
HETATM    1  C1  UNL     1     -33.093   8.776   5.393  1.00 20.00     0.012 C 
HETATM    2  C2  UNL     1     -33.601   7.785   5.840  1.00 20.00    -0.117 C 
HETATM    3  C8  UNL     1     -34.221   6.569   6.389  1.00 20.00     0.100 C 
ENDROOT
BRANCH   3   4
HETATM    4  C9  UNL     1     -35.068   5.841   5.349  1.00 20.00     0.090 C 
BRANCH   4   5
HETATM    5  C3  UNL     1     -34.258   4.975   4.395  1.00 20.00     0.132 C 
HETATM    6  O10 UNL     1     -33.946   3.812   4.646  1.00 20.00    -0.298 OA
BRANCH   5   7
HETATM    7  C5  UNL     1     -33.865   5.619   3.091  1.00 20.00     0.059 A 
HETATM    8  C4  UNL     1     -32.896   4.901   2.221  1.00 20.00     0.017 A 
HETATM    9  C6  UNL     1     -32.467   6.138   2.963  1.00 20.00    -0.007 A 
HETATM   10  C7  UNL     1     -32.231   7.411   2.226  1.00 20.00     0.011 C 
ENDBRANCH   5   7
ENDBRANCH   4   5
ENDBRANCH   3   4
TORSDOF 3
ENDMDL
MODEL 3
REMARK VINA RESULT:      -4.6      1.056      3.938
REMARK  3 active torsions:
REMARK  status: ('A' for Active; 'I' for Inactive)
REMARK    1  A    between atoms: C3_3  and  C5_5 
REMARK    2  A    between atoms: C3_3  and  C9_9 
REMARK    3  A    between atoms: C8_8  and  C9_9 
ROOT
HETATM    1  C1  UNL     1     -32.625   9.462   0.652  1.00 20.00     0.012 C 
HETATM    2  C2  UNL     1     -32.555   8.497   1.364  1.00 20.00    -0.117 C 
HETATM    3  C8  UNL     1     -32.470   7.316   2.235  1.00 20.00     0.100 C 
ENDROOT
BRANCH   3   4
HETATM    4  C9  UNL     1     -31.739   7.619   3.540  1.00 20.00     0.090 C 
BRANCH   4   5
HETATM    5  C3  UNL     1     -32.594   8.345   4.568  1.00 20.00     0.132 C 
HETATM    6  O10 UNL     1     -32.268   9.418   5.074  1.00 20.00    -0.298 OA
BRANCH   5   7
HETATM    7  C5  UNL     1     -33.899   7.683   4.929  1.00 20.00     0.059 A 
HETATM    8  C4  UNL     1     -34.067   7.182   6.319  1.00 20.00     0.017 A 
HETATM    9  C6  UNL     1     -33.884   6.208   5.185  1.00 20.00    -0.007 A 
HETATM   10  C7  UNL     1     -35.030   5.380   4.716  1.00 20.00     0.011 C 
ENDBRANCH   5   7
ENDBRANCH   4   5
ENDBRANCH   3   4
TORSDOF 3
ENDMDL
MODEL 4
REMARK VINA RESULT:      -4.6      0.691      3.315
REMARK  3 active torsions:
REMARK  status: ('A' for Active; 'I' for Inactive)
REMARK    1  A    between atoms: C3_3  and  C5_5 
REMARK    2  A    between atoms: C3_3  and  C9_9 
REMARK    3  A    between atoms: C8_8  and  C9_9 
ROOT
HETATM    1  C1  UNL     1     -33.098   4.881   2.586  1.00 20.00     0.012 C 
HETATM    2  C2  UNL     1     -32.576   5.962   2.602  1.00 20.00    -0.117 C 
HETATM    3  C8  UNL     1     -31.936   7.286   2.622  1.00 20.00     0.100 C 
ENDROOT
BRANCH   3   4
HETATM    4  C9  UNL     1     -32.880   8.370   3.136  1.00 20.00     0.090 C 
BRANCH   4   5
HETATM    5  C3  UNL     1     -32.950   8.454   4.653  1.00 20.00     0.132 C 
HETATM    6  O10 UNL     1     -32.144   9.093   5.327  1.00 20.00    -0.298 OA
BRANCH   5   7
HETATM    7  C5  UNL     1     -34.092   7.717   5.305  1.00 20.00     0.059 A 
HETATM    8  C4  UNL     1     -34.094   7.600   6.787  1.00 20.00     0.017 A 
HETATM    9  C6  UNL     1     -33.795   6.393   5.938  1.00 20.00    -0.007 A 
HETATM   10  C7  UNL     1     -34.794   5.293   5.820  1.00 20.00     0.011 C 
ENDBRANCH   5   7
ENDBRANCH   4   5
ENDBRANCH   3   4
TORSDOF 3
ENDMDL
MODEL 5
REMARK VINA RESULT:      -4.6      1.645      3.020
REMARK  3 active torsions:
REMARK  status: ('A' for Active; 'I' for Inactive)
REMARK    1  A    between atoms: C3_3  and  C5_5 
REMARK    2  A    between atoms: C3_3  and  C9_9 
REMARK    3  A    between atoms: C8_8  and  C9_9 
ROOT
HETATM    1  C1  UNL     1     -32.889   4.820   2.387  1.00 20.00     0.012 C 
HETATM    2  C2  UNL     1     -33.570   4.783   3.375  1.00 20.00    -0.117 C 
HETATM    3  C8  UNL     1     -34.406   4.737   4.584  1.00 20.00     0.100 C 
ENDROOT
BRANCH   3   4
HETATM    4  C9  UNL     1     -35.015   6.097   4.910  1.00 20.00     0.090 C 
BRANCH   4   5
HETATM    5  C3  UNL     1     -34.125   6.977   5.776  1.00 20.00     0.132 C 
HETATM    6  O10 UNL     1     -34.373   7.228   6.954  1.00 20.00    -0.298 OA
BRANCH   5   7
HETATM    7  C5  UNL     1     -32.886   7.521   5.112  1.00 20.00     0.059 A 
HETATM    8  C4  UNL     1     -32.646   8.986   5.174  1.00 20.00     0.017 A 
HETATM    9  C6  UNL     1     -33.063   8.347   3.876  1.00 20.00    -0.007 A 
HETATM   10  C7  UNL     1     -32.085   8.203   2.762  1.00 20.00     0.011 C 
ENDBRANCH   5   7
ENDBRANCH   4   5
ENDBRANCH   3   4
TORSDOF 3
ENDMDL
MODEL 6
REMARK VINA RESULT:      -4.6      1.951      3.039
REMARK  3 active torsions:
REMARK  status: ('A' for Active; 'I' for Inactive)
REMARK    1  A    between atoms: C3_3  and  C5_5 
REMARK    2  A    between atoms: C3_3  and  C9_9 
REMARK    3  A    between atoms: C8_8  and  C9_9 
ROOT
HETATM    1  C1  UNL     1     -34.306   6.779   6.915  1.00 20.00     0.012 C 
HETATM    2  C2  UNL     1     -34.653   6.172   5.939  1.00 20.00    -0.117 C 
HETATM    3  C8  UNL     1     -35.080   5.429   4.744  1.00 20.00     0.100 C 
ENDROOT
BRANCH   3   4
HETATM    4  C9  UNL     1     -33.943   4.602   4.150  1.00 20.00     0.090 C 
BRANCH   4   5
HETATM    5  C3  UNL     1     -33.182   5.313   3.040  1.00 20.00     0.132 C 
HETATM    6  O10 UNL     1     -32.587   4.714   2.146  1.00 20.00    -0.298 OA
BRANCH   5   7
HETATM    7  C5  UNL     1     -33.210   6.819   3.079  1.00 20.00     0.059 A 
HETATM    8  C4  UNL     1     -32.244   7.558   2.225  1.00 20.00     0.017 A 
HETATM    9  C6  UNL     1     -32.053   7.521   3.717  1.00 20.00    -0.007 A 
HETATM   10  C7  UNL     1     -32.307   8.739   4.537  1.00 20.00     0.011 C 
ENDBRANCH   5   7
ENDBRANCH   4   5
ENDBRANCH   3   4
TORSDOF 3
ENDMDL
MODEL 7
REMARK VINA RESULT:      -4.4      1.587      3.430
REMARK  3 active torsions:
REMARK  status: ('A' for Active; 'I' for Inactive)
REMARK    1  A    between atoms: C3_3  and  C5_5 
REMARK    2  A    between atoms: C3_3  and  C9_9 
REMARK    3  A    between atoms: C8_8  and  C9_9 
ROOT
HETATM    1  C1  UNL     1     -32.180   8.107   1.822  1.00 20.00     0.012 C 
HETATM    2  C2  UNL     1     -32.174   8.253   3.013  1.00 20.00    -0.117 C 
HETATM    3  C8  UNL     1     -32.165   8.431   4.473  1.00 20.00     0.100 C 
ENDROOT
BRANCH   3   4
HETATM    4  C9  UNL     1     -33.577   8.487   5.050  1.00 20.00     0.090 C 
BRANCH   4   5
HETATM    5  C3  UNL     1     -34.089   7.143   5.549  1.00 20.00     0.132 C 
HETATM    6  O10 UNL     1     -34.186   6.865   6.744  1.00 20.00    -0.298 OA
BRANCH   5   7
HETATM    7  C5  UNL     1     -34.498   6.156   4.487  1.00 20.00     0.059 A 
HETATM    8  C4  UNL     1     -34.668   4.733   4.884  1.00 20.00     0.017 A 
HETATM    9  C6  UNL     1     -33.485   5.145   4.048  1.00 20.00    -0.007 A 
HETATM   10  C7  UNL     1     -33.416   4.766   2.609  1.00 20.00     0.011 C 
ENDBRANCH   5   7
ENDBRANCH   4   5
ENDBRANCH   3   4
TORSDOF 3
ENDMDL
MODEL 8
REMARK VINA RESULT:      -4.4      1.437      2.254
REMARK  3 active torsions:
REMARK  status: ('A' for Active; 'I' for Inactive)
REMARK    1  A    between atoms: C3_3  and  C5_5 
REMARK    2  A    between atoms: C3_3  and  C9_9 
REMARK    3  A    between atoms: C8_8  and  C9_9 
ROOT
HETATM    1  C1  UNL     1     -34.224   6.871   6.715  1.00 20.00     0.012 C 
HETATM    2  C2  UNL     1     -33.867   7.668   5.891  1.00 20.00    -0.117 C 
HETATM    3  C8  UNL     1     -33.430   8.645   4.881  1.00 20.00     0.100 C 
ENDROOT
BRANCH   3   4
HETATM    4  C9  UNL     1     -32.104   8.249   4.239  1.00 20.00     0.090 C 
BRANCH   4   5
HETATM    5  C3  UNL     1     -32.257   7.386   2.995  1.00 20.00     0.132 C 
HETATM    6  O10 UNL     1     -32.243   7.847   1.854  1.00 20.00    -0.298 OA
BRANCH   5   7
HETATM    7  C5  UNL     1     -32.412   5.906   3.231  1.00 20.00     0.059 A 
HETATM    8  C4  UNL     1     -32.976   5.078   2.133  1.00 20.00     0.017 A 
HETATM    9  C6  UNL     1     -33.801   5.362   3.360  1.00 20.00    -0.007 A 
HETATM   10  C7  UNL     1     -34.067   4.282   4.351  1.00 20.00     0.011 C 
ENDBRANCH   5   7
ENDBRANCH   4   5
ENDBRANCH   3   4
TORSDOF 3
ENDMDL
MODEL 9
REMARK VINA RESULT:      -4.3      2.051      4.056
REMARK  3 active torsions:
REMARK  status: ('A' for Active; 'I' for Inactive)
REMARK    1  A    between atoms: C3_3  and  C5_5 
REMARK    2  A    between atoms: C3_3  and  C9_9 
REMARK    3  A    between atoms: C8_8  and  C9_9 
ROOT
HETATM    1  C1  UNL     1     -32.325   9.120   5.196  1.00 20.00     0.012 C 
HETATM    2  C2  UNL     1     -32.144   8.387   4.262  1.00 20.00    -0.117 C 
HETATM    3  C8  UNL     1     -31.922   7.491   3.117  1.00 20.00     0.100 C 
ENDROOT
BRANCH   3   4
HETATM    4  C9  UNL     1     -33.211   6.809   2.667  1.00 20.00     0.090 C 
BRANCH   4   5
HETATM    5  C3  UNL     1     -33.309   5.348   3.080  1.00 20.00     0.132 C 
HETATM    6  O10 UNL     1     -32.635   4.458   2.561  1.00 20.00    -0.298 OA
BRANCH   5   7
HETATM    7  C5  UNL     1     -34.276   5.037   4.192  1.00 20.00     0.059 A 
HETATM    8  C4  UNL     1     -35.503   5.870   4.305  1.00 20.00     0.017 A 
HETATM    9  C6  UNL     1     -34.393   6.026   5.310  1.00 20.00    -0.007 A 
HETATM   10  C7  UNL     1     -34.567   5.528   6.703  1.00 20.00     0.011 C 
ENDBRANCH   5   7
ENDBRANCH   4   5
ENDBRANCH   3   4
TORSDOF 3
ENDMDL
