MODEL 1
REMARK VINA RESULT:      -4.7      0.000      0.000
REMARK  2 active torsions:
REMARK  status: ('A' for Active; 'I' for Inactive)
REMARK    1  A    between atoms: C3_3  and  C5_5 
REMARK    2  A    between atoms: C3_3  and  C8_8 
ROOT
HETATM    1  C1  UNL     1     -32.708   5.409   2.251  1.00 20.00     0.012 C 
HETATM    2  C2  UNL     1     -33.353   5.017   3.184  1.00 20.00    -0.110 C 
HETATM    3  C8  UNL     1     -34.138   4.528   4.323  1.00 20.00     0.171 C 
ENDROOT
BRANCH   3   4
HETATM    4  C3  UNL     1     -35.108   5.567   4.849  1.00 20.00     0.142 C 
HETATM    5  O9  UNL     1     -36.083   5.961   4.209  1.00 20.00    -0.297 OA
BRANCH   4   6
HETATM    6  C5  UNL     1     -34.825   6.093   6.188  1.00 20.00     0.060 A 
HETATM    7  C4  UNL     1     -33.420   6.022   6.730  1.00 20.00     0.017 A 
HETATM    8  C6  UNL     1     -34.015   7.354   6.372  1.00 20.00    -0.007 A 
HETATM    9  C7  UNL     1     -33.476   8.126   5.217  1.00 20.00     0.011 C 
ENDBRANCH   4   6
ENDBRANCH   3   4
TORSDOF 2
ENDMDL
MODEL 2
REMARK VINA RESULT:      -4.6      1.573      2.451
REMARK  2 active torsions:
REMARK  status: ('A' for Active; 'I' for Inactive)
REMARK    1  A    between atoms: C3_3  and  C5_5 
REMARK    2  A    between atoms: C3_3  and  C8_8 
ROOT
HETATM    1  C1  UNL     1     -32.864   5.047   2.323  1.00 20.00     0.012 C 
HETATM    2  C2  UNL     1     -32.608   6.108   2.820  1.00 20.00    -0.110 C 
HETATM    3  C8  UNL     1     -32.287   7.407   3.423  1.00 20.00     0.171 C 
ENDROOT
BRANCH   3   4
HETATM    4  C3  UNL     1     -33.215   7.762   4.567  1.00 20.00     0.142 C 
HETATM    5  O9  UNL     1     -33.877   8.800   4.598  1.00 20.00    -0.297 OA
BRANCH   4   6
HETATM    6  C5  UNL     1     -33.291   6.789   5.661  1.00 20.00     0.060 A 
HETATM    7  C4  UNL     1     -34.365   6.933   6.708  1.00 20.00     0.017 A 
HETATM    8  C6  UNL     1     -34.421   5.791   5.736  1.00 20.00    -0.007 A 
HETATM    9  C7  UNL     1     -35.500   5.736   4.709  1.00 20.00     0.011 C 
ENDBRANCH   4   6
ENDBRANCH   3   4
TORSDOF 2
ENDMDL
MODEL 3
REMARK VINA RESULT:      -4.6      1.745      2.848
REMARK  2 active torsions:
REMARK  status: ('A' for Active; 'I' for Inactive)
REMARK    1  A    between atoms: C3_3  and  C5_5 
REMARK    2  A    between atoms: C3_3  and  C8_8 
ROOT
HETATM    1  C1  UNL     1     -33.920   4.008   4.063  1.00 20.00     0.012 C 
HETATM    2  C2  UNL     1     -34.366   5.022   4.523  1.00 20.00    -0.110 C 
HETATM    3  C8  UNL     1     -34.920   6.261   5.082  1.00 20.00     0.171 C 
ENDROOT
BRANCH   3   4
HETATM    4  C3  UNL     1     -33.850   7.173   5.648  1.00 20.00     0.142 C 
HETATM    5  O9  UNL     1     -33.194   6.898   6.652  1.00 20.00    -0.297 OA
BRANCH   4   6
HETATM    6  C5  UNL     1     -33.627   8.429   4.924  1.00 20.00     0.060 A 
HETATM    7  C4  UNL     1     -32.264   9.073   4.960  1.00 20.00     0.017 A 
HETATM    8  C6  UNL     1     -32.770   8.468   3.682  1.00 20.00    -0.007 A 
HETATM    9  C7  UNL     1     -32.123   7.246   3.126  1.00 20.00     0.011 C 
ENDBRANCH   4   6
ENDBRANCH   3   4
TORSDOF 2
ENDMDL
MODEL 4
REMARK VINA RESULT:      -4.4      1.751      2.768
REMARK  2 active torsions:
REMARK  status: ('A' for Active; 'I' for Inactive)
REMARK    1  A    between atoms: C3_3  and  C5_5 
REMARK    2  A    between atoms: C3_3  and  C8_8 
ROOT
HETATM    1  C1  UNL     1     -32.224   7.134   2.251  1.00 20.00     0.012 C 
HETATM    2  C2  UNL     1     -32.218   7.656   3.331  1.00 20.00    -0.110 C 
HETATM    3  C8  UNL     1     -32.203   8.298   4.651  1.00 20.00     0.171 C 
ENDROOT
BRANCH   3   4
HETATM    4  C3  UNL     1     -33.442   7.982   5.465  1.00 20.00     0.142 C 
HETATM    5  O9  UNL     1     -34.345   8.795   5.655  1.00 20.00    -0.297 OA
BRANCH   4   6
HETATM    6  C5  UNL     1     -33.515   6.630   6.027  1.00 20.00     0.060 A 
HETATM    7  C4  UNL     1     -34.743   6.213   6.796  1.00 20.00     0.017 A 
HETATM    8  C6  UNL     1     -34.459   5.600   5.455  1.00 20.00    -0.007 A 
HETATM    9  C7  UNL     1     -35.348   5.897   4.295  1.00 20.00     0.011 C 
ENDBRANCH   4   6
ENDBRANCH   3   4
TORSDOF 2
ENDMDL
MODEL 5
REMARK VINA RESULT:      -4.4      1.654      3.259
REMARK  2 active torsions:
REMARK  status: ('A' for Active; 'I' for Inactive)
REMARK    1  A    between atoms: C3_3  and  C5_5 
REMARK    2  A    between atoms: C3_3  and  C8_8 
ROOT
HETATM    1  C1  UNL     1     -32.155   8.719   3.727  1.00 20.00     0.012 C 
HETATM    2  C2  UNL     1     -33.024   8.442   4.506  1.00 20.00    -0.110 C 
HETATM    3  C8  UNL     1     -34.091   8.113   5.458  1.00 20.00     0.171 C 
ENDROOT
BRANCH   3   4
HETATM    4  C3  UNL     1     -33.896   6.756   6.103  1.00 20.00     0.142 C 
HETATM    5  O9  UNL     1     -33.017   6.526   6.933  1.00 20.00    -0.297 OA
BRANCH   4   6
HETATM    6  C5  UNL     1     -34.827   5.703   5.683  1.00 20.00     0.060 A 
HETATM    7  C4  UNL     1     -35.640   5.891   4.427  1.00 20.00     0.017 A 
HETATM    8  C6  UNL     1     -34.548   4.861   4.462  1.00 20.00    -0.007 A 
HETATM    9  C7  UNL     1     -33.321   5.045   3.635  1.00 20.00     0.011 C 
ENDBRANCH   4   6
ENDBRANCH   3   4
TORSDOF 2
ENDMDL
MODEL 6
REMARK VINA RESULT:      -4.4      1.622      3.092
REMARK  2 active torsions:
REMARK  status: ('A' for Active; 'I' for Inactive)
REMARK    1  A    between atoms: C3_3  and  C5_5 
REMARK    2  A    between atoms: C3_3  and  C8_8 
ROOT
HETATM    1  C1  UNL     1     -32.262   9.122   4.921  1.00 20.00     0.012 C 
HETATM    2  C2  UNL     1     -32.271   8.206   4.145  1.00 20.00    -0.110 C 
HETATM    3  C8  UNL     1     -32.277   7.091   3.191  1.00 20.00     0.171 C 
ENDROOT
BRANCH   3   4
HETATM    4  C3  UNL     1     -33.341   6.059   3.509  1.00 20.00     0.142 C 
HETATM    5  O9  UNL     1     -33.254   4.879   3.171  1.00 20.00    -0.297 OA
BRANCH   4   6
HETATM    6  C5  UNL     1     -34.505   6.545   4.257  1.00 20.00     0.060 A 
HETATM    7  C4  UNL     1     -35.614   5.585   4.606  1.00 20.00     0.017 A 
HETATM    8  C6  UNL     1     -34.733   6.134   5.692  1.00 20.00    -0.007 A 
HETATM    9  C7  UNL     1     -33.794   5.232   6.418  1.00 20.00     0.011 C 
ENDBRANCH   4   6
ENDBRANCH   3   4
TORSDOF 2
ENDMDL
MODEL 7
REMARK VINA RESULT:      -4.3      1.994      3.004
REMARK  2 active torsions:
REMARK  status: ('A' for Active; 'I' for Inactive)
REMARK    1  A    between atoms: C3_3  and  C5_5 
REMARK    2  A    between atoms: C3_3  and  C8_8 
ROOT
HETATM    1  C1  UNL     1     -32.193   8.143   1.447  1.00 20.00     0.012 C 
HETATM    2  C2  UNL     1     -32.182   7.934   2.629  1.00 20.00    -0.110 C 
HETATM    3  C8  UNL     1     -32.160   7.678   4.074  1.00 20.00     0.171 C 
ENDROOT
BRANCH   3   4
HETATM    4  C3  UNL     1     -33.543   7.713   4.692  1.00 20.00     0.142 C 
HETATM    5  O9  UNL     1     -33.880   8.540   5.538  1.00 20.00    -0.297 OA
BRANCH   4   6
HETATM    6  C5  UNL     1     -34.484   6.691   4.222  1.00 20.00     0.060 A 
HETATM    7  C4  UNL     1     -33.988   5.292   3.959  1.00 20.00     0.017 A 
HETATM    8  C6  UNL     1     -34.906   5.552   5.119  1.00 20.00    -0.007 A 
HETATM    9  C7  UNL     1     -34.403   5.414   6.515  1.00 20.00     0.011 C 
ENDBRANCH   4   6
ENDBRANCH   3   4
TORSDOF 2
ENDMDL
MODEL 8
REMARK VINA RESULT:      -4.2      2.473      4.044
REMARK  2 active torsions:
REMARK  status: ('A' for Active; 'I' for Inactive)
REMARK    1  A    between atoms: C3_3  and  C5_5 
REMARK    2  A    between atoms: C3_3  and  C8_8 
ROOT
HETATM    1  C1  UNL     1     -34.333   5.525   6.333  1.00 20.00     0.012 C 
HETATM    2  C2  UNL     1     -34.279   6.509   5.649  1.00 20.00    -0.110 C 
HETATM    3  C8  UNL     1     -34.222   7.713   4.812  1.00 20.00     0.171 C 
ENDROOT
BRANCH   3   4
HETATM    4  C3  UNL     1     -32.803   8.199   4.588  1.00 20.00     0.142 C 
HETATM    5  O9  UNL     1     -32.323   9.165   5.181  1.00 20.00    -0.297 OA
BRANCH   4   6
HETATM    6  C5  UNL     1     -32.011   7.446   3.611  1.00 20.00     0.060 A 
HETATM    7  C4  UNL     1     -32.715   6.603   2.578  1.00 20.00     0.017 A 
HETATM    8  C6  UNL     1     -31.987   7.847   2.156  1.00 20.00    -0.007 A 
HETATM    9  C7  UNL     1     -32.749   9.021   1.644  1.00 20.00     0.011 C 
ENDBRANCH   4   6
ENDBRANCH   3   4
TORSDOF 2
ENDMDL
MODEL 9
REMARK VINA RESULT:      -4.0      2.508      3.450
REMARK  2 active torsions:
REMARK  status: ('A' for Active; 'I' for Inactive)
REMARK    1  A    between atoms: C3_3  and  C5_5 
REMARK    2  A    between atoms: C3_3  and  C8_8 
ROOT
HETATM    1  C1  UNL     1     -32.627   8.929   0.374  1.00 20.00     0.012 C 
HETATM    2  C2  UNL     1     -32.652   8.954   1.574  1.00 20.00    -0.110 C 
HETATM    3  C8  UNL     1     -32.683   8.995   3.040  1.00 20.00     0.171 C 
ENDROOT
BRANCH   3   4
HETATM    4  C3  UNL     1     -32.611   7.614   3.662  1.00 20.00     0.142 C 
HETATM    5  O9  UNL     1     -32.357   6.599   3.015  1.00 20.00    -0.297 OA
BRANCH   4   6
HETATM    6  C5  UNL     1     -32.864   7.544   5.105  1.00 20.00     0.060 A 
HETATM    7  C4  UNL     1     -34.048   8.273   5.686  1.00 20.00     0.017 A 
HETATM    8  C6  UNL     1     -34.041   6.771   5.650  1.00 20.00    -0.007 A 
HETATM    9  C7  UNL     1     -34.990   6.041   4.763  1.00 20.00     0.011 C 
ENDBRANCH   4   6
ENDBRANCH   3   4
TORSDOF 2
ENDMDL
