MODEL 1
REMARK VINA RESULT:      -4.8      0.000      0.000
REMARK  3 active torsions:
REMARK  status: ('A' for Active; 'I' for Inactive)
REMARK    1  A    between atoms: C3_3  and  C5_5 
REMARK    2  A    between atoms: C3_3  and  C9_9 
REMARK    3  A    between atoms: C8_8  and  C9_9 
ROOT
HETATM    1  C1  UNL     1     -32.169   7.401   2.209  1.00 20.00     0.012 C 
HETATM    2  C2  UNL     1     -32.285   7.894   3.298  1.00 20.00    -0.117 C 
HETATM    3  C8  UNL     1     -32.424   8.499   4.631  1.00 20.00     0.100 C 
ENDROOT
BRANCH   3   4
HETATM    4  C9  UNL     1     -33.787   8.202   5.252  1.00 20.00     0.090 C 
BRANCH   4   5
HETATM    5  C3  UNL     1     -33.830   6.906   6.047  1.00 20.00     0.132 C 
HETATM    6  O10 UNL     1     -32.994   6.615   6.901  1.00 20.00    -0.298 OA
BRANCH   5   7
HETATM    7  C5  UNL     1     -34.983   5.982   5.745  1.00 20.00     0.059 A 
HETATM    8  C4  UNL     1     -35.602   6.054   4.393  1.00 20.00     0.017 A 
HETATM    9  C6  UNL     1     -34.792   4.853   4.792  1.00 20.00    -0.007 A 
HETATM   10  C7  UNL     1     -33.500   4.564   4.107  1.00 20.00     0.011 C 
ENDBRANCH   5   7
ENDBRANCH   4   5
ENDBRANCH   3   4
TORSDOF 3
ENDMDL
MODEL 2
REMARK VINA RESULT:      -4.8      1.559      3.017
REMARK  3 active torsions:
REMARK  status: ('A' for Active; 'I' for Inactive)
REMARK    1  A    between atoms: C3_3  and  C5_5 
REMARK    2  A    between atoms: C3_3  and  C9_9 
REMARK    3  A    between atoms: C8_8  and  C9_9 
ROOT
HETATM    1  C1  UNL     1     -32.109   7.392   2.924  1.00 20.00     0.012 C 
HETATM    2  C2  UNL     1     -32.661   6.329   2.841  1.00 20.00    -0.117 C 
HETATM    3  C8  UNL     1     -33.336   5.027   2.734  1.00 20.00     0.100 C 
ENDROOT
BRANCH   3   4
HETATM    4  C9  UNL     1     -33.866   4.548   4.084  1.00 20.00     0.090 C 
BRANCH   4   5
HETATM    5  C3  UNL     1     -34.918   5.463   4.690  1.00 20.00     0.132 C 
HETATM    6  O10 UNL     1     -35.864   5.915   4.047  1.00 20.00    -0.298 OA
BRANCH   5   7
HETATM    7  C5  UNL     1     -34.755   5.779   6.155  1.00 20.00     0.059 A 
HETATM    8  C4  UNL     1     -33.374   5.872   6.702  1.00 20.00     0.017 A 
HETATM    9  C6  UNL     1     -34.221   7.107   6.567  1.00 20.00    -0.007 A 
HETATM   10  C7  UNL     1     -33.834   8.174   5.600  1.00 20.00     0.011 C 
ENDBRANCH   5   7
ENDBRANCH   4   5
ENDBRANCH   3   4
TORSDOF 3
ENDMDL
MODEL 3
REMARK VINA RESULT:      -4.6      1.369      2.244
REMARK  3 active torsions:
REMARK  status: ('A' for Active; 'I' for Inactive)
REMARK    1  A    between atoms: C3_3  and  C5_5 
REMARK    2  A    between atoms: C3_3  and  C9_9 
REMARK    3  A    between atoms: C8_8  and  C9_9 
ROOT
HETATM    1  C1  UNL     1     -32.854   5.005   2.499  1.00 20.00     0.012 C 
HETATM    2  C2  UNL     1     -32.549   6.162   2.605  1.00 20.00    -0.117 C 
HETATM    3  C8  UNL     1     -32.176   7.579   2.731  1.00 20.00     0.100 C 
ENDROOT
BRANCH   3   4
HETATM    4  C9  UNL     1     -32.002   7.995   4.190  1.00 20.00     0.090 C 
BRANCH   4   5
HETATM    5  C3  UNL     1     -33.288   7.941   5.001  1.00 20.00     0.132 C 
HETATM    6  O10 UNL     1     -34.216   8.733   4.840  1.00 20.00    -0.298 OA
BRANCH   5   7
HETATM    7  C5  UNL     1     -33.383   6.834   6.019  1.00 20.00     0.059 A 
HETATM    8  C4  UNL     1     -34.558   6.821   6.933  1.00 20.00     0.017 A 
HETATM    9  C6  UNL     1     -34.419   5.775   5.862  1.00 20.00    -0.007 A 
HETATM   10  C7  UNL     1     -35.389   5.734   4.730  1.00 20.00     0.011 C 
ENDBRANCH   5   7
ENDBRANCH   4   5
ENDBRANCH   3   4
TORSDOF 3
ENDMDL
MODEL 4
REMARK VINA RESULT:      -4.5      1.498      3.804
REMARK  3 active torsions:
REMARK  status: ('A' for Active; 'I' for Inactive)
REMARK    1  A    between atoms: C3_3  and  C5_5 
REMARK    2  A    between atoms: C3_3  and  C9_9 
REMARK    3  A    between atoms: C8_8  and  C9_9 
ROOT
HETATM    1  C1  UNL     1     -34.786   4.842   5.564  1.00 20.00     0.012 C 
HETATM    2  C2  UNL     1     -34.416   5.940   5.881  1.00 20.00    -0.117 C 
HETATM    3  C8  UNL     1     -33.963   7.283   6.273  1.00 20.00     0.100 C 
ENDROOT
BRANCH   3   4
HETATM    4  C9  UNL     1     -33.908   8.236   5.082  1.00 20.00     0.090 C 
BRANCH   4   5
HETATM    5  C3  UNL     1     -32.496   8.577   4.631  1.00 20.00     0.132 C 
HETATM    6  O10 UNL     1     -31.872   9.547   5.058  1.00 20.00    -0.298 OA
BRANCH   5   7
HETATM    7  C5  UNL     1     -31.875   7.636   3.631  1.00 20.00     0.059 A 
HETATM    8  C4  UNL     1     -32.782   6.773   2.824  1.00 20.00     0.017 A 
HETATM    9  C6  UNL     1     -32.032   7.902   2.173  1.00 20.00    -0.007 A 
HETATM   10  C7  UNL     1     -32.775   9.073   1.627  1.00 20.00     0.011 C 
ENDBRANCH   5   7
ENDBRANCH   4   5
ENDBRANCH   3   4
TORSDOF 3
ENDMDL
MODEL 5
REMARK VINA RESULT:      -4.4      1.318      2.083
REMARK  3 active torsions:
REMARK  status: ('A' for Active; 'I' for Inactive)
REMARK    1  A    between atoms: C3_3  and  C5_5 
REMARK    2  A    between atoms: C3_3  and  C9_9 
REMARK    3  A    between atoms: C8_8  and  C9_9 
ROOT
HETATM    1  C1  UNL     1     -32.460   8.810   0.758  1.00 20.00     0.012 C 
HETATM    2  C2  UNL     1     -32.357   8.114   1.731  1.00 20.00    -0.117 C 
HETATM    3  C8  UNL     1     -32.231   7.258   2.920  1.00 20.00     0.100 C 
ENDROOT
BRANCH   3   4
HETATM    4  C9  UNL     1     -32.053   8.078   4.196  1.00 20.00     0.090 C 
BRANCH   4   5
HETATM    5  C3  UNL     1     -33.238   7.999   5.147  1.00 20.00     0.132 C 
HETATM    6  O10 UNL     1     -34.049   8.913   5.283  1.00 20.00    -0.298 OA
BRANCH   5   7
HETATM    7  C5  UNL     1     -33.384   6.711   5.916  1.00 20.00     0.059 A 
HETATM    8  C4  UNL     1     -34.596   6.534   6.762  1.00 20.00     0.017 A 
HETATM    9  C6  UNL     1     -34.423   5.723   5.508  1.00 20.00    -0.007 A 
HETATM   10  C7  UNL     1     -35.345   5.929   4.354  1.00 20.00     0.011 C 
ENDBRANCH   5   7
ENDBRANCH   4   5
ENDBRANCH   3   4
TORSDOF 3
ENDMDL
MODEL 6
REMARK VINA RESULT:      -4.3      1.432      2.145
REMARK  3 active torsions:
REMARK  status: ('A' for Active; 'I' for Inactive)
REMARK    1  A    between atoms: C3_3  and  C5_5 
REMARK    2  A    between atoms: C3_3  and  C9_9 
REMARK    3  A    between atoms: C8_8  and  C9_9 
ROOT
HETATM    1  C1  UNL     1     -32.833   9.649   0.993  1.00 20.00     0.012 C 
HETATM    2  C2  UNL     1     -32.560   8.661   1.617  1.00 20.00    -0.117 C 
HETATM    3  C8  UNL     1     -32.226   7.447   2.378  1.00 20.00     0.100 C 
ENDROOT
BRANCH   3   4
HETATM    4  C9  UNL     1     -32.129   7.723   3.877  1.00 20.00     0.090 C 
BRANCH   4   5
HETATM    5  C3  UNL     1     -33.471   7.708   4.592  1.00 20.00     0.132 C 
HETATM    6  O10 UNL     1     -33.767   8.509   5.477  1.00 20.00    -0.298 OA
BRANCH   5   7
HETATM    7  C5  UNL     1     -34.450   6.655   4.140  1.00 20.00     0.059 A 
HETATM    8  C4  UNL     1     -33.963   5.254   4.011  1.00 20.00     0.017 A 
HETATM    9  C6  UNL     1     -34.924   5.625   5.107  1.00 20.00    -0.007 A 
HETATM   10  C7  UNL     1     -34.487   5.572   6.531  1.00 20.00     0.011 C 
ENDBRANCH   5   7
ENDBRANCH   4   5
ENDBRANCH   3   4
TORSDOF 3
ENDMDL
MODEL 7
REMARK VINA RESULT:      -4.0      0.926      3.183
REMARK  3 active torsions:
REMARK  status: ('A' for Active; 'I' for Inactive)
REMARK    1  A    between atoms: C3_3  and  C5_5 
REMARK    2  A    between atoms: C3_3  and  C9_9 
REMARK    3  A    between atoms: C8_8  and  C9_9 
ROOT
HETATM    1  C1  UNL     1     -32.968   5.020   2.254  1.00 20.00     0.012 C 
HETATM    2  C2  UNL     1     -33.593   4.881   3.270  1.00 20.00    -0.117 C 
HETATM    3  C8  UNL     1     -34.358   4.707   4.514  1.00 20.00     0.100 C 
ENDROOT
BRANCH   3   4
HETATM    4  C9  UNL     1     -34.929   6.029   5.022  1.00 20.00     0.090 C 
BRANCH   4   5
HETATM    5  C3  UNL     1     -33.873   7.005   5.516  1.00 20.00     0.132 C 
HETATM    6  O10 UNL     1     -33.094   6.743   6.431  1.00 20.00    -0.298 OA
BRANCH   5   7
HETATM    7  C5  UNL     1     -33.811   8.331   4.800  1.00 20.00     0.059 A 
HETATM    8  C4  UNL     1     -32.727   9.280   5.177  1.00 20.00     0.017 A 
HETATM    9  C6  UNL     1     -32.705   8.597   3.838  1.00 20.00    -0.007 A 
HETATM   10  C7  UNL     1     -31.633   7.610   3.523  1.00 20.00     0.011 C 
ENDBRANCH   5   7
ENDBRANCH   4   5
ENDBRANCH   3   4
TORSDOF 3
ENDMDL
MODEL 8
REMARK VINA RESULT:      -3.9      1.744      2.497
REMARK  3 active torsions:
REMARK  status: ('A' for Active; 'I' for Inactive)
REMARK    1  A    between atoms: C3_3  and  C5_5 
REMARK    2  A    between atoms: C3_3  and  C9_9 
REMARK    3  A    between atoms: C8_8  and  C9_9 
ROOT
HETATM    1  C1  UNL     1     -32.511   8.820   0.477  1.00 20.00     0.012 C 
HETATM    2  C2  UNL     1     -32.278   8.313   1.540  1.00 20.00    -0.117 C 
HETATM    3  C8  UNL     1     -31.989   7.691   2.841  1.00 20.00     0.100 C 
ENDROOT
BRANCH   3   4
HETATM    4  C9  UNL     1     -33.259   7.450   3.652  1.00 20.00     0.090 C 
BRANCH   4   5
HETATM    5  C3  UNL     1     -33.700   5.995   3.687  1.00 20.00     0.132 C 
HETATM    6  O10 UNL     1     -33.205   5.128   2.969  1.00 20.00    -0.298 OA
BRANCH   5   7
HETATM    7  C5  UNL     1     -34.782   5.655   4.680  1.00 20.00     0.059 A 
HETATM    8  C4  UNL     1     -34.429   4.774   5.827  1.00 20.00     0.017 A 
HETATM    9  C6  UNL     1     -34.729   6.229   6.053  1.00 20.00    -0.007 A 
HETATM   10  C7  UNL     1     -33.652   7.149   6.519  1.00 20.00     0.011 C 
ENDBRANCH   5   7
ENDBRANCH   4   5
ENDBRANCH   3   4
TORSDOF 3
ENDMDL
MODEL 9
REMARK VINA RESULT:      -3.7     12.296     14.016
REMARK  3 active torsions:
REMARK  status: ('A' for Active; 'I' for Inactive)
REMARK    1  A    between atoms: C3_3  and  C5_5 
REMARK    2  A    between atoms: C3_3  and  C9_9 
REMARK    3  A    between atoms: C8_8  and  C9_9 
ROOT
HETATM    1  C1  UNL     1     -33.443  17.034  -2.229  1.00 20.00     0.012 C 
HETATM    2  C2  UNL     1     -33.314  16.190  -3.073  1.00 20.00    -0.117 C 
HETATM    3  C8  UNL     1     -33.152  15.157  -4.107  1.00 20.00     0.100 C 
ENDROOT
BRANCH   3   4
HETATM    4  C9  UNL     1     -34.443  14.375  -4.338  1.00 20.00     0.090 C 
BRANCH   4   5
HETATM    5  C3  UNL     1     -35.156  14.733  -5.633  1.00 20.00     0.132 C 
HETATM    6  O10 UNL     1     -36.322  14.418  -5.865  1.00 20.00    -0.298 OA
BRANCH   5   7
HETATM    7  C5  UNL     1     -34.354  15.528  -6.631  1.00 20.00     0.059 A 
HETATM    8  C4  UNL     1     -35.060  16.071  -7.824  1.00 20.00     0.017 A 
HETATM    9  C6  UNL     1     -34.570  16.997  -6.747  1.00 20.00    -0.007 A 
HETATM   10  C7  UNL     1     -35.547  17.753  -5.912  1.00 20.00     0.011 C 
ENDBRANCH   5   7
ENDBRANCH   4   5
ENDBRANCH   3   4
TORSDOF 3
ENDMDL
