MODEL 1
REMARK VINA RESULT:      -3.8      0.000      0.000
REMARK  2 active torsions:
REMARK  status: ('A' for Active; 'I' for Inactive)
REMARK    1  A    between atoms: C2_2  and  C9_9 
REMARK    2  A    between atoms: C9_9  and  N11_11 
ROOT
HETATM    1  C3  UNL     1     -33.586  14.454  -4.405  1.00 20.00     0.300 C 
HETATM    2  C4  UNL     1     -33.110  15.756  -3.759  1.00 20.00     0.302 C 
HETATM    3  C5  UNL     1     -34.384  17.023  -5.365  1.00 20.00     0.307 C 
HETATM    4  C6  UNL     1     -34.870  15.725  -6.036  1.00 20.00     0.244 C 
HETATM    5  C8  UNL     1     -36.282  15.331  -5.593  1.00 20.00     0.044 C 
HETATM    6  N10 UNL     1     -33.915  14.627  -5.823  1.00 20.00     0.091 N 
HETATM    7  N11 UNL     1     -34.104  16.822  -3.937  1.00 20.00     0.096 N 
HETATM    8  H29 UNL     1     -33.058  14.808  -6.351  1.00 20.00     0.316 HD
ENDROOT
BRANCH   7   9
HETATM    9  C9  UNL     1     -33.647  18.065  -3.318  1.00 20.00     0.305 C 
BRANCH   9  10
HETATM   10  C2  UNL     1     -34.410  18.310  -2.047  1.00 20.00    -0.065 C 
HETATM   11  C1  UNL     1     -35.571  18.982  -2.046  1.00 20.00     0.015 C 
HETATM   12  C7  UNL     1     -33.796  17.804  -0.772  1.00 20.00     0.044 C 
ENDBRANCH   9  10
ENDBRANCH   7   9
TORSDOF 2
ENDMDL
MODEL 2
REMARK VINA RESULT:      -3.8     12.016     13.812
REMARK  2 active torsions:
REMARK  status: ('A' for Active; 'I' for Inactive)
REMARK    1  A    between atoms: C2_2  and  C9_9 
REMARK    2  A    between atoms: C9_9  and  N11_11 
ROOT
HETATM    1  C3  UNL     1     -42.893  13.257   8.385  1.00 20.00     0.300 C 
HETATM    2  C4  UNL     1     -42.507  12.913   6.945  1.00 20.00     0.302 C 
HETATM    3  C5  UNL     1     -41.055  14.834   6.870  1.00 20.00     0.307 C 
HETATM    4  C6  UNL     1     -41.434  15.204   8.315  1.00 20.00     0.244 C 
HETATM    5  C8  UNL     1     -40.379  14.753   9.330  1.00 20.00     0.044 C 
HETATM    6  N10 UNL     1     -42.767  14.690   8.664  1.00 20.00     0.091 N 
HETATM    7  N11 UNL     1     -41.153  13.386   6.639  1.00 20.00     0.096 N 
HETATM    8  H29 UNL     1     -43.481  15.202   8.140  1.00 20.00     0.316 HD
ENDROOT
BRANCH   7   9
HETATM    9  C9  UNL     1     -40.787  13.054   5.263  1.00 20.00     0.305 C 
BRANCH   9  10
HETATM   10  C2  UNL     1     -39.553  12.198   5.257  1.00 20.00    -0.065 C 
HETATM   11  C1  UNL     1     -38.880  11.932   6.387  1.00 20.00     0.015 C 
HETATM   12  C7  UNL     1     -39.081  11.686   3.925  1.00 20.00     0.044 C 
ENDBRANCH   9  10
ENDBRANCH   7   9
TORSDOF 2
ENDMDL
MODEL 3
REMARK VINA RESULT:      -3.3      1.806      2.795
REMARK  2 active torsions:
REMARK  status: ('A' for Active; 'I' for Inactive)
REMARK    1  A    between atoms: C2_2  and  C9_9 
REMARK    2  A    between atoms: C9_9  and  N11_11 
ROOT
HETATM    1  C3  UNL     1     -34.547  17.938  -7.362  1.00 20.00     0.300 C 
HETATM    2  C4  UNL     1     -34.399  18.436  -5.923  1.00 20.00     0.302 C 
HETATM    3  C5  UNL     1     -36.226  17.020  -5.242  1.00 20.00     0.307 C 
HETATM    4  C6  UNL     1     -36.398  16.510  -6.685  1.00 20.00     0.244 C 
HETATM    5  C8  UNL     1     -35.743  15.143  -6.904  1.00 20.00     0.044 C 
HETATM    6  N10 UNL     1     -35.914  17.500  -7.659  1.00 20.00     0.091 N 
HETATM    7  N11 UNL     1     -34.837  17.411  -4.968  1.00 20.00     0.096 N 
HETATM    8  H29 UNL     1     -36.537  18.311  -7.665  1.00 20.00     0.316 HD
ENDROOT
BRANCH   7   9
HETATM    9  C9  UNL     1     -34.693  17.888  -3.594  1.00 20.00     0.305 C 
BRANCH   9  10
HETATM   10  C2  UNL     1     -33.722  17.015  -2.851  1.00 20.00    -0.065 C 
HETATM   11  C1  UNL     1     -33.332  17.307  -1.601  1.00 20.00     0.015 C 
HETATM   12  C7  UNL     1     -33.176  15.822  -3.583  1.00 20.00     0.044 C 
ENDBRANCH   9  10
ENDBRANCH   7   9
TORSDOF 2
ENDMDL
MODEL 4
REMARK VINA RESULT:      -3.2      1.466      2.538
REMARK  2 active torsions:
REMARK  status: ('A' for Active; 'I' for Inactive)
REMARK    1  A    between atoms: C2_2  and  C9_9 
REMARK    2  A    between atoms: C9_9  and  N11_11 
ROOT
HETATM    1  C3  UNL     1     -36.256  16.941  -5.911  1.00 20.00     0.300 C 
HETATM    2  C4  UNL     1     -35.552  16.655  -4.583  1.00 20.00     0.302 C 
HETATM    3  C5  UNL     1     -34.092  15.090  -5.690  1.00 20.00     0.307 C 
HETATM    4  C6  UNL     1     -34.791  15.357  -7.036  1.00 20.00     0.244 C 
HETATM    5  C8  UNL     1     -34.007  16.335  -7.917  1.00 20.00     0.044 C 
HETATM    6  N10 UNL     1     -36.176  15.808  -6.835  1.00 20.00     0.091 N 
HETATM    7  N11 UNL     1     -34.156  16.261  -4.806  1.00 20.00     0.096 N 
HETATM    8  H29 UNL     1     -36.741  15.035  -6.475  1.00 20.00     0.316 HD
ENDROOT
BRANCH   7   9
HETATM    9  C9  UNL     1     -33.486  15.989  -3.535  1.00 20.00     0.305 C 
BRANCH   9  10
HETATM   10  C2  UNL     1     -33.363  17.259  -2.743  1.00 20.00    -0.065 C 
HETATM   11  C1  UNL     1     -33.649  17.298  -1.432  1.00 20.00     0.015 C 
HETATM   12  C7  UNL     1     -32.945  18.494  -3.490  1.00 20.00     0.044 C 
ENDBRANCH   9  10
ENDBRANCH   7   9
TORSDOF 2
ENDMDL
MODEL 5
REMARK VINA RESULT:      -3.2      1.652      2.243
REMARK  2 active torsions:
REMARK  status: ('A' for Active; 'I' for Inactive)
REMARK    1  A    between atoms: C2_2  and  C9_9 
REMARK    2  A    between atoms: C9_9  and  N11_11 
ROOT
HETATM    1  C3  UNL     1     -33.331  15.216  -4.065  1.00 20.00     0.300 C 
HETATM    2  C4  UNL     1     -33.538  16.729  -3.978  1.00 20.00     0.302 C 
HETATM    3  C5  UNL     1     -34.849  16.670  -5.998  1.00 20.00     0.307 C 
HETATM    4  C6  UNL     1     -34.647  15.147  -6.111  1.00 20.00     0.244 C 
HETATM    5  C8  UNL     1     -35.854  14.358  -5.596  1.00 20.00     0.044 C 
HETATM    6  N10 UNL     1     -33.406  14.725  -5.443  1.00 20.00     0.091 N 
HETATM    7  N11 UNL     1     -34.808  17.120  -4.601  1.00 20.00     0.096 N 
HETATM    8  H29 UNL     1     -32.599  15.066  -5.970  1.00 20.00     0.316 HD
ENDROOT
BRANCH   7   9
HETATM    9  C9  UNL     1     -35.004  18.566  -4.515  1.00 20.00     0.305 C 
BRANCH   9  10
HETATM   10  C2  UNL     1     -36.430  18.865  -4.148  1.00 20.00    -0.065 C 
HETATM   11  C1  UNL     1     -36.866  18.753  -2.884  1.00 20.00     0.015 C 
HETATM   12  C7  UNL     1     -37.356  19.256  -5.265  1.00 20.00     0.044 C 
ENDBRANCH   9  10
ENDBRANCH   7   9
TORSDOF 2
ENDMDL
MODEL 6
REMARK VINA RESULT:      -3.2      2.167      3.273
REMARK  2 active torsions:
REMARK  status: ('A' for Active; 'I' for Inactive)
REMARK    1  A    between atoms: C2_2  and  C9_9 
REMARK    2  A    between atoms: C9_9  and  N11_11 
ROOT
HETATM    1  C3  UNL     1     -36.460  16.278  -7.341  1.00 20.00     0.300 C 
HETATM    2  C4  UNL     1     -35.178  16.772  -6.671  1.00 20.00     0.302 C 
HETATM    3  C5  UNL     1     -36.482  17.798  -4.924  1.00 20.00     0.307 C 
HETATM    4  C6  UNL     1     -37.787  17.317  -5.586  1.00 20.00     0.244 C 
HETATM    5  C8  UNL     1     -38.346  16.054  -4.924  1.00 20.00     0.044 C 
HETATM    6  N10 UNL     1     -37.611  17.131  -7.034  1.00 20.00     0.091 N 
HETATM    7  N11 UNL     1     -35.361  16.897  -5.220  1.00 20.00     0.096 N 
HETATM    8  H29 UNL     1     -37.490  18.041  -7.486  1.00 20.00     0.316 HD
ENDROOT
BRANCH   7   9
HETATM    9  C9  UNL     1     -34.133  17.369  -4.581  1.00 20.00     0.305 C 
BRANCH   9  10
HETATM   10  C2  UNL     1     -33.674  16.367  -3.560  1.00 20.00    -0.065 C 
HETATM   11  C1  UNL     1     -33.414  16.726  -2.294  1.00 20.00     0.015 C 
HETATM   12  C7  UNL     1     -33.480  14.952  -4.028  1.00 20.00     0.044 C 
ENDBRANCH   9  10
ENDBRANCH   7   9
TORSDOF 2
ENDMDL
MODEL 7
REMARK VINA RESULT:      -3.2     11.190     12.827
REMARK  2 active torsions:
REMARK  status: ('A' for Active; 'I' for Inactive)
REMARK    1  A    between atoms: C2_2  and  C9_9 
REMARK    2  A    between atoms: C9_9  and  N11_11 
ROOT
HETATM    1  C3  UNL     1     -41.039  15.677   7.201  1.00 20.00     0.300 C 
HETATM    2  C4  UNL     1     -40.529  14.235   7.225  1.00 20.00     0.302 C 
HETATM    3  C5  UNL     1     -42.447  13.531   5.947  1.00 20.00     0.307 C 
HETATM    4  C6  UNL     1     -42.983  14.975   5.917  1.00 20.00     0.244 C 
HETATM    5  C8  UNL     1     -42.672  15.686   4.597  1.00 20.00     0.044 C 
HETATM    6  N10 UNL     1     -42.496  15.747   7.070  1.00 20.00     0.091 N 
HETATM    7  N11 UNL     1     -40.981  13.500   6.038  1.00 20.00     0.096 N 
HETATM    8  H29 UNL     1     -42.932  15.397   7.927  1.00 20.00     0.316 HD
ENDROOT
BRANCH   7   9
HETATM    9  C9  UNL     1     -40.492  12.123   6.063  1.00 20.00     0.305 C 
BRANCH   9  10
HETATM   10  C2  UNL     1     -39.242  12.013   5.236  1.00 20.00    -0.065 C 
HETATM   11  C1  UNL     1     -39.294  11.777   3.916  1.00 20.00     0.015 C 
HETATM   12  C7  UNL     1     -37.930  12.138   5.959  1.00 20.00     0.044 C 
ENDBRANCH   9  10
ENDBRANCH   7   9
TORSDOF 2
ENDMDL
MODEL 8
REMARK VINA RESULT:      -3.1      1.636      4.611
REMARK  2 active torsions:
REMARK  status: ('A' for Active; 'I' for Inactive)
REMARK    1  A    between atoms: C2_2  and  C9_9 
REMARK    2  A    between atoms: C9_9  and  N11_11 
ROOT
HETATM    1  C3  UNL     1     -35.819  18.834  -2.535  1.00 20.00     0.300 C 
HETATM    2  C4  UNL     1     -36.079  18.441  -3.991  1.00 20.00     0.302 C 
HETATM    3  C5  UNL     1     -33.773  17.785  -4.230  1.00 20.00     0.307 C 
HETATM    4  C6  UNL     1     -33.486  18.181  -2.769  1.00 20.00     0.244 C 
HETATM    5  C8  UNL     1     -33.477  16.973  -1.828  1.00 20.00     0.044 C 
HETATM    6  N10 UNL     1     -34.423  19.215  -2.305  1.00 20.00     0.091 N 
HETATM    7  N11 UNL     1     -35.170  17.370  -4.414  1.00 20.00     0.096 N 
HETATM    8  H29 UNL     1     -34.228  20.097  -2.786  1.00 20.00     0.316 HD
ENDROOT
BRANCH   7   9
HETATM    9  C9  UNL     1     -35.422  16.996  -5.804  1.00 20.00     0.305 C 
BRANCH   9  10
HETATM   10  C2  UNL     1     -35.003  15.571  -6.032  1.00 20.00    -0.065 C 
HETATM   11  C1  UNL     1     -34.003  15.260  -6.871  1.00 20.00     0.015 C 
HETATM   12  C7  UNL     1     -35.778  14.506  -5.308  1.00 20.00     0.044 C 
ENDBRANCH   9  10
ENDBRANCH   7   9
TORSDOF 2
ENDMDL
MODEL 9
REMARK VINA RESULT:      -3.1      2.256      3.829
REMARK  2 active torsions:
REMARK  status: ('A' for Active; 'I' for Inactive)
REMARK    1  A    between atoms: C2_2  and  C9_9 
REMARK    2  A    between atoms: C9_9  and  N11_11 
ROOT
HETATM    1  C3  UNL     1     -33.986  15.816  -6.908  1.00 20.00     0.300 C 
HETATM    2  C4  UNL     1     -35.512  15.722  -6.852  1.00 20.00     0.302 C 
HETATM    3  C5  UNL     1     -35.365  14.533  -4.761  1.00 20.00     0.307 C 
HETATM    4  C6  UNL     1     -33.827  14.609  -4.801  1.00 20.00     0.244 C 
HETATM    5  C8  UNL     1     -33.274  15.733  -3.919  1.00 20.00     0.044 C 
HETATM    6  N10 UNL     1     -33.337  14.721  -6.183  1.00 20.00     0.091 N 
HETATM    7  N11 UNL     1     -35.981  15.667  -5.462  1.00 20.00     0.096 N 
HETATM    8  H29 UNL     1     -33.499  13.841  -6.678  1.00 20.00     0.316 HD
ENDROOT
BRANCH   7   9
HETATM    9  C9  UNL     1     -37.439  15.579  -5.411  1.00 20.00     0.305 C 
BRANCH   9  10
HETATM   10  C2  UNL     1     -38.028  16.955  -5.283  1.00 20.00    -0.065 C 
HETATM   11  C1  UNL     1     -39.154  17.299  -5.927  1.00 20.00     0.015 C 
HETATM   12  C7  UNL     1     -37.279  17.943  -4.433  1.00 20.00     0.044 C 
ENDBRANCH   9  10
ENDBRANCH   7   9
TORSDOF 2
ENDMDL
