MODEL 1
REMARK VINA RESULT:      -4.0      0.000      0.000
REMARK  2 active torsions:
REMARK  status: ('A' for Active; 'I' for Inactive)
REMARK    1  A    between atoms: C2_2  and  C9_9 
REMARK    2  A    between atoms: C9_9  and  N11_11 
ROOT
HETATM    1  C3  UNL     1     -34.495  16.355  -6.256  1.00 20.00     0.300 C 
HETATM    2  C4  UNL     1     -34.242  17.461  -5.231  1.00 20.00     0.303 C 
HETATM    3  C5  UNL     1     -33.431  15.824  -3.660  1.00 20.00     0.308 C 
HETATM    4  C6  UNL     1     -33.668  14.695  -4.680  1.00 20.00     0.244 C 
HETATM    5  C7  UNL     1     -34.975  13.937  -4.420  1.00 20.00     0.044 C 
HETATM    6  N10 UNL     1     -33.610  15.204  -6.059  1.00 20.00     0.091 N 
HETATM    7  N11 UNL     1     -34.363  16.942  -3.863  1.00 20.00     0.100 N 
HETATM    8  H29 UNL     1     -33.894  14.456  -6.701  1.00 20.00     0.316 HD
ENDROOT
BRANCH   7   9
HETATM    9  C9  UNL     1     -34.122  18.001  -2.884  1.00 20.00     0.241 C 
HETATM   10  C8  UNL     1     -35.416  18.737  -2.555  1.00 20.00     0.047 C 
BRANCH   9  11
HETATM   11  C2  UNL     1     -33.521  17.374  -1.659  1.00 20.00    -0.002 C 
HETATM   12  C1  UNL     1     -33.739  17.814  -0.414  1.00 20.00     0.009 C 
ENDBRANCH   9  11
ENDBRANCH   7   9
TORSDOF 2
ENDMDL
MODEL 2
REMARK VINA RESULT:      -3.9      0.872      1.908
REMARK  2 active torsions:
REMARK  status: ('A' for Active; 'I' for Inactive)
REMARK    1  A    between atoms: C2_2  and  C9_9 
REMARK    2  A    between atoms: C9_9  and  N11_11 
ROOT
HETATM    1  C3  UNL     1     -33.518  14.507  -4.702  1.00 20.00     0.300 C 
HETATM    2  C4  UNL     1     -33.525  15.596  -3.628  1.00 20.00     0.303 C 
HETATM    3  C5  UNL     1     -35.189  16.816  -4.872  1.00 20.00     0.308 C 
HETATM    4  C6  UNL     1     -35.206  15.728  -5.961  1.00 20.00     0.244 C 
HETATM    5  C7  UNL     1     -34.365  16.111  -7.183  1.00 20.00     0.044 C 
HETATM    6  N10 UNL     1     -34.795  14.424  -5.416  1.00 20.00     0.091 N 
HETATM    7  N11 UNL     1     -33.882  16.897  -4.206  1.00 20.00     0.100 N 
HETATM    8  H29 UNL     1     -34.698  13.757  -6.189  1.00 20.00     0.316 HD
ENDROOT
BRANCH   7   9
HETATM    9  C9  UNL     1     -33.887  17.937  -3.178  1.00 20.00     0.241 C 
HETATM   10  C8  UNL     1     -35.282  18.529  -3.016  1.00 20.00     0.047 C 
BRANCH   9  11
HETATM   11  C2  UNL     1     -33.398  17.325  -1.897  1.00 20.00    -0.002 C 
HETATM   12  C1  UNL     1     -33.720  17.785  -0.682  1.00 20.00     0.009 C 
ENDBRANCH   9  11
ENDBRANCH   7   9
TORSDOF 2
ENDMDL
MODEL 3
REMARK VINA RESULT:      -3.8     12.012     13.255
REMARK  2 active torsions:
REMARK  status: ('A' for Active; 'I' for Inactive)
REMARK    1  A    between atoms: C2_2  and  C9_9 
REMARK    2  A    between atoms: C9_9  and  N11_11 
ROOT
HETATM    1  C3  UNL     1     -34.179   6.102   6.690  1.00 20.00     0.300 C 
HETATM    2  C4  UNL     1     -33.758   7.361   5.930  1.00 20.00     0.303 C 
HETATM    3  C5  UNL     1     -34.338   6.301   3.845  1.00 20.00     0.308 C 
HETATM    4  C6  UNL     1     -34.777   5.026   4.589  1.00 20.00     0.244 C 
HETATM    5  C7  UNL     1     -33.701   3.935   4.563  1.00 20.00     0.044 C 
HETATM    6  N10 UNL     1     -35.195   5.332   5.966  1.00 20.00     0.091 N 
HETATM    7  N11 UNL     1     -33.291   7.024   4.580  1.00 20.00     0.100 N 
HETATM    8  H29 UNL     1     -35.360   4.452   6.467  1.00 20.00     0.316 HD
ENDROOT
BRANCH   7   9
HETATM    9  C9  UNL     1     -32.888   8.229   3.855  1.00 20.00     0.241 C 
HETATM   10  C8  UNL     1     -32.104   9.168   4.764  1.00 20.00     0.047 C 
BRANCH   9  11
HETATM   11  C2  UNL     1     -32.072   7.806   2.668  1.00 20.00    -0.002 C 
HETATM   12  C1  UNL     1     -32.227   8.312   1.439  1.00 20.00     0.009 C 
ENDBRANCH   9  11
ENDBRANCH   7   9
TORSDOF 2
ENDMDL
MODEL 4
REMARK VINA RESULT:      -3.6      1.461      1.687
REMARK  2 active torsions:
REMARK  status: ('A' for Active; 'I' for Inactive)
REMARK    1  A    between atoms: C2_2  and  C9_9 
REMARK    2  A    between atoms: C9_9  and  N11_11 
ROOT
HETATM    1  C3  UNL     1     -36.515  16.901  -5.536  1.00 20.00     0.300 C 
HETATM    2  C4  UNL     1     -35.301  17.521  -4.842  1.00 20.00     0.303 C 
HETATM    3  C5  UNL     1     -34.050  15.495  -5.214  1.00 20.00     0.308 C 
HETATM    4  C6  UNL     1     -35.255  14.854  -5.925  1.00 20.00     0.244 C 
HETATM    5  C7  UNL     1     -36.041  13.910  -5.007  1.00 20.00     0.044 C 
HETATM    6  N10 UNL     1     -36.132  15.878  -6.514  1.00 20.00     0.091 N 
HETATM    7  N11 UNL     1     -34.473  16.484  -4.213  1.00 20.00     0.100 N 
HETATM    8  H29 UNL     1     -36.982  15.425  -6.867  1.00 20.00     0.316 HD
ENDROOT
BRANCH   7   9
HETATM    9  C9  UNL     1     -33.314  17.078  -3.549  1.00 20.00     0.241 C 
HETATM   10  C8  UNL     1     -33.262  18.581  -3.797  1.00 20.00     0.047 C 
BRANCH   9  11
HETATM   11  C2  UNL     1     -33.408  16.767  -2.083  1.00 20.00    -0.002 C 
HETATM   12  C1  UNL     1     -33.708  17.674  -1.147  1.00 20.00     0.009 C 
ENDBRANCH   9  11
ENDBRANCH   7   9
TORSDOF 2
ENDMDL
MODEL 5
REMARK VINA RESULT:      -3.5      1.428      4.321
REMARK  2 active torsions:
REMARK  status: ('A' for Active; 'I' for Inactive)
REMARK    1  A    between atoms: C2_2  and  C9_9 
REMARK    2  A    between atoms: C9_9  and  N11_11 
ROOT
HETATM    1  C3  UNL     1     -34.850  19.061  -2.672  1.00 20.00     0.300 C 
HETATM    2  C4  UNL     1     -34.945  17.975  -3.745  1.00 20.00     0.303 C 
HETATM    3  C5  UNL     1     -33.573  16.521  -2.398  1.00 20.00     0.308 C 
HETATM    4  C6  UNL     1     -33.472  17.595  -1.300  1.00 20.00     0.244 C 
HETATM    5  C7  UNL     1     -32.154  18.374  -1.365  1.00 20.00     0.044 C 
HETATM    6  N10 UNL     1     -34.631  18.502  -1.335  1.00 20.00     0.091 N 
HETATM    7  N11 UNL     1     -33.751  17.120  -3.728  1.00 20.00     0.100 N 
HETATM    8  H29 UNL     1     -34.470  19.273  -0.678  1.00 20.00     0.316 HD
ENDROOT
BRANCH   7   9
HETATM    9  C9  UNL     1     -33.843  16.083  -4.755  1.00 20.00     0.241 C 
HETATM   10  C8  UNL     1     -33.373  14.740  -4.210  1.00 20.00     0.047 C 
BRANCH   9  11
HETATM   11  C2  UNL     1     -35.269  16.017  -5.223  1.00 20.00    -0.002 C 
HETATM   12  C1  UNL     1     -35.847  14.906  -5.695  1.00 20.00     0.009 C 
ENDBRANCH   9  11
ENDBRANCH   7   9
TORSDOF 2
ENDMDL
MODEL 6
REMARK VINA RESULT:      -3.4     12.166     14.170
REMARK  2 active torsions:
REMARK  status: ('A' for Active; 'I' for Inactive)
REMARK    1  A    between atoms: C2_2  and  C9_9 
REMARK    2  A    between atoms: C9_9  and  N11_11 
ROOT
HETATM    1  C3  UNL     1     -40.437  15.963   8.464  1.00 20.00     0.300 C 
HETATM    2  C4  UNL     1     -40.549  15.080   7.220  1.00 20.00     0.303 C 
HETATM    3  C5  UNL     1     -42.247  13.759   8.304  1.00 20.00     0.308 C 
HETATM    4  C6  UNL     1     -42.160  14.639   9.564  1.00 20.00     0.244 C 
HETATM    5  C7  UNL     1     -41.306  14.000  10.665  1.00 20.00     0.044 C 
HETATM    6  N10 UNL     1     -41.683  15.992   9.236  1.00 20.00     0.091 N 
HETATM    7  N11 UNL     1     -40.969  13.721   7.579  1.00 20.00     0.100 N 
HETATM    8  H29 UNL     1     -41.519  16.507  10.108  1.00 20.00     0.316 HD
ENDROOT
BRANCH   7   9
HETATM    9  C9  UNL     1     -41.074  12.879   6.388  1.00 20.00     0.241 C 
HETATM   10  C8  UNL     1     -41.513  13.701   5.183  1.00 20.00     0.047 C 
BRANCH   9  11
HETATM   11  C2  UNL     1     -39.737  12.235   6.156  1.00 20.00    -0.002 C 
HETATM   12  C1  UNL     1     -39.278  11.888   4.948  1.00 20.00     0.009 C 
ENDBRANCH   9  11
ENDBRANCH   7   9
TORSDOF 2
ENDMDL
MODEL 7
REMARK VINA RESULT:      -3.4      2.121      3.784
REMARK  2 active torsions:
REMARK  status: ('A' for Active; 'I' for Inactive)
REMARK    1  A    between atoms: C2_2  and  C9_9 
REMARK    2  A    between atoms: C9_9  and  N11_11 
ROOT
HETATM    1  C3  UNL     1     -33.856  14.567  -4.398  1.00 20.00     0.300 C 
HETATM    2  C4  UNL     1     -34.888  15.200  -5.332  1.00 20.00     0.303 C 
HETATM    3  C5  UNL     1     -34.193  17.394  -4.618  1.00 20.00     0.308 C 
HETATM    4  C6  UNL     1     -33.140  16.779  -3.677  1.00 20.00     0.244 C 
HETATM    5  C7  UNL     1     -33.618  16.725  -2.222  1.00 20.00     0.044 C 
HETATM    6  N10 UNL     1     -32.715  15.452  -4.150  1.00 20.00     0.091 N 
HETATM    7  N11 UNL     1     -35.340  16.496  -4.810  1.00 20.00     0.100 N 
HETATM    8  H29 UNL     1     -32.113  15.023  -3.439  1.00 20.00     0.316 HD
ENDROOT
BRANCH   7   9
HETATM    9  C9  UNL     1     -36.327  17.099  -5.704  1.00 20.00     0.241 C 
HETATM   10  C8  UNL     1     -36.481  16.271  -6.975  1.00 20.00     0.047 C 
BRANCH   9  11
HETATM   11  C2  UNL     1     -37.625  17.206  -4.958  1.00 20.00    -0.002 C 
HETATM   12  C1  UNL     1     -38.558  16.247  -4.944  1.00 20.00     0.009 C 
ENDBRANCH   9  11
ENDBRANCH   7   9
TORSDOF 2
ENDMDL
MODEL 8
REMARK VINA RESULT:      -3.3      1.027      1.244
REMARK  2 active torsions:
REMARK  status: ('A' for Active; 'I' for Inactive)
REMARK    1  A    between atoms: C2_2  and  C9_9 
REMARK    2  A    between atoms: C9_9  and  N11_11 
ROOT
HETATM    1  C3  UNL     1     -34.328  15.579  -6.707  1.00 20.00     0.300 C 
HETATM    2  C4  UNL     1     -34.491  16.989  -6.137  1.00 20.00     0.303 C 
HETATM    3  C5  UNL     1     -33.746  16.208  -3.983  1.00 20.00     0.308 C 
HETATM    4  C6  UNL     1     -33.565  14.783  -4.536  1.00 20.00     0.244 C 
HETATM    5  C7  UNL     1     -34.743  13.866  -4.188  1.00 20.00     0.044 C 
HETATM    6  N10 UNL     1     -33.314  14.804  -5.986  1.00 20.00     0.091 N 
HETATM    7  N11 UNL     1     -34.798  16.940  -4.703  1.00 20.00     0.100 N 
HETATM    8  H29 UNL     1     -33.323  13.840  -6.339  1.00 20.00     0.316 HD
ENDROOT
BRANCH   7   9
HETATM    9  C9  UNL     1     -34.955  18.289  -4.160  1.00 20.00     0.241 C 
HETATM   10  C8  UNL     1     -36.418  18.714  -4.186  1.00 20.00     0.047 C 
BRANCH   9  11
HETATM   11  C2  UNL     1     -34.406  18.294  -2.763  1.00 20.00    -0.002 C 
HETATM   12  C1  UNL     1     -35.002  18.902  -1.731  1.00 20.00     0.009 C 
ENDBRANCH   9  11
ENDBRANCH   7   9
TORSDOF 2
ENDMDL
MODEL 9
REMARK VINA RESULT:      -3.3      2.302      4.230
REMARK  2 active torsions:
REMARK  status: ('A' for Active; 'I' for Inactive)
REMARK    1  A    between atoms: C2_2  and  C9_9 
REMARK    2  A    between atoms: C9_9  and  N11_11 
ROOT
HETATM    1  C3  UNL     1     -35.810  13.947  -4.543  1.00 20.00     0.300 C 
HETATM    2  C4  UNL     1     -35.985  14.466  -5.971  1.00 20.00     0.303 C 
HETATM    3  C5  UNL     1     -33.666  15.116  -6.024  1.00 20.00     0.308 C 
HETATM    4  C6  UNL     1     -33.462  14.591  -4.591  1.00 20.00     0.244 C 
HETATM    5  C7  UNL     1     -33.499  15.713  -3.547  1.00 20.00     0.044 C 
HETATM    6  N10 UNL     1     -34.431  13.531  -4.271  1.00 20.00     0.091 N 
HETATM    7  N11 UNL     1     -35.048  15.562  -6.248  1.00 20.00     0.100 N 
HETATM    8  H29 UNL     1     -34.349  13.295  -3.275  1.00 20.00     0.316 HD
ENDROOT
BRANCH   7   9
HETATM    9  C9  UNL     1     -35.218  16.057  -7.613  1.00 20.00     0.241 C 
HETATM   10  C8  UNL     1     -36.681  16.386  -7.889  1.00 20.00     0.047 C 
BRANCH   9  11
HETATM   11  C2  UNL     1     -34.343  17.266  -7.781  1.00 20.00    -0.002 C 
HETATM   12  C1  UNL     1     -34.511  18.407  -7.103  1.00 20.00     0.009 C 
ENDBRANCH   9  11
ENDBRANCH   7   9
TORSDOF 2
ENDMDL
