MODEL 1
REMARK VINA RESULT:      -4.5      0.000      0.000
REMARK  2 active torsions:
REMARK  status: ('A' for Active; 'I' for Inactive)
REMARK    1  A    between atoms: C1_1  and  C3_3 
REMARK    2  A    between atoms: C1_1  and  C7_7 
ROOT
HETATM    1  C2  UNL     1     -34.465   4.668   5.046  1.00 20.00     0.017 A 
HETATM    2  C3  UNL     1     -34.744   6.146   4.932  1.00 20.00     0.059 A 
HETATM    3  C4  UNL     1     -34.314   5.357   3.718  1.00 20.00    -0.007 A 
HETATM    4  C5  UNL     1     -32.963   5.512   3.109  1.00 20.00     0.011 C 
ENDROOT
BRANCH   2   5
HETATM    5  C1  UNL     1     -33.834   7.101   5.572  1.00 20.00     0.131 C 
HETATM    6  O8  UNL     1     -33.239   6.814   6.611  1.00 20.00    -0.298 OA
BRANCH   5   7
HETATM    7  C7  UNL     1     -33.680   8.444   4.881  1.00 20.00     0.074 C 
HETATM    8  C6  UNL     1     -32.228   8.814   4.640  1.00 20.00     0.013 C 
ENDBRANCH   5   7
ENDBRANCH   2   5
TORSDOF 2
ENDMDL
MODEL 2
REMARK VINA RESULT:      -4.5      1.491      3.152
REMARK  2 active torsions:
REMARK  status: ('A' for Active; 'I' for Inactive)
REMARK    1  A    between atoms: C1_1  and  C3_3 
REMARK    2  A    between atoms: C1_1  and  C7_7 
ROOT
HETATM    1  C2  UNL     1     -34.515   6.934   6.739  1.00 20.00     0.017 A 
HETATM    2  C3  UNL     1     -33.892   5.892   5.844  1.00 20.00     0.059 A 
HETATM    3  C4  UNL     1     -33.293   7.275   5.934  1.00 20.00    -0.007 A 
HETATM    4  C5  UNL     1     -33.387   8.255   4.815  1.00 20.00     0.011 C 
ENDROOT
BRANCH   2   5
HETATM    5  C1  UNL     1     -34.607   5.456   4.640  1.00 20.00     0.131 C 
HETATM    6  O8  UNL     1     -35.760   5.826   4.417  1.00 20.00    -0.298 OA
BRANCH   5   7
HETATM    7  C7  UNL     1     -33.844   4.534   3.706  1.00 20.00     0.074 C 
HETATM    8  C6  UNL     1     -32.963   5.290   2.730  1.00 20.00     0.013 C 
ENDBRANCH   5   7
ENDBRANCH   2   5
TORSDOF 2
ENDMDL
MODEL 3
REMARK VINA RESULT:      -4.4      1.387      2.053
REMARK  2 active torsions:
REMARK  status: ('A' for Active; 'I' for Inactive)
REMARK    1  A    between atoms: C1_1  and  C3_3 
REMARK    2  A    between atoms: C1_1  and  C7_7 
ROOT
HETATM    1  C2  UNL     1     -35.554   5.969   4.429  1.00 20.00     0.017 A 
HETATM    2  C3  UNL     1     -34.092   6.262   4.202  1.00 20.00     0.059 A 
HETATM    3  C4  UNL     1     -34.511   5.150   5.135  1.00 20.00    -0.007 A 
HETATM    4  C5  UNL     1     -34.356   5.255   6.614  1.00 20.00     0.011 C 
ENDROOT
BRANCH   2   5
HETATM    5  C1  UNL     1     -33.518   7.507   4.722  1.00 20.00     0.131 C 
HETATM    6  O8  UNL     1     -34.074   8.135   5.623  1.00 20.00    -0.298 OA
BRANCH   5   7
HETATM    7  C7  UNL     1     -32.218   7.962   4.083  1.00 20.00     0.074 C 
HETATM    8  C6  UNL     1     -32.095   7.525   2.635  1.00 20.00     0.013 C 
ENDBRANCH   5   7
ENDBRANCH   2   5
TORSDOF 2
ENDMDL
MODEL 4
REMARK VINA RESULT:      -4.3      1.031      1.174
REMARK  2 active torsions:
REMARK  status: ('A' for Active; 'I' for Inactive)
REMARK    1  A    between atoms: C1_1  and  C3_3 
REMARK    2  A    between atoms: C1_1  and  C7_7 
ROOT
HETATM    1  C2  UNL     1     -34.876   5.327   6.324  1.00 20.00     0.017 A 
HETATM    2  C3  UNL     1     -34.834   6.546   5.437  1.00 20.00     0.059 A 
HETATM    3  C4  UNL     1     -34.896   5.164   4.830  1.00 20.00    -0.007 A 
HETATM    4  C5  UNL     1     -33.730   4.552   4.132  1.00 20.00     0.011 C 
ENDROOT
BRANCH   2   5
HETATM    5  C1  UNL     1     -33.607   7.346   5.369  1.00 20.00     0.131 C 
HETATM    6  O8  UNL     1     -32.813   7.371   6.310  1.00 20.00    -0.298 OA
BRANCH   5   7
HETATM    7  C7  UNL     1     -33.387   8.127   4.087  1.00 20.00     0.074 C 
HETATM    8  C6  UNL     1     -32.082   7.770   3.401  1.00 20.00     0.013 C 
ENDBRANCH   5   7
ENDBRANCH   2   5
TORSDOF 2
ENDMDL
MODEL 5
REMARK VINA RESULT:      -4.2      1.584      2.150
REMARK  2 active torsions:
REMARK  status: ('A' for Active; 'I' for Inactive)
REMARK    1  A    between atoms: C1_1  and  C3_3 
REMARK    2  A    between atoms: C1_1  and  C7_7 
ROOT
HETATM    1  C2  UNL     1     -35.576   5.869   4.508  1.00 20.00     0.017 A 
HETATM    2  C3  UNL     1     -34.202   5.623   3.937  1.00 20.00     0.059 A 
HETATM    3  C4  UNL     1     -34.581   5.052   5.283  1.00 20.00    -0.007 A 
HETATM    4  C5  UNL     1     -34.015   5.580   6.557  1.00 20.00     0.011 C 
ENDROOT
BRANCH   2   5
HETATM    5  C1  UNL     1     -33.257   6.739   3.830  1.00 20.00     0.131 C 
HETATM    6  O8  UNL     1     -32.226   6.636   3.166  1.00 20.00    -0.298 OA
BRANCH   5   7
HETATM    7  C7  UNL     1     -33.629   8.005   4.581  1.00 20.00     0.074 C 
HETATM    8  C6  UNL     1     -32.420   8.849   4.938  1.00 20.00     0.013 C 
ENDBRANCH   5   7
ENDBRANCH   2   5
TORSDOF 2
ENDMDL
MODEL 6
REMARK VINA RESULT:      -4.1      1.529      3.014
REMARK  2 active torsions:
REMARK  status: ('A' for Active; 'I' for Inactive)
REMARK    1  A    between atoms: C1_1  and  C3_3 
REMARK    2  A    between atoms: C1_1  and  C7_7 
ROOT
HETATM    1  C2  UNL     1     -32.521   8.589   3.033  1.00 20.00     0.017 A 
HETATM    2  C3  UNL     1     -32.465   8.008   4.424  1.00 20.00     0.059 A 
HETATM    3  C4  UNL     1     -32.039   7.180   3.235  1.00 20.00    -0.007 A 
HETATM    4  C5  UNL     1     -32.851   6.035   2.734  1.00 20.00     0.011 C 
ENDROOT
BRANCH   2   5
HETATM    5  C1  UNL     1     -33.715   7.721   5.134  1.00 20.00     0.131 C 
HETATM    6  O8  UNL     1     -34.783   8.206   4.763  1.00 20.00    -0.298 OA
BRANCH   5   7
HETATM    7  C7  UNL     1     -33.604   6.802   6.338  1.00 20.00     0.074 C 
HETATM    8  C6  UNL     1     -34.565   5.630   6.269  1.00 20.00     0.013 C 
ENDBRANCH   5   7
ENDBRANCH   2   5
TORSDOF 2
ENDMDL
MODEL 7
REMARK VINA RESULT:      -4.1      1.678      3.394
REMARK  2 active torsions:
REMARK  status: ('A' for Active; 'I' for Inactive)
REMARK    1  A    between atoms: C1_1  and  C3_3 
REMARK    2  A    between atoms: C1_1  and  C7_7 
ROOT
HETATM    1  C2  UNL     1     -33.550   8.578   5.190  1.00 20.00     0.017 A 
HETATM    2  C3  UNL     1     -32.871   7.271   4.866  1.00 20.00     0.059 A 
HETATM    3  C4  UNL     1     -32.427   8.547   4.191  1.00 20.00    -0.007 A 
HETATM    4  C5  UNL     1     -32.702   8.822   2.752  1.00 20.00     0.011 C 
ENDROOT
BRANCH   2   5
HETATM    5  C1  UNL     1     -33.608   6.243   4.124  1.00 20.00     0.131 C 
HETATM    6  O8  UNL     1     -33.143   5.744   3.099  1.00 20.00    -0.298 OA
BRANCH   5   7
HETATM    7  C7  UNL     1     -34.957   5.844   4.694  1.00 20.00     0.074 C 
HETATM    8  C6  UNL     1     -34.858   5.314   6.112  1.00 20.00     0.013 C 
ENDBRANCH   5   7
ENDBRANCH   2   5
TORSDOF 2
ENDMDL
MODEL 8
REMARK VINA RESULT:      -4.0      1.784      2.557
REMARK  2 active torsions:
REMARK  status: ('A' for Active; 'I' for Inactive)
REMARK    1  A    between atoms: C1_1  and  C3_3 
REMARK    2  A    between atoms: C1_1  and  C7_7 
ROOT
HETATM    1  C2  UNL     1     -33.834   7.390   6.174  1.00 20.00     0.017 A 
HETATM    2  C3  UNL     1     -34.310   7.026   4.791  1.00 20.00     0.059 A 
HETATM    3  C4  UNL     1     -34.698   6.176   5.977  1.00 20.00    -0.007 A 
HETATM    4  C5  UNL     1     -34.131   4.815   6.197  1.00 20.00     0.011 C 
ENDROOT
BRANCH   2   5
HETATM    5  C1  UNL     1     -33.343   6.543   3.800  1.00 20.00     0.131 C 
HETATM    6  O8  UNL     1     -33.501   5.462   3.233  1.00 20.00    -0.298 OA
BRANCH   5   7
HETATM    7  C7  UNL     1     -32.155   7.448   3.528  1.00 20.00     0.074 C 
HETATM    8  C6  UNL     1     -32.567   8.809   2.998  1.00 20.00     0.013 C 
ENDBRANCH   5   7
ENDBRANCH   2   5
TORSDOF 2
ENDMDL
MODEL 9
REMARK VINA RESULT:      -3.7      0.898      2.939
REMARK  2 active torsions:
REMARK  status: ('A' for Active; 'I' for Inactive)
REMARK    1  A    between atoms: C1_1  and  C3_3 
REMARK    2  A    between atoms: C1_1  and  C7_7 
ROOT
HETATM    1  C2  UNL     1     -34.002   8.788   4.031  1.00 20.00     0.017 A 
HETATM    2  C3  UNL     1     -33.379   8.262   5.300  1.00 20.00     0.059 A 
HETATM    3  C4  UNL     1     -32.548   8.407   4.047  1.00 20.00    -0.007 A 
HETATM    4  C5  UNL     1     -32.078   7.228   3.266  1.00 20.00     0.011 C 
ENDROOT
BRANCH   2   5
HETATM    5  C1  UNL     1     -33.769   6.939   5.798  1.00 20.00     0.131 C 
HETATM    6  O8  UNL     1     -33.208   6.437   6.771  1.00 20.00    -0.298 OA
BRANCH   5   7
HETATM    7  C7  UNL     1     -34.888   6.244   5.043  1.00 20.00     0.074 C 
HETATM    8  C6  UNL     1     -34.558   4.801   4.710  1.00 20.00     0.013 C 
ENDBRANCH   5   7
ENDBRANCH   2   5
TORSDOF 2
ENDMDL
