MODEL 1
REMARK VINA RESULT:      -3.4      0.000      0.000
REMARK  1 active torsions:
REMARK  status: ('A' for Active; 'I' for Inactive)
REMARK    1  A    between atoms: C3_3  and  C8_8 
ROOT
HETATM    1  C1  UNL     1     -33.300  16.268  -3.043  1.00 20.00     0.285 C 
HETATM    2  C2  UNL     1     -33.922  17.657  -3.173  1.00 20.00     0.073 C 
HETATM    3  C3  UNL     1     -34.411  15.906  -5.087  1.00 20.00     0.289 C 
HETATM    4  C4  UNL     1     -32.945  18.772  -2.844  1.00 20.00     0.023 C 
HETATM    5  N9  UNL     1     -34.179  15.339  -3.756  1.00 20.00     0.099 N 
HETATM    6  S10 UNL     1     -34.457  17.718  -4.907  1.00 20.00    -0.127 SA
HETATM    7  H27 UNL     1     -33.746  14.420  -3.832  1.00 20.00     0.317 HD
ENDROOT
BRANCH   3   8
HETATM    8  C8  UNL     1     -35.716  15.383  -5.665  1.00 20.00    -0.011 C 
HETATM    9  C5  UNL     1     -35.575  15.180  -7.186  1.00 20.00     0.017 C 
HETATM   10  C6  UNL     1     -36.851  16.392  -5.400  1.00 20.00     0.017 C 
HETATM   11  C7  UNL     1     -36.082  14.038  -5.012  1.00 20.00     0.017 C 
ENDBRANCH   3   8
TORSDOF 1
ENDMDL
MODEL 2
REMARK VINA RESULT:      -3.4      0.014      1.375
REMARK  1 active torsions:
REMARK  status: ('A' for Active; 'I' for Inactive)
REMARK    1  A    between atoms: C3_3  and  C8_8 
ROOT
HETATM    1  C1  UNL     1     -33.304  16.268  -3.052  1.00 20.00     0.285 C 
HETATM    2  C2  UNL     1     -33.925  17.659  -3.178  1.00 20.00     0.073 C 
HETATM    3  C3  UNL     1     -34.416  15.914  -5.097  1.00 20.00     0.289 C 
HETATM    4  C4  UNL     1     -32.946  18.771  -2.846  1.00 20.00     0.023 C 
HETATM    5  N9  UNL     1     -34.186  15.343  -3.767  1.00 20.00     0.099 N 
HETATM    6  S10 UNL     1     -34.459  17.726  -4.911  1.00 20.00    -0.127 SA
HETATM    7  H27 UNL     1     -33.754  14.423  -3.846  1.00 20.00     0.317 HD
ENDROOT
BRANCH   3   8
HETATM    8  C8  UNL     1     -35.722  15.396  -5.676  1.00 20.00    -0.011 C 
HETATM    9  C5  UNL     1     -36.856  16.404  -5.405  1.00 20.00     0.017 C 
HETATM   10  C6  UNL     1     -36.088  14.047  -5.027  1.00 20.00     0.017 C 
HETATM   11  C7  UNL     1     -35.583  15.196  -7.196  1.00 20.00     0.017 C 
ENDBRANCH   3   8
TORSDOF 1
ENDMDL
MODEL 3
REMARK VINA RESULT:      -3.4      0.039      1.376
REMARK  1 active torsions:
REMARK  status: ('A' for Active; 'I' for Inactive)
REMARK    1  A    between atoms: C3_3  and  C8_8 
ROOT
HETATM    1  C1  UNL     1     -33.292  16.263  -3.043  1.00 20.00     0.285 C 
HETATM    2  C2  UNL     1     -33.948  17.639  -3.151  1.00 20.00     0.073 C 
HETATM    3  C3  UNL     1     -34.405  15.903  -5.086  1.00 20.00     0.289 C 
HETATM    4  C4  UNL     1     -32.996  18.772  -2.811  1.00 20.00     0.023 C 
HETATM    5  N9  UNL     1     -34.153  15.324  -3.765  1.00 20.00     0.099 N 
HETATM    6  S10 UNL     1     -34.493  17.711  -4.881  1.00 20.00    -0.127 SA
HETATM    7  H27 UNL     1     -33.699  14.416  -3.855  1.00 20.00     0.317 HD
ENDROOT
BRANCH   3   8
HETATM    8  C8  UNL     1     -35.701  15.358  -5.665  1.00 20.00    -0.011 C 
HETATM    9  C5  UNL     1     -36.050  14.013  -4.998  1.00 20.00     0.017 C 
HETATM   10  C6  UNL     1     -35.548  15.138  -7.183  1.00 20.00     0.017 C 
HETATM   11  C7  UNL     1     -36.849  16.353  -5.417  1.00 20.00     0.017 C 
ENDBRANCH   3   8
TORSDOF 1
ENDMDL
MODEL 4
REMARK VINA RESULT:      -3.3     13.248     13.729
REMARK  1 active torsions:
REMARK  status: ('A' for Active; 'I' for Inactive)
REMARK    1  A    between atoms: C3_3  and  C8_8 
ROOT
HETATM    1  C1  UNL     1     -40.104  15.152   9.132  1.00 20.00     0.285 C 
HETATM    2  C2  UNL     1     -41.476  15.805   8.967  1.00 20.00     0.073 C 
HETATM    3  C3  UNL     1     -40.508  14.443   6.923  1.00 20.00     0.289 C 
HETATM    4  C4  UNL     1     -41.517  17.228   9.497  1.00 20.00     0.023 C 
HETATM    5  N9  UNL     1     -40.079  13.985   8.247  1.00 20.00     0.099 N 
HETATM    6  S10 UNL     1     -41.760  15.744   7.175  1.00 20.00    -0.127 SA
HETATM    7  H27 UNL     1     -39.142  13.590   8.199  1.00 20.00     0.317 HD
ENDROOT
BRANCH   3   8
HETATM    8  C8  UNL     1     -41.082  13.285   6.123  1.00 20.00    -0.011 C 
HETATM    9  C5  UNL     1     -39.997  12.213   5.897  1.00 20.00     0.017 C 
HETATM   10  C6  UNL     1     -41.580  13.787   4.753  1.00 20.00     0.017 C 
HETATM   11  C7  UNL     1     -42.262  12.652   6.882  1.00 20.00     0.017 C 
ENDBRANCH   3   8
TORSDOF 1
ENDMDL
MODEL 5
REMARK VINA RESULT:      -3.3     13.266     13.744
REMARK  1 active torsions:
REMARK  status: ('A' for Active; 'I' for Inactive)
REMARK    1  A    between atoms: C3_3  and  C8_8 
ROOT
HETATM    1  C1  UNL     1     -40.108  15.151   9.156  1.00 20.00     0.285 C 
HETATM    2  C2  UNL     1     -41.480  15.803   8.988  1.00 20.00     0.073 C 
HETATM    3  C3  UNL     1     -40.506  14.444   6.946  1.00 20.00     0.289 C 
HETATM    4  C4  UNL     1     -41.524  17.225   9.519  1.00 20.00     0.023 C 
HETATM    5  N9  UNL     1     -40.079  13.985   8.270  1.00 20.00     0.099 N 
HETATM    6  S10 UNL     1     -41.759  15.743   7.196  1.00 20.00    -0.127 SA
HETATM    7  H27 UNL     1     -39.141  13.591   8.225  1.00 20.00     0.317 HD
ENDROOT
BRANCH   3   8
HETATM    8  C8  UNL     1     -41.076  13.286   6.143  1.00 20.00    -0.011 C 
HETATM    9  C5  UNL     1     -41.579  13.790   4.776  1.00 20.00     0.017 C 
HETATM   10  C6  UNL     1     -42.253  12.646   6.904  1.00 20.00     0.017 C 
HETATM   11  C7  UNL     1     -39.990  12.218   5.913  1.00 20.00     0.017 C 
ENDBRANCH   3   8
TORSDOF 1
ENDMDL
MODEL 6
REMARK VINA RESULT:      -3.2      1.702      2.384
REMARK  1 active torsions:
REMARK  status: ('A' for Active; 'I' for Inactive)
REMARK    1  A    between atoms: C3_3  and  C8_8 
ROOT
HETATM    1  C1  UNL     1     -33.821  18.755  -4.454  1.00 20.00     0.285 C 
HETATM    2  C2  UNL     1     -32.903  18.173  -3.379  1.00 20.00     0.073 C 
HETATM    3  C3  UNL     1     -34.642  16.550  -4.524  1.00 20.00     0.289 C 
HETATM    4  C4  UNL     1     -32.784  19.069  -2.160  1.00 20.00     0.023 C 
HETATM    5  N9  UNL     1     -34.167  17.657  -5.358  1.00 20.00     0.099 N 
HETATM    6  S10 UNL     1     -33.682  16.584  -2.976  1.00 20.00    -0.127 SA
HETATM    7  H27 UNL     1     -34.893  17.945  -6.013  1.00 20.00     0.317 HD
ENDROOT
BRANCH   3   8
HETATM    8  C8  UNL     1     -34.458  15.226  -5.248  1.00 20.00    -0.011 C 
HETATM    9  C5  UNL     1     -35.783  14.439  -5.252  1.00 20.00     0.017 C 
HETATM   10  C6  UNL     1     -33.379  14.383  -4.540  1.00 20.00     0.017 C 
HETATM   11  C7  UNL     1     -34.020  15.476  -6.703  1.00 20.00     0.017 C 
ENDBRANCH   3   8
TORSDOF 1
ENDMDL
MODEL 7
REMARK VINA RESULT:      -3.2     14.026     14.554
REMARK  1 active torsions:
REMARK  status: ('A' for Active; 'I' for Inactive)
REMARK    1  A    between atoms: C3_3  and  C8_8 
ROOT
HETATM    1  C1  UNL     1     -40.074  15.202   9.267  1.00 20.00     0.285 C 
HETATM    2  C2  UNL     1     -40.985  14.313  10.112  1.00 20.00     0.073 C 
HETATM    3  C3  UNL     1     -41.466  14.458   7.520  1.00 20.00     0.289 C 
HETATM    4  C4  UNL     1     -41.414  14.975  11.409  1.00 20.00     0.023 C 
HETATM    5  N9  UNL     1     -40.067  14.641   7.915  1.00 20.00     0.099 N 
HETATM    6  S10 UNL     1     -42.398  13.996   9.017  1.00 20.00    -0.127 SA
HETATM    7  H27 UNL     1     -39.594  15.270   7.267  1.00 20.00     0.317 HD
ENDROOT
BRANCH   3   8
HETATM    8  C8  UNL     1     -41.579  13.380   6.455  1.00 20.00    -0.011 C 
HETATM    9  C5  UNL     1     -42.634  12.336   6.872  1.00 20.00     0.017 C 
HETATM   10  C6  UNL     1     -40.222  12.673   6.275  1.00 20.00     0.017 C 
HETATM   11  C7  UNL     1     -41.998  14.006   5.112  1.00 20.00     0.017 C 
ENDBRANCH   3   8
TORSDOF 1
ENDMDL
MODEL 8
REMARK VINA RESULT:      -3.2      1.202      4.023
REMARK  1 active torsions:
REMARK  status: ('A' for Active; 'I' for Inactive)
REMARK    1  A    between atoms: C3_3  and  C8_8 
ROOT
HETATM    1  C1  UNL     1     -34.987  14.970  -5.470  1.00 20.00     0.285 C 
HETATM    2  C2  UNL     1     -34.358  15.860  -6.541  1.00 20.00     0.073 C 
HETATM    3  C3  UNL     1     -34.984  16.971  -4.229  1.00 20.00     0.289 C 
HETATM    4  C4  UNL     1     -34.956  15.634  -7.918  1.00 20.00     0.023 C 
HETATM    5  N9  UNL     1     -34.633  15.550  -4.172  1.00 20.00     0.099 N 
HETATM    6  S10 UNL     1     -34.677  17.540  -5.933  1.00 20.00    -0.127 SA
HETATM    7  H27 UNL     1     -35.142  15.088  -3.420  1.00 20.00     0.317 HD
ENDROOT
BRANCH   3   8
HETATM    8  C8  UNL     1     -34.150  17.762  -3.234  1.00 20.00    -0.011 C 
HETATM    9  C5  UNL     1     -33.181  18.696  -3.984  1.00 20.00     0.017 C 
HETATM   10  C6  UNL     1     -33.333  16.801  -2.349  1.00 20.00     0.017 C 
HETATM   11  C7  UNL     1     -35.068  18.611  -2.334  1.00 20.00     0.017 C 
ENDBRANCH   3   8
TORSDOF 1
ENDMDL
MODEL 9
REMARK VINA RESULT:      -3.1     24.694     25.825
REMARK  1 active torsions:
REMARK  status: ('A' for Active; 'I' for Inactive)
REMARK    1  A    between atoms: C3_3  and  C8_8 
ROOT
HETATM    1  C1  UNL     1     -24.238  -1.603  11.965  1.00 20.00     0.285 C 
HETATM    2  C2  UNL     1     -24.057  -2.555  10.783  1.00 20.00     0.073 C 
HETATM    3  C3  UNL     1     -26.497  -2.224  11.735  1.00 20.00     0.289 C 
HETATM    4  C4  UNL     1     -22.864  -3.479  10.950  1.00 20.00     0.023 C 
HETATM    5  N9  UNL     1     -25.601  -1.074  11.881  1.00 20.00     0.099 N 
HETATM    6  S10 UNL     1     -25.622  -3.475  10.740  1.00 20.00    -0.127 SA
HETATM    7  H27 UNL     1     -25.835  -0.546  12.721  1.00 20.00     0.317 HD
ENDROOT
BRANCH   3   8
HETATM    8  C8  UNL     1     -27.793  -1.802  11.060  1.00 20.00    -0.011 C 
HETATM    9  C5  UNL     1     -28.197  -2.844   9.998  1.00 20.00     0.017 C 
HETATM   10  C6  UNL     1     -27.608  -0.435  10.372  1.00 20.00     0.017 C 
HETATM   11  C7  UNL     1     -28.919  -1.688  12.103  1.00 20.00     0.017 C 
ENDBRANCH   3   8
TORSDOF 1
ENDMDL
