MODEL 1
REMARK VINA RESULT:      -4.4      0.000      0.000
REMARK  2 active torsions:
REMARK  status: ('A' for Active; 'I' for Inactive)
REMARK    1  A    between atoms: C1_1  and  C3_3 
REMARK    2  A    between atoms: C1_1  and  C9_9 
ROOT
HETATM    1  C1  UNL     1     -33.688   6.952   5.476  1.00 20.00     0.139 C 
HETATM    2  O10 UNL     1     -32.982   6.883   6.485  1.00 20.00    -0.297 OA
ENDROOT
BRANCH   1   3
HETATM    3  C3  UNL     1     -33.697   8.219   4.655  1.00 20.00     0.060 A 
HETATM    4  C2  UNL     1     -32.504   9.105   4.726  1.00 20.00     0.017 A 
HETATM    5  C4  UNL     1     -32.801   8.334   3.472  1.00 20.00    -0.007 A 
HETATM    6  C5  UNL     1     -31.880   7.248   3.028  1.00 20.00     0.011 C 
ENDBRANCH   1   3
BRANCH   1   7
HETATM    7  C9  UNL     1     -34.554   5.766   5.006  1.00 20.00     0.010 C 
HETATM    8  C6  UNL     1     -35.029   4.982   6.235  1.00 20.00     0.022 C 
HETATM    9  C7  UNL     1     -33.758   4.849   4.068  1.00 20.00     0.022 C 
HETATM   10  C8  UNL     1     -35.782   6.298   4.246  1.00 20.00     0.022 C 
ENDBRANCH   1   7
TORSDOF 2
ENDMDL
MODEL 2
REMARK VINA RESULT:      -4.3      0.024      1.367
REMARK  2 active torsions:
REMARK  status: ('A' for Active; 'I' for Inactive)
REMARK    1  A    between atoms: C1_1  and  C3_3 
REMARK    2  A    between atoms: C1_1  and  C9_9 
ROOT
HETATM    1  C1  UNL     1     -33.688   6.957   5.471  1.00 20.00     0.139 C 
HETATM    2  O10 UNL     1     -32.972   6.873   6.472  1.00 20.00    -0.297 OA
ENDROOT
BRANCH   1   3
HETATM    3  C3  UNL     1     -33.690   8.229   4.658  1.00 20.00     0.060 A 
HETATM    4  C2  UNL     1     -32.486   9.101   4.723  1.00 20.00     0.017 A 
HETATM    5  C4  UNL     1     -32.804   8.341   3.468  1.00 20.00    -0.007 A 
HETATM    6  C5  UNL     1     -31.899   7.247   3.009  1.00 20.00     0.011 C 
ENDBRANCH   1   3
BRANCH   1   7
HETATM    7  C9  UNL     1     -34.574   5.785   5.004  1.00 20.00     0.010 C 
HETATM    8  C6  UNL     1     -33.740   4.861   4.107  1.00 20.00     0.022 C 
HETATM    9  C7  UNL     1     -35.799   6.300   4.240  1.00 20.00     0.022 C 
HETATM   10  C8  UNL     1     -35.058   4.990   6.229  1.00 20.00     0.022 C 
ENDBRANCH   1   7
TORSDOF 2
ENDMDL
MODEL 3
REMARK VINA RESULT:      -3.7     15.255     16.305
REMARK  2 active torsions:
REMARK  status: ('A' for Active; 'I' for Inactive)
REMARK    1  A    between atoms: C1_1  and  C3_3 
REMARK    2  A    between atoms: C1_1  and  C9_9 
ROOT
HETATM    1  C1  UNL     1     -23.010  17.306  10.040  1.00 20.00     0.139 C 
HETATM    2  O10 UNL     1     -23.176  16.272   9.388  1.00 20.00    -0.297 OA
ENDROOT
BRANCH   1   3
HETATM    3  C3  UNL     1     -22.008  18.333   9.570  1.00 20.00     0.060 A 
HETATM    4  C2  UNL     1     -21.392  18.145   8.229  1.00 20.00     0.017 A 
HETATM    5  C4  UNL     1     -22.370  19.260   8.464  1.00 20.00    -0.007 A 
HETATM    6  C5  UNL     1     -23.695  19.247   7.779  1.00 20.00     0.011 C 
ENDBRANCH   1   3
BRANCH   1   7
HETATM    7  C9  UNL     1     -23.817  17.599  11.321  1.00 20.00     0.010 C 
HETATM    8  C6  UNL     1     -24.270  16.269  11.936  1.00 20.00     0.022 C 
HETATM    9  C7  UNL     1     -25.033  18.479  11.008  1.00 20.00     0.022 C 
HETATM   10  C8  UNL     1     -22.923  18.339  12.331  1.00 20.00     0.022 C 
ENDBRANCH   1   7
TORSDOF 2
ENDMDL
MODEL 4
REMARK VINA RESULT:      -3.6      1.165      1.685
REMARK  2 active torsions:
REMARK  status: ('A' for Active; 'I' for Inactive)
REMARK    1  A    between atoms: C1_1  and  C3_3 
REMARK    2  A    between atoms: C1_1  and  C9_9 
ROOT
HETATM    1  C1  UNL     1     -33.561   7.043   4.667  1.00 20.00     0.139 C 
HETATM    2  O10 UNL     1     -33.729   8.144   5.198  1.00 20.00    -0.297 OA
ENDROOT
BRANCH   1   3
HETATM    3  C3  UNL     1     -32.392   6.833   3.735  1.00 20.00     0.060 A 
HETATM    4  C2  UNL     1     -32.682   6.558   2.303  1.00 20.00     0.017 A 
HETATM    5  C4  UNL     1     -32.072   7.867   2.714  1.00 20.00    -0.007 A 
HETATM    6  C5  UNL     1     -32.844   9.132   2.553  1.00 20.00     0.011 C 
ENDBRANCH   1   3
BRANCH   1   7
HETATM    7  C9  UNL     1     -34.503   5.854   4.943  1.00 20.00     0.010 C 
HETATM    8  C6  UNL     1     -34.742   5.753   6.455  1.00 20.00     0.022 C 
HETATM    9  C7  UNL     1     -33.900   4.547   4.414  1.00 20.00     0.022 C 
HETATM   10  C8  UNL     1     -35.850   6.094   4.239  1.00 20.00     0.022 C 
ENDBRANCH   1   7
TORSDOF 2
ENDMDL
MODEL 5
REMARK VINA RESULT:      -3.4      1.549      3.860
REMARK  2 active torsions:
REMARK  status: ('A' for Active; 'I' for Inactive)
REMARK    1  A    between atoms: C1_1  and  C3_3 
REMARK    2  A    between atoms: C1_1  and  C9_9 
ROOT
HETATM    1  C1  UNL     1     -33.406   6.778   3.851  1.00 20.00     0.139 C 
HETATM    2  O10 UNL     1     -33.069   5.763   3.237  1.00 20.00    -0.297 OA
ENDROOT
BRANCH   1   3
HETATM    3  C3  UNL     1     -34.692   6.781   4.642  1.00 20.00     0.060 A 
HETATM    4  C2  UNL     1     -35.468   5.514   4.717  1.00 20.00     0.017 A 
HETATM    5  C4  UNL     1     -34.762   6.044   5.932  1.00 20.00    -0.007 A 
HETATM    6  C5  UNL     1     -33.614   5.292   6.515  1.00 20.00     0.011 C 
ENDBRANCH   1   3
BRANCH   1   7
HETATM    7  C9  UNL     1     -32.536   8.051   3.858  1.00 20.00     0.010 C 
HETATM    8  C6  UNL     1     -31.069   7.650   3.660  1.00 20.00     0.022 C 
HETATM    9  C7  UNL     1     -32.702   8.816   5.177  1.00 20.00     0.022 C 
HETATM   10  C8  UNL     1     -32.965   8.970   2.701  1.00 20.00     0.022 C 
ENDBRANCH   1   7
TORSDOF 2
ENDMDL
MODEL 6
REMARK VINA RESULT:      -3.4     15.206     16.510
REMARK  2 active torsions:
REMARK  status: ('A' for Active; 'I' for Inactive)
REMARK    1  A    between atoms: C1_1  and  C3_3 
REMARK    2  A    between atoms: C1_1  and  C9_9 
ROOT
HETATM    1  C1  UNL     1     -23.051  17.265   9.387  1.00 20.00     0.139 C 
HETATM    2  O10 UNL     1     -22.634  16.105   9.346  1.00 20.00    -0.297 OA
ENDROOT
BRANCH   1   3
HETATM    3  C3  UNL     1     -24.174  17.623  10.329  1.00 20.00     0.060 A 
HETATM    4  C2  UNL     1     -24.467  16.692  11.452  1.00 20.00     0.017 A 
HETATM    5  C4  UNL     1     -23.859  18.038  11.723  1.00 20.00    -0.007 A 
HETATM    6  C5  UNL     1     -22.471  18.134  12.260  1.00 20.00     0.011 C 
ENDBRANCH   1   3
BRANCH   1   7
HETATM    7  C9  UNL     1     -22.439  18.380   8.515  1.00 20.00     0.010 C 
HETATM    8  C6  UNL     1     -21.677  17.736   7.350  1.00 20.00     0.022 C 
HETATM    9  C7  UNL     1     -21.496  19.262   9.341  1.00 20.00     0.022 C 
HETATM   10  C8  UNL     1     -23.566  19.263   7.949  1.00 20.00     0.022 C 
ENDBRANCH   1   7
TORSDOF 2
ENDMDL
MODEL 7
REMARK VINA RESULT:      -3.4      1.245      3.647
REMARK  2 active torsions:
REMARK  status: ('A' for Active; 'I' for Inactive)
REMARK    1  A    between atoms: C1_1  and  C3_3 
REMARK    2  A    between atoms: C1_1  and  C9_9 
ROOT
HETATM    1  C1  UNL     1     -33.347   7.709   4.778  1.00 20.00     0.139 C 
HETATM    2  O10 UNL     1     -33.937   8.731   5.136  1.00 20.00    -0.297 OA
ENDROOT
BRANCH   1   3
HETATM    3  C3  UNL     1     -33.472   6.447   5.598  1.00 20.00     0.060 A 
HETATM    4  C2  UNL     1     -34.539   6.391   6.633  1.00 20.00     0.017 A 
HETATM    5  C4  UNL     1     -34.641   5.550   5.393  1.00 20.00    -0.007 A 
HETATM    6  C5  UNL     1     -35.720   5.818   4.398  1.00 20.00     0.011 C 
ENDBRANCH   1   3
BRANCH   1   7
HETATM    7  C9  UNL     1     -32.497   7.668   3.493  1.00 20.00     0.010 C 
HETATM    8  C6  UNL     1     -32.942   8.809   2.569  1.00 20.00     0.022 C 
HETATM    9  C7  UNL     1     -32.651   6.319   2.780  1.00 20.00     0.022 C 
HETATM   10  C8  UNL     1     -31.014   7.865   3.854  1.00 20.00     0.022 C 
ENDBRANCH   1   7
TORSDOF 2
ENDMDL
MODEL 8
REMARK VINA RESULT:      -3.4     12.028     13.483
REMARK  2 active torsions:
REMARK  status: ('A' for Active; 'I' for Inactive)
REMARK    1  A    between atoms: C1_1  and  C3_3 
REMARK    2  A    between atoms: C1_1  and  C9_9 
ROOT
HETATM    1  C1  UNL     1     -33.680  16.299  -4.181  1.00 20.00     0.139 C 
HETATM    2  O10 UNL     1     -32.874  15.404  -3.915  1.00 20.00    -0.297 OA
ENDROOT
BRANCH   1   3
HETATM    3  C3  UNL     1     -34.506  16.211  -5.442  1.00 20.00     0.060 A 
HETATM    4  C2  UNL     1     -34.156  15.158  -6.432  1.00 20.00     0.017 A 
HETATM    5  C4  UNL     1     -35.426  15.059  -5.637  1.00 20.00    -0.007 A 
HETATM    6  C5  UNL     1     -35.598  13.963  -4.640  1.00 20.00     0.011 C 
ENDBRANCH   1   3
BRANCH   1   7
HETATM    7  C9  UNL     1     -33.892  17.507  -3.247  1.00 20.00     0.010 C 
HETATM    8  C6  UNL     1     -33.594  17.076  -1.805  1.00 20.00     0.022 C 
HETATM    9  C7  UNL     1     -35.328  18.034  -3.355  1.00 20.00     0.022 C 
HETATM   10  C8  UNL     1     -32.924  18.636  -3.642  1.00 20.00     0.022 C 
ENDBRANCH   1   7
TORSDOF 2
ENDMDL
MODEL 9
REMARK VINA RESULT:      -3.4     12.146     13.543
REMARK  2 active torsions:
REMARK  status: ('A' for Active; 'I' for Inactive)
REMARK    1  A    between atoms: C1_1  and  C3_3 
REMARK    2  A    between atoms: C1_1  and  C9_9 
ROOT
HETATM    1  C1  UNL     1     -33.892  17.669  -2.098  1.00 20.00     0.139 C 
HETATM    2  O10 UNL     1     -33.556  16.495  -1.922  1.00 20.00    -0.297 OA
ENDROOT
BRANCH   1   3
HETATM    3  C3  UNL     1     -34.033  18.592  -0.911  1.00 20.00     0.060 A 
HETATM    4  C2  UNL     1     -33.799  18.026   0.444  1.00 20.00     0.017 A 
HETATM    5  C4  UNL     1     -32.821  18.998  -0.150  1.00 20.00    -0.007 A 
HETATM    6  C5  UNL     1     -31.441  18.550  -0.496  1.00 20.00     0.011 C 
ENDBRANCH   1   3
BRANCH   1   7
HETATM    7  C9  UNL     1     -34.154  18.238  -3.506  1.00 20.00     0.010 C 
HETATM    8  C6  UNL     1     -32.987  19.154  -3.895  1.00 20.00     0.022 C 
HETATM    9  C7  UNL     1     -35.474  19.017  -3.542  1.00 20.00     0.022 C 
HETATM   10  C8  UNL     1     -34.240  17.081  -4.518  1.00 20.00     0.022 C 
ENDBRANCH   1   7
TORSDOF 2
ENDMDL
