MODEL 1
REMARK VINA RESULT:      -4.8      0.000      0.000
REMARK  3 active torsions:
REMARK  status: ('A' for Active; 'I' for Inactive)
REMARK    1  A    between atoms: C1_1  and  C3_3 
REMARK    2  A    between atoms: C1_1  and  C7_7 
REMARK    3  A    between atoms: C7_7  and  C8_8 
ROOT
HETATM    1  C1  UNL     1     -33.884   7.205   5.545  1.00 20.00     0.131 C 
HETATM    2  O9  UNL     1     -33.267   6.867   6.554  1.00 20.00    -0.298 OA
ENDROOT
BRANCH   1   3
HETATM    3  C3  UNL     1     -33.571   8.498   4.839  1.00 20.00     0.059 A 
HETATM    4  C2  UNL     1     -32.178   9.018   4.914  1.00 20.00     0.017 A 
HETATM    5  C4  UNL     1     -32.719   8.484   3.618  1.00 20.00    -0.007 A 
HETATM    6  C5  UNL     1     -32.148   7.239   3.028  1.00 20.00     0.011 C 
ENDBRANCH   1   3
BRANCH   1   7
HETATM    7  C7  UNL     1     -34.991   6.362   4.936  1.00 20.00     0.078 C 
BRANCH   7   8
HETATM    8  C8  UNL     1     -34.777   4.868   5.154  1.00 20.00     0.003 C 
HETATM    9  C6  UNL     1     -33.852   4.277   4.102  1.00 20.00     0.005 C 
ENDBRANCH   7   8
ENDBRANCH   1   7
TORSDOF 3
ENDMDL
MODEL 2
REMARK VINA RESULT:      -4.7      0.584      3.305
REMARK  3 active torsions:
REMARK  status: ('A' for Active; 'I' for Inactive)
REMARK    1  A    between atoms: C1_1  and  C3_3 
REMARK    2  A    between atoms: C1_1  and  C7_7 
REMARK    3  A    between atoms: C7_7  and  C8_8 
ROOT
HETATM    1  C1  UNL     1     -33.811   7.003   5.886  1.00 20.00     0.131 C 
HETATM    2  O9  UNL     1     -32.996   6.848   6.796  1.00 20.00    -0.298 OA
ENDROOT
BRANCH   1   3
HETATM    3  C3  UNL     1     -34.960   6.047   5.703  1.00 20.00     0.059 A 
HETATM    4  C2  UNL     1     -35.634   6.006   4.375  1.00 20.00     0.017 A 
HETATM    5  C4  UNL     1     -34.791   4.849   4.833  1.00 20.00    -0.007 A 
HETATM    6  C5  UNL     1     -33.522   4.523   4.121  1.00 20.00     0.011 C 
ENDBRANCH   1   3
BRANCH   1   7
HETATM    7  C7  UNL     1     -33.729   8.148   4.893  1.00 20.00     0.078 C 
BRANCH   7   8
HETATM    8  C8  UNL     1     -32.325   8.331   4.324  1.00 20.00     0.003 C 
HETATM    9  C6  UNL     1     -32.159   7.595   3.005  1.00 20.00     0.005 C 
ENDBRANCH   7   8
ENDBRANCH   1   7
TORSDOF 3
ENDMDL
MODEL 3
REMARK VINA RESULT:      -4.6      1.670      3.013
REMARK  3 active torsions:
REMARK  status: ('A' for Active; 'I' for Inactive)
REMARK    1  A    between atoms: C1_1  and  C3_3 
REMARK    2  A    between atoms: C1_1  and  C7_7 
REMARK    3  A    between atoms: C7_7  and  C8_8 
ROOT
HETATM    1  C1  UNL     1     -34.970   5.522   4.720  1.00 20.00     0.131 C 
HETATM    2  O9  UNL     1     -35.925   5.937   4.062  1.00 20.00    -0.298 OA
ENDROOT
BRANCH   1   3
HETATM    3  C3  UNL     1     -34.766   5.954   6.148  1.00 20.00     0.059 A 
HETATM    4  C2  UNL     1     -33.376   5.972   6.684  1.00 20.00     0.017 A 
HETATM    5  C4  UNL     1     -34.110   7.260   6.437  1.00 20.00    -0.007 A 
HETATM    6  C5  UNL     1     -33.637   8.195   5.376  1.00 20.00     0.011 C 
ENDBRANCH   1   3
BRANCH   1   7
HETATM    7  C7  UNL     1     -33.940   4.559   4.159  1.00 20.00     0.078 C 
BRANCH   7   8
HETATM    8  C8  UNL     1     -33.422   4.987   2.789  1.00 20.00     0.003 C 
HETATM    9  C6  UNL     1     -32.578   6.247   2.881  1.00 20.00     0.005 C 
ENDBRANCH   7   8
ENDBRANCH   1   7
TORSDOF 3
ENDMDL
MODEL 4
REMARK VINA RESULT:      -4.5      1.571      2.399
REMARK  3 active torsions:
REMARK  status: ('A' for Active; 'I' for Inactive)
REMARK    1  A    between atoms: C1_1  and  C3_3 
REMARK    2  A    between atoms: C1_1  and  C7_7 
REMARK    3  A    between atoms: C7_7  and  C8_8 
ROOT
HETATM    1  C1  UNL     1     -32.656   8.245   4.648  1.00 20.00     0.131 C 
HETATM    2  O9  UNL     1     -32.164   9.272   5.114  1.00 20.00    -0.298 OA
ENDROOT
BRANCH   1   3
HETATM    3  C3  UNL     1     -31.924   7.435   3.610  1.00 20.00     0.059 A 
HETATM    4  C2  UNL     1     -32.728   6.581   2.692  1.00 20.00     0.017 A 
HETATM    5  C4  UNL     1     -32.034   7.809   2.172  1.00 20.00    -0.007 A 
HETATM    6  C5  UNL     1     -32.836   8.967   1.683  1.00 20.00     0.011 C 
ENDBRANCH   1   3
BRANCH   1   7
HETATM    7  C7  UNL     1     -34.014   7.715   5.074  1.00 20.00     0.078 C 
BRANCH   7   8
HETATM    8  C8  UNL     1     -33.931   6.813   6.302  1.00 20.00     0.003 C 
HETATM    9  C6  UNL     1     -34.627   5.483   6.065  1.00 20.00     0.005 C 
ENDBRANCH   7   8
ENDBRANCH   1   7
TORSDOF 3
ENDMDL
MODEL 5
REMARK VINA RESULT:      -4.3      1.246      3.445
REMARK  3 active torsions:
REMARK  status: ('A' for Active; 'I' for Inactive)
REMARK    1  A    between atoms: C1_1  and  C3_3 
REMARK    2  A    between atoms: C1_1  and  C7_7 
REMARK    3  A    between atoms: C7_7  and  C8_8 
ROOT
HETATM    1  C1  UNL     1     -33.367   7.895   5.259  1.00 20.00     0.131 C 
HETATM    2  O9  UNL     1     -34.169   8.762   5.607  1.00 20.00    -0.298 OA
ENDROOT
BRANCH   1   3
HETATM    3  C3  UNL     1     -33.463   6.490   5.793  1.00 20.00     0.059 A 
HETATM    4  C2  UNL     1     -34.610   6.154   6.681  1.00 20.00     0.017 A 
HETATM    5  C4  UNL     1     -34.534   5.584   5.293  1.00 20.00    -0.007 A 
HETATM    6  C5  UNL     1     -35.537   5.985   4.266  1.00 20.00     0.011 C 
ENDBRANCH   1   3
BRANCH   1   7
HETATM    7  C7  UNL     1     -32.236   8.164   4.282  1.00 20.00     0.078 C 
BRANCH   7   8
HETATM    8  C8  UNL     1     -32.263   7.222   3.083  1.00 20.00     0.003 C 
HETATM    9  C6  UNL     1     -32.197   7.987   1.771  1.00 20.00     0.005 C 
ENDBRANCH   7   8
ENDBRANCH   1   7
TORSDOF 3
ENDMDL
MODEL 6
REMARK VINA RESULT:      -4.2      1.679      3.919
REMARK  3 active torsions:
REMARK  status: ('A' for Active; 'I' for Inactive)
REMARK    1  A    between atoms: C1_1  and  C3_3 
REMARK    2  A    between atoms: C1_1  and  C7_7 
REMARK    3  A    between atoms: C7_7  and  C8_8 
ROOT
HETATM    1  C1  UNL     1     -33.323   6.085   3.522  1.00 20.00     0.131 C 
HETATM    2  O9  UNL     1     -33.221   4.929   3.114  1.00 20.00    -0.298 OA
ENDROOT
BRANCH   1   3
HETATM    3  C3  UNL     1     -34.543   6.536   4.281  1.00 20.00     0.059 A 
HETATM    4  C2  UNL     1     -35.543   5.505   4.678  1.00 20.00     0.017 A 
HETATM    5  C4  UNL     1     -34.692   6.177   5.719  1.00 20.00    -0.007 A 
HETATM    6  C5  UNL     1     -33.680   5.387   6.477  1.00 20.00     0.011 C 
ENDBRANCH   1   3
BRANCH   1   7
HETATM    7  C7  UNL     1     -32.247   7.134   3.302  1.00 20.00     0.078 C 
BRANCH   7   8
HETATM    8  C8  UNL     1     -32.732   8.545   3.621  1.00 20.00     0.003 C 
HETATM    9  C6  UNL     1     -32.205   9.025   4.964  1.00 20.00     0.005 C 
ENDBRANCH   7   8
ENDBRANCH   1   7
TORSDOF 3
ENDMDL
MODEL 7
REMARK VINA RESULT:      -4.0      1.682      2.401
REMARK  3 active torsions:
REMARK  status: ('A' for Active; 'I' for Inactive)
REMARK    1  A    between atoms: C1_1  and  C3_3 
REMARK    2  A    between atoms: C1_1  and  C7_7 
REMARK    3  A    between atoms: C7_7  and  C8_8 
ROOT
HETATM    1  C1  UNL     1     -33.118   6.132   3.285  1.00 20.00     0.131 C 
HETATM    2  O9  UNL     1     -32.861   5.061   2.736  1.00 20.00    -0.298 OA
ENDROOT
BRANCH   1   3
HETATM    3  C3  UNL     1     -32.179   7.306   3.174  1.00 20.00     0.059 A 
HETATM    4  C2  UNL     1     -32.760   8.642   2.866  1.00 20.00     0.017 A 
HETATM    5  C4  UNL     1     -32.189   8.359   4.227  1.00 20.00    -0.007 A 
HETATM    6  C5  UNL     1     -33.085   8.322   5.419  1.00 20.00     0.011 C 
ENDBRANCH   1   3
BRANCH   1   7
HETATM    7  C7  UNL     1     -34.377   6.358   4.102  1.00 20.00     0.078 C 
BRANCH   7   8
HETATM    8  C8  UNL     1     -34.799   5.117   4.882  1.00 20.00     0.003 C 
HETATM    9  C6  UNL     1     -34.534   5.276   6.370  1.00 20.00     0.005 C 
ENDBRANCH   7   8
ENDBRANCH   1   7
TORSDOF 3
ENDMDL
MODEL 8
REMARK VINA RESULT:      -4.0      1.922      3.930
REMARK  3 active torsions:
REMARK  status: ('A' for Active; 'I' for Inactive)
REMARK    1  A    between atoms: C1_1  and  C3_3 
REMARK    2  A    between atoms: C1_1  and  C7_7 
REMARK    3  A    between atoms: C7_7  and  C8_8 
ROOT
HETATM    1  C1  UNL     1     -32.659   7.323   3.518  1.00 20.00     0.131 C 
HETATM    2  O9  UNL     1     -32.580   6.212   2.996  1.00 20.00    -0.298 OA
ENDROOT
BRANCH   1   3
HETATM    3  C3  UNL     1     -32.868   7.470   5.003  1.00 20.00     0.059 A 
HETATM    4  C2  UNL     1     -34.019   8.290   5.472  1.00 20.00     0.017 A 
HETATM    5  C4  UNL     1     -34.026   6.799   5.655  1.00 20.00    -0.007 A 
HETATM    6  C5  UNL     1     -35.014   5.961   4.915  1.00 20.00     0.011 C 
ENDBRANCH   1   3
BRANCH   1   7
HETATM    7  C7  UNL     1     -32.553   8.615   2.727  1.00 20.00     0.078 C 
BRANCH   7   8
HETATM    8  C8  UNL     1     -32.158   8.379   1.272  1.00 20.00     0.003 C 
HETATM    9  C6  UNL     1     -32.767   9.425   0.353  1.00 20.00     0.005 C 
ENDBRANCH   7   8
ENDBRANCH   1   7
TORSDOF 3
ENDMDL
MODEL 9
REMARK VINA RESULT:      -3.7      1.661      3.198
REMARK  3 active torsions:
REMARK  status: ('A' for Active; 'I' for Inactive)
REMARK    1  A    between atoms: C1_1  and  C3_3 
REMARK    2  A    between atoms: C1_1  and  C7_7 
REMARK    3  A    between atoms: C7_7  and  C8_8 
ROOT
HETATM    1  C1  UNL     1     -34.627   5.401   4.588  1.00 20.00     0.131 C 
HETATM    2  O9  UNL     1     -35.618   5.926   4.080  1.00 20.00    -0.298 OA
ENDROOT
BRANCH   1   3
HETATM    3  C3  UNL     1     -33.567   4.756   3.734  1.00 20.00     0.059 A 
HETATM    4  C2  UNL     1     -33.665   4.912   2.256  1.00 20.00     0.017 A 
HETATM    5  C4  UNL     1     -32.575   5.609   3.020  1.00 20.00    -0.007 A 
HETATM    6  C5  UNL     1     -32.558   7.097   3.106  1.00 20.00     0.011 C 
ENDBRANCH   1   3
BRANCH   1   7
HETATM    7  C7  UNL     1     -34.392   5.362   6.087  1.00 20.00     0.078 C 
BRANCH   7   8
HETATM    8  C8  UNL     1     -34.455   6.747   6.726  1.00 20.00     0.003 C 
HETATM    9  C6  UNL     1     -33.469   7.705   6.077  1.00 20.00     0.005 C 
ENDBRANCH   7   8
ENDBRANCH   1   7
TORSDOF 3
ENDMDL
