MODEL 1
REMARK VINA RESULT:      -4.3      0.000      0.000
REMARK  3 active torsions:
REMARK  status: ('A' for Active; 'I' for Inactive)
REMARK    1  A    between atoms: C1_1  and  C3_3 
REMARK    2  A    between atoms: C1_1  and  C8_8 
REMARK    3  A    between atoms: C8_8  and  C9_9 
ROOT
HETATM    1  C1  UNL     1     -33.774   7.342   5.435  1.00 20.00     0.131 C 
HETATM    2  O10 UNL     1     -32.799   7.413   6.183  1.00 20.00    -0.298 OA
ENDROOT
BRANCH   1   3
HETATM    3  C3  UNL     1     -34.872   6.341   5.688  1.00 20.00     0.059 A 
HETATM    4  C2  UNL     1     -34.527   5.099   6.434  1.00 20.00     0.017 A 
HETATM    5  C4  UNL     1     -34.859   5.036   4.969  1.00 20.00    -0.007 A 
HETATM    6  C5  UNL     1     -33.811   4.650   3.984  1.00 20.00     0.011 C 
ENDBRANCH   1   3
BRANCH   1   7
HETATM    7  C8  UNL     1     -33.929   8.208   4.195  1.00 20.00     0.082 C 
BRANCH   7   8
HETATM    8  C9  UNL     1     -32.613   8.467   3.449  1.00 20.00    -0.016 C 
HETATM    9  C6  UNL     1     -32.802   9.478   2.315  1.00 20.00     0.010 C 
HETATM   10  C7  UNL     1     -32.065   7.155   2.882  1.00 20.00     0.010 C 
ENDBRANCH   7   8
ENDBRANCH   1   7
TORSDOF 3
ENDMDL
MODEL 2
REMARK VINA RESULT:      -4.2      1.372      1.911
REMARK  3 active torsions:
REMARK  status: ('A' for Active; 'I' for Inactive)
REMARK    1  A    between atoms: C1_1  and  C3_3 
REMARK    2  A    between atoms: C1_1  and  C8_8 
REMARK    3  A    between atoms: C8_8  and  C9_9 
ROOT
HETATM    1  C1  UNL     1     -33.486   7.849   5.326  1.00 20.00     0.131 C 
HETATM    2  O10 UNL     1     -33.946   8.989   5.251  1.00 20.00    -0.298 OA
ENDROOT
BRANCH   1   3
HETATM    3  C3  UNL     1     -33.967   6.890   6.384  1.00 20.00     0.059 A 
HETATM    4  C2  UNL     1     -33.531   5.469   6.290  1.00 20.00     0.017 A 
HETATM    5  C4  UNL     1     -34.964   5.841   6.030  1.00 20.00    -0.007 A 
HETATM    6  C5  UNL     1     -35.540   5.681   4.665  1.00 20.00     0.011 C 
ENDBRANCH   1   3
BRANCH   1   7
HETATM    7  C8  UNL     1     -32.387   7.338   4.408  1.00 20.00     0.082 C 
BRANCH   7   8
HETATM    8  C9  UNL     1     -32.863   7.031   2.981  1.00 20.00    -0.016 C 
HETATM    9  C6  UNL     1     -32.712   5.544   2.650  1.00 20.00     0.010 C 
HETATM   10  C7  UNL     1     -32.069   7.865   1.973  1.00 20.00     0.010 C 
ENDBRANCH   7   8
ENDBRANCH   1   7
TORSDOF 3
ENDMDL
MODEL 3
REMARK VINA RESULT:      -4.2      1.561      2.280
REMARK  3 active torsions:
REMARK  status: ('A' for Active; 'I' for Inactive)
REMARK    1  A    between atoms: C1_1  and  C3_3 
REMARK    2  A    between atoms: C1_1  and  C8_8 
REMARK    3  A    between atoms: C8_8  and  C9_9 
ROOT
HETATM    1  C1  UNL     1     -33.442   5.825   3.596  1.00 20.00     0.131 C 
HETATM    2  O10 UNL     1     -32.624   5.361   2.802  1.00 20.00    -0.298 OA
ENDROOT
BRANCH   1   3
HETATM    3  C3  UNL     1     -34.318   4.919   4.422  1.00 20.00     0.059 A 
HETATM    4  C2  UNL     1     -35.662   5.421   4.822  1.00 20.00     0.017 A 
HETATM    5  C4  UNL     1     -34.580   5.249   5.851  1.00 20.00    -0.007 A 
HETATM    6  C5  UNL     1     -34.009   6.442   6.537  1.00 20.00     0.011 C 
ENDBRANCH   1   3
BRANCH   1   7
HETATM    7  C8  UNL     1     -33.666   7.319   3.774  1.00 20.00     0.082 C 
BRANCH   7   8
HETATM    8  C9  UNL     1     -32.399   8.164   3.582  1.00 20.00    -0.016 C 
HETATM    9  C6  UNL     1     -32.140   9.065   4.792  1.00 20.00     0.010 C 
HETATM   10  C7  UNL     1     -32.527   9.021   2.321  1.00 20.00     0.010 C 
ENDBRANCH   7   8
ENDBRANCH   1   7
TORSDOF 3
ENDMDL
MODEL 4
REMARK VINA RESULT:      -4.0      1.573      4.110
REMARK  3 active torsions:
REMARK  status: ('A' for Active; 'I' for Inactive)
REMARK    1  A    between atoms: C1_1  and  C3_3 
REMARK    2  A    between atoms: C1_1  and  C8_8 
REMARK    3  A    between atoms: C8_8  and  C9_9 
ROOT
HETATM    1  C1  UNL     1     -33.209   6.516   3.529  1.00 20.00     0.131 C 
HETATM    2  O10 UNL     1     -32.748   5.806   2.636  1.00 20.00    -0.298 OA
ENDROOT
BRANCH   1   3
HETATM    3  C3  UNL     1     -32.355   7.556   4.208  1.00 20.00     0.059 A 
HETATM    4  C2  UNL     1     -33.041   8.705   4.864  1.00 20.00     0.017 A 
HETATM    5  C4  UNL     1     -32.237   8.916   3.612  1.00 20.00    -0.007 A 
HETATM    6  C5  UNL     1     -32.916   9.323   2.349  1.00 20.00     0.011 C 
ENDBRANCH   1   3
BRANCH   1   7
HETATM    7  C8  UNL     1     -34.633   6.378   4.044  1.00 20.00     0.082 C 
BRANCH   7   8
HETATM    8  C9  UNL     1     -34.818   5.251   5.068  1.00 20.00    -0.016 C 
HETATM    9  C6  UNL     1     -34.544   5.739   6.493  1.00 20.00     0.010 C 
HETATM   10  C7  UNL     1     -33.885   4.084   4.737  1.00 20.00     0.010 C 
ENDBRANCH   7   8
ENDBRANCH   1   7
TORSDOF 3
ENDMDL
MODEL 5
REMARK VINA RESULT:      -4.0      9.298     10.395
REMARK  3 active torsions:
REMARK  status: ('A' for Active; 'I' for Inactive)
REMARK    1  A    between atoms: C1_1  and  C3_3 
REMARK    2  A    between atoms: C1_1  and  C8_8 
REMARK    3  A    between atoms: C8_8  and  C9_9 
ROOT
HETATM    1  C1  UNL     1     -41.811  13.079   6.584  1.00 20.00     0.131 C 
HETATM    2  O10 UNL     1     -42.267  12.054   7.089  1.00 20.00    -0.298 OA
ENDROOT
BRANCH   1   3
HETATM    3  C3  UNL     1     -42.227  14.439   7.084  1.00 20.00     0.059 A 
HETATM    4  C2  UNL     1     -41.331  15.593   6.797  1.00 20.00     0.017 A 
HETATM    5  C4  UNL     1     -41.473  15.075   8.200  1.00 20.00    -0.007 A 
HETATM    6  C5  UNL     1     -40.313  14.434   8.880  1.00 20.00     0.011 C 
ENDBRANCH   1   3
BRANCH   1   7
HETATM    7  C8  UNL     1     -40.846  13.063   5.409  1.00 20.00     0.082 C 
BRANCH   7   8
HETATM    8  C9  UNL     1     -39.867  11.881   5.424  1.00 20.00    -0.016 C 
HETATM    9  C6  UNL     1     -38.808  12.047   6.516  1.00 20.00     0.010 C 
HETATM   10  C7  UNL     1     -39.184  11.749   4.061  1.00 20.00     0.010 C 
ENDBRANCH   7   8
ENDBRANCH   1   7
TORSDOF 3
ENDMDL
MODEL 6
REMARK VINA RESULT:      -4.0     12.048     13.155
REMARK  3 active torsions:
REMARK  status: ('A' for Active; 'I' for Inactive)
REMARK    1  A    between atoms: C1_1  and  C3_3 
REMARK    2  A    between atoms: C1_1  and  C8_8 
REMARK    3  A    between atoms: C8_8  and  C9_9 
ROOT
HETATM    1  C1  UNL     1     -34.123  14.988  -4.276  1.00 20.00     0.131 C 
HETATM    2  O10 UNL     1     -34.070  13.765  -4.154  1.00 20.00    -0.298 OA
ENDROOT
BRANCH   1   3
HETATM    3  C3  UNL     1     -35.172  15.634  -5.144  1.00 20.00     0.059 A 
HETATM    4  C2  UNL     1     -35.917  14.769  -6.101  1.00 20.00     0.017 A 
HETATM    5  C4  UNL     1     -34.929  15.783  -6.607  1.00 20.00    -0.007 A 
HETATM    6  C5  UNL     1     -33.680  15.333  -7.283  1.00 20.00     0.011 C 
ENDBRANCH   1   3
BRANCH   1   7
HETATM    7  C8  UNL     1     -33.129  15.930  -3.614  1.00 20.00     0.082 C 
BRANCH   7   8
HETATM    8  C9  UNL     1     -33.766  17.205  -3.045  1.00 20.00    -0.016 C 
HETATM    9  C6  UNL     1     -33.172  18.461  -3.688  1.00 20.00     0.010 C 
HETATM   10  C7  UNL     1     -33.565  17.260  -1.529  1.00 20.00     0.010 C 
ENDBRANCH   7   8
ENDBRANCH   1   7
TORSDOF 3
ENDMDL
MODEL 7
REMARK VINA RESULT:      -3.9      1.293      3.862
REMARK  3 active torsions:
REMARK  status: ('A' for Active; 'I' for Inactive)
REMARK    1  A    between atoms: C1_1  and  C3_3 
REMARK    2  A    between atoms: C1_1  and  C8_8 
REMARK    3  A    between atoms: C8_8  and  C9_9 
ROOT
HETATM    1  C1  UNL     1     -33.429   7.959   4.568  1.00 20.00     0.131 C 
HETATM    2  O10 UNL     1     -34.391   8.630   4.195  1.00 20.00    -0.298 OA
ENDROOT
BRANCH   1   3
HETATM    3  C3  UNL     1     -32.184   7.855   3.725  1.00 20.00     0.059 A 
HETATM    4  C2  UNL     1     -32.315   8.067   2.257  1.00 20.00     0.017 A 
HETATM    5  C4  UNL     1     -32.014   6.699   2.801  1.00 20.00    -0.007 A 
HETATM    6  C5  UNL     1     -33.015   5.605   2.661  1.00 20.00     0.011 C 
ENDBRANCH   1   3
BRANCH   1   7
HETATM    7  C8  UNL     1     -33.432   7.158   5.861  1.00 20.00     0.082 C 
BRANCH   7   8
HETATM    8  C9  UNL     1     -34.645   6.231   6.016  1.00 20.00    -0.016 C 
HETATM    9  C6  UNL     1     -34.245   4.882   6.617  1.00 20.00     0.010 C 
HETATM   10  C7  UNL     1     -35.313   6.010   4.657  1.00 20.00     0.010 C 
ENDBRANCH   7   8
ENDBRANCH   1   7
TORSDOF 3
ENDMDL
MODEL 8
REMARK VINA RESULT:      -3.8      0.973      3.974
REMARK  3 active torsions:
REMARK  status: ('A' for Active; 'I' for Inactive)
REMARK    1  A    between atoms: C1_1  and  C3_3 
REMARK    2  A    between atoms: C1_1  and  C8_8 
REMARK    3  A    between atoms: C8_8  and  C9_9 
ROOT
HETATM    1  C1  UNL     1     -33.787   7.493   4.566  1.00 20.00     0.131 C 
HETATM    2  O10 UNL     1     -33.749   8.457   5.330  1.00 20.00    -0.298 OA
ENDROOT
BRANCH   1   3
HETATM    3  C3  UNL     1     -32.598   7.140   3.709  1.00 20.00     0.059 A 
HETATM    4  C2  UNL     1     -31.388   8.003   3.801  1.00 20.00     0.017 A 
HETATM    5  C4  UNL     1     -32.234   8.012   2.558  1.00 20.00    -0.007 A 
HETATM    6  C5  UNL     1     -32.993   9.238   2.183  1.00 20.00     0.011 C 
ENDBRANCH   1   3
BRANCH   1   7
HETATM    7  C8  UNL     1     -35.022   6.624   4.390  1.00 20.00     0.082 C 
BRANCH   7   8
HETATM    8  C9  UNL     1     -34.939   5.273   5.114  1.00 20.00    -0.016 C 
HETATM    9  C6  UNL     1     -34.412   5.435   6.542  1.00 20.00     0.010 C 
HETATM   10  C7  UNL     1     -34.031   4.317   4.337  1.00 20.00     0.010 C 
ENDBRANCH   7   8
ENDBRANCH   1   7
TORSDOF 3
ENDMDL
MODEL 9
REMARK VINA RESULT:      -3.7      1.164      1.981
REMARK  3 active torsions:
REMARK  status: ('A' for Active; 'I' for Inactive)
REMARK    1  A    between atoms: C1_1  and  C3_3 
REMARK    2  A    between atoms: C1_1  and  C8_8 
REMARK    3  A    between atoms: C8_8  and  C9_9 
ROOT
HETATM    1  C1  UNL     1     -33.271   7.240   4.341  1.00 20.00     0.131 C 
HETATM    2  O10 UNL     1     -33.478   7.872   5.376  1.00 20.00    -0.298 OA
ENDROOT
BRANCH   1   3
HETATM    3  C3  UNL     1     -34.052   5.989   4.029  1.00 20.00     0.059 A 
HETATM    4  C2  UNL     1     -35.506   5.973   4.352  1.00 20.00     0.017 A 
HETATM    5  C4  UNL     1     -34.544   5.131   5.143  1.00 20.00    -0.007 A 
HETATM    6  C5  UNL     1     -34.300   5.432   6.582  1.00 20.00     0.011 C 
ENDBRANCH   1   3
BRANCH   1   7
HETATM    7  C8  UNL     1     -32.205   7.633   3.331  1.00 20.00     0.082 C 
BRANCH   7   8
HETATM    8  C9  UNL     1     -32.762   8.299   2.065  1.00 20.00    -0.016 C 
HETATM    9  C6  UNL     1     -31.844   8.070   0.862  1.00 20.00     0.010 C 
HETATM   10  C7  UNL     1     -32.939   9.801   2.298  1.00 20.00     0.010 C 
ENDBRANCH   7   8
ENDBRANCH   1   7
TORSDOF 3
ENDMDL
