MODEL 1
REMARK VINA RESULT:      -4.0      0.000      0.000
REMARK  2 active torsions:
REMARK  status: ('A' for Active; 'I' for Inactive)
REMARK    1  A    between atoms: C2_2  and  C8_8 
REMARK    2  A    between atoms: C3_3  and  C5_5 
ROOT
HETATM    1  C1  UNL     1     -33.501  19.103  -2.018  1.00 20.00     0.080 A 
HETATM    2  C2  UNL     1     -33.608  17.997  -1.201  1.00 20.00     0.055 A 
HETATM    3  C3  UNL     1     -33.343  16.965  -3.118  1.00 20.00     0.080 A 
HETATM    4  N9  UNL     1     -33.518  16.770  -1.830  1.00 20.00    -0.248 NA
HETATM    5  S10 UNL     1     -33.277  18.599  -3.642  1.00 20.00    -0.084 SA
ENDROOT
BRANCH   3   6
HETATM    6  C5  UNL     1     -33.208  15.814  -4.086  1.00 20.00     0.049 A 
HETATM    7  C4  UNL     1     -34.039  14.562  -3.903  1.00 20.00     0.016 A 
HETATM    8  C6  UNL     1     -34.339  15.491  -5.040  1.00 20.00    -0.007 A 
HETATM    9  C7  UNL     1     -34.041  15.081  -6.441  1.00 20.00     0.011 C 
ENDBRANCH   3   6
BRANCH   2  10
HETATM   10  C8  UNL     1     -33.806  18.022   0.262  1.00 20.00     0.174 C 
HETATM   11 CL11 UNL     1     -32.288  18.415   1.112  1.00 20.00    -0.124 Cl
ENDBRANCH   2  10
TORSDOF 2
ENDMDL
MODEL 2
REMARK VINA RESULT:      -3.9     11.889     13.118
REMARK  2 active torsions:
REMARK  status: ('A' for Active; 'I' for Inactive)
REMARK    1  A    between atoms: C2_2  and  C8_8 
REMARK    2  A    between atoms: C3_3  and  C5_5 
ROOT
HETATM    1  C1  UNL     1     -43.345  14.198   7.202  1.00 20.00     0.080 A 
HETATM    2  C2  UNL     1     -42.572  13.698   8.229  1.00 20.00     0.055 A 
HETATM    3  C3  UNL     1     -41.147  13.430   6.584  1.00 20.00     0.080 A 
HETATM    4  N9  UNL     1     -41.311  13.257   7.875  1.00 20.00    -0.248 NA
HETATM    5  S10 UNL     1     -42.467  14.120   5.730  1.00 20.00    -0.084 SA
ENDROOT
BRANCH   3   6
HETATM    6  C5  UNL     1     -39.864  13.043   5.886  1.00 20.00     0.049 A 
HETATM    7  C4  UNL     1     -39.004  11.925   6.436  1.00 20.00     0.016 A 
HETATM    8  C6  UNL     1     -39.767  11.715   5.162  1.00 20.00    -0.007 A 
HETATM    9  C7  UNL     1     -39.045  11.624   3.862  1.00 20.00     0.011 C 
ENDBRANCH   3   6
BRANCH   2  10
HETATM   10  C8  UNL     1     -42.978  13.599   9.644  1.00 20.00     0.174 C 
HETATM   11 CL11 UNL     1     -41.600  13.909  10.734  1.00 20.00    -0.124 Cl
ENDBRANCH   2  10
TORSDOF 2
ENDMDL
MODEL 3
REMARK VINA RESULT:      -3.8     12.077     13.828
REMARK  2 active torsions:
REMARK  status: ('A' for Active; 'I' for Inactive)
REMARK    1  A    between atoms: C2_2  and  C8_8 
REMARK    2  A    between atoms: C3_3  and  C5_5 
ROOT
HETATM    1  C1  UNL     1     -41.298  13.551   5.618  1.00 20.00     0.080 A 
HETATM    2  C2  UNL     1     -40.367  12.737   6.228  1.00 20.00     0.055 A 
HETATM    3  C3  UNL     1     -40.522  14.279   7.779  1.00 20.00     0.080 A 
HETATM    4  N9  UNL     1     -39.921  13.153   7.468  1.00 20.00    -0.248 NA
HETATM    5  S10 UNL     1     -41.637  14.895   6.628  1.00 20.00    -0.084 SA
ENDROOT
BRANCH   3   6
HETATM    6  C5  UNL     1     -40.247  14.994   9.081  1.00 20.00     0.049 A 
HETATM    7  C4  UNL     1     -41.262  15.964   9.647  1.00 20.00     0.016 A 
HETATM    8  C6  UNL     1     -41.043  14.643  10.321  1.00 20.00    -0.007 A 
HETATM    9  C7  UNL     1     -40.370  14.580  11.648  1.00 20.00     0.011 C 
ENDBRANCH   3   6
BRANCH   2  10
HETATM   10  C8  UNL     1     -39.823  11.482   5.672  1.00 20.00     0.174 C 
HETATM   11 CL11 UNL     1     -39.070  11.757   4.079  1.00 20.00    -0.124 Cl
ENDBRANCH   2  10
TORSDOF 2
ENDMDL
MODEL 4
REMARK VINA RESULT:      -3.7     11.910     13.472
REMARK  2 active torsions:
REMARK  status: ('A' for Active; 'I' for Inactive)
REMARK    1  A    between atoms: C2_2  and  C8_8 
REMARK    2  A    between atoms: C3_3  and  C5_5 
ROOT
HETATM    1  C1  UNL     1     -41.175  13.432   5.248  1.00 20.00     0.080 A 
HETATM    2  C2  UNL     1     -40.282  12.817   6.102  1.00 20.00     0.055 A 
HETATM    3  C3  UNL     1     -41.127  14.276   7.504  1.00 20.00     0.080 A 
HETATM    4  N9  UNL     1     -40.253  13.301   7.395  1.00 20.00    -0.248 NA
HETATM    5  S10 UNL     1     -42.019  14.665   6.090  1.00 20.00    -0.084 SA
ENDROOT
BRANCH   3   6
HETATM    6  C5  UNL     1     -41.335  15.017   8.804  1.00 20.00     0.049 A 
HETATM    7  C4  UNL     1     -40.184  15.198   9.771  1.00 20.00     0.016 A 
HETATM    8  C6  UNL     1     -40.705  16.379   9.008  1.00 20.00    -0.007 A 
HETATM    9  C7  UNL     1     -41.459  17.454   9.713  1.00 20.00     0.011 C 
ENDBRANCH   3   6
BRANCH   2  10
HETATM   10  C8  UNL     1     -39.376  11.707   5.747  1.00 20.00     0.174 C 
HETATM   11 CL11 UNL     1     -39.028  11.693   3.998  1.00 20.00    -0.124 Cl
ENDBRANCH   2  10
TORSDOF 2
ENDMDL
MODEL 5
REMARK VINA RESULT:      -3.7      2.783      4.994
REMARK  2 active torsions:
REMARK  status: ('A' for Active; 'I' for Inactive)
REMARK    1  A    between atoms: C2_2  and  C8_8 
REMARK    2  A    between atoms: C3_3  and  C5_5 
ROOT
HETATM    1  C1  UNL     1     -34.446  17.314  -5.451  1.00 20.00     0.080 A 
HETATM    2  C2  UNL     1     -34.289  16.035  -4.957  1.00 20.00     0.055 A 
HETATM    3  C3  UNL     1     -33.559  17.152  -3.217  1.00 20.00     0.080 A 
HETATM    4  N9  UNL     1     -33.780  15.941  -3.677  1.00 20.00    -0.248 NA
HETATM    5  S10 UNL     1     -33.940  18.451  -4.272  1.00 20.00    -0.084 SA
ENDROOT
BRANCH   3   6
HETATM    6  C5  UNL     1     -32.998  17.389  -1.835  1.00 20.00     0.049 A 
HETATM    7  C4  UNL     1     -32.351  18.713  -1.492  1.00 20.00     0.016 A 
HETATM    8  C6  UNL     1     -33.682  18.363  -0.898  1.00 20.00    -0.007 A 
HETATM    9  C7  UNL     1     -33.796  18.048   0.554  1.00 20.00     0.011 C 
ENDBRANCH   3   6
BRANCH   2  10
HETATM   10  C8  UNL     1     -34.616  14.788  -5.676  1.00 20.00     0.174 C 
HETATM   11 CL11 UNL     1     -36.102  14.042  -5.029  1.00 20.00    -0.124 Cl
ENDBRANCH   2  10
TORSDOF 2
ENDMDL
MODEL 6
REMARK VINA RESULT:      -3.7      2.695      4.875
REMARK  2 active torsions:
REMARK  status: ('A' for Active; 'I' for Inactive)
REMARK    1  A    between atoms: C2_2  and  C8_8 
REMARK    2  A    between atoms: C3_3  and  C5_5 
ROOT
HETATM    1  C1  UNL     1     -34.292  16.916  -4.980  1.00 20.00     0.080 A 
HETATM    2  C2  UNL     1     -33.893  15.956  -4.074  1.00 20.00     0.055 A 
HETATM    3  C3  UNL     1     -33.670  17.725  -2.798  1.00 20.00     0.080 A 
HETATM    4  N9  UNL     1     -33.535  16.419  -2.822  1.00 20.00    -0.248 NA
HETATM    5  S10 UNL     1     -34.223  18.464  -4.245  1.00 20.00    -0.084 SA
ENDROOT
BRANCH   3   6
HETATM    6  C5  UNL     1     -33.355  18.535  -1.562  1.00 20.00     0.049 A 
HETATM    7  C4  UNL     1     -33.601  17.953  -0.186  1.00 20.00     0.016 A 
HETATM    8  C6  UNL     1     -32.195  18.138  -0.672  1.00 20.00    -0.007 A 
HETATM    9  C7  UNL     1     -31.324  19.185  -0.068  1.00 20.00     0.011 C 
ENDBRANCH   3   6
BRANCH   2  10
HETATM   10  C8  UNL     1     -33.819  14.504  -4.332  1.00 20.00     0.174 C 
HETATM   11 CL11 UNL     1     -35.446  13.806  -4.553  1.00 20.00    -0.124 Cl
ENDBRANCH   2  10
TORSDOF 2
ENDMDL
MODEL 7
REMARK VINA RESULT:      -3.6     12.320     13.261
REMARK  2 active torsions:
REMARK  status: ('A' for Active; 'I' for Inactive)
REMARK    1  A    between atoms: C2_2  and  C8_8 
REMARK    2  A    between atoms: C3_3  and  C5_5 
ROOT
HETATM    1  C1  UNL     1     -40.812  16.317   8.954  1.00 20.00     0.080 A 
HETATM    2  C2  UNL     1     -40.437  15.189   9.654  1.00 20.00     0.055 A 
HETATM    3  C3  UNL     1     -40.885  14.245   7.727  1.00 20.00     0.080 A 
HETATM    4  N9  UNL     1     -40.479  14.000   8.952  1.00 20.00    -0.248 NA
HETATM    5  S10 UNL     1     -41.234  15.883   7.349  1.00 20.00    -0.084 SA
ENDROOT
BRANCH   3   6
HETATM    6  C5  UNL     1     -41.038  13.144   6.704  1.00 20.00     0.049 A 
HETATM    7  C4  UNL     1     -41.225  13.484   5.240  1.00 20.00     0.016 A 
HETATM    8  C6  UNL     1     -39.931  12.883   5.702  1.00 20.00    -0.007 A 
HETATM    9  C7  UNL     1     -39.577  11.485   5.327  1.00 20.00     0.011 C 
ENDBRANCH   3   6
BRANCH   2  10
HETATM   10  C8  UNL     1     -40.004  15.155  11.065  1.00 20.00     0.174 C 
HETATM   11 CL11 UNL     1     -41.026  14.053  12.026  1.00 20.00    -0.124 Cl
ENDBRANCH   2  10
TORSDOF 2
ENDMDL
MODEL 8
REMARK VINA RESULT:      -3.6      3.557      5.428
REMARK  2 active torsions:
REMARK  status: ('A' for Active; 'I' for Inactive)
REMARK    1  A    between atoms: C2_2  and  C8_8 
REMARK    2  A    between atoms: C3_3  and  C5_5 
ROOT
HETATM    1  C1  UNL     1     -34.475  15.010  -5.621  1.00 20.00     0.080 A 
HETATM    2  C2  UNL     1     -34.864  16.333  -5.666  1.00 20.00     0.055 A 
HETATM    3  C3  UNL     1     -33.739  16.384  -3.784  1.00 20.00     0.080 A 
HETATM    4  N9  UNL     1     -34.443  17.122  -4.612  1.00 20.00    -0.248 NA
HETATM    5  S10 UNL     1     -33.542  14.733  -4.209  1.00 20.00    -0.084 SA
ENDROOT
BRANCH   3   6
HETATM    6  C5  UNL     1     -33.134  16.958  -2.524  1.00 20.00     0.049 A 
HETATM    7  C4  UNL     1     -32.822  18.437  -2.434  1.00 20.00     0.016 A 
HETATM    8  C6  UNL     1     -33.958  17.869  -1.637  1.00 20.00    -0.007 A 
HETATM    9  C7  UNL     1     -33.854  17.762  -0.155  1.00 20.00     0.011 C 
ENDBRANCH   3   6
BRANCH   2  10
HETATM   10  C8  UNL     1     -35.678  16.957  -6.728  1.00 20.00     0.174 C 
HETATM   11 CL11 UNL     1     -36.226  15.744  -7.915  1.00 20.00    -0.124 Cl
ENDBRANCH   2  10
TORSDOF 2
ENDMDL
MODEL 9
REMARK VINA RESULT:      -3.5      2.224      3.152
REMARK  2 active torsions:
REMARK  status: ('A' for Active; 'I' for Inactive)
REMARK    1  A    between atoms: C2_2  and  C8_8 
REMARK    2  A    between atoms: C3_3  and  C5_5 
ROOT
HETATM    1  C1  UNL     1     -33.130  19.245   1.451  1.00 20.00     0.080 A 
HETATM    2  C2  UNL     1     -31.977  18.764   0.866  1.00 20.00     0.055 A 
HETATM    3  C3  UNL     1     -33.391  18.268  -0.736  1.00 20.00     0.080 A 
HETATM    4  N9  UNL     1     -32.125  18.203  -0.388  1.00 20.00    -0.248 NA
HETATM    5  S10 UNL     1     -34.458  18.992   0.396  1.00 20.00    -0.084 SA
ENDROOT
BRANCH   3   6
HETATM    6  C5  UNL     1     -33.880  17.735  -2.061  1.00 20.00     0.049 A 
HETATM    7  C4  UNL     1     -33.173  18.116  -3.344  1.00 20.00     0.016 A 
HETATM    8  C6  UNL     1     -33.053  16.716  -2.819  1.00 20.00    -0.007 A 
HETATM    9  C7  UNL     1     -33.722  15.590  -3.528  1.00 20.00     0.011 C 
ENDBRANCH   3   6
BRANCH   2  10
HETATM   10  C8  UNL     1     -30.628  18.801   1.463  1.00 20.00     0.174 C 
HETATM   11 CL11 UNL     1     -30.712  18.856   3.244  1.00 20.00    -0.124 Cl
ENDBRANCH   2  10
TORSDOF 2
ENDMDL
