MODEL 1
REMARK VINA RESULT:      -3.9      0.000      0.000
REMARK  1 active torsions:
REMARK  status: ('A' for Active; 'I' for Inactive)
REMARK    1  A    between atoms: C3_3  and  C4_4 
ROOT
HETATM    1  C1  UNL     1     -34.346   6.162   5.781  1.00 20.00     0.064 C 
HETATM    2  C4  UNL     1     -34.415   7.319   4.879  1.00 20.00     0.175 C 
HETATM    3  N5  UNL     1     -34.294   5.248   6.495  1.00 20.00    -0.197 NA
ENDROOT
BRANCH   2   4
HETATM    4  C3  UNL     1     -33.068   7.599   4.275  1.00 20.00     0.035 C 
HETATM    5  C2  UNL     1     -32.426   6.860   3.363  1.00 20.00     0.105 C 
HETATM    6 CL6  UNL     1     -33.036   5.430   2.642  1.00 20.00    -0.096 Cl
HETATM    7 CL7  UNL     1     -32.272   9.019   4.893  1.00 20.00    -0.087 Cl
ENDBRANCH   2   4
TORSDOF 1
ENDMDL
MODEL 2
REMARK VINA RESULT:      -3.8      0.582      2.380
REMARK  1 active torsions:
REMARK  status: ('A' for Active; 'I' for Inactive)
REMARK    1  A    between atoms: C3_3  and  C4_4 
ROOT
HETATM    1  C1  UNL     1     -34.478   5.809   5.652  1.00 20.00     0.064 C 
HETATM    2  C4  UNL     1     -34.526   6.743   4.520  1.00 20.00     0.175 C 
HETATM    3  N5  UNL     1     -34.443   5.072   6.548  1.00 20.00    -0.197 NA
ENDROOT
BRANCH   2   4
HETATM    4  C3  UNL     1     -33.218   6.744   3.780  1.00 20.00     0.035 C 
HETATM    5  C2  UNL     1     -32.264   7.681   3.834  1.00 20.00     0.105 C 
HETATM    6 CL6  UNL     1     -32.314   9.087   4.813  1.00 20.00    -0.096 Cl
HETATM    7 CL7  UNL     1     -32.983   5.389   2.713  1.00 20.00    -0.087 Cl
ENDBRANCH   2   4
TORSDOF 1
ENDMDL
MODEL 3
REMARK VINA RESULT:      -3.7      1.926      2.032
REMARK  1 active torsions:
REMARK  status: ('A' for Active; 'I' for Inactive)
REMARK    1  A    between atoms: C3_3  and  C4_4 
ROOT
HETATM    1  C1  UNL     1     -34.328   4.951   4.458  1.00 20.00     0.064 C 
HETATM    2  C4  UNL     1     -34.772   6.349   4.374  1.00 20.00     0.175 C 
HETATM    3  N5  UNL     1     -33.982   3.845   4.524  1.00 20.00    -0.197 NA
ENDROOT
BRANCH   2   4
HETATM    4  C3  UNL     1     -33.788   7.257   5.058  1.00 20.00     0.035 C 
HETATM    5  C2  UNL     1     -32.711   7.833   4.511  1.00 20.00     0.105 C 
HETATM    6 CL6  UNL     1     -32.239   7.689   2.870  1.00 20.00    -0.096 Cl
HETATM    7 CL7  UNL     1     -34.092   7.519   6.752  1.00 20.00    -0.087 Cl
ENDBRANCH   2   4
TORSDOF 1
ENDMDL
MODEL 4
REMARK VINA RESULT:      -3.7      2.526      2.878
REMARK  1 active torsions:
REMARK  status: ('A' for Active; 'I' for Inactive)
REMARK    1  A    between atoms: C3_3  and  C4_4 
ROOT
HETATM    1  C1  UNL     1     -33.096   8.058   4.718  1.00 20.00     0.064 C 
HETATM    2  C4  UNL     1     -34.387   7.367   4.593  1.00 20.00     0.175 C 
HETATM    3  N5  UNL     1     -32.079   8.607   4.816  1.00 20.00    -0.197 NA
ENDROOT
BRANCH   2   4
HETATM    4  C3  UNL     1     -34.237   5.907   4.916  1.00 20.00     0.035 C 
HETATM    5  C2  UNL     1     -33.724   4.957   4.125  1.00 20.00     0.105 C 
HETATM    6 CL6  UNL     1     -33.075   5.216   2.560  1.00 20.00    -0.096 Cl
HETATM    7 CL7  UNL     1     -34.855   5.437   6.474  1.00 20.00    -0.087 Cl
ENDBRANCH   2   4
TORSDOF 1
ENDMDL
MODEL 5
REMARK VINA RESULT:      -3.5      2.807      3.384
REMARK  1 active torsions:
REMARK  status: ('A' for Active; 'I' for Inactive)
REMARK    1  A    between atoms: C3_3  and  C4_4 
ROOT
HETATM    1  C1  UNL     1     -32.463   7.355   2.632  1.00 20.00     0.064 C 
HETATM    2  C4  UNL     1     -33.002   6.550   3.736  1.00 20.00     0.175 C 
HETATM    3  N5  UNL     1     -32.036   7.989   1.758  1.00 20.00    -0.197 NA
ENDROOT
BRANCH   2   4
HETATM    4  C3  UNL     1     -33.185   7.395   4.965  1.00 20.00     0.035 C 
HETATM    5  C2  UNL     1     -33.902   7.088   6.053  1.00 20.00     0.105 C 
HETATM    6 CL6  UNL     1     -34.746   5.617   6.298  1.00 20.00    -0.096 Cl
HETATM    7 CL7  UNL     1     -32.405   8.951   4.905  1.00 20.00    -0.087 Cl
ENDBRANCH   2   4
TORSDOF 1
ENDMDL
MODEL 6
REMARK VINA RESULT:      -3.4      1.870      2.023
REMARK  1 active torsions:
REMARK  status: ('A' for Active; 'I' for Inactive)
REMARK    1  A    between atoms: C3_3  and  C4_4 
ROOT
HETATM    1  C1  UNL     1     -34.091   5.282   4.218  1.00 20.00     0.064 C 
HETATM    2  C4  UNL     1     -33.120   5.932   3.328  1.00 20.00     0.175 C 
HETATM    3  N5  UNL     1     -34.859   4.765   4.919  1.00 20.00    -0.197 NA
ENDROOT
BRANCH   2   4
HETATM    4  C3  UNL     1     -32.872   7.349   3.763  1.00 20.00     0.035 C 
HETATM    5  C2  UNL     1     -32.443   8.361   2.999  1.00 20.00     0.105 C 
HETATM    6 CL6  UNL     1     -32.120   8.265   1.319  1.00 20.00    -0.096 Cl
HETATM    7 CL7  UNL     1     -33.134   7.649   5.457  1.00 20.00    -0.087 Cl
ENDBRANCH   2   4
TORSDOF 1
ENDMDL
MODEL 7
REMARK VINA RESULT:      -3.4      2.813      3.605
REMARK  1 active torsions:
REMARK  status: ('A' for Active; 'I' for Inactive)
REMARK    1  A    between atoms: C3_3  and  C4_4 
ROOT
HETATM    1  C1  UNL     1     -32.766   8.334   3.656  1.00 20.00     0.064 C 
HETATM    2  C4  UNL     1     -33.120   7.440   4.766  1.00 20.00     0.175 C 
HETATM    3  N5  UNL     1     -32.486   9.044   2.781  1.00 20.00    -0.197 NA
ENDROOT
BRANCH   2   4
HETATM    4  C3  UNL     1     -33.574   6.106   4.245  1.00 20.00     0.035 C 
HETATM    5  C2  UNL     1     -34.344   5.214   4.880  1.00 20.00     0.105 C 
HETATM    6 CL6  UNL     1     -35.026   5.428   6.438  1.00 20.00    -0.096 Cl
HETATM    7 CL7  UNL     1     -32.970   5.695   2.665  1.00 20.00    -0.087 Cl
ENDBRANCH   2   4
TORSDOF 1
ENDMDL
MODEL 8
REMARK VINA RESULT:      -3.3      2.400      2.809
REMARK  1 active torsions:
REMARK  status: ('A' for Active; 'I' for Inactive)
REMARK    1  A    between atoms: C3_3  and  C4_4 
ROOT
HETATM    1  C1  UNL     1     -33.350   5.900   3.205  1.00 20.00     0.064 C 
HETATM    2  C4  UNL     1     -34.089   7.018   3.804  1.00 20.00     0.175 C 
HETATM    3  N5  UNL     1     -32.768   5.015   2.729  1.00 20.00    -0.197 NA
ENDROOT
BRANCH   2   4
HETATM    4  C3  UNL     1     -33.467   7.423   5.111  1.00 20.00     0.035 C 
HETATM    5  C2  UNL     1     -33.675   6.864   6.308  1.00 20.00     0.105 C 
HETATM    6 CL6  UNL     1     -34.683   5.510   6.606  1.00 20.00    -0.096 Cl
HETATM    7 CL7  UNL     1     -32.409   8.803   5.019  1.00 20.00    -0.087 Cl
ENDBRANCH   2   4
TORSDOF 1
ENDMDL
MODEL 9
REMARK VINA RESULT:      -3.2     15.878     16.600
REMARK  1 active torsions:
REMARK  status: ('A' for Active; 'I' for Inactive)
REMARK    1  A    between atoms: C3_3  and  C4_4 
ROOT
HETATM    1  C1  UNL     1     -21.837  17.921   8.338  1.00 20.00     0.064 C 
HETATM    2  C4  UNL     1     -22.041  19.071   9.230  1.00 20.00     0.175 C 
HETATM    3  N5  UNL     1     -21.673  17.014   7.632  1.00 20.00    -0.197 NA
ENDROOT
BRANCH   2   4
HETATM    4  C3  UNL     1     -23.222  18.837  10.130  1.00 20.00     0.035 C 
HETATM    5  C2  UNL     1     -24.515  18.916   9.796  1.00 20.00     0.105 C 
HETATM    6 CL6  UNL     1     -25.113  19.263   8.227  1.00 20.00    -0.096 Cl
HETATM    7 CL7  UNL     1     -22.818  18.480  11.785  1.00 20.00    -0.087 Cl
ENDBRANCH   2   4
TORSDOF 1
ENDMDL
