MODEL 1
REMARK VINA RESULT:      -3.9      0.000      0.000
REMARK  4 active torsions:
REMARK  status: ('A' for Active; 'I' for Inactive)
REMARK    1  A    between atoms: C5_5  and  C7_7 
REMARK    2  A    between atoms: C6_6  and  C7_7 
REMARK    3  A    between atoms: C6_6  and  C8_8 
REMARK    4  A    between atoms: C8_8  and  N9_9 
ROOT
HETATM    1  C1  UNL     1     -30.916  18.628   0.441  1.00 20.00     0.158 C 
HETATM    2  N9  UNL     1     -31.153  18.782  -0.698  1.00 20.00    -0.271 NA
HETATM    3  S10 UNL     1     -30.567  18.438   1.983  1.00 20.00    -0.055 SA
ENDROOT
BRANCH   2   4
HETATM    4  C8  UNL     1     -32.369  18.109  -1.169  1.00 20.00     0.106 C 
HETATM    5  C4  UNL     1     -33.456  18.316  -0.119  1.00 20.00     0.034 C 
BRANCH   4   6
HETATM    6  C6  UNL     1     -32.790  18.703  -2.520  1.00 20.00     0.031 C 
BRANCH   6   7
HETATM    7  C7  UNL     1     -33.370  17.688  -3.532  1.00 20.00    -0.017 C 
HETATM    8  C3  UNL     1     -34.822  18.014  -3.899  1.00 20.00     0.010 C 
BRANCH   7   9
HETATM    9  C5  UNL     1     -33.306  16.244  -2.988  1.00 20.00    -0.000 C 
HETATM   10  C2  UNL     1     -33.448  15.172  -4.059  1.00 20.00     0.005 C 
ENDBRANCH   7   9
ENDBRANCH   6   7
ENDBRANCH   4   6
ENDBRANCH   2   4
TORSDOF 4
ENDMDL
MODEL 2
REMARK VINA RESULT:      -3.9     11.899     12.630
REMARK  4 active torsions:
REMARK  status: ('A' for Active; 'I' for Inactive)
REMARK    1  A    between atoms: C5_5  and  C7_7 
REMARK    2  A    between atoms: C6_6  and  C7_7 
REMARK    3  A    between atoms: C6_6  and  C8_8 
REMARK    4  A    between atoms: C8_8  and  N9_9 
ROOT
HETATM    1  C1  UNL     1     -32.351   8.011   2.380  1.00 20.00     0.158 C 
HETATM    2  N9  UNL     1     -32.141   7.310   3.298  1.00 20.00    -0.271 NA
HETATM    3  S10 UNL     1     -32.622   8.940   1.115  1.00 20.00    -0.055 SA
ENDROOT
BRANCH   2   4
HETATM    4  C8  UNL     1     -32.603   7.832   4.588  1.00 20.00     0.106 C 
HETATM    5  C4  UNL     1     -32.038   9.239   4.755  1.00 20.00     0.034 C 
BRANCH   4   6
HETATM    6  C6  UNL     1     -34.137   7.849   4.612  1.00 20.00     0.031 C 
BRANCH   6   7
HETATM    7  C7  UNL     1     -34.796   6.684   5.387  1.00 20.00    -0.017 C 
HETATM    8  C3  UNL     1     -33.913   6.193   6.539  1.00 20.00     0.010 C 
BRANCH   7   9
HETATM    9  C5  UNL     1     -35.112   5.491   4.457  1.00 20.00    -0.000 C 
HETATM   10  C2  UNL     1     -34.049   4.402   4.466  1.00 20.00     0.005 C 
ENDBRANCH   7   9
ENDBRANCH   6   7
ENDBRANCH   4   6
ENDBRANCH   2   4
TORSDOF 4
ENDMDL
MODEL 3
REMARK VINA RESULT:      -3.9     12.482     13.509
REMARK  4 active torsions:
REMARK  status: ('A' for Active; 'I' for Inactive)
REMARK    1  A    between atoms: C5_5  and  C7_7 
REMARK    2  A    between atoms: C6_6  and  C7_7 
REMARK    3  A    between atoms: C6_6  and  C8_8 
REMARK    4  A    between atoms: C8_8  and  N9_9 
ROOT
HETATM    1  C1  UNL     1     -32.315   7.582   3.518  1.00 20.00     0.158 C 
HETATM    2  N9  UNL     1     -32.197   6.685   2.770  1.00 20.00    -0.271 NA
HETATM    3  S10 UNL     1     -32.445   8.811   4.523  1.00 20.00    -0.055 SA
ENDROOT
BRANCH   2   4
HETATM    4  C8  UNL     1     -33.273   5.690   2.829  1.00 20.00     0.106 C 
HETATM    5  C4  UNL     1     -32.992   4.633   1.766  1.00 20.00     0.034 C 
BRANCH   4   6
HETATM    6  C6  UNL     1     -33.313   5.065   4.229  1.00 20.00     0.031 C 
BRANCH   6   7
HETATM    7  C7  UNL     1     -34.704   5.058   4.907  1.00 20.00    -0.017 C 
HETATM    8  C3  UNL     1     -35.670   6.041   4.237  1.00 20.00     0.010 C 
BRANCH   7   9
HETATM    9  C5  UNL     1     -34.605   5.402   6.409  1.00 20.00    -0.000 C 
HETATM   10  C2  UNL     1     -34.268   6.861   6.688  1.00 20.00     0.005 C 
ENDBRANCH   7   9
ENDBRANCH   6   7
ENDBRANCH   4   6
ENDBRANCH   2   4
TORSDOF 4
ENDMDL
MODEL 4
REMARK VINA RESULT:      -3.7      2.884      4.750
REMARK  4 active torsions:
REMARK  status: ('A' for Active; 'I' for Inactive)
REMARK    1  A    between atoms: C5_5  and  C7_7 
REMARK    2  A    between atoms: C6_6  and  C7_7 
REMARK    3  A    between atoms: C6_6  and  C8_8 
REMARK    4  A    between atoms: C8_8  and  N9_9 
ROOT
HETATM    1  C1  UNL     1     -33.451  15.833  -3.486  1.00 20.00     0.158 C 
HETATM    2  N9  UNL     1     -33.325  16.643  -2.647  1.00 20.00    -0.271 NA
HETATM    3  S10 UNL     1     -33.624  14.710  -4.602  1.00 20.00    -0.055 SA
ENDROOT
BRANCH   2   4
HETATM    4  C8  UNL     1     -33.144  18.014  -3.138  1.00 20.00     0.106 C 
HETATM    5  C4  UNL     1     -34.433  18.436  -3.835  1.00 20.00     0.034 C 
BRANCH   4   6
HETATM    6  C6  UNL     1     -32.828  18.941  -1.957  1.00 20.00     0.031 C 
BRANCH   6   7
HETATM    7  C7  UNL     1     -32.506  18.223  -0.625  1.00 20.00    -0.017 C 
HETATM    8  C3  UNL     1     -33.490  18.611   0.485  1.00 20.00     0.010 C 
BRANCH   7   9
HETATM    9  C5  UNL     1     -31.070  18.530  -0.148  1.00 20.00    -0.000 C 
HETATM   10  C2  UNL     1     -30.920  18.587   1.366  1.00 20.00     0.005 C 
ENDBRANCH   7   9
ENDBRANCH   6   7
ENDBRANCH   4   6
ENDBRANCH   2   4
TORSDOF 4
ENDMDL
MODEL 5
REMARK VINA RESULT:      -3.6      1.555      2.070
REMARK  4 active torsions:
REMARK  status: ('A' for Active; 'I' for Inactive)
REMARK    1  A    between atoms: C5_5  and  C7_7 
REMARK    2  A    between atoms: C6_6  and  C7_7 
REMARK    3  A    between atoms: C6_6  and  C8_8 
REMARK    4  A    between atoms: C8_8  and  N9_9 
ROOT
HETATM    1  C1  UNL     1     -30.975  18.717   2.362  1.00 20.00     0.158 C 
HETATM    2  N9  UNL     1     -32.039  18.431   1.958  1.00 20.00    -0.271 NA
HETATM    3  S10 UNL     1     -29.539  19.092   2.940  1.00 20.00    -0.055 SA
ENDROOT
BRANCH   2   4
HETATM    4  C8  UNL     1     -32.309  18.860   0.582  1.00 20.00     0.106 C 
HETATM    5  C4  UNL     1     -31.073  18.551  -0.257  1.00 20.00     0.034 C 
BRANCH   4   6
HETATM    6  C6  UNL     1     -33.537  18.112   0.046  1.00 20.00     0.031 C 
BRANCH   6   7
HETATM    7  C7  UNL     1     -33.663  18.073  -1.495  1.00 20.00    -0.017 C 
HETATM    8  C3  UNL     1     -34.959  18.731  -1.980  1.00 20.00     0.010 C 
BRANCH   7   9
HETATM    9  C5  UNL     1     -33.608  16.626  -2.032  1.00 20.00    -0.000 C 
HETATM   10  C2  UNL     1     -33.263  16.527  -3.511  1.00 20.00     0.005 C 
ENDBRANCH   7   9
ENDBRANCH   6   7
ENDBRANCH   4   6
ENDBRANCH   2   4
TORSDOF 4
ENDMDL
MODEL 6
REMARK VINA RESULT:      -3.5     12.688     13.481
REMARK  4 active torsions:
REMARK  status: ('A' for Active; 'I' for Inactive)
REMARK    1  A    between atoms: C5_5  and  C7_7 
REMARK    2  A    between atoms: C6_6  and  C7_7 
REMARK    3  A    between atoms: C6_6  and  C8_8 
REMARK    4  A    between atoms: C8_8  and  N9_9 
ROOT
HETATM    1  C1  UNL     1     -33.761   4.724   3.613  1.00 20.00     0.158 C 
HETATM    2  N9  UNL     1     -34.419   4.476   4.553  1.00 20.00    -0.271 NA
HETATM    3  S10 UNL     1     -32.865   5.030   2.332  1.00 20.00    -0.055 SA
ENDROOT
BRANCH   2   4
HETATM    4  C8  UNL     1     -34.904   5.646   5.290  1.00 20.00     0.106 C 
HETATM    5  C4  UNL     1     -34.351   5.569   6.710  1.00 20.00     0.034 C 
BRANCH   4   6
HETATM    6  C6  UNL     1     -34.433   6.925   4.586  1.00 20.00     0.031 C 
BRANCH   6   7
HETATM    7  C7  UNL     1     -33.317   7.707   5.319  1.00 20.00    -0.017 C 
HETATM    8  C3  UNL     1     -33.852   8.983   5.978  1.00 20.00     0.010 C 
BRANCH   7   9
HETATM    9  C5  UNL     1     -32.167   8.086   4.361  1.00 20.00    -0.000 C 
HETATM   10  C2  UNL     1     -32.626   8.787   3.090  1.00 20.00     0.005 C 
ENDBRANCH   7   9
ENDBRANCH   6   7
ENDBRANCH   4   6
ENDBRANCH   2   4
TORSDOF 4
ENDMDL
MODEL 7
REMARK VINA RESULT:      -3.5     12.098     13.087
REMARK  4 active torsions:
REMARK  status: ('A' for Active; 'I' for Inactive)
REMARK    1  A    between atoms: C5_5  and  C7_7 
REMARK    2  A    between atoms: C6_6  and  C7_7 
REMARK    3  A    between atoms: C6_6  and  C8_8 
REMARK    4  A    between atoms: C8_8  and  N9_9 
ROOT
HETATM    1  C1  UNL     1     -40.653  14.388  10.475  1.00 20.00     0.158 C 
HETATM    2  N9  UNL     1     -40.822  13.709   9.533  1.00 20.00    -0.271 NA
HETATM    3  S10 UNL     1     -40.412  15.283  11.771  1.00 20.00    -0.055 SA
ENDROOT
BRANCH   2   4
HETATM    4  C8  UNL     1     -41.376  14.405   8.366  1.00 20.00     0.106 C 
HETATM    5  C4  UNL     1     -40.344  15.424   7.895  1.00 20.00     0.034 C 
BRANCH   4   6
HETATM    6  C6  UNL     1     -41.684  13.384   7.263  1.00 20.00     0.031 C 
BRANCH   6   7
HETATM    7  C7  UNL     1     -40.701  13.390   6.068  1.00 20.00    -0.017 C 
HETATM    8  C3  UNL     1     -41.419  13.653   4.740  1.00 20.00     0.010 C 
BRANCH   7   9
HETATM    9  C5  UNL     1     -39.928  12.057   5.962  1.00 20.00    -0.000 C 
HETATM   10  C2  UNL     1     -39.327  11.798   4.588  1.00 20.00     0.005 C 
ENDBRANCH   7   9
ENDBRANCH   6   7
ENDBRANCH   4   6
ENDBRANCH   2   4
TORSDOF 4
ENDMDL
MODEL 8
REMARK VINA RESULT:      -3.4     11.431     12.267
REMARK  4 active torsions:
REMARK  status: ('A' for Active; 'I' for Inactive)
REMARK    1  A    between atoms: C5_5  and  C7_7 
REMARK    2  A    between atoms: C6_6  and  C7_7 
REMARK    3  A    between atoms: C6_6  and  C8_8 
REMARK    4  A    between atoms: C8_8  and  N9_9 
ROOT
HETATM    1  C1  UNL     1     -32.743   9.129   1.754  1.00 20.00     0.158 C 
HETATM    2  N9  UNL     1     -32.900   9.380   2.890  1.00 20.00    -0.271 NA
HETATM    3  S10 UNL     1     -32.542   8.818   0.205  1.00 20.00    -0.055 SA
ENDROOT
BRANCH   2   4
HETATM    4  C8  UNL     1     -32.549   8.295   3.813  1.00 20.00     0.106 C 
HETATM    5  C4  UNL     1     -32.203   8.921   5.161  1.00 20.00     0.034 C 
BRANCH   4   6
HETATM    6  C6  UNL     1     -33.735   7.331   3.942  1.00 20.00     0.031 C 
BRANCH   6   7
HETATM    7  C7  UNL     1     -33.359   5.833   4.027  1.00 20.00    -0.017 C 
HETATM    8  C3  UNL     1     -33.079   5.236   2.643  1.00 20.00     0.010 C 
BRANCH   7   9
HETATM    9  C5  UNL     1     -34.470   5.007   4.711  1.00 20.00    -0.000 C 
HETATM   10  C2  UNL     1     -34.756   5.424   6.147  1.00 20.00     0.005 C 
ENDBRANCH   7   9
ENDBRANCH   6   7
ENDBRANCH   4   6
ENDBRANCH   2   4
TORSDOF 4
ENDMDL
MODEL 9
REMARK VINA RESULT:      -3.4     11.604     12.547
REMARK  4 active torsions:
REMARK  status: ('A' for Active; 'I' for Inactive)
REMARK    1  A    between atoms: C5_5  and  C7_7 
REMARK    2  A    between atoms: C6_6  and  C7_7 
REMARK    3  A    between atoms: C6_6  and  C8_8 
REMARK    4  A    between atoms: C8_8  and  N9_9 
ROOT
HETATM    1  C1  UNL     1     -32.300   8.256   1.312  1.00 20.00     0.158 C 
HETATM    2  N9  UNL     1     -31.919   7.376   1.988  1.00 20.00    -0.271 NA
HETATM    3  S10 UNL     1     -32.788   9.453   0.381  1.00 20.00    -0.055 SA
ENDROOT
BRANCH   2   4
HETATM    4  C8  UNL     1     -32.926   6.819   2.898  1.00 20.00     0.106 C 
HETATM    5  C4  UNL     1     -32.877   5.299   2.778  1.00 20.00     0.034 C 
BRANCH   4   6
HETATM    6  C6  UNL     1     -32.619   7.267   4.333  1.00 20.00     0.031 C 
BRANCH   6   7
HETATM    7  C7  UNL     1     -33.860   7.570   5.207  1.00 20.00    -0.017 C 
HETATM    8  C3  UNL     1     -33.812   8.984   5.796  1.00 20.00     0.010 C 
BRANCH   7   9
HETATM    9  C5  UNL     1     -34.002   6.553   6.361  1.00 20.00    -0.000 C 
HETATM   10  C2  UNL     1     -34.770   5.294   5.985  1.00 20.00     0.005 C 
ENDBRANCH   7   9
ENDBRANCH   6   7
ENDBRANCH   4   6
ENDBRANCH   2   4
TORSDOF 4
ENDMDL
