MODEL 1
REMARK VINA RESULT:      -4.4      0.000      0.000
REMARK  3 active torsions:
REMARK  status: ('A' for Active; 'I' for Inactive)
REMARK    1  A    between atoms: C1_1  and  C3_3 
REMARK    2  A    between atoms: C1_1  and  C8_8 
REMARK    3  A    between atoms: C8_8  and  C9_9 
ROOT
HETATM    1  C1  UNL     1     -33.228   7.934   5.131  1.00 20.00     0.131 C 
HETATM    2  O10 UNL     1     -33.894   8.946   5.339  1.00 20.00    -0.298 OA
ENDROOT
BRANCH   1   3
HETATM    3  C3  UNL     1     -33.384   6.712   5.998  1.00 20.00     0.059 A 
HETATM    4  C2  UNL     1     -34.572   6.635   6.893  1.00 20.00     0.017 A 
HETATM    5  C4  UNL     1     -34.464   5.730   5.699  1.00 20.00    -0.007 A 
HETATM    6  C5  UNL     1     -35.418   5.877   4.563  1.00 20.00     0.011 C 
ENDBRANCH   1   3
BRANCH   1   7
HETATM    7  C8  UNL     1     -32.181   7.845   4.032  1.00 20.00     0.082 C 
BRANCH   7   8
HETATM    8  C9  UNL     1     -32.729   7.338   2.690  1.00 20.00    -0.016 C 
HETATM    9  C6  UNL     1     -32.549   5.825   2.549  1.00 20.00     0.010 C 
HETATM   10  C7  UNL     1     -32.025   8.051   1.534  1.00 20.00     0.010 C 
ENDBRANCH   7   8
ENDBRANCH   1   7
TORSDOF 3
ENDMDL
MODEL 2
REMARK VINA RESULT:      -4.3      0.962      3.919
REMARK  3 active torsions:
REMARK  status: ('A' for Active; 'I' for Inactive)
REMARK    1  A    between atoms: C1_1  and  C3_3 
REMARK    2  A    between atoms: C1_1  and  C8_8 
REMARK    3  A    between atoms: C8_8  and  C9_9 
ROOT
HETATM    1  C1  UNL     1     -32.625   8.343   4.384  1.00 20.00     0.131 C 
HETATM    2  O10 UNL     1     -32.119   9.268   5.017  1.00 20.00    -0.298 OA
ENDROOT
BRANCH   1   3
HETATM    3  C3  UNL     1     -31.857   7.642   3.293  1.00 20.00     0.059 A 
HETATM    4  C2  UNL     1     -32.622   6.819   2.316  1.00 20.00     0.017 A 
HETATM    5  C4  UNL     1     -31.985   8.109   1.884  1.00 20.00    -0.007 A 
HETATM    6  C5  UNL     1     -32.838   9.261   1.475  1.00 20.00     0.011 C 
ENDBRANCH   1   3
BRANCH   1   7
HETATM    7  C8  UNL     1     -34.050   7.866   4.611  1.00 20.00     0.082 C 
BRANCH   7   8
HETATM    8  C9  UNL     1     -34.145   6.472   5.247  1.00 20.00    -0.016 C 
HETATM    9  C6  UNL     1     -35.288   5.657   4.637  1.00 20.00     0.010 C 
HETATM   10  C7  UNL     1     -34.351   6.597   6.757  1.00 20.00     0.010 C 
ENDBRANCH   7   8
ENDBRANCH   1   7
TORSDOF 3
ENDMDL
MODEL 3
REMARK VINA RESULT:      -4.3      1.367      2.435
REMARK  3 active torsions:
REMARK  status: ('A' for Active; 'I' for Inactive)
REMARK    1  A    between atoms: C1_1  and  C3_3 
REMARK    2  A    between atoms: C1_1  and  C8_8 
REMARK    3  A    between atoms: C8_8  and  C9_9 
ROOT
HETATM    1  C1  UNL     1     -33.872   6.864   5.898  1.00 20.00     0.131 C 
HETATM    2  O10 UNL     1     -33.131   6.844   6.879  1.00 20.00    -0.298 OA
ENDROOT
BRANCH   1   3
HETATM    3  C3  UNL     1     -34.805   5.717   5.609  1.00 20.00     0.059 A 
HETATM    4  C2  UNL     1     -35.653   5.794   4.387  1.00 20.00     0.017 A 
HETATM    5  C4  UNL     1     -34.522   4.809   4.462  1.00 20.00    -0.007 A 
HETATM    6  C5  UNL     1     -33.341   4.960   3.565  1.00 20.00     0.011 C 
ENDBRANCH   1   3
BRANCH   1   7
HETATM    7  C8  UNL     1     -33.881   8.003   4.891  1.00 20.00     0.082 C 
BRANCH   7   8
HETATM    8  C9  UNL     1     -32.497   8.332   4.313  1.00 20.00    -0.016 C 
HETATM    9  C6  UNL     1     -31.877   9.549   5.004  1.00 20.00     0.010 C 
HETATM   10  C7  UNL     1     -32.606   8.594   2.810  1.00 20.00     0.010 C 
ENDBRANCH   7   8
ENDBRANCH   1   7
TORSDOF 3
ENDMDL
MODEL 4
REMARK VINA RESULT:      -4.1      1.051      3.778
REMARK  3 active torsions:
REMARK  status: ('A' for Active; 'I' for Inactive)
REMARK    1  A    between atoms: C1_1  and  C3_3 
REMARK    2  A    between atoms: C1_1  and  C8_8 
REMARK    3  A    between atoms: C8_8  and  C9_9 
ROOT
HETATM    1  C1  UNL     1     -33.634   7.693   4.643  1.00 20.00     0.131 C 
HETATM    2  O10 UNL     1     -33.761   8.614   5.449  1.00 20.00    -0.298 OA
ENDROOT
BRANCH   1   3
HETATM    3  C3  UNL     1     -32.324   7.458   3.936  1.00 20.00     0.059 A 
HETATM    4  C2  UNL     1     -32.354   6.759   2.622  1.00 20.00     0.017 A 
HETATM    5  C4  UNL     1     -32.012   8.219   2.694  1.00 20.00    -0.007 A 
HETATM    6  C5  UNL     1     -32.929   9.230   2.096  1.00 20.00     0.011 C 
ENDBRANCH   1   3
BRANCH   1   7
HETATM    7  C8  UNL     1     -34.774   6.759   4.268  1.00 20.00     0.082 C 
BRANCH   7   8
HETATM    8  C9  UNL     1     -34.876   5.513   5.160  1.00 20.00    -0.016 C 
HETATM    9  C6  UNL     1     -34.327   5.784   6.563  1.00 20.00     0.010 C 
HETATM   10  C7  UNL     1     -34.112   4.350   4.524  1.00 20.00     0.010 C 
ENDBRANCH   7   8
ENDBRANCH   1   7
TORSDOF 3
ENDMDL
MODEL 5
REMARK VINA RESULT:      -4.1      1.873      2.759
REMARK  3 active torsions:
REMARK  status: ('A' for Active; 'I' for Inactive)
REMARK    1  A    between atoms: C1_1  and  C3_3 
REMARK    2  A    between atoms: C1_1  and  C8_8 
REMARK    3  A    between atoms: C8_8  and  C9_9 
ROOT
HETATM    1  C1  UNL     1     -33.363   5.949   3.547  1.00 20.00     0.131 C 
HETATM    2  O10 UNL     1     -33.209   4.800   3.135  1.00 20.00    -0.298 OA
ENDROOT
BRANCH   1   3
HETATM    3  C3  UNL     1     -34.611   6.341   4.296  1.00 20.00     0.059 A 
HETATM    4  C2  UNL     1     -35.449   5.257   4.878  1.00 20.00     0.017 A 
HETATM    5  C4  UNL     1     -34.666   6.173   5.775  1.00 20.00    -0.007 A 
HETATM    6  C5  UNL     1     -33.535   5.635   6.584  1.00 20.00     0.011 C 
ENDBRANCH   1   3
BRANCH   1   7
HETATM    7  C8  UNL     1     -32.351   7.057   3.306  1.00 20.00     0.082 C 
BRANCH   7   8
HETATM    8  C9  UNL     1     -32.888   8.465   3.603  1.00 20.00    -0.016 C 
HETATM    9  C6  UNL     1     -32.709   9.396   2.402  1.00 20.00     0.010 C 
HETATM   10  C7  UNL     1     -32.172   9.052   4.821  1.00 20.00     0.010 C 
ENDBRANCH   7   8
ENDBRANCH   1   7
TORSDOF 3
ENDMDL
MODEL 6
REMARK VINA RESULT:      -4.0      1.359      3.594
REMARK  3 active torsions:
REMARK  status: ('A' for Active; 'I' for Inactive)
REMARK    1  A    between atoms: C1_1  and  C3_3 
REMARK    2  A    between atoms: C1_1  and  C8_8 
REMARK    3  A    between atoms: C8_8  and  C9_9 
ROOT
HETATM    1  C1  UNL     1     -33.880   7.420   5.405  1.00 20.00     0.131 C 
HETATM    2  O10 UNL     1     -33.331   7.109   6.460  1.00 20.00    -0.298 OA
ENDROOT
BRANCH   1   3
HETATM    3  C3  UNL     1     -33.472   8.664   4.658  1.00 20.00     0.059 A 
HETATM    4  C2  UNL     1     -32.055   9.108   4.758  1.00 20.00     0.017 A 
HETATM    5  C4  UNL     1     -32.583   8.550   3.468  1.00 20.00    -0.007 A 
HETATM    6  C5  UNL     1     -32.066   7.252   2.949  1.00 20.00     0.011 C 
ENDBRANCH   1   3
BRANCH   1   7
HETATM    7  C8  UNL     1     -35.021   6.619   4.798  1.00 20.00     0.082 C 
BRANCH   7   8
HETATM    8  C9  UNL     1     -34.921   5.108   5.048  1.00 20.00    -0.016 C 
HETATM    9  C6  UNL     1     -34.495   4.806   6.487  1.00 20.00     0.010 C 
HETATM   10  C7  UNL     1     -33.923   4.481   4.073  1.00 20.00     0.010 C 
ENDBRANCH   7   8
ENDBRANCH   1   7
TORSDOF 3
ENDMDL
MODEL 7
REMARK VINA RESULT:      -3.8      9.358     10.247
REMARK  3 active torsions:
REMARK  status: ('A' for Active; 'I' for Inactive)
REMARK    1  A    between atoms: C1_1  and  C3_3 
REMARK    2  A    between atoms: C1_1  and  C8_8 
REMARK    3  A    between atoms: C8_8  and  C9_9 
ROOT
HETATM    1  C1  UNL     1     -41.658  13.185   6.391  1.00 20.00     0.131 C 
HETATM    2  O10 UNL     1     -42.127  12.231   7.008  1.00 20.00    -0.298 OA
ENDROOT
BRANCH   1   3
HETATM    3  C3  UNL     1     -41.991  14.601   6.786  1.00 20.00     0.059 A 
HETATM    4  C2  UNL     1     -42.733  14.817   8.059  1.00 20.00     0.017 A 
HETATM    5  C4  UNL     1     -41.292  15.225   7.945  1.00 20.00    -0.007 A 
HETATM    6  C5  UNL     1     -40.253  14.526   8.753  1.00 20.00     0.011 C 
ENDBRANCH   1   3
BRANCH   1   7
HETATM    7  C8  UNL     1     -40.758  13.024   5.177  1.00 20.00     0.082 C 
BRANCH   7   8
HETATM    8  C9  UNL     1     -39.770  11.853   5.286  1.00 20.00    -0.016 C 
HETATM    9  C6  UNL     1     -38.755  12.083   6.409  1.00 20.00     0.010 C 
HETATM   10  C7  UNL     1     -39.035  11.662   3.958  1.00 20.00     0.010 C 
ENDBRANCH   7   8
ENDBRANCH   1   7
TORSDOF 3
ENDMDL
MODEL 8
REMARK VINA RESULT:      -3.8     11.929     12.763
REMARK  3 active torsions:
REMARK  status: ('A' for Active; 'I' for Inactive)
REMARK    1  A    between atoms: C1_1  and  C3_3 
REMARK    2  A    between atoms: C1_1  and  C8_8 
REMARK    3  A    between atoms: C8_8  and  C9_9 
ROOT
HETATM    1  C1  UNL     1     -32.865  18.588  -1.797  1.00 20.00     0.131 C 
HETATM    2  O10 UNL     1     -32.141  19.247  -2.541  1.00 20.00    -0.298 OA
ENDROOT
BRANCH   1   3
HETATM    3  C3  UNL     1     -33.356  19.157  -0.491  1.00 20.00     0.059 A 
HETATM    4  C2  UNL     1     -33.706  18.206   0.600  1.00 20.00     0.017 A 
HETATM    5  C4  UNL     1     -32.490  19.079   0.719  1.00 20.00    -0.007 A 
HETATM    6  C5  UNL     1     -31.130  18.468   0.719  1.00 20.00     0.011 C 
ENDBRANCH   1   3
BRANCH   1   7
HETATM    7  C8  UNL     1     -33.282  17.158  -2.102  1.00 20.00     0.082 C 
BRANCH   7   8
HETATM    8  C9  UNL     1     -33.427  16.860  -3.601  1.00 20.00    -0.016 C 
HETATM    9  C6  UNL     1     -34.699  17.489  -4.175  1.00 20.00     0.010 C 
HETATM   10  C7  UNL     1     -33.451  15.348  -3.835  1.00 20.00     0.010 C 
ENDBRANCH   7   8
ENDBRANCH   1   7
TORSDOF 3
ENDMDL
MODEL 9
REMARK VINA RESULT:      -3.7     11.829     13.195
REMARK  3 active torsions:
REMARK  status: ('A' for Active; 'I' for Inactive)
REMARK    1  A    between atoms: C1_1  and  C3_3 
REMARK    2  A    between atoms: C1_1  and  C8_8 
REMARK    3  A    between atoms: C8_8  and  C9_9 
ROOT
HETATM    1  C1  UNL     1     -34.096  14.922  -4.542  1.00 20.00     0.131 C 
HETATM    2  O10 UNL     1     -34.634  13.905  -4.107  1.00 20.00    -0.298 OA
ENDROOT
BRANCH   1   3
HETATM    3  C3  UNL     1     -34.328  15.374  -5.961  1.00 20.00     0.059 A 
HETATM    4  C2  UNL     1     -35.477  14.786  -6.704  1.00 20.00     0.017 A 
HETATM    5  C4  UNL     1     -35.508  16.227  -6.279  1.00 20.00    -0.007 A 
HETATM    6  C5  UNL     1     -36.493  16.681  -5.257  1.00 20.00     0.011 C 
ENDBRANCH   1   3
BRANCH   1   7
HETATM    7  C8  UNL     1     -33.138  15.769  -3.719  1.00 20.00     0.082 C 
BRANCH   7   8
HETATM    8  C9  UNL     1     -33.777  17.036  -3.132  1.00 20.00    -0.016 C 
HETATM    9  C6  UNL     1     -33.238  18.298  -3.809  1.00 20.00     0.010 C 
HETATM   10  C7  UNL     1     -33.512  17.106  -1.627  1.00 20.00     0.010 C 
ENDBRANCH   7   8
ENDBRANCH   1   7
TORSDOF 3
ENDMDL
