MODEL 1
REMARK VINA RESULT:      -4.2      0.000      0.000
REMARK  2 active torsions:
REMARK  status: ('A' for Active; 'I' for Inactive)
REMARK    1  A    between atoms: C3_3  and  C5_5 
REMARK    2  A    between atoms: C5_5  and  C7_7 
ROOT
HETATM    1  C1  UNL     1     -33.299  16.615  -2.305  1.00 20.00     0.029 A 
HETATM    2  C2  UNL     1     -33.627  17.834  -4.256  1.00 20.00     0.065 A 
HETATM    3  C3  UNL     1     -33.722  16.593  -3.666  1.00 20.00     0.018 A 
HETATM    4  C4  UNL     1     -32.896  17.871  -1.909  1.00 20.00    -0.021 A 
HETATM    5  C9  UNL     1     -32.394  18.302  -0.586  1.00 20.00     0.056 C 
HETATM    6  S12 UNL     1     -33.029  19.018  -3.173  1.00 20.00    -0.106 SA
ENDROOT
BRANCH   3   7
HETATM    7  C5  UNL     1     -34.208  15.413  -4.385  1.00 20.00     0.164 C 
HETATM    8  O11 UNL     1     -33.726  14.290  -4.284  1.00 20.00    -0.292 OA
BRANCH   7   9
HETATM    9  C7  UNL     1     -35.354  15.600  -5.282  1.00 20.00     0.065 A 
HETATM   10  C6  UNL     1     -35.825  14.446  -6.131  1.00 20.00     0.018 A 
HETATM   11  C8  UNL     1     -35.171  15.633  -6.780  1.00 20.00    -0.006 A 
HETATM   12  C10 UNL     1     -33.832  15.488  -7.420  1.00 20.00     0.011 C 
ENDBRANCH   7   9
ENDBRANCH   3   7
TORSDOF 2
ENDMDL
MODEL 2
REMARK VINA RESULT:      -3.7      2.715      5.911
REMARK  2 active torsions:
REMARK  status: ('A' for Active; 'I' for Inactive)
REMARK    1  A    between atoms: C3_3  and  C5_5 
REMARK    2  A    between atoms: C5_5  and  C7_7 
ROOT
HETATM    1  C1  UNL     1     -33.273  16.585  -2.204  1.00 20.00     0.029 A 
HETATM    2  C2  UNL     1     -34.556  18.430  -2.795  1.00 20.00     0.065 A 
HETATM    3  C3  UNL     1     -33.774  17.861  -1.815  1.00 20.00     0.018 A 
HETATM    4  C4  UNL     1     -33.692  16.229  -3.467  1.00 20.00    -0.021 A 
HETATM    5  C9  UNL     1     -33.389  14.994  -4.224  1.00 20.00     0.056 C 
HETATM    6  S12 UNL     1     -34.685  17.429  -4.178  1.00 20.00    -0.106 SA
ENDROOT
BRANCH   3   7
HETATM    7  C5  UNL     1     -33.510  18.521  -0.534  1.00 20.00     0.164 C 
HETATM    8  O11 UNL     1     -34.264  18.490   0.433  1.00 20.00    -0.292 OA
BRANCH   7   9
HETATM    9  C7  UNL     1     -32.250  19.263  -0.410  1.00 20.00     0.065 A 
HETATM   10  C6  UNL     1     -30.948  18.504  -0.343  1.00 20.00     0.018 A 
HETATM   11  C8  UNL     1     -31.452  19.232   0.871  1.00 20.00    -0.006 A 
HETATM   12  C10 UNL     1     -31.901  18.464   2.067  1.00 20.00     0.011 C 
ENDBRANCH   7   9
ENDBRANCH   3   7
TORSDOF 2
ENDMDL
MODEL 3
REMARK VINA RESULT:      -3.6     12.089     13.120
REMARK  2 active torsions:
REMARK  status: ('A' for Active; 'I' for Inactive)
REMARK    1  A    between atoms: C3_3  and  C5_5 
REMARK    2  A    between atoms: C5_5  and  C7_7 
ROOT
HETATM    1  C1  UNL     1     -40.461  14.134   8.240  1.00 20.00     0.029 A 
HETATM    2  C2  UNL     1     -41.141  15.790   6.758  1.00 20.00     0.065 A 
HETATM    3  C3  UNL     1     -40.862  14.450   6.910  1.00 20.00     0.018 A 
HETATM    4  C4  UNL     1     -40.448  15.246   9.053  1.00 20.00    -0.021 A 
HETATM    5  C9  UNL     1     -40.094  15.334  10.487  1.00 20.00     0.056 C 
HETATM    6  S12 UNL     1     -40.919  16.663   8.215  1.00 20.00    -0.106 SA
ENDROOT
BRANCH   3   7
HETATM    7  C5  UNL     1     -40.977  13.491   5.808  1.00 20.00     0.164 C 
HETATM    8  O11 UNL     1     -41.454  13.750   4.708  1.00 20.00    -0.292 OA
BRANCH   7   9
HETATM    9  C7  UNL     1     -40.479  12.132   6.048  1.00 20.00     0.065 A 
HETATM   10  C6  UNL     1     -39.016  11.923   6.350  1.00 20.00     0.018 A 
HETATM   11  C8  UNL     1     -39.585  11.443   5.045  1.00 20.00    -0.006 A 
HETATM   12  C10 UNL     1     -39.175  12.095   3.768  1.00 20.00     0.011 C 
ENDBRANCH   7   9
ENDBRANCH   3   7
TORSDOF 2
ENDMDL
MODEL 4
REMARK VINA RESULT:      -3.5      3.309      4.566
REMARK  2 active torsions:
REMARK  status: ('A' for Active; 'I' for Inactive)
REMARK    1  A    between atoms: C3_3  and  C5_5 
REMARK    2  A    between atoms: C5_5  and  C7_7 
ROOT
HETATM    1  C1  UNL     1     -33.226  19.119   1.109  1.00 20.00     0.029 A 
HETATM    2  C2  UNL     1     -31.579  18.799  -0.499  1.00 20.00     0.065 A 
HETATM    3  C3  UNL     1     -32.931  18.940  -0.274  1.00 20.00     0.018 A 
HETATM    4  C4  UNL     1     -32.088  19.107   1.886  1.00 20.00    -0.021 A 
HETATM    5  C9  UNL     1     -31.974  19.263   3.353  1.00 20.00     0.056 C 
HETATM    6  S12 UNL     1     -30.672  18.882   0.951  1.00 20.00    -0.106 SA
ENDROOT
BRANCH   3   7
HETATM    7  C5  UNL     1     -33.918  18.905  -1.355  1.00 20.00     0.164 C 
HETATM    8  O11 UNL     1     -35.133  18.875  -1.187  1.00 20.00    -0.292 OA
BRANCH   7   9
HETATM    9  C7  UNL     1     -33.406  18.912  -2.730  1.00 20.00     0.065 A 
HETATM   10  C6  UNL     1     -34.322  18.521  -3.862  1.00 20.00     0.018 A 
HETATM   11  C8  UNL     1     -33.179  17.623  -3.482  1.00 20.00    -0.006 A 
HETATM   12  C10 UNL     1     -33.450  16.290  -2.871  1.00 20.00     0.011 C 
ENDBRANCH   7   9
ENDBRANCH   3   7
TORSDOF 2
ENDMDL
MODEL 5
REMARK VINA RESULT:      -3.5     24.750     25.869
REMARK  2 active torsions:
REMARK  status: ('A' for Active; 'I' for Inactive)
REMARK    1  A    between atoms: C3_3  and  C5_5 
REMARK    2  A    between atoms: C5_5  and  C7_7 
ROOT
HETATM    1  C1  UNL     1     -24.635  -2.867   9.597  1.00 20.00     0.029 A 
HETATM    2  C2  UNL     1     -23.754  -3.624  11.610  1.00 20.00     0.065 A 
HETATM    3  C3  UNL     1     -24.824  -3.005  11.003  1.00 20.00     0.018 A 
HETATM    4  C4  UNL     1     -23.427  -3.385   9.185  1.00 20.00    -0.021 A 
HETATM    5  C9  UNL     1     -22.866  -3.435   7.817  1.00 20.00     0.056 C 
HETATM    6  S12 UNL     1     -22.527  -4.035  10.488  1.00 20.00    -0.106 SA
ENDROOT
BRANCH   3   7
HETATM    7  C5  UNL     1     -26.002  -2.556  11.749  1.00 20.00     0.164 C 
HETATM    8  O11 UNL     1     -26.782  -3.302  12.332  1.00 20.00    -0.292 OA
BRANCH   7   9
HETATM    9  C7  UNL     1     -26.252  -1.111  11.800  1.00 20.00     0.065 A 
HETATM   10  C6  UNL     1     -27.570  -0.606  12.332  1.00 20.00     0.018 A 
HETATM   11  C8  UNL     1     -27.249  -0.461  10.871  1.00 20.00    -0.006 A 
HETATM   12  C10 UNL     1     -28.017  -1.242   9.859  1.00 20.00     0.011 C 
ENDBRANCH   7   9
ENDBRANCH   3   7
TORSDOF 2
ENDMDL
MODEL 6
REMARK VINA RESULT:      -3.4     12.160     13.017
REMARK  2 active torsions:
REMARK  status: ('A' for Active; 'I' for Inactive)
REMARK    1  A    between atoms: C3_3  and  C5_5 
REMARK    2  A    between atoms: C5_5  and  C7_7 
ROOT
HETATM    1  C1  UNL     1     -40.853  15.160   7.360  1.00 20.00     0.029 A 
HETATM    2  C2  UNL     1     -42.343  15.100   5.578  1.00 20.00     0.065 A 
HETATM    3  C3  UNL     1     -41.447  14.373   6.331  1.00 20.00     0.018 A 
HETATM    4  C4  UNL     1     -41.316  16.457   7.352  1.00 20.00    -0.021 A 
HETATM    5  C9  UNL     1     -40.948  17.572   8.253  1.00 20.00     0.056 C 
HETATM    6  S12 UNL     1     -42.464  16.723   6.110  1.00 20.00    -0.106 SA
ENDROOT
BRANCH   3   7
HETATM    7  C5  UNL     1     -41.167  12.958   6.075  1.00 20.00     0.164 C 
HETATM    8  O11 UNL     1     -41.707  12.025   6.659  1.00 20.00    -0.292 OA
BRANCH   7   9
HETATM    9  C7  UNL     1     -40.173  12.650   5.041  1.00 20.00     0.065 A 
HETATM   10  C6  UNL     1     -39.744  11.220   4.829  1.00 20.00     0.018 A 
HETATM   11  C8  UNL     1     -38.776  12.210   5.411  1.00 20.00    -0.006 A 
HETATM   12  C10 UNL     1     -38.336  12.077   6.830  1.00 20.00     0.011 C 
ENDBRANCH   7   9
ENDBRANCH   3   7
TORSDOF 2
ENDMDL
MODEL 7
REMARK VINA RESULT:      -3.4      1.723      2.104
REMARK  2 active torsions:
REMARK  status: ('A' for Active; 'I' for Inactive)
REMARK    1  A    between atoms: C3_3  and  C5_5 
REMARK    2  A    between atoms: C5_5  and  C7_7 
ROOT
HETATM    1  C1  UNL     1     -33.309  17.307  -3.156  1.00 20.00     0.029 A 
HETATM    2  C2  UNL     1     -35.336  18.398  -3.470  1.00 20.00     0.065 A 
HETATM    3  C3  UNL     1     -34.423  17.524  -4.017  1.00 20.00     0.018 A 
HETATM    4  C4  UNL     1     -33.414  18.024  -1.985  1.00 20.00    -0.021 A 
HETATM    5  C9  UNL     1     -32.472  18.068  -0.844  1.00 20.00     0.056 C 
HETATM    6  S12 UNL     1     -34.850  18.954  -1.925  1.00 20.00    -0.106 SA
ENDROOT
BRANCH   3   7
HETATM    7  C5  UNL     1     -34.611  16.908  -5.333  1.00 20.00     0.164 C 
HETATM    8  O11 UNL     1     -34.444  17.487  -6.401  1.00 20.00    -0.292 OA
BRANCH   7   9
HETATM    9  C7  UNL     1     -35.023  15.501  -5.361  1.00 20.00     0.065 A 
HETATM   10  C6  UNL     1     -35.608  14.926  -6.627  1.00 20.00     0.018 A 
HETATM   11  C8  UNL     1     -36.483  15.118  -5.421  1.00 20.00    -0.006 A 
HETATM   12  C10 UNL     1     -37.570  16.139  -5.445  1.00 20.00     0.011 C 
ENDBRANCH   7   9
ENDBRANCH   3   7
TORSDOF 2
ENDMDL
MODEL 8
REMARK VINA RESULT:      -3.4     12.966     14.664
REMARK  2 active torsions:
REMARK  status: ('A' for Active; 'I' for Inactive)
REMARK    1  A    between atoms: C3_3  and  C5_5 
REMARK    2  A    between atoms: C5_5  and  C7_7 
ROOT
HETATM    1  C1  UNL     1     -39.795  12.917   6.762  1.00 20.00     0.029 A 
HETATM    2  C2  UNL     1     -41.587  14.358   6.423  1.00 20.00     0.065 A 
HETATM    3  C3  UNL     1     -40.664  13.891   7.333  1.00 20.00     0.018 A 
HETATM    4  C4  UNL     1     -40.089  12.676   5.438  1.00 20.00    -0.021 A 
HETATM    5  C9  UNL     1     -39.422  11.744   4.502  1.00 20.00     0.056 C 
HETATM    6  S12 UNL     1     -41.405  13.622   4.888  1.00 20.00    -0.106 SA
ENDROOT
BRANCH   3   7
HETATM    7  C5  UNL     1     -40.613  14.367   8.718  1.00 20.00     0.164 C 
HETATM    8  O11 UNL     1     -40.533  13.638   9.701  1.00 20.00    -0.292 OA
BRANCH   7   9
HETATM    9  C7  UNL     1     -40.654  15.818   8.929  1.00 20.00     0.065 A 
HETATM   10  C6  UNL     1     -40.893  16.357  10.318  1.00 20.00     0.018 A 
HETATM   11  C8  UNL     1     -41.950  16.518   9.262  1.00 20.00    -0.006 A 
HETATM   12  C10 UNL     1     -43.241  15.783   9.383  1.00 20.00     0.011 C 
ENDBRANCH   7   9
ENDBRANCH   3   7
TORSDOF 2
ENDMDL
MODEL 9
REMARK VINA RESULT:      -3.4      2.556      5.009
REMARK  2 active torsions:
REMARK  status: ('A' for Active; 'I' for Inactive)
REMARK    1  A    between atoms: C3_3  and  C5_5 
REMARK    2  A    between atoms: C5_5  and  C7_7 
ROOT
HETATM    1  C1  UNL     1     -35.991  17.599  -4.720  1.00 20.00     0.029 A 
HETATM    2  C2  UNL     1     -34.305  16.092  -5.255  1.00 20.00     0.065 A 
HETATM    3  C3  UNL     1     -34.599  17.302  -4.665  1.00 20.00     0.018 A 
HETATM    4  C4  UNL     1     -36.708  16.605  -5.350  1.00 20.00    -0.021 A 
HETATM    5  C9  UNL     1     -38.164  16.539  -5.602  1.00 20.00     0.056 C 
HETATM    6  S12 UNL     1     -35.704  15.320  -5.871  1.00 20.00    -0.106 SA
ENDROOT
BRANCH   3   7
HETATM    7  C5  UNL     1     -33.572  18.155  -4.062  1.00 20.00     0.164 C 
HETATM    8  O11 UNL     1     -33.219  19.241  -4.510  1.00 20.00    -0.292 OA
BRANCH   7   9
HETATM    9  C7  UNL     1     -32.933  17.668  -2.834  1.00 20.00     0.065 A 
HETATM   10  C6  UNL     1     -33.648  16.648  -1.983  1.00 20.00     0.018 A 
HETATM   11  C8  UNL     1     -33.468  18.050  -1.475  1.00 20.00    -0.006 A 
HETATM   12  C10 UNL     1     -34.653  18.941  -1.311  1.00 20.00     0.011 C 
ENDBRANCH   7   9
ENDBRANCH   3   7
TORSDOF 2
ENDMDL
