MODEL 1
REMARK VINA RESULT:      -4.9      0.000      0.000
REMARK  3 active torsions:
REMARK  status: ('A' for Active; 'I' for Inactive)
REMARK    1  A    between atoms: C1_1  and  C9_9 
REMARK    2  A    between atoms: C10_10  and  C11_11 
REMARK    3  A    between atoms: C11_11  and  N12_12 
ROOT
HETATM    1  C5  UNL     1     -34.505  16.072  -6.168  1.00 20.00     0.039 C 
HETATM    2  C6  UNL     1     -33.350  14.619  -4.448  1.00 20.00     0.039 C 
HETATM    3  C7  UNL     1     -34.565  17.205  -5.150  1.00 20.00     0.235 C 
HETATM    4  C8  UNL     1     -33.424  15.767  -3.448  1.00 20.00     0.235 C 
HETATM    5  C9  UNL     1     -34.444  14.692  -5.515  1.00 20.00     0.050 C 
HETATM    6  N12 UNL     1     -33.409  17.081  -4.189  1.00 20.00    -0.071 N 
HETATM    7  H33 UNL     1     -32.543  17.110  -4.745  1.00 20.00     0.279 HD
ENDROOT
BRANCH   6   8
HETATM    8  C11 UNL     1     -33.345  18.249  -3.244  1.00 20.00     0.239 C 
BRANCH   8   9
HETATM    9  C10 UNL     1     -33.047  17.745  -1.848  1.00 20.00     0.011 C 
HETATM   10  C3  UNL     1     -34.035  18.172  -0.729  1.00 20.00     0.006 C 
HETATM   11  C2  UNL     1     -32.813  18.273   0.208  1.00 20.00     0.001 C 
HETATM   12  C4  UNL     1     -31.955  18.506  -1.052  1.00 20.00     0.006 C 
ENDBRANCH   8   9
ENDBRANCH   6   8
BRANCH   5  13
HETATM   13  C1  UNL     1     -35.779  14.314  -4.938  1.00 20.00     0.235 C 
HETATM   14  O13 UNL     1     -36.018  13.215  -4.446  1.00 20.00    -0.306 OA
ENDBRANCH   5  13
TORSDOF 3
ENDMDL
MODEL 2
REMARK VINA RESULT:      -4.8      1.378      2.031
REMARK  3 active torsions:
REMARK  status: ('A' for Active; 'I' for Inactive)
REMARK    1  A    between atoms: C1_1  and  C9_9 
REMARK    2  A    between atoms: C10_10  and  C11_11 
REMARK    3  A    between atoms: C11_11  and  N12_12 
ROOT
HETATM    1  C5  UNL     1     -34.021  14.612  -4.192  1.00 20.00     0.039 C 
HETATM    2  C6  UNL     1     -35.754  16.158  -5.197  1.00 20.00     0.039 C 
HETATM    3  C7  UNL     1     -33.264  15.825  -3.665  1.00 20.00     0.235 C 
HETATM    4  C8  UNL     1     -34.977  17.355  -4.660  1.00 20.00     0.235 C 
HETATM    5  C9  UNL     1     -34.869  14.931  -5.424  1.00 20.00     0.050 C 
HETATM    6  N12 UNL     1     -34.232  16.953  -3.411  1.00 20.00    -0.071 N 
HETATM    7  H33 UNL     1     -34.930  16.612  -2.735  1.00 20.00     0.279 HD
ENDROOT
BRANCH   6   8
HETATM    8  C11 UNL     1     -33.556  18.130  -2.765  1.00 20.00     0.239 C 
BRANCH   8   9
HETATM    9  C10 UNL     1     -32.986  17.706  -1.428  1.00 20.00     0.011 C 
HETATM   10  C3  UNL     1     -33.818  18.069  -0.170  1.00 20.00     0.006 C 
HETATM   11  C2  UNL     1     -32.479  18.324   0.551  1.00 20.00     0.001 C 
HETATM   12  C4  UNL     1     -31.864  18.599  -0.836  1.00 20.00     0.006 C 
ENDBRANCH   8   9
ENDBRANCH   6   8
BRANCH   5  13
HETATM   13  C1  UNL     1     -34.002  15.115  -6.637  1.00 20.00     0.235 C 
HETATM   14  O13 UNL     1     -34.425  15.058  -7.787  1.00 20.00    -0.306 OA
ENDBRANCH   5  13
TORSDOF 3
ENDMDL
MODEL 3
REMARK VINA RESULT:      -4.2      1.439      1.969
REMARK  3 active torsions:
REMARK  status: ('A' for Active; 'I' for Inactive)
REMARK    1  A    between atoms: C1_1  and  C9_9 
REMARK    2  A    between atoms: C10_10  and  C11_11 
REMARK    3  A    between atoms: C11_11  and  N12_12 
ROOT
HETATM    1  C5  UNL     1     -34.501  17.690  -6.064  1.00 20.00     0.039 C 
HETATM    2  C6  UNL     1     -33.952  15.234  -6.323  1.00 20.00     0.039 C 
HETATM    3  C7  UNL     1     -34.420  17.535  -4.550  1.00 20.00     0.235 C 
HETATM    4  C8  UNL     1     -33.877  15.105  -4.806  1.00 20.00     0.235 C 
HETATM    5  C9  UNL     1     -34.853  16.384  -6.776  1.00 20.00     0.050 C 
HETATM    6  N12 UNL     1     -33.458  16.425  -4.209  1.00 20.00    -0.071 N 
HETATM    7  H33 UNL     1     -32.546  16.671  -4.619  1.00 20.00     0.279 HD
ENDROOT
BRANCH   6   8
HETATM    8  C11 UNL     1     -33.239  16.317  -2.725  1.00 20.00     0.239 C 
BRANCH   8   9
HETATM    9  C10 UNL     1     -33.427  17.680  -2.093  1.00 20.00     0.011 C 
HETATM   10  C3  UNL     1     -32.151  18.376  -1.549  1.00 20.00     0.006 C 
HETATM   11  C2  UNL     1     -33.024  18.909  -0.394  1.00 20.00     0.001 C 
HETATM   12  C4  UNL     1     -33.954  17.704  -0.635  1.00 20.00     0.006 C 
ENDBRANCH   8   9
ENDBRANCH   6   8
BRANCH   5  13
HETATM   13  C1  UNL     1     -36.302  16.039  -6.575  1.00 20.00     0.235 C 
HETATM   14  O13 UNL     1     -37.009  15.548  -7.450  1.00 20.00    -0.306 OA
ENDBRANCH   5  13
TORSDOF 3
ENDMDL
MODEL 4
REMARK VINA RESULT:      -4.1      2.687      5.538
REMARK  3 active torsions:
REMARK  status: ('A' for Active; 'I' for Inactive)
REMARK    1  A    between atoms: C1_1  and  C9_9 
REMARK    2  A    between atoms: C10_10  and  C11_11 
REMARK    3  A    between atoms: C11_11  and  N12_12 
ROOT
HETATM    1  C5  UNL     1     -34.684  18.735  -1.252  1.00 20.00     0.039 C 
HETATM    2  C6  UNL     1     -33.312  16.741  -1.988  1.00 20.00     0.039 C 
HETATM    3  C7  UNL     1     -35.087  18.977  -2.701  1.00 20.00     0.235 C 
HETATM    4  C8  UNL     1     -33.729  17.004  -3.430  1.00 20.00     0.235 C 
HETATM    5  C9  UNL     1     -33.350  18.001  -1.121  1.00 20.00     0.050 C 
HETATM    6  N12 UNL     1     -35.084  17.667  -3.450  1.00 20.00    -0.071 N 
HETATM    7  H33 UNL     1     -35.740  17.037  -2.969  1.00 20.00     0.279 HD
ENDROOT
BRANCH   6   8
HETATM    8  C11 UNL     1     -35.602  17.828  -4.853  1.00 20.00     0.239 C 
BRANCH   8   9
HETATM    9  C10 UNL     1     -35.222  16.610  -5.667  1.00 20.00     0.011 C 
HETATM   10  C3  UNL     1     -35.438  16.704  -7.201  1.00 20.00     0.006 C 
HETATM   11  C2  UNL     1     -35.851  15.218  -7.159  1.00 20.00     0.001 C 
HETATM   12  C4  UNL     1     -36.242  15.440  -5.684  1.00 20.00     0.006 C 
ENDBRANCH   8   9
ENDBRANCH   6   8
BRANCH   5  13
HETATM   13  C1  UNL     1     -32.203  18.913  -1.454  1.00 20.00     0.235 C 
HETATM   14  O13 UNL     1     -31.097  18.828  -0.929  1.00 20.00    -0.306 OA
ENDBRANCH   5  13
TORSDOF 3
ENDMDL
MODEL 5
REMARK VINA RESULT:      -3.9      2.093      2.982
REMARK  3 active torsions:
REMARK  status: ('A' for Active; 'I' for Inactive)
REMARK    1  A    between atoms: C1_1  and  C9_9 
REMARK    2  A    between atoms: C10_10  and  C11_11 
REMARK    3  A    between atoms: C11_11  and  N12_12 
ROOT
HETATM    1  C5  UNL     1     -33.418  18.658  -4.071  1.00 20.00     0.039 C 
HETATM    2  C6  UNL     1     -33.176  16.251  -3.328  1.00 20.00     0.039 C 
HETATM    3  C7  UNL     1     -33.868  19.033  -2.664  1.00 20.00     0.235 C 
HETATM    4  C8  UNL     1     -33.630  16.652  -1.929  1.00 20.00     0.235 C 
HETATM    5  C9  UNL     1     -33.699  17.195  -4.413  1.00 20.00     0.050 C 
HETATM    6  N12 UNL     1     -33.246  18.087  -1.667  1.00 20.00    -0.071 N 
HETATM    7  H33 UNL     1     -32.224  18.156  -1.774  1.00 20.00     0.279 HD
ENDROOT
BRANCH   6   8
HETATM    8  C11 UNL     1     -33.551  18.493  -0.251  1.00 20.00     0.239 C 
BRANCH   8   9
HETATM    9  C10 UNL     1     -32.329  19.154   0.351  1.00 20.00     0.011 C 
HETATM   10  C3  UNL     1     -30.954  18.530  -0.005  1.00 20.00     0.006 C 
HETATM   11  C2  UNL     1     -30.516  18.856   1.438  1.00 20.00     0.001 C 
HETATM   12  C4  UNL     1     -32.007  18.804   1.828  1.00 20.00     0.006 C 
ENDBRANCH   8   9
ENDBRANCH   6   8
BRANCH   5  13
HETATM   13  C1  UNL     1     -35.166  16.973  -4.652  1.00 20.00     0.235 C 
HETATM   14  O13 UNL     1     -35.868  17.737  -5.307  1.00 20.00    -0.306 OA
ENDBRANCH   5  13
TORSDOF 3
ENDMDL
MODEL 6
REMARK VINA RESULT:      -3.8      2.319      5.406
REMARK  3 active torsions:
REMARK  status: ('A' for Active; 'I' for Inactive)
REMARK    1  A    between atoms: C1_1  and  C9_9 
REMARK    2  A    between atoms: C10_10  and  C11_11 
REMARK    3  A    between atoms: C11_11  and  N12_12 
ROOT
HETATM    1  C5  UNL     1     -32.880  17.790  -1.569  1.00 20.00     0.039 C 
HETATM    2  C6  UNL     1     -33.388  19.183  -3.619  1.00 20.00     0.039 C 
HETATM    3  C7  UNL     1     -33.422  16.560  -2.287  1.00 20.00     0.235 C 
HETATM    4  C8  UNL     1     -33.925  17.938  -4.316  1.00 20.00     0.235 C 
HETATM    5  C9  UNL     1     -33.478  19.095  -2.095  1.00 20.00     0.050 C 
HETATM    6  N12 UNL     1     -33.224  16.717  -3.774  1.00 20.00    -0.071 N 
HETATM    7  H33 UNL     1     -32.216  16.844  -3.938  1.00 20.00     0.279 HD
ENDROOT
BRANCH   6   8
HETATM    8  C11 UNL     1     -33.621  15.473  -4.521  1.00 20.00     0.239 C 
BRANCH   8   9
HETATM    9  C10 UNL     1     -34.590  15.843  -5.625  1.00 20.00     0.011 C 
HETATM   10  C3  UNL     1     -35.833  14.929  -5.793  1.00 20.00     0.006 C 
HETATM   11  C2  UNL     1     -35.691  15.143  -7.315  1.00 20.00     0.001 C 
HETATM   12  C4  UNL     1     -34.195  15.423  -7.065  1.00 20.00     0.006 C 
ENDBRANCH   8   9
ENDBRANCH   6   8
BRANCH   5  13
HETATM   13  C1  UNL     1     -34.899  19.256  -1.634  1.00 20.00     0.235 C 
HETATM   14  O13 UNL     1     -35.231  19.263  -0.453  1.00 20.00    -0.306 OA
ENDBRANCH   5  13
TORSDOF 3
ENDMDL
MODEL 7
REMARK VINA RESULT:      -3.7     12.785     14.705
REMARK  3 active torsions:
REMARK  status: ('A' for Active; 'I' for Inactive)
REMARK    1  A    between atoms: C1_1  and  C9_9 
REMARK    2  A    between atoms: C10_10  and  C11_11 
REMARK    3  A    between atoms: C11_11  and  N12_12 
ROOT
HETATM    1  C5  UNL     1     -40.424  15.591   9.106  1.00 20.00     0.039 C 
HETATM    2  C6  UNL     1     -42.711  14.826   9.874  1.00 20.00     0.039 C 
HETATM    3  C7  UNL     1     -40.346  14.384   8.179  1.00 20.00     0.235 C 
HETATM    4  C8  UNL     1     -42.608  13.626   8.939  1.00 20.00     0.235 C 
HETATM    5  C9  UNL     1     -41.344  15.359  10.305  1.00 20.00     0.050 C 
HETATM    6  N12 UNL     1     -41.737  13.980   7.759  1.00 20.00    -0.071 N 
HETATM    7  H33 UNL     1     -42.166  14.793   7.295  1.00 20.00     0.279 HD
ENDROOT
BRANCH   6   8
HETATM    8  C11 UNL     1     -41.711  12.876   6.738  1.00 20.00     0.239 C 
BRANCH   8   9
HETATM    9  C10 UNL     1     -40.355  12.853   6.064  1.00 20.00     0.011 C 
HETATM   10  C3  UNL     1     -40.350  12.883   4.512  1.00 20.00     0.006 C 
HETATM   11  C2  UNL     1     -39.141  11.927   4.572  1.00 20.00     0.001 C 
HETATM   12  C4  UNL     1     -39.658  11.473   5.952  1.00 20.00     0.006 C 
ENDBRANCH   8   9
ENDBRANCH   6   8
BRANCH   5  13
HETATM   13  C1  UNL     1     -40.701  14.437  11.302  1.00 20.00     0.235 C 
HETATM   14  O13 UNL     1     -39.799  14.781  12.060  1.00 20.00    -0.306 OA
ENDBRANCH   5  13
TORSDOF 3
ENDMDL
MODEL 8
REMARK VINA RESULT:      -3.7     12.076     14.038
REMARK  3 active torsions:
REMARK  status: ('A' for Active; 'I' for Inactive)
REMARK    1  A    between atoms: C1_1  and  C9_9 
REMARK    2  A    between atoms: C10_10  and  C11_11 
REMARK    3  A    between atoms: C11_11  and  N12_12 
ROOT
HETATM    1  C5  UNL     1     -40.250  15.204   9.382  1.00 20.00     0.039 C 
HETATM    2  C6  UNL     1     -40.748  16.553   7.300  1.00 20.00     0.039 C 
HETATM    3  C7  UNL     1     -41.056  14.045   8.808  1.00 20.00     0.235 C 
HETATM    4  C8  UNL     1     -41.549  15.380   6.748  1.00 20.00     0.235 C 
HETATM    5  C9  UNL     1     -40.685  16.561   8.828  1.00 20.00     0.050 C 
HETATM    6  N12 UNL     1     -40.998  14.089   7.301  1.00 20.00    -0.071 N 
HETATM    7  H33 UNL     1     -40.006  14.038   7.030  1.00 20.00     0.279 HD
ENDROOT
BRANCH   6   8
HETATM    8  C11 UNL     1     -41.667  12.891   6.685  1.00 20.00     0.239 C 
BRANCH   8   9
HETATM    9  C10 UNL     1     -40.623  12.037   5.996  1.00 20.00     0.011 C 
HETATM   10  C3  UNL     1     -39.174  12.136   6.542  1.00 20.00     0.006 C 
HETATM   11  C2  UNL     1     -38.694  12.003   5.081  1.00 20.00     0.001 C 
HETATM   12  C4  UNL     1     -40.061  12.575   4.654  1.00 20.00     0.006 C 
ENDBRANCH   8   9
ENDBRANCH   6   8
BRANCH   5  13
HETATM   13  C1  UNL     1     -42.003  16.980   9.415  1.00 20.00     0.235 C 
HETATM   14  O13 UNL     1     -42.267  16.905  10.611  1.00 20.00    -0.306 OA
ENDBRANCH   5  13
TORSDOF 3
ENDMDL
MODEL 9
REMARK VINA RESULT:      -3.6     11.552     13.406
REMARK  3 active torsions:
REMARK  status: ('A' for Active; 'I' for Inactive)
REMARK    1  A    between atoms: C1_1  and  C9_9 
REMARK    2  A    between atoms: C10_10  and  C11_11 
REMARK    3  A    between atoms: C11_11  and  N12_12 
ROOT
HETATM    1  C5  UNL     1     -42.638  16.623   7.130  1.00 20.00     0.039 C 
HETATM    2  C6  UNL     1     -40.852  16.117   8.850  1.00 20.00     0.039 C 
HETATM    3  C7  UNL     1     -42.269  15.342   6.390  1.00 20.00     0.235 C 
HETATM    4  C8  UNL     1     -40.502  14.842   8.091  1.00 20.00     0.235 C 
HETATM    5  C9  UNL     1     -41.480  17.186   7.953  1.00 20.00     0.050 C 
HETATM    6  N12 UNL     1     -41.725  14.333   7.370  1.00 20.00    -0.071 N 
HETATM    7  H33 UNL     1     -42.453  14.171   8.080  1.00 20.00     0.279 HD
ENDROOT
BRANCH   6   8
HETATM    8  C11 UNL     1     -41.469  13.004   6.714  1.00 20.00     0.239 C 
BRANCH   8   9
HETATM    9  C10 UNL     1     -40.118  13.038   6.032  1.00 20.00     0.011 C 
HETATM   10  C3  UNL     1     -40.065  12.520   4.570  1.00 20.00     0.006 C 
HETATM   11  C2  UNL     1     -38.680  11.930   4.909  1.00 20.00     0.001 C 
HETATM   12  C4  UNL     1     -39.134  11.891   6.382  1.00 20.00     0.006 C 
ENDBRANCH   8   9
ENDBRANCH   6   8
BRANCH   5  13
HETATM   13  C1  UNL     1     -40.444  17.812   7.062  1.00 20.00     0.235 C 
HETATM   14  O13 UNL     1     -40.312  19.024   6.925  1.00 20.00    -0.306 OA
ENDBRANCH   5  13
TORSDOF 3
ENDMDL
