MODEL 1
REMARK VINA RESULT:      -3.9      0.000      0.000
REMARK  3 active torsions:
REMARK  status: ('A' for Active; 'I' for Inactive)
REMARK    1  A    between atoms: C4_4  and  C6_6 
REMARK    2  A    between atoms: C4_4  and  O7_7 
REMARK    3  A    between atoms: C5_5  and  C6_6 
ROOT
HETATM    1  C6  UNL     1     -33.768   6.742   5.094  1.00 20.00     0.109 C 
HETATM    2 CL8  UNL     1     -34.136   7.380   6.733  1.00 20.00    -0.122 Cl
ENDROOT
BRANCH   1   3
HETATM    3  C4  UNL     1     -35.026   6.090   4.515  1.00 20.00     0.187 C 
BRANCH   3   4
HETATM    4  O7  UNL     1     -35.004   4.692   4.780  1.00 20.00    -0.394 OA
HETATM    5  C3  UNL     1     -33.776   4.106   4.374  1.00 20.00     0.201 C 
ENDBRANCH   3   4
ENDBRANCH   1   3
BRANCH   1   6
HETATM    6  C5  UNL     1     -33.181   7.835   4.171  1.00 20.00    -0.002 C 
HETATM    7  C1  UNL     1     -32.286   7.295   3.051  1.00 20.00     0.011 C 
HETATM    8  C2  UNL     1     -32.428   8.909   4.965  1.00 20.00     0.011 C 
ENDBRANCH   1   6
TORSDOF 3
ENDMDL
MODEL 2
REMARK VINA RESULT:      -3.8      2.703      4.035
REMARK  3 active torsions:
REMARK  status: ('A' for Active; 'I' for Inactive)
REMARK    1  A    between atoms: C4_4  and  C6_6 
REMARK    2  A    between atoms: C4_4  and  O7_7 
REMARK    3  A    between atoms: C5_5  and  C6_6 
ROOT
HETATM    1  C6  UNL     1     -32.883   6.724   3.908  1.00 20.00     0.109 C 
HETATM    2 CL8  UNL     1     -32.994   5.387   2.711  1.00 20.00    -0.122 Cl
ENDROOT
BRANCH   1   3
HETATM    3  C4  UNL     1     -32.583   8.032   3.172  1.00 20.00     0.187 C 
BRANCH   3   4
HETATM    4  O7  UNL     1     -32.082   7.745   1.871  1.00 20.00    -0.394 OA
HETATM    5  C3  UNL     1     -32.425   8.765   0.945  1.00 20.00     0.201 C 
ENDBRANCH   3   4
ENDBRANCH   1   3
BRANCH   1   6
HETATM    6  C5  UNL     1     -34.149   6.810   4.792  1.00 20.00    -0.002 C 
HETATM    7  C1  UNL     1     -33.860   7.026   6.280  1.00 20.00     0.011 C 
HETATM    8  C2  UNL     1     -35.055   5.586   4.611  1.00 20.00     0.011 C 
ENDBRANCH   1   6
TORSDOF 3
ENDMDL
MODEL 3
REMARK VINA RESULT:      -3.7      2.115      3.570
REMARK  3 active torsions:
REMARK  status: ('A' for Active; 'I' for Inactive)
REMARK    1  A    between atoms: C4_4  and  C6_6 
REMARK    2  A    between atoms: C4_4  and  O7_7 
REMARK    3  A    between atoms: C5_5  and  C6_6 
ROOT
HETATM    1  C6  UNL     1     -33.745   7.248   4.567  1.00 20.00     0.109 C 
HETATM    2 CL8  UNL     1     -33.572   7.286   6.356  1.00 20.00    -0.122 Cl
ENDROOT
BRANCH   1   3
HETATM    3  C4  UNL     1     -32.424   7.680   3.926  1.00 20.00     0.187 C 
BRANCH   3   4
HETATM    4  O7  UNL     1     -32.659   8.756   3.025  1.00 20.00    -0.394 OA
HETATM    5  C3  UNL     1     -32.286   8.413   1.698  1.00 20.00     0.201 C 
ENDBRANCH   3   4
ENDBRANCH   1   3
BRANCH   1   6
HETATM    6  C5  UNL     1     -34.231   5.867   4.066  1.00 20.00    -0.002 C 
HETATM    7  C1  UNL     1     -34.579   4.882   5.185  1.00 20.00     0.011 C 
HETATM    8  C2  UNL     1     -33.226   5.224   3.102  1.00 20.00     0.011 C 
ENDBRANCH   1   6
TORSDOF 3
ENDMDL
MODEL 4
REMARK VINA RESULT:      -3.7      2.099      3.609
REMARK  3 active torsions:
REMARK  status: ('A' for Active; 'I' for Inactive)
REMARK    1  A    between atoms: C4_4  and  C6_6 
REMARK    2  A    between atoms: C4_4  and  O7_7 
REMARK    3  A    between atoms: C5_5  and  C6_6 
ROOT
HETATM    1  C6  UNL     1     -33.843   7.188   4.234  1.00 20.00     0.109 C 
HETATM    2 CL8  UNL     1     -33.011   8.391   5.279  1.00 20.00    -0.122 Cl
ENDROOT
BRANCH   1   3
HETATM    3  C4  UNL     1     -32.817   6.536   3.305  1.00 20.00     0.187 C 
BRANCH   3   4
HETATM    4  O7  UNL     1     -31.863   7.507   2.889  1.00 20.00    -0.394 OA
HETATM    5  C3  UNL     1     -32.206   8.065   1.628  1.00 20.00     0.201 C 
ENDBRANCH   3   4
ENDBRANCH   1   3
BRANCH   1   6
HETATM    6  C5  UNL     1     -34.638   6.156   5.067  1.00 20.00    -0.002 C 
HETATM    7  C1  UNL     1     -34.410   6.261   6.578  1.00 20.00     0.011 C 
HETATM    8  C2  UNL     1     -34.372   4.720   4.600  1.00 20.00     0.011 C 
ENDBRANCH   1   6
TORSDOF 3
ENDMDL
MODEL 5
REMARK VINA RESULT:      -3.6      1.516      2.066
REMARK  3 active torsions:
REMARK  status: ('A' for Active; 'I' for Inactive)
REMARK    1  A    between atoms: C4_4  and  C6_6 
REMARK    2  A    between atoms: C4_4  and  O7_7 
REMARK    3  A    between atoms: C5_5  and  C6_6 
ROOT
HETATM    1  C6  UNL     1     -33.509   6.675   4.557  1.00 20.00     0.109 C 
HETATM    2 CL8  UNL     1     -33.764   8.412   4.942  1.00 20.00    -0.122 Cl
ENDROOT
BRANCH   1   3
HETATM    3  C4  UNL     1     -34.867   6.008   4.329  1.00 20.00     0.187 C 
BRANCH   3   4
HETATM    4  O7  UNL     1     -35.044   4.952   5.267  1.00 20.00    -0.394 OA
HETATM    5  C3  UNL     1     -34.389   5.234   6.496  1.00 20.00     0.201 C 
ENDBRANCH   3   4
ENDBRANCH   1   3
BRANCH   1   6
HETATM    6  C5  UNL     1     -32.541   6.487   3.365  1.00 20.00    -0.002 C 
HETATM    7  C1  UNL     1     -32.375   7.734   2.491  1.00 20.00     0.011 C 
HETATM    8  C2  UNL     1     -32.937   5.290   2.492  1.00 20.00     0.011 C 
ENDBRANCH   1   6
TORSDOF 3
ENDMDL
MODEL 6
REMARK VINA RESULT:      -3.5      2.569      4.018
REMARK  3 active torsions:
REMARK  status: ('A' for Active; 'I' for Inactive)
REMARK    1  A    between atoms: C4_4  and  C6_6 
REMARK    2  A    between atoms: C4_4  and  O7_7 
REMARK    3  A    between atoms: C5_5  and  C6_6 
ROOT
HETATM    1  C6  UNL     1     -33.043   6.345   4.026  1.00 20.00     0.109 C 
HETATM    2 CL8  UNL     1     -33.172   5.135   2.702  1.00 20.00    -0.122 Cl
ENDROOT
BRANCH   1   3
HETATM    3  C4  UNL     1     -32.666   7.703   3.429  1.00 20.00     0.187 C 
BRANCH   3   4
HETATM    4  O7  UNL     1     -31.633   8.296   4.208  1.00 20.00    -0.394 OA
HETATM    5  C3  UNL     1     -32.118   9.396   4.964  1.00 20.00     0.201 C 
ENDBRANCH   3   4
ENDBRANCH   1   3
BRANCH   1   6
HETATM    6  C5  UNL     1     -34.333   6.403   4.879  1.00 20.00    -0.002 C 
HETATM    7  C1  UNL     1     -34.103   6.828   6.332  1.00 20.00     0.011 C 
HETATM    8  C2  UNL     1     -35.102   5.076   4.841  1.00 20.00     0.011 C 
ENDBRANCH   1   6
TORSDOF 3
ENDMDL
MODEL 7
REMARK VINA RESULT:      -3.4      2.048      2.320
REMARK  3 active torsions:
REMARK  status: ('A' for Active; 'I' for Inactive)
REMARK    1  A    between atoms: C4_4  and  C6_6 
REMARK    2  A    between atoms: C4_4  and  O7_7 
REMARK    3  A    between atoms: C5_5  and  C6_6 
ROOT
HETATM    1  C6  UNL     1     -33.899   6.371   3.573  1.00 20.00     0.109 C 
HETATM    2 CL8  UNL     1     -33.010   5.019   2.791  1.00 20.00    -0.122 Cl
ENDROOT
BRANCH   1   3
HETATM    3  C4  UNL     1     -35.033   5.799   4.427  1.00 20.00     0.187 C 
BRANCH   3   4
HETATM    4  O7  UNL     1     -34.546   4.706   5.197  1.00 20.00    -0.394 OA
HETATM    5  C3  UNL     1     -34.465   5.038   6.576  1.00 20.00     0.201 C 
ENDBRANCH   3   4
ENDBRANCH   1   3
BRANCH   1   6
HETATM    6  C5  UNL     1     -32.952   7.293   4.376  1.00 20.00    -0.002 C 
HETATM    7  C1  UNL     1     -33.673   8.312   5.262  1.00 20.00     0.011 C 
HETATM    8  C2  UNL     1     -31.950   8.014   3.465  1.00 20.00     0.011 C 
ENDBRANCH   1   6
TORSDOF 3
ENDMDL
MODEL 8
REMARK VINA RESULT:      -3.2      1.721      3.290
REMARK  3 active torsions:
REMARK  status: ('A' for Active; 'I' for Inactive)
REMARK    1  A    between atoms: C4_4  and  C6_6 
REMARK    2  A    between atoms: C4_4  and  O7_7 
REMARK    3  A    between atoms: C5_5  and  C6_6 
ROOT
HETATM    1  C6  UNL     1     -34.685   6.371   4.780  1.00 20.00     0.109 C 
HETATM    2 CL8  UNL     1     -34.391   6.052   6.524  1.00 20.00    -0.122 Cl
ENDROOT
BRANCH   1   3
HETATM    3  C4  UNL     1     -34.067   7.721   4.406  1.00 20.00     0.187 C 
BRANCH   3   4
HETATM    4  O7  UNL     1     -33.118   8.103   5.396  1.00 20.00    -0.394 OA
HETATM    5  C3  UNL     1     -32.069   8.880   4.837  1.00 20.00     0.201 C 
ENDBRANCH   3   4
ENDBRANCH   1   3
BRANCH   1   6
HETATM    6  C5  UNL     1     -34.176   5.213   3.890  1.00 20.00    -0.002 C 
HETATM    7  C1  UNL     1     -33.701   3.985   4.673  1.00 20.00     0.011 C 
HETATM    8  C2  UNL     1     -33.074   5.674   2.929  1.00 20.00     0.011 C 
ENDBRANCH   1   6
TORSDOF 3
ENDMDL
MODEL 9
REMARK VINA RESULT:      -3.0     12.410     13.036
REMARK  3 active torsions:
REMARK  status: ('A' for Active; 'I' for Inactive)
REMARK    1  A    between atoms: C4_4  and  C6_6 
REMARK    2  A    between atoms: C4_4  and  O7_7 
REMARK    3  A    between atoms: C5_5  and  C6_6 
ROOT
HETATM    1  C6  UNL     1     -34.169  16.208  -4.252  1.00 20.00     0.109 C 
HETATM    2 CL8  UNL     1     -34.542  17.043  -5.799  1.00 20.00    -0.122 Cl
ENDROOT
BRANCH   1   3
HETATM    3  C4  UNL     1     -33.611  14.815  -4.556  1.00 20.00     0.187 C 
BRANCH   3   4
HETATM    4  O7  UNL     1     -34.476  13.825  -4.011  1.00 20.00    -0.394 OA
HETATM    5  C3  UNL     1     -35.719  13.785  -4.699  1.00 20.00     0.201 C 
ENDBRANCH   3   4
ENDBRANCH   1   3
BRANCH   1   6
HETATM    6  C5  UNL     1     -33.226  17.048  -3.358  1.00 20.00    -0.002 C 
HETATM    7  C1  UNL     1     -33.546  16.968  -1.863  1.00 20.00     0.011 C 
HETATM    8  C2  UNL     1     -33.178  18.515  -3.802  1.00 20.00     0.011 C 
ENDBRANCH   1   6
TORSDOF 3
ENDMDL
