MODEL 1
REMARK VINA RESULT:      -4.1      0.000      0.000
REMARK  2 active torsions:
REMARK  status: ('A' for Active; 'I' for Inactive)
REMARK    1  A    between atoms: C2_2  and  C8_8 
REMARK    2  A    between atoms: C3_3  and  C5_5 
ROOT
HETATM    1  C1  UNL     1     -33.861  17.552  -4.204  1.00 20.00     0.080 A 
HETATM    2  C2  UNL     1     -33.557  16.333  -3.634  1.00 20.00     0.055 A 
HETATM    3  C3  UNL     1     -33.780  17.511  -1.797  1.00 20.00     0.080 A 
HETATM    4  N9  UNL     1     -33.510  16.308  -2.254  1.00 20.00    -0.248 NA
HETATM    5  S10 UNL     1     -34.100  18.720  -2.972  1.00 20.00    -0.084 SA
ENDROOT
BRANCH   3   6
HETATM    6  C5  UNL     1     -33.808  17.818  -0.290  1.00 20.00     0.049 A 
HETATM    7  C4  UNL     1     -33.720  19.263   0.153  1.00 20.00     0.016 A 
HETATM    8  C6  UNL     1     -32.568  18.338   0.415  1.00 20.00    -0.007 A 
HETATM    9  C7  UNL     1     -31.272  18.542  -0.292  1.00 20.00     0.011 C 
ENDBRANCH   3   6
BRANCH   2  10
HETATM   10  C8  UNL     1     -33.285  15.082  -4.368  1.00 20.00     0.174 C 
HETATM   11 CL11 UNL     1     -34.002  15.123  -6.000  1.00 20.00    -0.124 Cl
ENDBRANCH   2  10
TORSDOF 2
ENDMDL
MODEL 2
REMARK VINA RESULT:      -3.6      3.476      5.142
REMARK  2 active torsions:
REMARK  status: ('A' for Active; 'I' for Inactive)
REMARK    1  A    between atoms: C2_2  and  C8_8 
REMARK    2  A    between atoms: C3_3  and  C5_5 
ROOT
HETATM    1  C1  UNL     1     -33.122  19.158   0.793  1.00 20.00     0.080 A 
HETATM    2  C2  UNL     1     -31.819  18.971   0.377  1.00 20.00     0.055 A 
HETATM    3  C3  UNL     1     -32.801  18.934  -1.584  1.00 20.00     0.080 A 
HETATM    4  N9  UNL     1     -31.634  18.842  -0.985  1.00 20.00    -0.248 NA
HETATM    5  S10 UNL     1     -34.163  19.177  -0.569  1.00 20.00    -0.084 SA
ENDROOT
BRANCH   3   6
HETATM    6  C5  UNL     1     -32.938  18.831  -3.112  1.00 20.00     0.049 A 
HETATM    7  C4  UNL     1     -34.311  18.584  -3.699  1.00 20.00     0.016 A 
HETATM    8  C6  UNL     1     -33.272  17.504  -3.770  1.00 20.00    -0.007 A 
HETATM    9  C7  UNL     1     -33.448  16.246  -2.989  1.00 20.00     0.011 C 
ENDBRANCH   3   6
BRANCH   2  10
HETATM   10  C8  UNL     1     -30.636  18.899   1.257  1.00 20.00     0.174 C 
HETATM   11 CL11 UNL     1     -31.113  18.706   2.964  1.00 20.00    -0.124 Cl
ENDBRANCH   2  10
TORSDOF 2
ENDMDL
MODEL 3
REMARK VINA RESULT:      -3.6     12.045     12.942
REMARK  2 active torsions:
REMARK  status: ('A' for Active; 'I' for Inactive)
REMARK    1  A    between atoms: C2_2  and  C8_8 
REMARK    2  A    between atoms: C3_3  and  C5_5 
ROOT
HETATM    1  C1  UNL     1     -41.259  13.527   5.406  1.00 20.00     0.080 A 
HETATM    2  C2  UNL     1     -40.389  12.800   6.192  1.00 20.00     0.055 A 
HETATM    3  C3  UNL     1     -40.912  14.365   7.637  1.00 20.00     0.080 A 
HETATM    4  N9  UNL     1     -40.189  13.279   7.471  1.00 20.00    -0.248 NA
HETATM    5  S10 UNL     1     -41.856  14.866   6.295  1.00 20.00    -0.084 SA
ENDROOT
BRANCH   3   6
HETATM    6  C5  UNL     1     -40.911  15.145   8.963  1.00 20.00     0.049 A 
HETATM    7  C4  UNL     1     -40.455  14.432  10.218  1.00 20.00     0.016 A 
HETATM    8  C6  UNL     1     -41.901  14.802  10.062  1.00 20.00    -0.007 A 
HETATM    9  C7  UNL     1     -42.931  13.735   9.906  1.00 20.00     0.011 C 
ENDBRANCH   3   6
BRANCH   2  10
HETATM   10  C8  UNL     1     -39.673  11.577   5.781  1.00 20.00     0.174 C 
HETATM   11 CL11 UNL     1     -39.039  11.729   4.121  1.00 20.00    -0.124 Cl
ENDBRANCH   2  10
TORSDOF 2
ENDMDL
MODEL 4
REMARK VINA RESULT:      -3.5      2.627      5.150
REMARK  2 active torsions:
REMARK  status: ('A' for Active; 'I' for Inactive)
REMARK    1  A    between atoms: C2_2  and  C8_8 
REMARK    2  A    between atoms: C3_3  and  C5_5 
ROOT
HETATM    1  C1  UNL     1     -33.858  18.576  -3.223  1.00 20.00     0.080 A 
HETATM    2  C2  UNL     1     -33.590  17.561  -2.328  1.00 20.00     0.055 A 
HETATM    3  C3  UNL     1     -33.847  16.348  -4.138  1.00 20.00     0.080 A 
HETATM    4  N9  UNL     1     -33.584  16.283  -2.852  1.00 20.00    -0.248 NA
HETATM    5  S10 UNL     1     -34.113  17.916  -4.784  1.00 20.00    -0.084 SA
ENDROOT
BRANCH   3   6
HETATM    6  C5  UNL     1     -33.914  15.088  -5.017  1.00 20.00     0.049 A 
HETATM    7  C4  UNL     1     -34.164  15.255  -6.501  1.00 20.00     0.016 A 
HETATM    8  C6  UNL     1     -35.228  14.646  -5.636  1.00 20.00    -0.007 A 
HETATM    9  C7  UNL     1     -36.508  15.376  -5.402  1.00 20.00     0.011 C 
ENDBRANCH   3   6
BRANCH   2  10
HETATM   10  C8  UNL     1     -33.316  17.731  -0.888  1.00 20.00     0.174 C 
HETATM   11 CL11 UNL     1     -31.682  18.392  -0.617  1.00 20.00    -0.124 Cl
ENDBRANCH   2  10
TORSDOF 2
ENDMDL
MODEL 5
REMARK VINA RESULT:      -3.5     11.915     12.465
REMARK  2 active torsions:
REMARK  status: ('A' for Active; 'I' for Inactive)
REMARK    1  A    between atoms: C2_2  and  C8_8 
REMARK    2  A    between atoms: C3_3  and  C5_5 
ROOT
HETATM    1  C1  UNL     1     -32.157   8.938   4.103  1.00 20.00     0.080 A 
HETATM    2  C2  UNL     1     -32.506   8.055   3.101  1.00 20.00     0.055 A 
HETATM    3  C3  UNL     1     -33.793   7.272   4.696  1.00 20.00     0.080 A 
HETATM    4  N9  UNL     1     -33.443   7.099   3.440  1.00 20.00    -0.248 NA
HETATM    5  S10 UNL     1     -33.033   8.565   5.529  1.00 20.00    -0.084 SA
ENDROOT
BRANCH   3   6
HETATM    6  C5  UNL     1     -34.827   6.363   5.381  1.00 20.00     0.049 A 
HETATM    7  C4  UNL     1     -34.363   5.462   6.506  1.00 20.00     0.016 A 
HETATM    8  C6  UNL     1     -34.775   4.857   5.196  1.00 20.00    -0.007 A 
HETATM    9  C7  UNL     1     -33.761   4.192   4.329  1.00 20.00     0.011 C 
ENDBRANCH   3   6
BRANCH   2  10
HETATM   10  C8  UNL     1     -31.967   8.054   1.727  1.00 20.00     0.174 C 
HETATM   11 CL11 UNL     1     -32.670   9.375   0.758  1.00 20.00    -0.124 Cl
ENDBRANCH   2  10
TORSDOF 2
ENDMDL
MODEL 6
REMARK VINA RESULT:      -3.4     11.682     12.537
REMARK  2 active torsions:
REMARK  status: ('A' for Active; 'I' for Inactive)
REMARK    1  A    between atoms: C2_2  and  C8_8 
REMARK    2  A    between atoms: C3_3  and  C5_5 
ROOT
HETATM    1  C1  UNL     1     -41.060  13.300   5.215  1.00 20.00     0.080 A 
HETATM    2  C2  UNL     1     -40.065  12.854   6.060  1.00 20.00     0.055 A 
HETATM    3  C3  UNL     1     -41.321  13.876   7.539  1.00 20.00     0.080 A 
HETATM    4  N9  UNL     1     -40.212  13.184   7.392  1.00 20.00    -0.248 NA
HETATM    5  S10 UNL     1     -42.233  14.167   6.115  1.00 20.00    -0.084 SA
ENDROOT
BRANCH   3   6
HETATM    6  C5  UNL     1     -41.775  14.398   8.912  1.00 20.00     0.049 A 
HETATM    7  C4  UNL     1     -42.896  15.414   8.964  1.00 20.00     0.016 A 
HETATM    8  C6  UNL     1     -41.501  15.834   9.323  1.00 20.00    -0.007 A 
HETATM    9  C7  UNL     1     -40.760  16.788   8.449  1.00 20.00     0.011 C 
ENDBRANCH   3   6
BRANCH   2  10
HETATM   10  C8  UNL     1     -38.881  12.069   5.658  1.00 20.00     0.174 C 
HETATM   11 CL11 UNL     1     -38.952  11.634   3.931  1.00 20.00    -0.124 Cl
ENDBRANCH   2  10
TORSDOF 2
ENDMDL
MODEL 7
REMARK VINA RESULT:      -3.4     24.459     24.942
REMARK  2 active torsions:
REMARK  status: ('A' for Active; 'I' for Inactive)
REMARK    1  A    between atoms: C2_2  and  C8_8 
REMARK    2  A    between atoms: C3_3  and  C5_5 
ROOT
HETATM    1  C1  UNL     1     -23.678  -2.362  11.230  1.00 20.00     0.080 A 
HETATM    2  C2  UNL     1     -24.094  -3.192  10.210  1.00 20.00     0.055 A 
HETATM    3  C3  UNL     1     -26.058  -2.685  11.045  1.00 20.00     0.080 A 
HETATM    4  N9  UNL     1     -25.457  -3.380  10.103  1.00 20.00    -0.248 NA
HETATM    5  S10 UNL     1     -25.042  -1.785  12.095  1.00 20.00    -0.084 SA
ENDROOT
BRANCH   3   6
HETATM    6  C5  UNL     1     -27.588  -2.681  11.197  1.00 20.00     0.049 A 
HETATM    7  C4  UNL     1     -28.438  -2.835   9.954  1.00 20.00     0.016 A 
HETATM    8  C6  UNL     1     -28.413  -1.519  10.674  1.00 20.00    -0.007 A 
HETATM    9  C7  UNL     1     -27.795  -0.326  10.027  1.00 20.00     0.011 C 
ENDBRANCH   3   6
BRANCH   2  10
HETATM   10  C8  UNL     1     -23.213  -3.881   9.247  1.00 20.00     0.174 C 
HETATM   11 CL11 UNL     1     -23.165  -3.019   7.687  1.00 20.00    -0.124 Cl
ENDBRANCH   2  10
TORSDOF 2
ENDMDL
MODEL 8
REMARK VINA RESULT:      -3.3      2.232      2.967
REMARK  2 active torsions:
REMARK  status: ('A' for Active; 'I' for Inactive)
REMARK    1  A    between atoms: C2_2  and  C8_8 
REMARK    2  A    between atoms: C3_3  and  C5_5 
ROOT
HETATM    1  C1  UNL     1     -35.325  17.130  -6.446  1.00 20.00     0.080 A 
HETATM    2  C2  UNL     1     -35.192  15.969  -5.712  1.00 20.00     0.055 A 
HETATM    3  C3  UNL     1     -34.039  17.313  -4.417  1.00 20.00     0.080 A 
HETATM    4  N9  UNL     1     -34.455  16.072  -4.549  1.00 20.00    -0.248 NA
HETATM    5  S10 UNL     1     -34.498  18.407  -5.656  1.00 20.00    -0.084 SA
ENDROOT
BRANCH   3   6
HETATM    6  C5  UNL     1     -33.186  17.759  -3.217  1.00 20.00     0.049 A 
HETATM    7  C4  UNL     1     -33.403  17.074  -1.885  1.00 20.00     0.016 A 
HETATM    8  C6  UNL     1     -33.817  18.506  -2.056  1.00 20.00    -0.007 A 
HETATM    9  C7  UNL     1     -35.263  18.872  -2.032  1.00 20.00     0.011 C 
ENDBRANCH   3   6
BRANCH   2  10
HETATM   10  C8  UNL     1     -35.764  14.655  -6.066  1.00 20.00     0.174 C 
HETATM   11 CL11 UNL     1     -35.885  13.598  -4.635  1.00 20.00    -0.124 Cl
ENDBRANCH   2  10
TORSDOF 2
ENDMDL
MODEL 9
REMARK VINA RESULT:      -3.3     13.013     14.255
REMARK  2 active torsions:
REMARK  status: ('A' for Active; 'I' for Inactive)
REMARK    1  A    between atoms: C2_2  and  C8_8 
REMARK    2  A    between atoms: C3_3  and  C5_5 
ROOT
HETATM    1  C1  UNL     1     -40.363  15.772   9.536  1.00 20.00     0.080 A 
HETATM    2  C2  UNL     1     -40.908  14.575   9.953  1.00 20.00     0.055 A 
HETATM    3  C3  UNL     1     -41.268  14.370   7.799  1.00 20.00     0.080 A 
HETATM    4  N9  UNL     1     -41.429  13.771   8.959  1.00 20.00    -0.248 NA
HETATM    5  S10 UNL     1     -40.499  15.903   7.832  1.00 20.00    -0.084 SA
ENDROOT
BRANCH   3   6
HETATM    6  C5  UNL     1     -41.745  13.731   6.484  1.00 20.00     0.049 A 
HETATM    7  C4  UNL     1     -42.124  12.265   6.490  1.00 20.00     0.016 A 
HETATM    8  C6  UNL     1     -40.885  12.705   5.768  1.00 20.00    -0.007 A 
HETATM    9  C7  UNL     1     -39.542  12.295   6.271  1.00 20.00     0.011 C 
ENDBRANCH   3   6
BRANCH   2  10
HETATM   10  C8  UNL     1     -40.978  14.100  11.349  1.00 20.00     0.174 C 
HETATM   11 CL11 UNL     1     -39.658  14.788  12.331  1.00 20.00    -0.124 Cl
ENDBRANCH   2  10
TORSDOF 2
ENDMDL
