MODEL 1
REMARK VINA RESULT:      -4.2      0.000      0.000
REMARK  2 active torsions:
REMARK  status: ('A' for Active; 'I' for Inactive)
REMARK    1  A    between atoms: C2_2  and  C9_9 
REMARK    2  A    between atoms: C9_9  and  N11_11 
ROOT
HETATM    1  C1  UNL     1     -31.315  18.538   1.542  1.00 20.00    -0.109 C 
HETATM    2  C2  UNL     1     -32.256  18.506   0.795  1.00 20.00    -0.077 C 
HETATM    3  C7  UNL     1     -30.171  18.578   2.452  1.00 20.00     0.112 C 
ENDROOT
BRANCH   2   4
HETATM    4  C9  UNL     1     -33.400  18.473  -0.120  1.00 20.00     0.365 C 
BRANCH   4   5
HETATM    5  N11 UNL     1     -32.969  18.177  -1.485  1.00 20.00     0.103 N 
HETATM    6  C4  UNL     1     -33.366  19.252  -2.402  1.00 20.00     0.303 C 
HETATM    7  C3  UNL     1     -32.918  18.938  -3.829  1.00 20.00     0.300 C 
HETATM    8  N10 UNL     1     -33.448  17.654  -4.294  1.00 20.00     0.091 N 
HETATM    9  C6  UNL     1     -33.059  16.577  -3.374  1.00 20.00     0.244 C 
HETATM   10  H27 UNL     1     -34.466  17.711  -4.327  1.00 20.00     0.316 HD
HETATM   11  C5  UNL     1     -33.512  16.888  -1.936  1.00 20.00     0.308 C 
HETATM   12  C8  UNL     1     -33.667  15.262  -3.858  1.00 20.00     0.044 C 
ENDBRANCH   4   5
ENDBRANCH   2   4
TORSDOF 2
ENDMDL
MODEL 2
REMARK VINA RESULT:      -4.1      2.511      4.386
REMARK  2 active torsions:
REMARK  status: ('A' for Active; 'I' for Inactive)
REMARK    1  A    between atoms: C2_2  and  C9_9 
REMARK    2  A    between atoms: C9_9  and  N11_11 
ROOT
HETATM    1  C1  UNL     1     -33.604  17.423  -1.190  1.00 20.00    -0.109 C 
HETATM    2  C2  UNL     1     -33.380  16.919  -2.256  1.00 20.00    -0.077 C 
HETATM    3  C7  UNL     1     -33.878  18.038   0.109  1.00 20.00     0.112 C 
ENDROOT
BRANCH   2   4
HETATM    4  C9  UNL     1     -33.108  16.309  -3.561  1.00 20.00     0.365 C 
BRANCH   4   5
HETATM    5  N11 UNL     1     -34.337  15.795  -4.164  1.00 20.00     0.103 N 
HETATM    6  C4  UNL     1     -34.341  14.327  -4.169  1.00 20.00     0.303 C 
HETATM    7  C3  UNL     1     -35.625  13.793  -4.804  1.00 20.00     0.300 C 
HETATM    8  N10 UNL     1     -35.811  14.305  -6.163  1.00 20.00     0.091 N 
HETATM    9  C6  UNL     1     -35.799  15.774  -6.162  1.00 20.00     0.244 C 
HETATM   10  H27 UNL     1     -35.047  13.966  -6.749  1.00 20.00     0.316 HD
HETATM   11  C5  UNL     1     -34.506  16.316  -5.527  1.00 20.00     0.308 C 
HETATM   12  C8  UNL     1     -35.946  16.275  -7.598  1.00 20.00     0.044 C 
ENDBRANCH   4   5
ENDBRANCH   2   4
TORSDOF 2
ENDMDL
MODEL 3
REMARK VINA RESULT:      -4.0      2.156      3.750
REMARK  2 active torsions:
REMARK  status: ('A' for Active; 'I' for Inactive)
REMARK    1  A    between atoms: C2_2  and  C9_9 
REMARK    2  A    between atoms: C9_9  and  N11_11 
ROOT
HETATM    1  C1  UNL     1     -34.004  18.072  -1.012  1.00 20.00    -0.109 C 
HETATM    2  C2  UNL     1     -34.199  18.129  -2.196  1.00 20.00    -0.077 C 
HETATM    3  C7  UNL     1     -33.768  18.003   0.430  1.00 20.00     0.112 C 
ENDROOT
BRANCH   2   4
HETATM    4  C9  UNL     1     -34.436  18.205  -3.640  1.00 20.00     0.365 C 
BRANCH   4   5
HETATM    5  N11 UNL     1     -34.470  16.871  -4.234  1.00 20.00     0.103 N 
HETATM    6  C4  UNL     1     -33.344  16.059  -3.758  1.00 20.00     0.303 C 
HETATM    7  C3  UNL     1     -33.380  14.665  -4.385  1.00 20.00     0.300 C 
HETATM    8  N10 UNL     1     -33.376  14.728  -5.848  1.00 20.00     0.091 N 
HETATM    9  C6  UNL     1     -34.498  15.547  -6.327  1.00 20.00     0.244 C 
HETATM   10  H27 UNL     1     -32.500  15.151  -6.157  1.00 20.00     0.316 HD
HETATM   11  C5  UNL     1     -34.462  16.953  -5.702  1.00 20.00     0.308 C 
HETATM   12  C8  UNL     1     -34.437  15.634  -7.851  1.00 20.00     0.044 C 
ENDBRANCH   4   5
ENDBRANCH   2   4
TORSDOF 2
ENDMDL
MODEL 4
REMARK VINA RESULT:      -3.9      2.603      4.425
REMARK  2 active torsions:
REMARK  status: ('A' for Active; 'I' for Inactive)
REMARK    1  A    between atoms: C2_2  and  C9_9 
REMARK    2  A    between atoms: C9_9  and  N11_11 
ROOT
HETATM    1  C1  UNL     1     -33.536  17.239  -1.484  1.00 20.00    -0.109 C 
HETATM    2  C2  UNL     1     -33.380  16.633  -2.510  1.00 20.00    -0.077 C 
HETATM    3  C7  UNL     1     -33.725  17.977  -0.236  1.00 20.00     0.112 C 
ENDROOT
BRANCH   2   4
HETATM    4  C9  UNL     1     -33.183  15.892  -3.759  1.00 20.00     0.365 C 
BRANCH   4   5
HETATM    5  N11 UNL     1     -34.423  15.831  -4.530  1.00 20.00     0.103 N 
HETATM    6  C4  UNL     1     -34.264  14.966  -5.706  1.00 20.00     0.303 C 
HETATM    7  C3  UNL     1     -35.561  14.909  -6.514  1.00 20.00     0.300 C 
HETATM    8  N10 UNL     1     -36.004  16.243  -6.923  1.00 20.00     0.091 N 
HETATM    9  C6  UNL     1     -36.156  17.114  -5.749  1.00 20.00     0.244 C 
HETATM   10  H27 UNL     1     -35.304  16.646  -7.547  1.00 20.00     0.316 HD
HETATM   11  C5  UNL     1     -34.851  17.177  -4.935  1.00 20.00     0.308 C 
HETATM   12  C8  UNL     1     -36.571  18.509  -6.213  1.00 20.00     0.044 C 
ENDBRANCH   4   5
ENDBRANCH   2   4
TORSDOF 2
ENDMDL
MODEL 5
REMARK VINA RESULT:      -3.9     14.623     16.033
REMARK  2 active torsions:
REMARK  status: ('A' for Active; 'I' for Inactive)
REMARK    1  A    between atoms: C2_2  and  C9_9 
REMARK    2  A    between atoms: C9_9  and  N11_11 
ROOT
HETATM    1  C1  UNL     1     -21.810  18.163   8.977  1.00 20.00    -0.109 C 
HETATM    2  C2  UNL     1     -21.878  18.343  10.163  1.00 20.00    -0.077 C 
HETATM    3  C7  UNL     1     -21.726  17.944   7.534  1.00 20.00     0.112 C 
ENDROOT
BRANCH   2   4
HETATM    4  C9  UNL     1     -21.956  18.567  11.609  1.00 20.00     0.365 C 
BRANCH   4   5
HETATM    5  N11 UNL     1     -23.228  18.087  12.144  1.00 20.00     0.103 N 
HETATM    6  C4  UNL     1     -23.452  16.684  11.776  1.00 20.00     0.303 C 
HETATM    7  C3  UNL     1     -24.787  16.186  12.332  1.00 20.00     0.300 C 
HETATM    8  N10 UNL     1     -25.906  17.013  11.878  1.00 20.00     0.091 N 
HETATM    9  C6  UNL     1     -25.681  18.420  12.237  1.00 20.00     0.244 C 
HETATM   10  H27 UNL     1     -25.980  16.937  10.862  1.00 20.00     0.316 HD
HETATM   11  C5  UNL     1     -24.340  18.926  11.675  1.00 20.00     0.308 C 
HETATM   12  C8  UNL     1     -26.840  19.262  11.707  1.00 20.00     0.044 C 
ENDBRANCH   4   5
ENDBRANCH   2   4
TORSDOF 2
ENDMDL
MODEL 6
REMARK VINA RESULT:      -3.6     11.755     12.835
REMARK  2 active torsions:
REMARK  status: ('A' for Active; 'I' for Inactive)
REMARK    1  A    between atoms: C2_2  and  C9_9 
REMARK    2  A    between atoms: C9_9  and  N11_11 
ROOT
HETATM    1  C1  UNL     1     -32.670   9.112   1.716  1.00 20.00    -0.109 C 
HETATM    2  C2  UNL     1     -32.665   8.938   2.905  1.00 20.00    -0.077 C 
HETATM    3  C7  UNL     1     -32.678   9.325   0.270  1.00 20.00     0.112 C 
ENDROOT
BRANCH   2   4
HETATM    4  C9  UNL     1     -32.664   8.728   4.356  1.00 20.00     0.365 C 
BRANCH   4   5
HETATM    5  N11 UNL     1     -33.611   7.680   4.731  1.00 20.00     0.103 N 
HETATM    6  C4  UNL     1     -33.638   7.500   6.188  1.00 20.00     0.303 C 
HETATM    7  C3  UNL     1     -34.626   6.399   6.577  1.00 20.00     0.300 C 
HETATM    8  N10 UNL     1     -34.313   5.131   5.916  1.00 20.00     0.091 N 
HETATM    9  C6  UNL     1     -34.276   5.310   4.458  1.00 20.00     0.244 C 
HETATM   10  H27 UNL     1     -33.397   4.811   6.234  1.00 20.00     0.316 HD
HETATM   11  C5  UNL     1     -33.280   6.414   4.061  1.00 20.00     0.308 C 
HETATM   12  C8  UNL     1     -33.899   3.983   3.801  1.00 20.00     0.044 C 
ENDBRANCH   4   5
ENDBRANCH   2   4
TORSDOF 2
ENDMDL
MODEL 7
REMARK VINA RESULT:      -3.5      1.484      4.860
REMARK  2 active torsions:
REMARK  status: ('A' for Active; 'I' for Inactive)
REMARK    1  A    between atoms: C2_2  and  C9_9 
REMARK    2  A    between atoms: C9_9  and  N11_11 
ROOT
HETATM    1  C1  UNL     1     -33.459  16.412  -3.491  1.00 20.00    -0.109 C 
HETATM    2  C2  UNL     1     -33.282  17.575  -3.251  1.00 20.00    -0.077 C 
HETATM    3  C7  UNL     1     -33.676  14.996  -3.785  1.00 20.00     0.112 C 
ENDROOT
BRANCH   2   4
HETATM    4  C9  UNL     1     -33.071  18.997  -2.961  1.00 20.00     0.365 C 
BRANCH   4   5
HETATM    5  N11 UNL     1     -32.831  19.208  -1.535  1.00 20.00     0.103 N 
HETATM    6  C4  UNL     1     -31.794  18.296  -1.040  1.00 20.00     0.303 C 
HETATM    7  C3  UNL     1     -31.549  18.516   0.453  1.00 20.00     0.300 C 
HETATM    8  N10 UNL     1     -32.778  18.357   1.234  1.00 20.00     0.091 N 
HETATM    9  C6  UNL     1     -33.821  19.263   0.734  1.00 20.00     0.244 C 
HETATM   10  H27 UNL     1     -33.103  17.394   1.143  1.00 20.00     0.316 HD
HETATM   11  C5  UNL     1     -34.073  19.042  -0.767  1.00 20.00     0.308 C 
HETATM   12  C8  UNL     1     -35.102  19.038   1.535  1.00 20.00     0.044 C 
ENDBRANCH   4   5
ENDBRANCH   2   4
TORSDOF 2
ENDMDL
MODEL 8
REMARK VINA RESULT:      -3.5     11.873     13.414
REMARK  2 active torsions:
REMARK  status: ('A' for Active; 'I' for Inactive)
REMARK    1  A    between atoms: C2_2  and  C9_9 
REMARK    2  A    between atoms: C9_9  and  N11_11 
ROOT
HETATM    1  C1  UNL     1     -39.951  12.105   5.135  1.00 20.00    -0.109 C 
HETATM    2  C2  UNL     1     -40.776  12.478   5.924  1.00 20.00    -0.077 C 
HETATM    3  C7  UNL     1     -38.947  11.652   4.173  1.00 20.00     0.112 C 
ENDROOT
BRANCH   2   4
HETATM    4  C9  UNL     1     -41.786  12.936   6.883  1.00 20.00     0.365 C 
BRANCH   4   5
HETATM    5  N11 UNL     1     -41.238  13.962   7.768  1.00 20.00     0.103 N 
HETATM    6  C4  UNL     1     -42.026  14.061   9.002  1.00 20.00     0.303 C 
HETATM    7  C3  UNL     1     -41.453  15.139   9.923  1.00 20.00     0.300 C 
HETATM    8  N10 UNL     1     -41.388  16.442   9.259  1.00 20.00     0.091 N 
HETATM    9  C6  UNL     1     -40.606  16.344   8.018  1.00 20.00     0.244 C 
HETATM   10  H27 UNL     1     -42.336  16.743   9.031  1.00 20.00     0.316 HD
HETATM   11  C5  UNL     1     -41.182  15.263   7.086  1.00 20.00     0.308 C 
HETATM   12  C8  UNL     1     -40.598  17.705   7.325  1.00 20.00     0.044 C 
ENDBRANCH   4   5
ENDBRANCH   2   4
TORSDOF 2
ENDMDL
MODEL 9
REMARK VINA RESULT:      -3.5      2.182      3.102
REMARK  2 active torsions:
REMARK  status: ('A' for Active; 'I' for Inactive)
REMARK    1  A    between atoms: C2_2  and  C9_9 
REMARK    2  A    between atoms: C9_9  and  N11_11 
ROOT
HETATM    1  C1  UNL     1     -32.327  18.188  -1.173  1.00 20.00    -0.109 C 
HETATM    2  C2  UNL     1     -32.870  17.369  -1.864  1.00 20.00    -0.077 C 
HETATM    3  C7  UNL     1     -31.665  19.186  -0.334  1.00 20.00     0.112 C 
ENDROOT
BRANCH   2   4
HETATM    4  C9  UNL     1     -33.527  16.368  -2.710  1.00 20.00     0.365 C 
BRANCH   4   5
HETATM    5  N11 UNL     1     -33.896  16.939  -4.003  1.00 20.00     0.103 N 
HETATM    6  C4  UNL     1     -34.899  17.998  -3.839  1.00 20.00     0.303 C 
HETATM    7  C3  UNL     1     -35.287  18.590  -5.194  1.00 20.00     0.300 C 
HETATM    8  N10 UNL     1     -35.780  17.563  -6.114  1.00 20.00     0.091 N 
HETATM    9  C6  UNL     1     -34.781  16.498  -6.274  1.00 20.00     0.244 C 
HETATM   10  H27 UNL     1     -36.636  17.161  -5.729  1.00 20.00     0.316 HD
HETATM   11  C5  UNL     1     -34.391  15.896  -4.912  1.00 20.00     0.308 C 
HETATM   12  C8  UNL     1     -35.344  15.420  -7.198  1.00 20.00     0.044 C 
ENDBRANCH   4   5
ENDBRANCH   2   4
TORSDOF 2
ENDMDL
