MODEL 1
REMARK VINA RESULT:      -3.6      0.000      0.000
REMARK  3 active torsions:
REMARK  status: ('A' for Active; 'I' for Inactive)
REMARK    1  A    between atoms: C2_2  and  C8_8 
REMARK    2  A    between atoms: C6_6  and  C8_8 
REMARK    3  A    between atoms: C8_8  and  N9_9 
ROOT
HETATM    1  C8  UNL     1     -34.102  16.910  -4.229  1.00 20.00     0.248 C 
ENDROOT
BRANCH   1   2
HETATM    2  C2  UNL     1     -33.510  15.542  -4.026  1.00 20.00    -0.002 C 
HETATM    3  C1  UNL     1     -34.176  14.400  -4.233  1.00 20.00     0.009 C 
ENDBRANCH   1   2
BRANCH   1   4
HETATM    4  C6  UNL     1     -33.799  17.829  -3.061  1.00 20.00     0.048 C 
HETATM    5  C3  UNL     1     -33.183  17.132  -1.867  1.00 20.00     0.035 C 
HETATM    6  C4  UNL     1     -32.562  18.294  -1.120  1.00 20.00     0.168 C 
HETATM    7  O10 UNL     1     -32.174  19.262  -2.107  1.00 20.00    -0.391 OA
HETATM    8  C5  UNL     1     -32.748  18.882  -3.367  1.00 20.00     0.174 C 
ENDBRANCH   1   4
BRANCH   1   9
HETATM    9  N9  UNL     1     -35.527  16.750  -4.408  1.00 20.00     0.087 N 
HETATM   10  C7  UNL     1     -36.206  18.042  -4.445  1.00 20.00     0.307 C 
HETATM   11  H25 UNL     1     -35.914  16.199  -3.637  1.00 20.00     0.316 HD
ENDBRANCH   1   9
TORSDOF 3
ENDMDL
MODEL 2
REMARK VINA RESULT:      -3.6     12.282     13.486
REMARK  3 active torsions:
REMARK  status: ('A' for Active; 'I' for Inactive)
REMARK    1  A    between atoms: C2_2  and  C8_8 
REMARK    2  A    between atoms: C6_6  and  C8_8 
REMARK    3  A    between atoms: C8_8  and  N9_9 
ROOT
HETATM    1  C8  UNL     1     -33.222   7.642   3.942  1.00 20.00     0.248 C 
ENDROOT
BRANCH   1   2
HETATM    2  C2  UNL     1     -33.059   8.867   4.800  1.00 20.00    -0.002 C 
HETATM    3  C1  UNL     1     -31.875   9.398   5.127  1.00 20.00     0.009 C 
ENDBRANCH   1   2
BRANCH   1   4
HETATM    4  C6  UNL     1     -33.454   6.400   4.779  1.00 20.00     0.048 C 
HETATM    5  C3  UNL     1     -34.199   6.653   6.072  1.00 20.00     0.035 C 
HETATM    6  C4  UNL     1     -34.700   5.266   6.416  1.00 20.00     0.168 C 
HETATM    7  O10 UNL     1     -34.925   4.586   5.171  1.00 20.00    -0.391 OA
HETATM    8  C5  UNL     1     -34.354   5.372   4.114  1.00 20.00     0.174 C 
ENDBRANCH   1   4
BRANCH   1   9
HETATM    9  N9  UNL     1     -32.030   7.509   3.135  1.00 20.00     0.087 N 
HETATM   10  C7  UNL     1     -32.266   7.945   1.761  1.00 20.00     0.307 C 
HETATM   11  H25 UNL     1     -31.728   6.530   3.120  1.00 20.00     0.316 HD
ENDBRANCH   1   9
TORSDOF 3
ENDMDL
MODEL 3
REMARK VINA RESULT:      -3.5      1.672      2.289
REMARK  3 active torsions:
REMARK  status: ('A' for Active; 'I' for Inactive)
REMARK    1  A    between atoms: C2_2  and  C8_8 
REMARK    2  A    between atoms: C6_6  and  C8_8 
REMARK    3  A    between atoms: C8_8  and  N9_9 
ROOT
HETATM    1  C8  UNL     1     -33.749  18.081  -2.331  1.00 20.00     0.248 C 
ENDROOT
BRANCH   1   2
HETATM    2  C2  UNL     1     -33.409  16.616  -2.383  1.00 20.00    -0.002 C 
HETATM    3  C1  UNL     1     -33.380  15.896  -3.510  1.00 20.00     0.009 C 
ENDBRANCH   1   2
BRANCH   1   4
HETATM    4  C6  UNL     1     -33.196  18.739  -1.081  1.00 20.00     0.048 C 
HETATM    5  C3  UNL     1     -33.761  18.188   0.211  1.00 20.00     0.035 C 
HETATM    6  C4  UNL     1     -32.722  18.639   1.218  1.00 20.00     0.168 C 
HETATM    7  O10 UNL     1     -31.462  18.664   0.530  1.00 20.00    -0.391 OA
HETATM    8  C5  UNL     1     -31.708  18.511  -0.876  1.00 20.00     0.174 C 
ENDBRANCH   1   4
BRANCH   1   9
HETATM    9  N9  UNL     1     -35.188  18.201  -2.386  1.00 20.00     0.087 N 
HETATM   10  C7  UNL     1     -35.613  18.963  -3.558  1.00 20.00     0.307 C 
HETATM   11  H25 UNL     1     -35.530  18.676  -1.546  1.00 20.00     0.316 HD
ENDBRANCH   1   9
TORSDOF 3
ENDMDL
MODEL 4
REMARK VINA RESULT:      -3.5      2.418      4.380
REMARK  3 active torsions:
REMARK  status: ('A' for Active; 'I' for Inactive)
REMARK    1  A    between atoms: C2_2  and  C8_8 
REMARK    2  A    between atoms: C6_6  and  C8_8 
REMARK    3  A    between atoms: C8_8  and  N9_9 
ROOT
HETATM    1  C8  UNL     1     -32.592  18.217  -0.340  1.00 20.00     0.248 C 
ENDROOT
BRANCH   1   2
HETATM    2  C2  UNL     1     -31.261  18.708   0.160  1.00 20.00    -0.002 C 
HETATM    3  C1  UNL     1     -30.791  18.472   1.390  1.00 20.00     0.009 C 
ENDBRANCH   1   2
BRANCH   1   4
HETATM    4  C6  UNL     1     -32.535  17.846  -1.810  1.00 20.00     0.048 C 
HETATM    5  C3  UNL     1     -33.487  16.738  -2.207  1.00 20.00     0.035 C 
HETATM    6  C4  UNL     1     -33.572  16.929  -3.707  1.00 20.00     0.168 C 
HETATM    7  O10 UNL     1     -33.407  18.333  -3.956  1.00 20.00    -0.391 OA
HETATM    8  C5  UNL     1     -32.973  18.963  -2.741  1.00 20.00     0.174 C 
ENDBRANCH   1   4
BRANCH   1   9
HETATM    9  N9  UNL     1     -33.562  19.262  -0.107  1.00 20.00     0.087 N 
HETATM   10  C7  UNL     1     -34.518  18.880   0.929  1.00 20.00     0.307 C 
HETATM   11  H25 UNL     1     -34.077  19.458  -0.970  1.00 20.00     0.316 HD
ENDBRANCH   1   9
TORSDOF 3
ENDMDL
MODEL 5
REMARK VINA RESULT:      -3.5     11.965     13.196
REMARK  3 active torsions:
REMARK  status: ('A' for Active; 'I' for Inactive)
REMARK    1  A    between atoms: C2_2  and  C8_8 
REMARK    2  A    between atoms: C6_6  and  C8_8 
REMARK    3  A    between atoms: C8_8  and  N9_9 
ROOT
HETATM    1  C8  UNL     1     -32.569   7.568   4.042  1.00 20.00     0.248 C 
ENDROOT
BRANCH   1   2
HETATM    2  C2  UNL     1     -32.288   7.100   2.640  1.00 20.00    -0.002 C 
HETATM    3  C1  UNL     1     -32.204   7.915   1.583  1.00 20.00     0.009 C 
ENDBRANCH   1   2
BRANCH   1   4
HETATM    4  C6  UNL     1     -33.853   6.969   4.584  1.00 20.00     0.048 C 
HETATM    5  C3  UNL     1     -34.100   5.539   4.154  1.00 20.00     0.035 C 
HETATM    6  C4  UNL     1     -35.107   5.077   5.188  1.00 20.00     0.168 C 
HETATM    7  O10 UNL     1     -34.815   5.792   6.399  1.00 20.00    -0.391 OA
HETATM    8  C5  UNL     1     -33.875   6.834   6.097  1.00 20.00     0.174 C 
ENDBRANCH   1   4
BRANCH   1   9
HETATM    9  N9  UNL     1     -32.639   9.011   4.018  1.00 20.00     0.087 N 
HETATM   10  C7  UNL     1     -31.908   9.598   5.138  1.00 20.00     0.307 C 
HETATM   11  H25 UNL     1     -33.616   9.313   4.072  1.00 20.00     0.316 HD
ENDBRANCH   1   9
TORSDOF 3
ENDMDL
MODEL 6
REMARK VINA RESULT:      -3.4      2.800      4.196
REMARK  3 active torsions:
REMARK  status: ('A' for Active; 'I' for Inactive)
REMARK    1  A    between atoms: C2_2  and  C8_8 
REMARK    2  A    between atoms: C6_6  and  C8_8 
REMARK    3  A    between atoms: C8_8  and  N9_9 
ROOT
HETATM    1  C8  UNL     1     -34.192  17.376  -4.224  1.00 20.00     0.248 C 
ENDROOT
BRANCH   1   2
HETATM    2  C2  UNL     1     -33.507  16.578  -3.148  1.00 20.00    -0.002 C 
HETATM    3  C1  UNL     1     -33.474  16.934  -1.859  1.00 20.00     0.009 C 
ENDBRANCH   1   2
BRANCH   1   4
HETATM    4  C6  UNL     1     -34.844  16.477  -5.257  1.00 20.00     0.048 C 
HETATM    5  C3  UNL     1     -34.686  14.997  -4.980  1.00 20.00     0.035 C 
HETATM    6  C4  UNL     1     -35.794  14.405  -5.826  1.00 20.00     0.168 C 
HETATM    7  O10 UNL     1     -36.851  15.376  -5.863  1.00 20.00    -0.391 OA
HETATM    8  C5  UNL     1     -36.356  16.608  -5.316  1.00 20.00     0.174 C 
ENDBRANCH   1   4
BRANCH   1   9
HETATM    9  N9  UNL     1     -33.202  18.233  -4.834  1.00 20.00     0.087 N 
HETATM   10  C7  UNL     1     -33.826  19.261  -5.663  1.00 20.00     0.307 C 
HETATM   11  H25 UNL     1     -32.574  17.677  -5.421  1.00 20.00     0.316 HD
ENDBRANCH   1   9
TORSDOF 3
ENDMDL
MODEL 7
REMARK VINA RESULT:      -3.4      2.001      2.823
REMARK  3 active torsions:
REMARK  status: ('A' for Active; 'I' for Inactive)
REMARK    1  A    between atoms: C2_2  and  C8_8 
REMARK    2  A    between atoms: C6_6  and  C8_8 
REMARK    3  A    between atoms: C8_8  and  N9_9 
ROOT
HETATM    1  C8  UNL     1     -33.883  15.072  -4.996  1.00 20.00     0.248 C 
ENDROOT
BRANCH   1   2
HETATM    2  C2  UNL     1     -35.330  14.749  -5.253  1.00 20.00    -0.002 C 
HETATM    3  C1  UNL     1     -35.980  13.727  -4.685  1.00 20.00     0.009 C 
ENDBRANCH   1   2
BRANCH   1   4
HETATM    4  C6  UNL     1     -33.723  16.416  -4.311  1.00 20.00     0.048 C 
HETATM    5  C3  UNL     1     -34.968  17.277  -4.337  1.00 20.00     0.035 C 
HETATM    6  C4  UNL     1     -34.687  18.256  -3.216  1.00 20.00     0.168 C 
HETATM    7  O10 UNL     1     -33.894  17.557  -2.244  1.00 20.00    -0.391 OA
HETATM    8  C5  UNL     1     -33.462  16.314  -2.818  1.00 20.00     0.174 C 
ENDBRANCH   1   4
BRANCH   1   9
HETATM    9  N9  UNL     1     -33.196  15.053  -6.267  1.00 20.00     0.087 N 
HETATM   10  C7  UNL     1     -34.072  15.490  -7.352  1.00 20.00     0.307 C 
HETATM   11  H25 UNL     1     -32.870  14.105  -6.472  1.00 20.00     0.316 HD
ENDBRANCH   1   9
TORSDOF 3
ENDMDL
MODEL 8
REMARK VINA RESULT:      -3.4     12.231     13.326
REMARK  3 active torsions:
REMARK  status: ('A' for Active; 'I' for Inactive)
REMARK    1  A    between atoms: C2_2  and  C8_8 
REMARK    2  A    between atoms: C6_6  and  C8_8 
REMARK    3  A    between atoms: C8_8  and  N9_9 
ROOT
HETATM    1  C8  UNL     1     -34.369   6.026   4.172  1.00 20.00     0.248 C 
ENDROOT
BRANCH   1   2
HETATM    2  C2  UNL     1     -33.668   4.849   3.549  1.00 20.00    -0.002 C 
HETATM    3  C1  UNL     1     -32.969   4.912   2.410  1.00 20.00     0.009 C 
ENDBRANCH   1   2
BRANCH   1   4
HETATM    4  C6  UNL     1     -33.383   7.008   4.776  1.00 20.00     0.048 C 
HETATM    5  C3  UNL     1     -32.523   7.728   3.759  1.00 20.00     0.035 C 
HETATM    6  C4  UNL     1     -32.043   8.924   4.555  1.00 20.00     0.168 C 
HETATM    7  O10 UNL     1     -33.084   9.245   5.490  1.00 20.00    -0.391 OA
HETATM    8  C5  UNL     1     -34.042   8.176   5.490  1.00 20.00     0.174 C 
ENDBRANCH   1   4
BRANCH   1   9
HETATM    9  N9  UNL     1     -35.275   5.518   5.176  1.00 20.00     0.087 N 
HETATM   10  C7  UNL     1     -34.554   5.044   6.354  1.00 20.00     0.307 C 
HETATM   11  H25 UNL     1     -35.820   4.740   4.791  1.00 20.00     0.316 HD
ENDBRANCH   1   9
TORSDOF 3
ENDMDL
MODEL 9
REMARK VINA RESULT:      -3.3     12.940     13.445
REMARK  3 active torsions:
REMARK  status: ('A' for Active; 'I' for Inactive)
REMARK    1  A    between atoms: C2_2  and  C8_8 
REMARK    2  A    between atoms: C6_6  and  C8_8 
REMARK    3  A    between atoms: C8_8  and  N9_9 
ROOT
HETATM    1  C8  UNL     1     -40.981  13.550   5.781  1.00 20.00     0.248 C 
ENDROOT
BRANCH   1   2
HETATM    2  C2  UNL     1     -40.268  12.227   5.724  1.00 20.00    -0.002 C 
HETATM    3  C1  UNL     1     -39.428  11.871   4.746  1.00 20.00     0.009 C 
ENDBRANCH   1   2
BRANCH   1   4
HETATM    4  C6  UNL     1     -42.090  13.544   6.816  1.00 20.00     0.048 C 
HETATM    5  C3  UNL     1     -42.758  12.198   7.001  1.00 20.00     0.035 C 
HETATM    6  C4  UNL     1     -43.414  12.364   8.356  1.00 20.00     0.168 C 
HETATM    7  O10 UNL     1     -42.581  13.255   9.114  1.00 20.00    -0.391 OA
HETATM    8  C5  UNL     1     -41.612  13.836   8.228  1.00 20.00     0.174 C 
ENDBRANCH   1   4
BRANCH   1   9
HETATM    9  N9  UNL     1     -41.504  13.825   4.462  1.00 20.00     0.087 N 
HETATM   10  C7  UNL     1     -42.475  14.916   4.491  1.00 20.00     0.307 C 
HETATM   11  H25 UNL     1     -41.963  12.989   4.089  1.00 20.00     0.316 HD
ENDBRANCH   1   9
TORSDOF 3
ENDMDL
