MODEL 1
REMARK VINA RESULT:      -4.8      0.000      0.000
REMARK  1 active torsions:
REMARK  status: ('A' for Active; 'I' for Inactive)
REMARK    1  A    between atoms: C3_3  and  C5_5 
ROOT
HETATM    1  C1  UNL     1     -35.460   5.428   4.609  1.00 20.00     0.021 C 
HETATM    2  C2  UNL     1     -34.681   6.211   5.080  1.00 20.00    -0.039 C 
HETATM    3  C3  UNL     1     -33.743   7.150   5.647  1.00 20.00     0.206 C 
HETATM    4  O8  UNL     1     -33.161   6.876   6.688  1.00 20.00    -0.283 OA
ENDROOT
BRANCH   3   5
HETATM    5  C5  UNL     1     -33.550   8.403   4.908  1.00 20.00     0.073 A 
HETATM    6  C4  UNL     1     -32.187   9.047   4.888  1.00 20.00     0.018 A 
HETATM    7  C6  UNL     1     -32.740   8.434   3.633  1.00 20.00    -0.006 A 
HETATM    8  C7  UNL     1     -32.112   7.210   3.062  1.00 20.00     0.011 C 
ENDBRANCH   3   5
TORSDOF 1
ENDMDL
MODEL 2
REMARK VINA RESULT:      -4.6      1.192      3.259
REMARK  1 active torsions:
REMARK  status: ('A' for Active; 'I' for Inactive)
REMARK    1  A    between atoms: C3_3  and  C5_5 
ROOT
HETATM    1  C1  UNL     1     -32.075   7.473   2.651  1.00 20.00     0.021 C 
HETATM    2  C2  UNL     1     -32.601   7.605   3.722  1.00 20.00    -0.039 C 
HETATM    3  C3  UNL     1     -33.233   7.764   5.010  1.00 20.00     0.206 C 
HETATM    4  O8  UNL     1     -33.569   8.878   5.390  1.00 20.00    -0.283 OA
ENDROOT
BRANCH   3   5
HETATM    5  C5  UNL     1     -33.435   6.538   5.791  1.00 20.00     0.073 A 
HETATM    6  C4  UNL     1     -34.612   6.444   6.728  1.00 20.00     0.018 A 
HETATM    7  C6  UNL     1     -34.579   5.601   5.485  1.00 20.00    -0.006 A 
HETATM    8  C7  UNL     1     -35.544   5.864   4.380  1.00 20.00     0.011 C 
ENDBRANCH   3   5
TORSDOF 1
ENDMDL
MODEL 3
REMARK VINA RESULT:      -4.6      1.263      3.503
REMARK  1 active torsions:
REMARK  status: ('A' for Active; 'I' for Inactive)
REMARK    1  A    between atoms: C3_3  and  C5_5 
ROOT
HETATM    1  C1  UNL     1     -31.846   7.600   2.958  1.00 20.00     0.021 C 
HETATM    2  C2  UNL     1     -32.738   7.568   3.762  1.00 20.00    -0.039 C 
HETATM    3  C3  UNL     1     -33.809   7.529   4.727  1.00 20.00     0.206 C 
HETATM    4  O8  UNL     1     -33.850   8.361   5.625  1.00 20.00    -0.283 OA
ENDROOT
BRANCH   3   5
HETATM    5  C5  UNL     1     -34.804   6.464   4.555  1.00 20.00     0.073 A 
HETATM    6  C4  UNL     1     -34.345   5.077   4.182  1.00 20.00     0.018 A 
HETATM    7  C6  UNL     1     -34.910   5.333   5.550  1.00 20.00    -0.006 A 
HETATM    8  C7  UNL     1     -34.030   5.247   6.749  1.00 20.00     0.011 C 
ENDBRANCH   3   5
TORSDOF 1
ENDMDL
MODEL 4
REMARK VINA RESULT:      -4.5      1.701      3.276
REMARK  1 active torsions:
REMARK  status: ('A' for Active; 'I' for Inactive)
REMARK    1  A    between atoms: C3_3  and  C5_5 
ROOT
HETATM    1  C1  UNL     1     -32.821   5.070   2.345  1.00 20.00     0.021 C 
HETATM    2  C2  UNL     1     -32.984   5.941   3.155  1.00 20.00    -0.039 C 
HETATM    3  C3  UNL     1     -33.178   6.989   4.128  1.00 20.00     0.206 C 
HETATM    4  O8  UNL     1     -32.277   7.787   4.353  1.00 20.00    -0.283 OA
ENDROOT
BRANCH   3   5
HETATM    5  C5  UNL     1     -34.485   7.024   4.794  1.00 20.00     0.073 A 
HETATM    6  C4  UNL     1     -35.415   5.845   4.660  1.00 20.00     0.018 A 
HETATM    7  C6  UNL     1     -34.773   6.141   5.985  1.00 20.00    -0.006 A 
HETATM    8  C7  UNL     1     -33.755   5.208   6.544  1.00 20.00     0.011 C 
ENDBRANCH   3   5
TORSDOF 1
ENDMDL
MODEL 5
REMARK VINA RESULT:      -4.5      1.633      3.718
REMARK  1 active torsions:
REMARK  status: ('A' for Active; 'I' for Inactive)
REMARK    1  A    between atoms: C3_3  and  C5_5 
ROOT
HETATM    1  C1  UNL     1     -32.126   9.143   4.856  1.00 20.00     0.021 C 
HETATM    2  C2  UNL     1     -32.669   8.137   4.486  1.00 20.00    -0.039 C 
HETATM    3  C3  UNL     1     -33.319   6.928   4.042  1.00 20.00     0.206 C 
HETATM    4  O8  UNL     1     -32.761   6.198   3.234  1.00 20.00    -0.283 OA
ENDROOT
BRANCH   3   5
HETATM    5  C5  UNL     1     -34.643   6.654   4.613  1.00 20.00     0.073 A 
HETATM    6  C4  UNL     1     -35.165   5.240   4.624  1.00 20.00     0.018 A 
HETATM    7  C6  UNL     1     -34.785   5.904   5.917  1.00 20.00    -0.006 A 
HETATM    8  C7  UNL     1     -33.605   5.418   6.685  1.00 20.00     0.011 C 
ENDBRANCH   3   5
TORSDOF 1
ENDMDL
MODEL 6
REMARK VINA RESULT:      -4.4      2.032      3.140
REMARK  1 active torsions:
REMARK  status: ('A' for Active; 'I' for Inactive)
REMARK    1  A    between atoms: C3_3  and  C5_5 
ROOT
HETATM    1  C1  UNL     1     -33.070   5.042   3.008  1.00 20.00     0.021 C 
HETATM    2  C2  UNL     1     -33.996   5.377   3.695  1.00 20.00    -0.039 C 
HETATM    3  C3  UNL     1     -35.111   5.778   4.519  1.00 20.00     0.206 C 
HETATM    4  O8  UNL     1     -36.205   5.977   4.008  1.00 20.00    -0.283 OA
ENDROOT
BRANCH   3   5
HETATM    5  C5  UNL     1     -34.841   5.918   5.954  1.00 20.00     0.073 A 
HETATM    6  C4  UNL     1     -33.429   5.765   6.460  1.00 20.00     0.018 A 
HETATM    7  C6  UNL     1     -34.089   7.114   6.489  1.00 20.00    -0.006 A 
HETATM    8  C7  UNL     1     -33.597   8.204   5.600  1.00 20.00     0.011 C 
ENDBRANCH   3   5
TORSDOF 1
ENDMDL
MODEL 7
REMARK VINA RESULT:      -4.1      0.932      3.163
REMARK  1 active torsions:
REMARK  status: ('A' for Active; 'I' for Inactive)
REMARK    1  A    between atoms: C3_3  and  C5_5 
ROOT
HETATM    1  C1  UNL     1     -32.733   8.376   3.733  1.00 20.00     0.021 C 
HETATM    2  C2  UNL     1     -33.146   7.755   4.674  1.00 20.00    -0.039 C 
HETATM    3  C3  UNL     1     -33.643   7.010   5.806  1.00 20.00     0.206 C 
HETATM    4  O8  UNL     1     -33.017   7.011   6.858  1.00 20.00    -0.283 OA
ENDROOT
BRANCH   3   5
HETATM    5  C5  UNL     1     -34.902   6.285   5.606  1.00 20.00     0.073 A 
HETATM    6  C4  UNL     1     -35.458   6.137   4.212  1.00 20.00     0.018 A 
HETATM    7  C6  UNL     1     -34.921   4.933   4.931  1.00 20.00    -0.006 A 
HETATM    8  C7  UNL     1     -33.676   4.270   4.450  1.00 20.00     0.011 C 
ENDBRANCH   3   5
TORSDOF 1
ENDMDL
MODEL 8
REMARK VINA RESULT:      -4.1      1.569      1.690
REMARK  1 active torsions:
REMARK  status: ('A' for Active; 'I' for Inactive)
REMARK    1  A    between atoms: C3_3  and  C5_5 
ROOT
HETATM    1  C1  UNL     1     -34.748   5.247   6.776  1.00 20.00     0.021 C 
HETATM    2  C2  UNL     1     -34.453   5.732   5.718  1.00 20.00    -0.039 C 
HETATM    3  C3  UNL     1     -34.100   6.315   4.447  1.00 20.00     0.206 C 
HETATM    4  O8  UNL     1     -33.974   5.599   3.462  1.00 20.00    -0.283 OA
ENDROOT
BRANCH   3   5
HETATM    5  C5  UNL     1     -33.914   7.771   4.427  1.00 20.00     0.073 A 
HETATM    6  C4  UNL     1     -32.784   8.383   5.215  1.00 20.00     0.018 A 
HETATM    7  C6  UNL     1     -32.737   8.393   3.714  1.00 20.00    -0.006 A 
HETATM    8  C7  UNL     1     -31.722   7.573   2.994  1.00 20.00     0.011 C 
ENDBRANCH   3   5
TORSDOF 1
ENDMDL
MODEL 9
REMARK VINA RESULT:      -4.1      1.740      2.979
REMARK  1 active torsions:
REMARK  status: ('A' for Active; 'I' for Inactive)
REMARK    1  A    between atoms: C3_3  and  C5_5 
ROOT
HETATM    1  C1  UNL     1     -32.743   5.233   2.490  1.00 20.00     0.021 C 
HETATM    2  C2  UNL     1     -32.776   6.254   3.121  1.00 20.00    -0.039 C 
HETATM    3  C3  UNL     1     -32.817   7.482   3.879  1.00 20.00     0.206 C 
HETATM    4  O8  UNL     1     -32.709   8.557   3.303  1.00 20.00    -0.283 OA
ENDROOT
BRANCH   3   5
HETATM    5  C5  UNL     1     -32.992   7.346   5.329  1.00 20.00     0.073 A 
HETATM    6  C4  UNL     1     -34.103   8.101   6.014  1.00 20.00     0.018 A 
HETATM    7  C6  UNL     1     -34.178   6.605   5.901  1.00 20.00    -0.006 A 
HETATM    8  C7  UNL     1     -35.211   5.973   5.034  1.00 20.00     0.011 C 
ENDBRANCH   3   5
TORSDOF 1
ENDMDL
