MODEL 1
REMARK VINA RESULT:      -5.2      0.000      0.000
REMARK  2 active torsions:
REMARK  status: ('A' for Active; 'I' for Inactive)
REMARK    1  A    between atoms: C2_2  and  C3_3 
REMARK    2  A    between atoms: C3_3  and  C7_7 
ROOT
HETATM    1  C4  UNL     1     -34.557   5.171   5.985  1.00 20.00     0.002 C 
HETATM    2  C5  UNL     1     -35.280   5.779   4.767  1.00 20.00     0.012 C 
HETATM    3  C6  UNL     1     -34.051   6.589   6.315  1.00 20.00     0.012 C 
HETATM    4  C7  UNL     1     -34.291   6.969   4.833  1.00 20.00     0.059 C 
ENDROOT
BRANCH   4   5
HETATM    5  C3  UNL     1     -33.108   6.863   3.950  1.00 20.00     0.152 C 
HETATM    6  O8  UNL     1     -32.991   5.935   3.152  1.00 20.00    -0.293 OA
BRANCH   5   7
HETATM    7  C2  UNL     1     -32.094   7.945   4.059  1.00 20.00     0.040 C 
HETATM    8  C1  UNL     1     -32.358   9.063   4.741  1.00 20.00     0.015 C 
ENDBRANCH   5   7
ENDBRANCH   4   5
TORSDOF 2
ENDMDL
MODEL 2
REMARK VINA RESULT:      -4.8      1.394      1.649
REMARK  2 active torsions:
REMARK  status: ('A' for Active; 'I' for Inactive)
REMARK    1  A    between atoms: C2_2  and  C3_3 
REMARK    2  A    between atoms: C3_3  and  C7_7 
ROOT
HETATM    1  C4  UNL     1     -34.377   5.068   5.829  1.00 20.00     0.002 C 
HETATM    2  C5  UNL     1     -34.954   5.704   4.550  1.00 20.00     0.012 C 
HETATM    3  C6  UNL     1     -34.431   6.466   6.476  1.00 20.00     0.012 C 
HETATM    4  C7  UNL     1     -34.430   7.073   5.051  1.00 20.00     0.059 C 
ENDROOT
BRANCH   4   5
HETATM    5  C3  UNL     1     -33.103   7.474   4.532  1.00 20.00     0.152 C 
HETATM    6  O8  UNL     1     -32.406   8.289   5.132  1.00 20.00    -0.293 OA
BRANCH   5   7
HETATM    7  C2  UNL     1     -32.651   6.820   3.274  1.00 20.00     0.040 C 
HETATM    8  C1  UNL     1     -32.219   7.550   2.242  1.00 20.00     0.015 C 
ENDBRANCH   5   7
ENDBRANCH   4   5
TORSDOF 2
ENDMDL
MODEL 3
REMARK VINA RESULT:      -4.7      1.655      2.628
REMARK  2 active torsions:
REMARK  status: ('A' for Active; 'I' for Inactive)
REMARK    1  A    between atoms: C2_2  and  C3_3 
REMARK    2  A    between atoms: C3_3  and  C7_7 
ROOT
HETATM    1  C4  UNL     1     -33.600   7.011   6.485  1.00 20.00     0.002 C 
HETATM    2  C5  UNL     1     -34.807   6.055   6.421  1.00 20.00     0.012 C 
HETATM    3  C6  UNL     1     -34.022   7.537   5.099  1.00 20.00     0.012 C 
HETATM    4  C7  UNL     1     -34.790   6.210   4.880  1.00 20.00     0.059 C 
ENDROOT
BRANCH   4   5
HETATM    5  C3  UNL     1     -34.049   5.162   4.144  1.00 20.00     0.152 C 
HETATM    6  O8  UNL     1     -34.137   3.978   4.463  1.00 20.00    -0.293 OA
BRANCH   5   7
HETATM    7  C2  UNL     1     -33.226   5.611   2.989  1.00 20.00     0.040 C 
HETATM    8  C1  UNL     1     -32.753   4.730   2.103  1.00 20.00     0.015 C 
ENDBRANCH   5   7
ENDBRANCH   4   5
TORSDOF 2
ENDMDL
MODEL 4
REMARK VINA RESULT:      -4.7      1.605      1.900
REMARK  2 active torsions:
REMARK  status: ('A' for Active; 'I' for Inactive)
REMARK    1  A    between atoms: C2_2  and  C3_3 
REMARK    2  A    between atoms: C3_3  and  C7_7 
ROOT
HETATM    1  C4  UNL     1     -34.233   4.537   4.654  1.00 20.00     0.002 C 
HETATM    2  C5  UNL     1     -33.617   5.499   3.620  1.00 20.00     0.012 C 
HETATM    3  C6  UNL     1     -35.274   5.631   4.961  1.00 20.00     0.012 C 
HETATM    4  C7  UNL     1     -34.282   6.671   4.383  1.00 20.00     0.059 C 
ENDROOT
BRANCH   4   5
HETATM    5  C3  UNL     1     -33.423   7.351   5.377  1.00 20.00     0.152 C 
HETATM    6  O8  UNL     1     -33.430   7.015   6.560  1.00 20.00    -0.293 OA
BRANCH   5   7
HETATM    7  C2  UNL     1     -32.536   8.432   4.868  1.00 20.00     0.040 C 
HETATM    8  C1  UNL     1     -32.558   8.782   3.579  1.00 20.00     0.015 C 
ENDBRANCH   5   7
ENDBRANCH   4   5
TORSDOF 2
ENDMDL
MODEL 5
REMARK VINA RESULT:      -4.6      1.247      1.969
REMARK  2 active torsions:
REMARK  status: ('A' for Active; 'I' for Inactive)
REMARK    1  A    between atoms: C2_2  and  C3_3 
REMARK    2  A    between atoms: C3_3  and  C7_7 
ROOT
HETATM    1  C4  UNL     1     -34.400   5.410   6.132  1.00 20.00     0.002 C 
HETATM    2  C5  UNL     1     -35.131   5.836   4.845  1.00 20.00     0.012 C 
HETATM    3  C6  UNL     1     -34.120   6.902   6.395  1.00 20.00     0.012 C 
HETATM    4  C7  UNL     1     -34.326   7.159   4.881  1.00 20.00     0.059 C 
ENDROOT
BRANCH   4   5
HETATM    5  C3  UNL     1     -33.091   7.174   4.065  1.00 20.00     0.152 C 
HETATM    6  O8  UNL     1     -32.094   7.791   4.434  1.00 20.00    -0.293 OA
BRANCH   5   7
HETATM    7  C2  UNL     1     -33.114   6.386   2.804  1.00 20.00     0.040 C 
HETATM    8  C1  UNL     1     -32.766   5.096   2.799  1.00 20.00     0.015 C 
ENDBRANCH   5   7
ENDBRANCH   4   5
TORSDOF 2
ENDMDL
MODEL 6
REMARK VINA RESULT:      -4.5      1.533      3.632
REMARK  2 active torsions:
REMARK  status: ('A' for Active; 'I' for Inactive)
REMARK    1  A    between atoms: C2_2  and  C3_3 
REMARK    2  A    between atoms: C3_3  and  C7_7 
ROOT
HETATM    1  C4  UNL     1     -31.586   8.031   4.008  1.00 20.00     0.002 C 
HETATM    2  C5  UNL     1     -32.469   8.927   4.898  1.00 20.00     0.012 C 
HETATM    3  C6  UNL     1     -32.872   7.583   3.288  1.00 20.00     0.012 C 
HETATM    4  C7  UNL     1     -33.670   8.015   4.543  1.00 20.00     0.059 C 
ENDROOT
BRANCH   4   5
HETATM    5  C3  UNL     1     -33.958   6.937   5.515  1.00 20.00     0.152 C 
HETATM    6  O8  UNL     1     -33.444   6.933   6.632  1.00 20.00    -0.293 OA
BRANCH   5   7
HETATM    7  C2  UNL     1     -34.918   5.886   5.082  1.00 20.00     0.040 C 
HETATM    8  C1  UNL     1     -34.491   4.664   4.753  1.00 20.00     0.015 C 
ENDBRANCH   5   7
ENDBRANCH   4   5
TORSDOF 2
ENDMDL
MODEL 7
REMARK VINA RESULT:      -4.5      0.905      3.174
REMARK  2 active torsions:
REMARK  status: ('A' for Active; 'I' for Inactive)
REMARK    1  A    between atoms: C2_2  and  C3_3 
REMARK    2  A    between atoms: C3_3  and  C7_7 
ROOT
HETATM    1  C4  UNL     1     -32.069   8.458   4.859  1.00 20.00     0.002 C 
HETATM    2  C5  UNL     1     -33.478   8.388   5.480  1.00 20.00     0.012 C 
HETATM    3  C6  UNL     1     -32.742   8.372   3.475  1.00 20.00     0.012 C 
HETATM    4  C7  UNL     1     -33.974   7.737   4.165  1.00 20.00     0.059 C 
ENDROOT
BRANCH   4   5
HETATM    5  C3  UNL     1     -34.011   6.258   4.163  1.00 20.00     0.152 C 
HETATM    6  O8  UNL     1     -33.295   5.605   3.407  1.00 20.00    -0.293 OA
BRANCH   5   7
HETATM    7  C2  UNL     1     -34.931   5.610   5.137  1.00 20.00     0.040 C 
HETATM    8  C1  UNL     1     -34.511   5.292   6.365  1.00 20.00     0.015 C 
ENDBRANCH   5   7
ENDBRANCH   4   5
TORSDOF 2
ENDMDL
MODEL 8
REMARK VINA RESULT:      -4.3      1.686      2.022
REMARK  2 active torsions:
REMARK  status: ('A' for Active; 'I' for Inactive)
REMARK    1  A    between atoms: C2_2  and  C3_3 
REMARK    2  A    between atoms: C3_3  and  C7_7 
ROOT
HETATM    1  C4  UNL     1     -35.455   5.719   4.691  1.00 20.00     0.002 C 
HETATM    2  C5  UNL     1     -34.806   5.903   6.077  1.00 20.00     0.012 C 
HETATM    3  C6  UNL     1     -34.033   5.592   4.110  1.00 20.00     0.012 C 
HETATM    4  C7  UNL     1     -33.507   6.343   5.358  1.00 20.00     0.059 C 
ENDROOT
BRANCH   4   5
HETATM    5  C3  UNL     1     -33.334   7.804   5.194  1.00 20.00     0.152 C 
HETATM    6  O8  UNL     1     -34.056   8.601   5.790  1.00 20.00    -0.293 OA
BRANCH   5   7
HETATM    7  C2  UNL     1     -32.230   8.251   4.303  1.00 20.00     0.040 C 
HETATM    8  C1  UNL     1     -32.484   8.683   3.065  1.00 20.00     0.015 C 
ENDBRANCH   5   7
ENDBRANCH   4   5
TORSDOF 2
ENDMDL
MODEL 9
REMARK VINA RESULT:      -4.3      0.951      3.265
REMARK  2 active torsions:
REMARK  status: ('A' for Active; 'I' for Inactive)
REMARK    1  A    between atoms: C2_2  and  C3_3 
REMARK    2  A    between atoms: C3_3  and  C7_7 
ROOT
HETATM    1  C4  UNL     1     -32.909   8.785   3.263  1.00 20.00     0.002 C 
HETATM    2  C5  UNL     1     -31.870   7.737   3.704  1.00 20.00     0.012 C 
HETATM    3  C6  UNL     1     -33.649   8.519   4.588  1.00 20.00     0.012 C 
HETATM    4  C7  UNL     1     -32.938   7.145   4.656  1.00 20.00     0.059 C 
ENDROOT
BRANCH   4   5
HETATM    5  C3  UNL     1     -33.710   6.004   4.114  1.00 20.00     0.152 C 
HETATM    6  O8  UNL     1     -33.423   5.499   3.031  1.00 20.00    -0.293 OA
BRANCH   5   7
HETATM    7  C2  UNL     1     -34.820   5.487   4.959  1.00 20.00     0.040 C 
HETATM    8  C1  UNL     1     -34.707   5.452   6.289  1.00 20.00     0.015 C 
ENDBRANCH   5   7
ENDBRANCH   4   5
TORSDOF 2
ENDMDL
