MODEL 1
REMARK VINA RESULT:      -5.0      0.000      0.000
REMARK  1 active torsions:
REMARK  status: ('A' for Active; 'I' for Inactive)
REMARK    1  A    between atoms: C3_3  and  C5_5 
ROOT
HETATM    1  C1  UNL     1     -32.837   4.986   2.289  1.00 20.00     0.021 C 
HETATM    2  C2  UNL     1     -33.502   5.217   3.261  1.00 20.00    -0.039 C 
HETATM    3  C3  UNL     1     -34.301   5.493   4.432  1.00 20.00     0.206 C 
HETATM    4  O8  UNL     1     -34.921   4.586   4.973  1.00 20.00    -0.283 OA
ENDROOT
BRANCH   3   5
HETATM    5  C5  UNL     1     -34.311   6.883   4.899  1.00 20.00     0.073 A 
HETATM    6  C4  UNL     1     -34.119   7.169   6.367  1.00 20.00     0.018 A 
HETATM    7  C6  UNL     1     -33.026   7.503   5.392  1.00 20.00    -0.006 A 
HETATM    8  C7  UNL     1     -32.712   8.924   5.076  1.00 20.00     0.011 C 
ENDBRANCH   3   5
TORSDOF 1
ENDMDL
MODEL 2
REMARK VINA RESULT:      -4.9      1.919      2.614
REMARK  1 active torsions:
REMARK  status: ('A' for Active; 'I' for Inactive)
REMARK    1  A    between atoms: C3_3  and  C5_5 
ROOT
HETATM    1  C1  UNL     1     -34.763   4.754   4.837  1.00 20.00     0.021 C 
HETATM    2  C2  UNL     1     -34.427   5.853   5.184  1.00 20.00    -0.039 C 
HETATM    3  C3  UNL     1     -34.021   7.174   5.604  1.00 20.00     0.206 C 
HETATM    4  O8  UNL     1     -34.087   7.483   6.787  1.00 20.00    -0.283 OA
ENDROOT
BRANCH   3   5
HETATM    5  C5  UNL     1     -33.545   8.074   4.549  1.00 20.00     0.073 A 
HETATM    6  C4  UNL     1     -32.278   8.862   4.766  1.00 20.00     0.018 A 
HETATM    7  C6  UNL     1     -32.290   7.719   3.790  1.00 20.00    -0.006 A 
HETATM    8  C7  UNL     1     -32.200   7.983   2.327  1.00 20.00     0.011 C 
ENDBRANCH   3   5
TORSDOF 1
ENDMDL
MODEL 3
REMARK VINA RESULT:      -4.8      2.325      3.133
REMARK  1 active torsions:
REMARK  status: ('A' for Active; 'I' for Inactive)
REMARK    1  A    between atoms: C3_3  and  C5_5 
ROOT
HETATM    1  C1  UNL     1     -32.147   7.698   2.067  1.00 20.00     0.021 C 
HETATM    2  C2  UNL     1     -32.365   7.882   3.233  1.00 20.00    -0.039 C 
HETATM    3  C3  UNL     1     -32.630   8.105   4.635  1.00 20.00     0.206 C 
HETATM    4  O8  UNL     1     -32.430   9.210   5.123  1.00 20.00    -0.283 OA
ENDROOT
BRANCH   3   5
HETATM    5  C5  UNL     1     -33.132   6.955   5.393  1.00 20.00     0.073 A 
HETATM    6  C4  UNL     1     -34.219   7.164   6.417  1.00 20.00     0.018 A 
HETATM    7  C6  UNL     1     -34.532   6.455   5.130  1.00 20.00    -0.006 A 
HETATM    8  C7  UNL     1     -34.817   4.994   5.130  1.00 20.00     0.011 C 
ENDBRANCH   3   5
TORSDOF 1
ENDMDL
MODEL 4
REMARK VINA RESULT:      -4.4      2.116      2.625
REMARK  1 active torsions:
REMARK  status: ('A' for Active; 'I' for Inactive)
REMARK    1  A    between atoms: C3_3  and  C5_5 
ROOT
HETATM    1  C1  UNL     1     -32.895   4.843   2.339  1.00 20.00     0.021 C 
HETATM    2  C2  UNL     1     -32.706   5.965   2.720  1.00 20.00    -0.039 C 
HETATM    3  C3  UNL     1     -32.480   7.316   3.178  1.00 20.00     0.206 C 
HETATM    4  O8  UNL     1     -32.139   8.179   2.380  1.00 20.00    -0.283 OA
ENDROOT
BRANCH   3   5
HETATM    5  C5  UNL     1     -32.682   7.559   4.610  1.00 20.00     0.073 A 
HETATM    6  C4  UNL     1     -33.517   8.736   5.048  1.00 20.00     0.018 A 
HETATM    7  C6  UNL     1     -34.050   7.340   5.208  1.00 20.00    -0.006 A 
HETATM    8  C7  UNL     1     -34.187   6.742   6.565  1.00 20.00     0.011 C 
ENDBRANCH   3   5
TORSDOF 1
ENDMDL
MODEL 5
REMARK VINA RESULT:      -4.3      1.894      3.301
REMARK  1 active torsions:
REMARK  status: ('A' for Active; 'I' for Inactive)
REMARK    1  A    between atoms: C3_3  and  C5_5 
ROOT
HETATM    1  C1  UNL     1     -32.158   9.124   4.831  1.00 20.00     0.021 C 
HETATM    2  C2  UNL     1     -32.562   8.107   4.337  1.00 20.00    -0.039 C 
HETATM    3  C3  UNL     1     -33.046   6.883   3.744  1.00 20.00     0.206 C 
HETATM    4  O8  UNL     1     -32.488   6.425   2.755  1.00 20.00    -0.283 OA
ENDROOT
BRANCH   3   5
HETATM    5  C5  UNL     1     -34.206   6.261   4.390  1.00 20.00     0.073 A 
HETATM    6  C4  UNL     1     -34.313   4.758   4.425  1.00 20.00     0.018 A 
HETATM    7  C6  UNL     1     -34.014   5.515   5.687  1.00 20.00    -0.006 A 
HETATM    8  C7  UNL     1     -35.038   5.611   6.764  1.00 20.00     0.011 C 
ENDBRANCH   3   5
TORSDOF 1
ENDMDL
MODEL 6
REMARK VINA RESULT:      -4.2      1.668      2.595
REMARK  1 active torsions:
REMARK  status: ('A' for Active; 'I' for Inactive)
REMARK    1  A    between atoms: C3_3  and  C5_5 
ROOT
HETATM    1  C1  UNL     1     -34.797   5.413   6.708  1.00 20.00     0.021 C 
HETATM    2  C2  UNL     1     -34.396   5.769   5.635  1.00 20.00    -0.039 C 
HETATM    3  C3  UNL     1     -33.915   6.197   4.342  1.00 20.00     0.206 C 
HETATM    4  O8  UNL     1     -33.692   5.366   3.471  1.00 20.00    -0.283 OA
ENDROOT
BRANCH   3   5
HETATM    5  C5  UNL     1     -33.722   7.640   4.165  1.00 20.00     0.073 A 
HETATM    6  C4  UNL     1     -32.609   8.333   4.909  1.00 20.00     0.018 A 
HETATM    7  C6  UNL     1     -32.504   8.134   3.423  1.00 20.00    -0.006 A 
HETATM    8  C7  UNL     1     -32.611   9.300   2.502  1.00 20.00     0.011 C 
ENDBRANCH   3   5
TORSDOF 1
ENDMDL
MODEL 7
REMARK VINA RESULT:      -4.2      1.366      3.369
REMARK  1 active torsions:
REMARK  status: ('A' for Active; 'I' for Inactive)
REMARK    1  A    between atoms: C3_3  and  C5_5 
ROOT
HETATM    1  C1  UNL     1     -32.305   9.118   4.791  1.00 20.00     0.021 C 
HETATM    2  C2  UNL     1     -32.948   8.216   5.252  1.00 20.00    -0.039 C 
HETATM    3  C3  UNL     1     -33.724   7.131   5.807  1.00 20.00     0.206 C 
HETATM    4  O8  UNL     1     -34.407   7.321   6.804  1.00 20.00    -0.283 OA
ENDROOT
BRANCH   3   5
HETATM    5  C5  UNL     1     -33.630   5.843   5.112  1.00 20.00     0.073 A 
HETATM    6  C4  UNL     1     -34.893   5.165   4.642  1.00 20.00     0.018 A 
HETATM    7  C6  UNL     1     -33.955   5.776   3.639  1.00 20.00    -0.006 A 
HETATM    8  C7  UNL     1     -33.154   4.906   2.735  1.00 20.00     0.011 C 
ENDBRANCH   3   5
TORSDOF 1
ENDMDL
MODEL 8
REMARK VINA RESULT:      -4.2      2.210      3.882
REMARK  1 active torsions:
REMARK  status: ('A' for Active; 'I' for Inactive)
REMARK    1  A    between atoms: C3_3  and  C5_5 
ROOT
HETATM    1  C1  UNL     1     -34.421   6.616   6.749  1.00 20.00     0.021 C 
HETATM    2  C2  UNL     1     -33.830   7.214   5.892  1.00 20.00    -0.039 C 
HETATM    3  C3  UNL     1     -33.117   7.933   4.862  1.00 20.00     0.206 C 
HETATM    4  O8  UNL     1     -32.463   8.926   5.155  1.00 20.00    -0.283 OA
ENDROOT
BRANCH   3   5
HETATM    5  C5  UNL     1     -33.234   7.404   3.500  1.00 20.00     0.073 A 
HETATM    6  C4  UNL     1     -32.073   7.551   2.549  1.00 20.00     0.018 A 
HETATM    7  C6  UNL     1     -32.416   6.198   3.106  1.00 20.00    -0.006 A 
HETATM    8  C7  UNL     1     -33.002   5.151   2.224  1.00 20.00     0.011 C 
ENDBRANCH   3   5
TORSDOF 1
ENDMDL
MODEL 9
REMARK VINA RESULT:      -4.2      2.246      2.755
REMARK  1 active torsions:
REMARK  status: ('A' for Active; 'I' for Inactive)
REMARK    1  A    between atoms: C3_3  and  C5_5 
ROOT
HETATM    1  C1  UNL     1     -32.147   8.529   0.978  1.00 20.00     0.021 C 
HETATM    2  C2  UNL     1     -32.352   7.720   1.840  1.00 20.00    -0.039 C 
HETATM    3  C3  UNL     1     -32.597   6.745   2.878  1.00 20.00     0.206 C 
HETATM    4  O8  UNL     1     -32.712   5.562   2.586  1.00 20.00    -0.283 OA
ENDROOT
BRANCH   3   5
HETATM    5  C5  UNL     1     -32.693   7.263   4.247  1.00 20.00     0.073 A 
HETATM    6  C4  UNL     1     -33.499   8.511   4.508  1.00 20.00     0.018 A 
HETATM    7  C6  UNL     1     -34.013   7.178   4.974  1.00 20.00    -0.006 A 
HETATM    8  C7  UNL     1     -34.047   6.854   6.427  1.00 20.00     0.011 C 
ENDBRANCH   3   5
TORSDOF 1
ENDMDL
