MODEL 1
REMARK VINA RESULT:      -4.7      0.000      0.000
REMARK  2 active torsions:
REMARK  status: ('A' for Active; 'I' for Inactive)
REMARK    1  A    between atoms: C3_3  and  C7_7 
REMARK    2  A    between atoms: C8_8  and  C10_10 
ROOT
HETATM    1  C1  UNL     1     -31.977   7.401   2.365  1.00 20.00     0.021 C 
HETATM    2  C2  UNL     1     -32.279   7.962   3.383  1.00 20.00    -0.039 C 
HETATM    3  C3  UNL     1     -32.641   8.636   4.606  1.00 20.00     0.205 C 
HETATM    4  O11 UNL     1     -31.913   9.510   5.059  1.00 20.00    -0.283 OA
ENDROOT
BRANCH   3   5
HETATM    5  C7  UNL     1     -33.923   8.201   5.248  1.00 20.00     0.069 C 
HETATM    6  C4  UNL     1     -33.670   7.698   6.671  1.00 20.00     0.013 C 
HETATM    7  C5  UNL     1     -33.698   6.179   6.558  1.00 20.00     0.005 C 
HETATM    8  C8  UNL     1     -34.790   5.938   5.521  1.00 20.00    -0.014 C 
HETATM    9  C6  UNL     1     -34.532   7.025   4.474  1.00 20.00     0.017 C 
BRANCH   8  10
HETATM   10  C10 UNL     1     -34.766   4.533   4.945  1.00 20.00     0.000 C 
HETATM   11  C9  UNL     1     -33.789   4.403   3.819  1.00 20.00     0.005 C 
ENDBRANCH   8  10
ENDBRANCH   3   5
TORSDOF 2
ENDMDL
MODEL 2
REMARK VINA RESULT:      -4.5      1.496      2.397
REMARK  2 active torsions:
REMARK  status: ('A' for Active; 'I' for Inactive)
REMARK    1  A    between atoms: C3_3  and  C7_7 
REMARK    2  A    between atoms: C8_8  and  C10_10 
ROOT
HETATM    1  C1  UNL     1     -32.829   4.833   2.665  1.00 20.00     0.021 C 
HETATM    2  C2  UNL     1     -32.704   6.025   2.596  1.00 20.00    -0.039 C 
HETATM    3  C3  UNL     1     -32.554   7.458   2.513  1.00 20.00     0.205 C 
HETATM    4  O11 UNL     1     -31.839   7.946   1.647  1.00 20.00    -0.283 OA
ENDROOT
BRANCH   3   5
HETATM    5  C7  UNL     1     -33.310   8.265   3.523  1.00 20.00     0.069 C 
HETATM    6  C4  UNL     1     -32.361   8.835   4.579  1.00 20.00     0.013 C 
HETATM    7  C5  UNL     1     -32.534   7.927   5.790  1.00 20.00     0.005 C 
HETATM    8  C8  UNL     1     -34.024   7.605   5.761  1.00 20.00    -0.014 C 
HETATM    9  C6  UNL     1     -34.308   7.373   4.275  1.00 20.00     0.017 C 
BRANCH   8  10
HETATM   10  C10 UNL     1     -34.396   6.421   6.635  1.00 20.00     0.000 C 
HETATM   11  C9  UNL     1     -34.683   5.195   5.828  1.00 20.00     0.005 C 
ENDBRANCH   8  10
ENDBRANCH   3   5
TORSDOF 2
ENDMDL
MODEL 3
REMARK VINA RESULT:      -4.5     11.975     12.829
REMARK  2 active torsions:
REMARK  status: ('A' for Active; 'I' for Inactive)
REMARK    1  A    between atoms: C3_3  and  C7_7 
REMARK    2  A    between atoms: C8_8  and  C10_10 
ROOT
HETATM    1  C1  UNL     1     -31.362  18.868   2.935  1.00 20.00     0.021 C 
HETATM    2  C2  UNL     1     -31.394  18.833   1.735  1.00 20.00    -0.039 C 
HETATM    3  C3  UNL     1     -31.432  18.791   0.293  1.00 20.00     0.205 C 
HETATM    4  O11 UNL     1     -30.416  18.524  -0.336  1.00 20.00    -0.283 OA
ENDROOT
BRANCH   3   5
HETATM    5  C7  UNL     1     -32.755  19.084  -0.345  1.00 20.00     0.069 C 
HETATM    6  C4  UNL     1     -33.771  17.990  -0.010  1.00 20.00     0.013 C 
HETATM    7  C5  UNL     1     -33.832  17.120  -1.259  1.00 20.00     0.005 C 
HETATM    8  C8  UNL     1     -33.696  18.137  -2.387  1.00 20.00    -0.014 C 
HETATM    9  C6  UNL     1     -32.617  19.094  -1.874  1.00 20.00     0.017 C 
BRANCH   8  10
HETATM   10  C10 UNL     1     -33.351  17.504  -3.723  1.00 20.00     0.000 C 
HETATM   11  C9  UNL     1     -33.269  16.013  -3.634  1.00 20.00     0.005 C 
ENDBRANCH   8  10
ENDBRANCH   3   5
TORSDOF 2
ENDMDL
MODEL 4
REMARK VINA RESULT:      -4.1     12.023     12.643
REMARK  2 active torsions:
REMARK  status: ('A' for Active; 'I' for Inactive)
REMARK    1  A    between atoms: C3_3  and  C7_7 
REMARK    2  A    between atoms: C8_8  and  C10_10 
ROOT
HETATM    1  C1  UNL     1     -33.330  16.852  -2.650  1.00 20.00     0.021 C 
HETATM    2  C2  UNL     1     -33.471  17.319  -1.553  1.00 20.00    -0.039 C 
HETATM    3  C3  UNL     1     -33.640  17.880  -0.234  1.00 20.00     0.205 C 
HETATM    4  O11 UNL     1     -34.458  17.392   0.535  1.00 20.00    -0.283 OA
ENDROOT
BRANCH   3   5
HETATM    5  C7  UNL     1     -32.774  19.055   0.104  1.00 20.00     0.069 C 
HETATM    6  C4  UNL     1     -31.358  18.855  -0.439  1.00 20.00     0.013 C 
HETATM    7  C5  UNL     1     -30.534  18.430   0.770  1.00 20.00     0.005 C 
HETATM    8  C8  UNL     1     -31.135  19.262   1.898  1.00 20.00    -0.014 C 
HETATM    9  C6  UNL     1     -32.640  19.194   1.626  1.00 20.00     0.017 C 
BRANCH   8  10
HETATM   10  C10 UNL     1     -30.751  18.761   3.279  1.00 20.00     0.000 C 
HETATM   11  C9  UNL     1     -29.267  18.704   3.464  1.00 20.00     0.005 C 
ENDBRANCH   8  10
ENDBRANCH   3   5
TORSDOF 2
ENDMDL
MODEL 5
REMARK VINA RESULT:      -4.1     12.222     13.717
REMARK  2 active torsions:
REMARK  status: ('A' for Active; 'I' for Inactive)
REMARK    1  A    between atoms: C3_3  and  C7_7 
REMARK    2  A    between atoms: C8_8  and  C10_10 
ROOT
HETATM    1  C1  UNL     1     -37.750  16.507  -5.165  1.00 20.00     0.021 C 
HETATM    2  C2  UNL     1     -36.831  15.907  -5.652  1.00 20.00    -0.039 C 
HETATM    3  C3  UNL     1     -35.727  15.186  -6.238  1.00 20.00     0.205 C 
HETATM    4  O11 UNL     1     -35.945  14.237  -6.981  1.00 20.00    -0.283 OA
ENDROOT
BRANCH   3   5
HETATM    5  C7  UNL     1     -34.355  15.671  -5.883  1.00 20.00     0.069 C 
HETATM    6  C4  UNL     1     -33.672  14.699  -4.919  1.00 20.00     0.013 C 
HETATM    7  C5  UNL     1     -33.803  15.352  -3.549  1.00 20.00     0.005 C 
HETATM    8  C8  UNL     1     -33.634  16.834  -3.865  1.00 20.00    -0.014 C 
HETATM    9  C6  UNL     1     -34.440  17.018  -5.153  1.00 20.00     0.017 C 
BRANCH   8  10
HETATM   10  C10 UNL     1     -34.093  17.741  -2.736  1.00 20.00     0.000 C 
HETATM   11  C9  UNL     1     -33.575  17.289  -1.407  1.00 20.00     0.005 C 
ENDBRANCH   8  10
ENDBRANCH   3   5
TORSDOF 2
ENDMDL
MODEL 6
REMARK VINA RESULT:      -4.0      1.054      1.459
REMARK  2 active torsions:
REMARK  status: ('A' for Active; 'I' for Inactive)
REMARK    1  A    between atoms: C3_3  and  C7_7 
REMARK    2  A    between atoms: C8_8  and  C10_10 
ROOT
HETATM    1  C1  UNL     1     -31.767   8.029   3.567  1.00 20.00     0.021 C 
HETATM    2  C2  UNL     1     -32.648   8.135   4.376  1.00 20.00    -0.039 C 
HETATM    3  C3  UNL     1     -33.707   8.263   5.348  1.00 20.00     0.205 C 
HETATM    4  O11 UNL     1     -33.732   9.230   6.098  1.00 20.00    -0.283 OA
ENDROOT
BRANCH   3   5
HETATM    5  C7  UNL     1     -34.728   7.167   5.365  1.00 20.00     0.069 C 
HETATM    6  C4  UNL     1     -34.511   6.246   6.568  1.00 20.00     0.013 C 
HETATM    7  C5  UNL     1     -33.813   5.018   5.998  1.00 20.00     0.005 C 
HETATM    8  C8  UNL     1     -34.478   4.852   4.637  1.00 20.00    -0.014 C 
HETATM    9  C6  UNL     1     -34.583   6.288   4.115  1.00 20.00     0.017 C 
BRANCH   8  10
HETATM   10  C10 UNL     1     -33.710   3.931   3.705  1.00 20.00     0.000 C 
HETATM   11  C9  UNL     1     -32.956   4.690   2.659  1.00 20.00     0.005 C 
ENDBRANCH   8  10
ENDBRANCH   3   5
TORSDOF 2
ENDMDL
MODEL 7
REMARK VINA RESULT:      -4.0      1.582      4.025
REMARK  2 active torsions:
REMARK  status: ('A' for Active; 'I' for Inactive)
REMARK    1  A    between atoms: C3_3  and  C7_7 
REMARK    2  A    between atoms: C8_8  and  C10_10 
ROOT
HETATM    1  C1  UNL     1     -34.882   4.913   4.872  1.00 20.00     0.021 C 
HETATM    2  C2  UNL     1     -34.389   5.981   5.115  1.00 20.00    -0.039 C 
HETATM    3  C3  UNL     1     -33.798   7.264   5.409  1.00 20.00     0.205 C 
HETATM    4  O11 UNL     1     -34.380   8.049   6.147  1.00 20.00    -0.283 OA
ENDROOT
BRANCH   3   5
HETATM    5  C7  UNL     1     -32.473   7.547   4.769  1.00 20.00     0.069 C 
HETATM    6  C4  UNL     1     -32.224   9.054   4.687  1.00 20.00     0.013 C 
HETATM    7  C5  UNL     1     -32.531   9.423   3.242  1.00 20.00     0.005 C 
HETATM    8  C8  UNL     1     -32.015   8.214   2.468  1.00 20.00    -0.014 C 
HETATM    9  C6  UNL     1     -32.461   7.027   3.324  1.00 20.00     0.017 C 
BRANCH   8  10
HETATM   10  C10 UNL     1     -32.533   8.153   1.041  1.00 20.00     0.000 C 
HETATM   11  C9  UNL     1     -32.844   9.513   0.498  1.00 20.00     0.005 C 
ENDBRANCH   8  10
ENDBRANCH   3   5
TORSDOF 2
ENDMDL
MODEL 8
REMARK VINA RESULT:      -4.0      9.169     10.216
REMARK  2 active torsions:
REMARK  status: ('A' for Active; 'I' for Inactive)
REMARK    1  A    between atoms: C3_3  and  C7_7 
REMARK    2  A    between atoms: C8_8  and  C10_10 
ROOT
HETATM    1  C1  UNL     1     -38.916  11.749   3.686  1.00 20.00     0.021 C 
HETATM    2  C2  UNL     1     -39.315  12.055   4.777  1.00 20.00    -0.039 C 
HETATM    3  C3  UNL     1     -39.793  12.424   6.087  1.00 20.00     0.205 C 
HETATM    4  O11 UNL     1     -39.190  12.047   7.084  1.00 20.00    -0.283 OA
ENDROOT
BRANCH   3   5
HETATM    5  C7  UNL     1     -41.030  13.268   6.130  1.00 20.00     0.069 C 
HETATM    6  C4  UNL     1     -40.819  14.492   7.023  1.00 20.00     0.013 C 
HETATM    7  C5  UNL     1     -41.515  14.143   8.332  1.00 20.00     0.005 C 
HETATM    8  C8  UNL     1     -42.740  13.364   7.866  1.00 20.00    -0.014 C 
HETATM    9  C6  UNL     1     -42.192  12.477   6.746  1.00 20.00     0.017 C 
BRANCH   8  10
HETATM   10  C10 UNL     1     -43.408  12.578   8.981  1.00 20.00     0.000 C 
HETATM   11  C9  UNL     1     -43.075  13.128  10.333  1.00 20.00     0.005 C 
ENDBRANCH   8  10
ENDBRANCH   3   5
TORSDOF 2
ENDMDL
MODEL 9
REMARK VINA RESULT:      -4.0      9.113     10.448
REMARK  2 active torsions:
REMARK  status: ('A' for Active; 'I' for Inactive)
REMARK    1  A    between atoms: C3_3  and  C7_7 
REMARK    2  A    between atoms: C8_8  and  C10_10 
ROOT
HETATM    1  C1  UNL     1     -38.965  11.647   3.729  1.00 20.00     0.021 C 
HETATM    2  C2  UNL     1     -39.377  11.891   4.831  1.00 20.00    -0.039 C 
HETATM    3  C3  UNL     1     -39.872  12.183   6.154  1.00 20.00     0.205 C 
HETATM    4  O11 UNL     1     -39.135  12.053   7.123  1.00 20.00    -0.283 OA
ENDROOT
BRANCH   3   5
HETATM    5  C7  UNL     1     -41.296  12.639   6.244  1.00 20.00     0.069 C 
HETATM    6  C4  UNL     1     -41.588  13.710   5.191  1.00 20.00     0.013 C 
HETATM    7  C5  UNL     1     -41.555  15.027   5.954  1.00 20.00     0.005 C 
HETATM    8  C8  UNL     1     -42.177  14.656   7.296  1.00 20.00    -0.014 C 
HETATM    9  C6  UNL     1     -41.559  13.291   7.609  1.00 20.00     0.017 C 
BRANCH   8  10
HETATM   10  C10 UNL     1     -41.925  15.692   8.378  1.00 20.00     0.000 C 
HETATM   11  C9  UNL     1     -40.493  15.712   8.812  1.00 20.00     0.005 C 
ENDBRANCH   8  10
ENDBRANCH   3   5
TORSDOF 2
ENDMDL
