MODEL 1
REMARK VINA RESULT:      -4.8      0.000      0.000
REMARK  2 active torsions:
REMARK  status: ('A' for Active; 'I' for Inactive)
REMARK    1  A    between atoms: C5_5  and  C8_8 
REMARK    2  A    between atoms: C8_8  and  N9_9 
ROOT
HETATM    1  C1  UNL     1     -32.919   4.926   2.616  1.00 20.00     0.014 C 
HETATM    2  C2  UNL     1     -33.521   5.610   3.399  1.00 20.00    -0.081 C 
HETATM    3  C8  UNL     1     -34.277   6.429   4.374  1.00 20.00     0.301 C 
ENDROOT
BRANCH   3   4
HETATM    4  C5  UNL     1     -33.382   7.207   5.276  1.00 20.00     0.035 A 
HETATM    5  C3  UNL     1     -33.746   8.610   5.685  1.00 20.00     0.012 A 
HETATM    6  C4  UNL     1     -32.558   8.377   4.789  1.00 20.00    -0.011 A 
HETATM    7  C6  UNL     1     -32.582   8.838   3.373  1.00 20.00     0.010 C 
ENDBRANCH   3   4
BRANCH   3   8
HETATM    8  N9  UNL     1     -35.169   5.559   5.121  1.00 20.00     0.095 N 
HETATM    9  C7  UNL     1     -34.556   5.127   6.370  1.00 20.00     0.308 C 
HETATM   10  H22 UNL     1     -35.390   4.738   4.557  1.00 20.00     0.317 HD
ENDBRANCH   3   8
TORSDOF 2
ENDMDL
MODEL 2
REMARK VINA RESULT:      -4.3      1.654      3.093
REMARK  2 active torsions:
REMARK  status: ('A' for Active; 'I' for Inactive)
REMARK    1  A    between atoms: C5_5  and  C8_8 
REMARK    2  A    between atoms: C8_8  and  N9_9 
ROOT
HETATM    1  C1  UNL     1     -32.992   5.090   2.280  1.00 20.00     0.014 C 
HETATM    2  C2  UNL     1     -32.969   5.903   3.163  1.00 20.00    -0.081 C 
HETATM    3  C8  UNL     1     -32.930   6.927   4.233  1.00 20.00     0.301 C 
ENDROOT
BRANCH   3   4
HETATM    4  C5  UNL     1     -34.238   7.064   4.932  1.00 20.00     0.035 A 
HETATM    5  C3  UNL     1     -34.289   7.203   6.432  1.00 20.00     0.012 A 
HETATM    6  C4  UNL     1     -34.828   5.958   5.777  1.00 20.00    -0.011 A 
HETATM    7  C6  UNL     1     -34.143   4.649   5.971  1.00 20.00     0.010 C 
ENDBRANCH   3   4
BRANCH   3   8
HETATM    8  N9  UNL     1     -32.492   8.186   3.657  1.00 20.00     0.095 N 
HETATM    9  C7  UNL     1     -32.118   9.137   4.696  1.00 20.00     0.308 C 
HETATM   10  H22 UNL     1     -33.248   8.583   3.098  1.00 20.00     0.317 HD
ENDBRANCH   3   8
TORSDOF 2
ENDMDL
MODEL 3
REMARK VINA RESULT:      -4.0     12.298     13.143
REMARK  2 active torsions:
REMARK  status: ('A' for Active; 'I' for Inactive)
REMARK    1  A    between atoms: C5_5  and  C8_8 
REMARK    2  A    between atoms: C8_8  and  N9_9 
ROOT
HETATM    1  C1  UNL     1     -33.614  14.990  -3.970  1.00 20.00     0.014 C 
HETATM    2  C2  UNL     1     -33.449  16.054  -3.438  1.00 20.00    -0.081 C 
HETATM    3  C8  UNL     1     -33.261  17.379  -2.803  1.00 20.00     0.301 C 
ENDROOT
BRANCH   3   4
HETATM    4  C5  UNL     1     -33.701  17.392  -1.380  1.00 20.00     0.035 A 
HETATM    5  C3  UNL     1     -34.179  18.671  -0.743  1.00 20.00     0.012 A 
HETATM    6  C4  UNL     1     -32.888  18.044  -0.284  1.00 20.00    -0.011 A 
HETATM    7  C6  UNL     1     -31.588  18.721  -0.550  1.00 20.00     0.010 C 
ENDBRANCH   3   4
BRANCH   3   8
HETATM    8  N9  UNL     1     -33.962  18.377  -3.592  1.00 20.00     0.095 N 
HETATM    9  C7  UNL     1     -33.025  19.261  -4.273  1.00 20.00     0.308 C 
HETATM   10  H22 UNL     1     -34.560  18.933  -2.980  1.00 20.00     0.317 HD
ENDBRANCH   3   8
TORSDOF 2
ENDMDL
MODEL 4
REMARK VINA RESULT:      -4.0     11.738     12.903
REMARK  2 active torsions:
REMARK  status: ('A' for Active; 'I' for Inactive)
REMARK    1  A    between atoms: C5_5  and  C8_8 
REMARK    2  A    between atoms: C8_8  and  N9_9 
ROOT
HETATM    1  C1  UNL     1     -33.953  15.423  -7.276  1.00 20.00     0.014 C 
HETATM    2  C2  UNL     1     -34.144  15.420  -6.091  1.00 20.00    -0.081 C 
HETATM    3  C8  UNL     1     -34.383  15.386  -4.629  1.00 20.00     0.301 C 
ENDROOT
BRANCH   3   4
HETATM    4  C5  UNL     1     -33.270  16.008  -3.859  1.00 20.00     0.035 A 
HETATM    5  C3  UNL     1     -33.484  16.452  -2.435  1.00 20.00     0.012 A 
HETATM    6  C4  UNL     1     -33.246  17.479  -3.511  1.00 20.00    -0.011 A 
HETATM    7  C6  UNL     1     -34.335  18.413  -3.914  1.00 20.00     0.010 C 
ENDBRANCH   3   4
BRANCH   3   8
HETATM    8  N9  UNL     1     -34.612  14.009  -4.226  1.00 20.00     0.095 N 
HETATM    9  C7  UNL     1     -35.942  13.562  -4.621  1.00 20.00     0.308 C 
HETATM   10  H22 UNL     1     -34.522  13.934  -3.213  1.00 20.00     0.317 HD
ENDBRANCH   3   8
TORSDOF 2
ENDMDL
MODEL 5
REMARK VINA RESULT:      -3.9      8.234      9.636
REMARK  2 active torsions:
REMARK  status: ('A' for Active; 'I' for Inactive)
REMARK    1  A    between atoms: C5_5  and  C8_8 
REMARK    2  A    between atoms: C8_8  and  N9_9 
ROOT
HETATM    1  C1  UNL     1     -43.000  12.290   7.075  1.00 20.00     0.014 C 
HETATM    2  C2  UNL     1     -41.913  12.607   6.675  1.00 20.00    -0.081 C 
HETATM    3  C8  UNL     1     -40.570  13.017   6.204  1.00 20.00     0.301 C 
ENDROOT
BRANCH   3   4
HETATM    4  C5  UNL     1     -39.639  11.862   6.074  1.00 20.00     0.035 A 
HETATM    5  C3  UNL     1     -38.175  12.091   5.797  1.00 20.00     0.012 A 
HETATM    6  C4  UNL     1     -39.043  11.444   4.749  1.00 20.00    -0.011 A 
HETATM    7  C6  UNL     1     -39.345  12.159   3.477  1.00 20.00     0.010 C 
ENDBRANCH   3   4
BRANCH   3   8
HETATM    8  N9  UNL     1     -40.049  14.029   7.107  1.00 20.00     0.095 N 
HETATM    9  C7  UNL     1     -40.896  15.215   7.110  1.00 20.00     0.308 C 
HETATM   10  H22 UNL     1     -39.108  14.292   6.813  1.00 20.00     0.317 HD
ENDBRANCH   3   8
TORSDOF 2
ENDMDL
MODEL 6
REMARK VINA RESULT:      -3.8     12.181     13.288
REMARK  2 active torsions:
REMARK  status: ('A' for Active; 'I' for Inactive)
REMARK    1  A    between atoms: C5_5  and  C8_8 
REMARK    2  A    between atoms: C8_8  and  N9_9 
ROOT
HETATM    1  C1  UNL     1     -33.506  17.776  -0.825  1.00 20.00     0.014 C 
HETATM    2  C2  UNL     1     -33.692  17.342  -1.929  1.00 20.00    -0.081 C 
HETATM    3  C8  UNL     1     -33.902  16.826  -3.302  1.00 20.00     0.301 C 
ENDROOT
BRANCH   3   4
HETATM    4  C5  UNL     1     -33.642  15.363  -3.403  1.00 20.00     0.035 A 
HETATM    5  C3  UNL     1     -32.911  14.800  -4.595  1.00 20.00     0.012 A 
HETATM    6  C4  UNL     1     -34.368  14.475  -4.389  1.00 20.00    -0.011 A 
HETATM    7  C6  UNL     1     -35.396  15.001  -5.330  1.00 20.00     0.010 C 
ENDBRANCH   3   4
BRANCH   3   8
HETATM    8  N9  UNL     1     -33.068  17.586  -4.217  1.00 20.00     0.095 N 
HETATM    9  C7  UNL     1     -33.777  18.751  -4.730  1.00 20.00     0.308 C 
HETATM   10  H22 UNL     1     -32.795  16.990  -5.000  1.00 20.00     0.317 HD
ENDBRANCH   3   8
TORSDOF 2
ENDMDL
MODEL 7
REMARK VINA RESULT:      -3.6      9.257     10.593
REMARK  2 active torsions:
REMARK  status: ('A' for Active; 'I' for Inactive)
REMARK    1  A    between atoms: C5_5  and  C8_8 
REMARK    2  A    between atoms: C8_8  and  N9_9 
ROOT
HETATM    1  C1  UNL     1     -38.946  11.788   5.008  1.00 20.00     0.014 C 
HETATM    2  C2  UNL     1     -39.737  12.331   5.729  1.00 20.00    -0.081 C 
HETATM    3  C8  UNL     1     -40.693  13.023   6.624  1.00 20.00     0.301 C 
ENDROOT
BRANCH   3   4
HETATM    4  C5  UNL     1     -41.996  13.300   5.956  1.00 20.00     0.035 A 
HETATM    5  C3  UNL     1     -42.937  14.331   6.522  1.00 20.00     0.012 A 
HETATM    6  C4  UNL     1     -43.319  12.874   6.549  1.00 20.00    -0.011 A 
HETATM    7  C6  UNL     1     -43.417  12.146   7.845  1.00 20.00     0.010 C 
ENDBRANCH   3   4
BRANCH   3   8
HETATM    8  N9  UNL     1     -40.072  14.240   7.118  1.00 20.00     0.095 N 
HETATM    9  C7  UNL     1     -40.183  14.335   8.568  1.00 20.00     0.308 C 
HETATM   10  H22 UNL     1     -40.529  15.048   6.695  1.00 20.00     0.317 HD
ENDBRANCH   3   8
TORSDOF 2
ENDMDL
MODEL 8
REMARK VINA RESULT:      -3.6     15.539     16.682
REMARK  2 active torsions:
REMARK  status: ('A' for Active; 'I' for Inactive)
REMARK    1  A    between atoms: C5_5  and  C8_8 
REMARK    2  A    between atoms: C8_8  and  N9_9 
ROOT
HETATM    1  C1  UNL     1     -21.912  18.168   7.872  1.00 20.00     0.014 C 
HETATM    2  C2  UNL     1     -22.337  18.052   8.989  1.00 20.00    -0.081 C 
HETATM    3  C8  UNL     1     -22.845  17.933  10.375  1.00 20.00     0.301 C 
ENDROOT
BRANCH   3   4
HETATM    4  C5  UNL     1     -24.334  17.949  10.436  1.00 20.00     0.035 A 
HETATM    5  C3  UNL     1     -25.040  18.518  11.639  1.00 20.00     0.012 A 
HETATM    6  C4  UNL     1     -25.119  17.041  11.355  1.00 20.00    -0.011 A 
HETATM    7  C6  UNL     1     -24.460  16.064  12.266  1.00 20.00     0.010 C 
ENDBRANCH   3   4
BRANCH   3   8
HETATM    8  N9  UNL     1     -22.263  18.995  11.178  1.00 20.00     0.095 N 
HETATM    9  C7  UNL     1     -21.531  18.452  12.315  1.00 20.00     0.308 C 
HETATM   10  H22 UNL     1     -23.005  19.606  11.520  1.00 20.00     0.317 HD
ENDBRANCH   3   8
TORSDOF 2
ENDMDL
MODEL 9
REMARK VINA RESULT:      -3.6      2.100      4.291
REMARK  2 active torsions:
REMARK  status: ('A' for Active; 'I' for Inactive)
REMARK    1  A    between atoms: C5_5  and  C8_8 
REMARK    2  A    between atoms: C8_8  and  N9_9 
ROOT
HETATM    1  C1  UNL     1     -32.175   9.113   5.011  1.00 20.00     0.014 C 
HETATM    2  C2  UNL     1     -32.495   8.364   4.128  1.00 20.00    -0.081 C 
HETATM    3  C8  UNL     1     -32.870   7.454   3.021  1.00 20.00     0.301 C 
ENDROOT
BRANCH   3   4
HETATM    4  C5  UNL     1     -32.688   6.020   3.381  1.00 20.00     0.035 A 
HETATM    5  C3  UNL     1     -33.413   4.945   2.613  1.00 20.00     0.012 A 
HETATM    6  C4  UNL     1     -33.771   5.207   4.053  1.00 20.00    -0.011 A 
HETATM    7  C6  UNL     1     -35.100   5.783   4.404  1.00 20.00     0.010 C 
ENDBRANCH   3   4
BRANCH   3   8
HETATM    8  N9  UNL     1     -32.103   7.815   1.841  1.00 20.00     0.095 N 
HETATM    9  C7  UNL     1     -32.638   9.017   1.215  1.00 20.00     0.308 C 
HETATM   10  H22 UNL     1     -32.134   7.047   1.170  1.00 20.00     0.317 HD
ENDBRANCH   3   8
TORSDOF 2
ENDMDL
