MODEL 1
REMARK VINA RESULT:      -4.7      0.000      0.000
REMARK  2 active torsions:
REMARK  status: ('A' for Active; 'I' for Inactive)
REMARK    1  A    between atoms: C3_3  and  C7_7 
REMARK    2  A    between atoms: C8_8  and  C10_10 
ROOT
HETATM    1  C1  UNL     1     -32.517   8.681  -0.047  1.00 20.00     0.021 C 
HETATM    2  C2  UNL     1     -32.507   8.771   1.151  1.00 20.00    -0.039 C 
HETATM    3  C3  UNL     1     -32.495   8.881   2.590  1.00 20.00     0.205 C 
HETATM    4  O11 UNL     1     -32.768   9.949   3.121  1.00 20.00    -0.283 OA
ENDROOT
BRANCH   3   5
HETATM    5  C7  UNL     1     -32.135   7.622   3.357  1.00 20.00     0.069 C 
HETATM    6  C4  UNL     1     -32.887   6.434   2.757  1.00 20.00     0.013 C 
HETATM    7  C5  UNL     1     -33.714   5.847   3.899  1.00 20.00     0.005 C 
HETATM    8  C8  UNL     1     -33.971   7.038   4.815  1.00 20.00    -0.014 C 
HETATM    9  C6  UNL     1     -32.628   7.768   4.795  1.00 20.00     0.017 C 
BRANCH   8  10
HETATM   10  C10 UNL     1     -34.411   6.634   6.211  1.00 20.00     0.000 C 
HETATM   11  C9  UNL     1     -34.468   5.147   6.374  1.00 20.00     0.005 C 
ENDBRANCH   8  10
ENDBRANCH   3   5
TORSDOF 2
ENDMDL
MODEL 2
REMARK VINA RESULT:      -4.4     11.089     12.098
REMARK  2 active torsions:
REMARK  status: ('A' for Active; 'I' for Inactive)
REMARK    1  A    between atoms: C3_3  and  C7_7 
REMARK    2  A    between atoms: C8_8  and  C10_10 
ROOT
HETATM    1  C1  UNL     1     -31.402  18.916   3.209  1.00 20.00     0.021 C 
HETATM    2  C2  UNL     1     -31.376  18.941   2.008  1.00 20.00    -0.039 C 
HETATM    3  C3  UNL     1     -31.343  18.971   0.565  1.00 20.00     0.205 C 
HETATM    4  O11 UNL     1     -30.280  18.826  -0.023  1.00 20.00    -0.283 OA
ENDROOT
BRANCH   3   5
HETATM    5  C7  UNL     1     -32.674  19.187  -0.133  1.00 20.00     0.069 C 
HETATM    6  C4  UNL     1     -33.668  18.126   0.339  1.00 20.00     0.013 C 
HETATM    7  C5  UNL     1     -34.117  17.389  -0.920  1.00 20.00     0.005 C 
HETATM    8  C8  UNL     1     -32.929  17.524  -1.867  1.00 20.00    -0.014 C 
HETATM    9  C6  UNL     1     -32.480  18.966  -1.631  1.00 20.00     0.017 C 
BRANCH   8  10
HETATM   10  C10 UNL     1     -33.283  17.237  -3.316  1.00 20.00     0.000 C 
HETATM   11  C9  UNL     1     -33.432  15.771  -3.578  1.00 20.00     0.005 C 
ENDBRANCH   8  10
ENDBRANCH   3   5
TORSDOF 2
ENDMDL
MODEL 3
REMARK VINA RESULT:      -4.2      9.781     10.674
REMARK  2 active torsions:
REMARK  status: ('A' for Active; 'I' for Inactive)
REMARK    1  A    between atoms: C3_3  and  C7_7 
REMARK    2  A    between atoms: C8_8  and  C10_10 
ROOT
HETATM    1  C1  UNL     1     -38.979  11.651   3.745  1.00 20.00     0.021 C 
HETATM    2  C2  UNL     1     -39.362  11.907   4.854  1.00 20.00    -0.039 C 
HETATM    3  C3  UNL     1     -39.823  12.214   6.188  1.00 20.00     0.205 C 
HETATM    4  O11 UNL     1     -39.074  12.054   7.142  1.00 20.00    -0.283 OA
ENDROOT
BRANCH   3   5
HETATM    5  C7  UNL     1     -41.246  12.730   6.305  1.00 20.00     0.069 C 
HETATM    6  C4  UNL     1     -41.561  13.619   5.102  1.00 20.00     0.013 C 
HETATM    7  C5  UNL     1     -41.946  14.978   5.680  1.00 20.00     0.005 C 
HETATM    8  C8  UNL     1     -41.188  15.043   7.001  1.00 20.00    -0.014 C 
HETATM    9  C6  UNL     1     -41.342  13.621   7.542  1.00 20.00     0.017 C 
BRANCH   8  10
HETATM   10  C10 UNL     1     -41.724  16.103   7.948  1.00 20.00     0.000 C 
HETATM   11  C9  UNL     1     -40.808  17.283   8.046  1.00 20.00     0.005 C 
ENDBRANCH   8  10
ENDBRANCH   3   5
TORSDOF 2
ENDMDL
MODEL 4
REMARK VINA RESULT:      -4.1      1.538      2.467
REMARK  2 active torsions:
REMARK  status: ('A' for Active; 'I' for Inactive)
REMARK    1  A    between atoms: C3_3  and  C7_7 
REMARK    2  A    between atoms: C8_8  and  C10_10 
ROOT
HETATM    1  C1  UNL     1     -32.838   4.902   2.613  1.00 20.00     0.021 C 
HETATM    2  C2  UNL     1     -32.681   6.088   2.496  1.00 20.00    -0.039 C 
HETATM    3  C3  UNL     1     -32.490   7.512   2.355  1.00 20.00     0.205 C 
HETATM    4  O11 UNL     1     -31.784   7.945   1.454  1.00 20.00    -0.283 OA
ENDROOT
BRANCH   3   5
HETATM    5  C7  UNL     1     -33.206   8.389   3.366  1.00 20.00     0.069 C 
HETATM    6  C4  UNL     1     -32.184   8.970   4.342  1.00 20.00     0.013 C 
HETATM    7  C5  UNL     1     -32.627   8.511   5.729  1.00 20.00     0.005 C 
HETATM    8  C8  UNL     1     -33.361   7.202   5.465  1.00 20.00    -0.014 C 
HETATM    9  C6  UNL     1     -34.148   7.514   4.191  1.00 20.00     0.017 C 
BRANCH   8  10
HETATM   10  C10 UNL     1     -34.246   6.767   6.621  1.00 20.00     0.000 C 
HETATM   11  C9  UNL     1     -34.768   5.377   6.436  1.00 20.00     0.005 C 
ENDBRANCH   8  10
ENDBRANCH   3   5
TORSDOF 2
ENDMDL
MODEL 5
REMARK VINA RESULT:      -4.0      9.866     10.795
REMARK  2 active torsions:
REMARK  status: ('A' for Active; 'I' for Inactive)
REMARK    1  A    between atoms: C3_3  and  C7_7 
REMARK    2  A    between atoms: C8_8  and  C10_10 
ROOT
HETATM    1  C1  UNL     1     -38.718  11.622   4.421  1.00 20.00     0.021 C 
HETATM    2  C2  UNL     1     -39.688  12.273   4.702  1.00 20.00    -0.039 C 
HETATM    3  C3  UNL     1     -40.852  13.057   5.038  1.00 20.00     0.205 C 
HETATM    4  O11 UNL     1     -41.408  13.723   4.175  1.00 20.00    -0.283 OA
ENDROOT
BRANCH   3   5
HETATM    5  C7  UNL     1     -41.313  12.989   6.483  1.00 20.00     0.069 C 
HETATM    6  C4  UNL     1     -42.669  13.682   6.613  1.00 20.00     0.013 C 
HETATM    7  C5  UNL     1     -42.470  14.794   7.640  1.00 20.00     0.005 C 
HETATM    8  C8  UNL     1     -40.994  15.152   7.512  1.00 20.00    -0.014 C 
HETATM    9  C6  UNL     1     -40.334  13.783   7.345  1.00 20.00     0.017 C 
BRANCH   8  10
HETATM   10  C10 UNL     1     -40.461  15.931   8.701  1.00 20.00     0.000 C 
HETATM   11  C9  UNL     1     -40.289  15.064   9.909  1.00 20.00     0.005 C 
ENDBRANCH   8  10
ENDBRANCH   3   5
TORSDOF 2
ENDMDL
MODEL 6
REMARK VINA RESULT:      -4.0     11.172     12.302
REMARK  2 active torsions:
REMARK  status: ('A' for Active; 'I' for Inactive)
REMARK    1  A    between atoms: C3_3  and  C7_7 
REMARK    2  A    between atoms: C8_8  and  C10_10 
ROOT
HETATM    1  C1  UNL     1     -37.972  17.594  -5.171  1.00 20.00     0.021 C 
HETATM    2  C2  UNL     1     -37.178  16.704  -5.311  1.00 20.00    -0.039 C 
HETATM    3  C3  UNL     1     -36.225  15.633  -5.479  1.00 20.00     0.205 C 
HETATM    4  O11 UNL     1     -36.613  14.473  -5.519  1.00 20.00    -0.283 OA
ENDROOT
BRANCH   3   5
HETATM    5  C7  UNL     1     -34.768  16.043  -5.598  1.00 20.00     0.069 C 
HETATM    6  C4  UNL     1     -33.879  14.825  -5.348  1.00 20.00     0.013 C 
HETATM    7  C5  UNL     1     -32.984  15.200  -4.169  1.00 20.00     0.005 C 
HETATM    8  C8  UNL     1     -33.815  16.209  -3.385  1.00 20.00    -0.014 C 
HETATM    9  C6  UNL     1     -34.452  17.048  -4.493  1.00 20.00     0.017 C 
BRANCH   8  10
HETATM   10  C10 UNL     1     -32.991  17.033  -2.409  1.00 20.00     0.000 C 
HETATM   11  C9  UNL     1     -33.781  17.425  -1.200  1.00 20.00     0.005 C 
ENDBRANCH   8  10
ENDBRANCH   3   5
TORSDOF 2
ENDMDL
MODEL 7
REMARK VINA RESULT:      -4.0      1.715      4.707
REMARK  2 active torsions:
REMARK  status: ('A' for Active; 'I' for Inactive)
REMARK    1  A    between atoms: C3_3  and  C7_7 
REMARK    2  A    between atoms: C8_8  and  C10_10 
ROOT
HETATM    1  C1  UNL     1     -34.808   5.764   5.903  1.00 20.00     0.021 C 
HETATM    2  C2  UNL     1     -34.142   5.799   4.903  1.00 20.00    -0.039 C 
HETATM    3  C3  UNL     1     -33.342   5.839   3.702  1.00 20.00     0.205 C 
HETATM    4  O11 UNL     1     -33.565   5.048   2.795  1.00 20.00    -0.283 OA
ENDROOT
BRANCH   3   5
HETATM    5  C7  UNL     1     -32.252   6.894   3.657  1.00 20.00     0.069 C 
HETATM    6  C4  UNL     1     -32.589   8.011   4.643  1.00 20.00     0.013 C 
HETATM    7  C5  UNL     1     -32.655   9.291   3.814  1.00 20.00     0.005 C 
HETATM    8  C8  UNL     1     -33.063   8.809   2.427  1.00 20.00    -0.014 C 
HETATM    9  C6  UNL     1     -32.244   7.528   2.267  1.00 20.00     0.017 C 
BRANCH   8  10
HETATM   10  C10 UNL     1     -32.794   9.830   1.335  1.00 20.00     0.000 C 
HETATM   11  C9  UNL     1     -32.683   9.192  -0.015  1.00 20.00     0.005 C 
ENDBRANCH   8  10
ENDBRANCH   3   5
TORSDOF 2
ENDMDL
MODEL 8
REMARK VINA RESULT:      -3.9      2.489      4.579
REMARK  2 active torsions:
REMARK  status: ('A' for Active; 'I' for Inactive)
REMARK    1  A    between atoms: C3_3  and  C7_7 
REMARK    2  A    between atoms: C8_8  and  C10_10 
ROOT
HETATM    1  C1  UNL     1     -34.878   5.639   6.935  1.00 20.00     0.021 C 
HETATM    2  C2  UNL     1     -34.552   5.209   5.861  1.00 20.00    -0.039 C 
HETATM    3  C3  UNL     1     -34.161   4.692   4.572  1.00 20.00     0.205 C 
HETATM    4  O11 UNL     1     -33.857   3.512   4.455  1.00 20.00    -0.283 OA
ENDROOT
BRANCH   3   5
HETATM    5  C7  UNL     1     -34.158   5.684   3.423  1.00 20.00     0.069 C 
HETATM    6  C4  UNL     1     -32.918   5.454   2.560  1.00 20.00     0.013 C 
HETATM    7  C5  UNL     1     -32.160   6.779   2.560  1.00 20.00     0.005 C 
HETATM    8  C8  UNL     1     -32.545   7.421   3.888  1.00 20.00    -0.014 C 
HETATM    9  C6  UNL     1     -34.035   7.094   3.995  1.00 20.00     0.017 C 
BRANCH   8  10
HETATM   10  C10 UNL     1     -32.255   8.911   3.939  1.00 20.00     0.000 C 
HETATM   11  C9  UNL     1     -32.282   9.441   5.338  1.00 20.00     0.005 C 
ENDBRANCH   8  10
ENDBRANCH   3   5
TORSDOF 2
ENDMDL
MODEL 9
REMARK VINA RESULT:      -3.8      9.961     11.379
REMARK  2 active torsions:
REMARK  status: ('A' for Active; 'I' for Inactive)
REMARK    1  A    between atoms: C3_3  and  C7_7 
REMARK    2  A    between atoms: C8_8  and  C10_10 
ROOT
HETATM    1  C1  UNL     1     -40.989  14.385  10.850  1.00 20.00     0.021 C 
HETATM    2  C2  UNL     1     -41.528  14.232   9.788  1.00 20.00    -0.039 C 
HETATM    3  C3  UNL     1     -42.176  14.047   8.511  1.00 20.00     0.205 C 
HETATM    4  O11 UNL     1     -43.289  13.540   8.461  1.00 20.00    -0.283 OA
ENDROOT
BRANCH   3   5
HETATM    5  C7  UNL     1     -41.402  14.513   7.291  1.00 20.00     0.069 C 
HETATM    6  C4  UNL     1     -42.162  14.110   6.028  1.00 20.00     0.013 C 
HETATM    7  C5  UNL     1     -41.201  13.237   5.226  1.00 20.00     0.005 C 
HETATM    8  C8  UNL     1     -40.302  12.611   6.286  1.00 20.00    -0.014 C 
HETATM    9  C6  UNL     1     -40.066  13.774   7.249  1.00 20.00     0.017 C 
BRANCH   8  10
HETATM   10  C10 UNL     1     -39.016  12.035   5.717  1.00 20.00     0.000 C 
HETATM   11  C9  UNL     1     -39.136  11.730   4.257  1.00 20.00     0.005 C 
ENDBRANCH   8  10
ENDBRANCH   3   5
TORSDOF 2
ENDMDL
