MODEL 1
REMARK VINA RESULT:      -4.4      0.000      0.000
REMARK  3 active torsions:
REMARK  status: ('A' for Active; 'I' for Inactive)
REMARK    1  A    between atoms: C3_3  and  C7_7 
REMARK    2  A    between atoms: C6_6  and  O9_9 
REMARK    3  A    between atoms: C7_7  and  O9_9 
ROOT
HETATM    1  C1  UNL     1     -32.482   8.974   5.140  1.00 20.00     0.021 C 
HETATM    2  C2  UNL     1     -32.487   8.169   4.250  1.00 20.00    -0.037 C 
HETATM    3  C3  UNL     1     -32.494   7.200   3.177  1.00 20.00     0.230 C 
HETATM    4  O8  UNL     1     -32.122   7.543   2.062  1.00 20.00    -0.281 OA
ENDROOT
BRANCH   3   5
HETATM    5  C7  UNL     1     -33.005   5.813   3.518  1.00 20.00     0.200 C 
HETATM    6  C5  UNL     1     -32.974   4.882   2.316  1.00 20.00     0.049 C 
BRANCH   5   7
HETATM    7  O9  UNL     1     -34.340   5.926   3.988  1.00 20.00    -0.378 OA
BRANCH   7   8
HETATM    8  C6  UNL     1     -34.594   5.033   5.065  1.00 20.00     0.164 C 
HETATM    9  C4  UNL     1     -34.483   5.791   6.371  1.00 20.00     0.033 C 
ENDBRANCH   7   8
ENDBRANCH   5   7
ENDBRANCH   3   5
TORSDOF 3
ENDMDL
MODEL 2
REMARK VINA RESULT:      -4.2      0.956      2.824
REMARK  3 active torsions:
REMARK  status: ('A' for Active; 'I' for Inactive)
REMARK    1  A    between atoms: C3_3  and  C7_7 
REMARK    2  A    between atoms: C6_6  and  O9_9 
REMARK    3  A    between atoms: C7_7  and  O9_9 
ROOT
HETATM    1  C1  UNL     1     -33.075   4.778   2.756  1.00 20.00     0.021 C 
HETATM    2  C2  UNL     1     -32.867   5.946   2.934  1.00 20.00    -0.037 C 
HETATM    3  C3  UNL     1     -32.615   7.354   3.148  1.00 20.00     0.230 C 
HETATM    4  O8  UNL     1     -32.007   7.987   2.295  1.00 20.00    -0.281 OA
ENDROOT
BRANCH   3   5
HETATM    5  C7  UNL     1     -33.105   7.939   4.459  1.00 20.00     0.200 C 
HETATM    6  C5  UNL     1     -32.313   9.172   4.864  1.00 20.00     0.049 C 
BRANCH   5   7
HETATM    7  O9  UNL     1     -32.981   6.951   5.470  1.00 20.00    -0.378 OA
BRANCH   7   8
HETATM    8  C6  UNL     1     -34.156   6.865   6.266  1.00 20.00     0.164 C 
HETATM    9  C4  UNL     1     -34.719   5.464   6.167  1.00 20.00     0.033 C 
ENDBRANCH   7   8
ENDBRANCH   5   7
ENDBRANCH   3   5
TORSDOF 3
ENDMDL
MODEL 3
REMARK VINA RESULT:      -4.1      1.080      3.180
REMARK  3 active torsions:
REMARK  status: ('A' for Active; 'I' for Inactive)
REMARK    1  A    between atoms: C3_3  and  C7_7 
REMARK    2  A    between atoms: C6_6  and  O9_9 
REMARK    3  A    between atoms: C7_7  and  O9_9 
ROOT
HETATM    1  C1  UNL     1     -34.441   6.847   6.742  1.00 20.00     0.021 C 
HETATM    2  C2  UNL     1     -34.299   6.185   5.752  1.00 20.00    -0.037 C 
HETATM    3  C3  UNL     1     -34.128   5.384   4.560  1.00 20.00     0.230 C 
HETATM    4  O8  UNL     1     -34.481   4.212   4.573  1.00 20.00    -0.281 OA
ENDROOT
BRANCH   3   5
HETATM    5  C7  UNL     1     -33.477   6.067   3.372  1.00 20.00     0.200 C 
HETATM    6  C5  UNL     1     -32.937   5.065   2.364  1.00 20.00     0.049 C 
BRANCH   5   7
HETATM    7  O9  UNL     1     -32.411   6.876   3.844  1.00 20.00    -0.378 OA
BRANCH   7   8
HETATM    8  C6  UNL     1     -32.621   8.249   3.541  1.00 20.00     0.164 C 
HETATM    9  C4  UNL     1     -32.292   9.081   4.762  1.00 20.00     0.033 C 
ENDBRANCH   7   8
ENDBRANCH   5   7
ENDBRANCH   3   5
TORSDOF 3
ENDMDL
MODEL 4
REMARK VINA RESULT:      -4.0      1.430      3.963
REMARK  3 active torsions:
REMARK  status: ('A' for Active; 'I' for Inactive)
REMARK    1  A    between atoms: C3_3  and  C7_7 
REMARK    2  A    between atoms: C6_6  and  O9_9 
REMARK    3  A    between atoms: C7_7  and  O9_9 
ROOT
HETATM    1  C1  UNL     1     -32.892   5.057   2.324  1.00 20.00     0.021 C 
HETATM    2  C2  UNL     1     -33.481   5.249   3.351  1.00 20.00    -0.037 C 
HETATM    3  C3  UNL     1     -34.194   5.480   4.588  1.00 20.00     0.230 C 
HETATM    4  O8  UNL     1     -35.154   4.772   4.864  1.00 20.00    -0.281 OA
ENDROOT
BRANCH   3   5
HETATM    5  C7  UNL     1     -33.706   6.631   5.447  1.00 20.00     0.200 C 
HETATM    6  C5  UNL     1     -34.479   6.735   6.753  1.00 20.00     0.049 C 
BRANCH   5   7
HETATM    7  O9  UNL     1     -33.858   7.838   4.716  1.00 20.00    -0.378 OA
BRANCH   7   8
HETATM    8  C6  UNL     1     -32.617   8.512   4.553  1.00 20.00     0.164 C 
HETATM    9  C4  UNL     1     -32.382   8.763   3.079  1.00 20.00     0.033 C 
ENDBRANCH   7   8
ENDBRANCH   5   7
ENDBRANCH   3   5
TORSDOF 3
ENDMDL
MODEL 5
REMARK VINA RESULT:      -4.0      1.668      2.709
REMARK  3 active torsions:
REMARK  status: ('A' for Active; 'I' for Inactive)
REMARK    1  A    between atoms: C3_3  and  C7_7 
REMARK    2  A    between atoms: C6_6  and  O9_9 
REMARK    3  A    between atoms: C7_7  and  O9_9 
ROOT
HETATM    1  C1  UNL     1     -32.079   7.261   2.322  1.00 20.00     0.021 C 
HETATM    2  C2  UNL     1     -32.435   7.713   3.375  1.00 20.00    -0.037 C 
HETATM    3  C3  UNL     1     -32.862   8.258   4.645  1.00 20.00     0.230 C 
HETATM    4  O8  UNL     1     -32.221   9.172   5.147  1.00 20.00    -0.281 OA
ENDROOT
BRANCH   3   5
HETATM    5  C7  UNL     1     -34.078   7.615   5.284  1.00 20.00     0.200 C 
HETATM    6  C5  UNL     1     -33.735   6.924   6.594  1.00 20.00     0.049 C 
BRANCH   5   7
HETATM    7  O9  UNL     1     -34.614   6.661   4.379  1.00 20.00    -0.378 OA
BRANCH   7   8
HETATM    8  C6  UNL     1     -34.782   5.391   4.995  1.00 20.00     0.164 C 
HETATM    9  C4  UNL     1     -34.000   4.356   4.215  1.00 20.00     0.033 C 
ENDBRANCH   7   8
ENDBRANCH   5   7
ENDBRANCH   3   5
TORSDOF 3
ENDMDL
MODEL 6
REMARK VINA RESULT:      -3.9      9.251     10.259
REMARK  3 active torsions:
REMARK  status: ('A' for Active; 'I' for Inactive)
REMARK    1  A    between atoms: C3_3  and  C7_7 
REMARK    2  A    between atoms: C6_6  and  O9_9 
REMARK    3  A    between atoms: C7_7  and  O9_9 
ROOT
HETATM    1  C1  UNL     1     -38.940  11.640   3.679  1.00 20.00     0.021 C 
HETATM    2  C2  UNL     1     -39.318  11.859   4.796  1.00 20.00    -0.037 C 
HETATM    3  C3  UNL     1     -39.773  12.121   6.143  1.00 20.00     0.230 C 
HETATM    4  O8  UNL     1     -39.008  11.930   7.079  1.00 20.00    -0.281 OA
ENDROOT
BRANCH   3   5
HETATM    5  C7  UNL     1     -41.208  12.590   6.295  1.00 20.00     0.200 C 
HETATM    6  C5  UNL     1     -41.535  13.738   5.354  1.00 20.00     0.049 C 
BRANCH   5   7
HETATM    7  O9  UNL     1     -41.406  13.013   7.635  1.00 20.00    -0.378 OA
BRANCH   7   8
HETATM    8  C6  UNL     1     -41.374  14.430   7.748  1.00 20.00     0.164 C 
HETATM    9  C4  UNL     1     -40.302  14.822   8.743  1.00 20.00     0.033 C 
ENDBRANCH   7   8
ENDBRANCH   5   7
ENDBRANCH   3   5
TORSDOF 3
ENDMDL
MODEL 7
REMARK VINA RESULT:      -3.9      1.508      2.925
REMARK  3 active torsions:
REMARK  status: ('A' for Active; 'I' for Inactive)
REMARK    1  A    between atoms: C3_3  and  C7_7 
REMARK    2  A    between atoms: C6_6  and  O9_9 
REMARK    3  A    between atoms: C7_7  and  O9_9 
ROOT
HETATM    1  C1  UNL     1     -32.668   8.749   3.676  1.00 20.00     0.021 C 
HETATM    2  C2  UNL     1     -33.092   8.071   4.570  1.00 20.00    -0.037 C 
HETATM    3  C3  UNL     1     -33.601   7.252   5.648  1.00 20.00     0.230 C 
HETATM    4  O8  UNL     1     -33.092   7.344   6.758  1.00 20.00    -0.281 OA
ENDROOT
BRANCH   3   5
HETATM    5  C7  UNL     1     -34.728   6.298   5.302  1.00 20.00     0.200 C 
HETATM    6  C5  UNL     1     -34.678   5.029   6.138  1.00 20.00     0.049 C 
BRANCH   5   7
HETATM    7  O9  UNL     1     -34.625   5.957   3.928  1.00 20.00    -0.378 OA
BRANCH   7   8
HETATM    8  C6  UNL     1     -33.834   4.791   3.734  1.00 20.00     0.164 C 
HETATM    9  C4  UNL     1     -32.891   5.022   2.573  1.00 20.00     0.033 C 
ENDBRANCH   7   8
ENDBRANCH   5   7
ENDBRANCH   3   5
TORSDOF 3
ENDMDL
MODEL 8
REMARK VINA RESULT:      -3.9      1.343      1.828
REMARK  3 active torsions:
REMARK  status: ('A' for Active; 'I' for Inactive)
REMARK    1  A    between atoms: C3_3  and  C7_7 
REMARK    2  A    between atoms: C6_6  and  O9_9 
REMARK    3  A    between atoms: C7_7  and  O9_9 
ROOT
HETATM    1  C1  UNL     1     -32.183   8.355   1.045  1.00 20.00     0.021 C 
HETATM    2  C2  UNL     1     -32.280   8.041   2.199  1.00 20.00    -0.037 C 
HETATM    3  C3  UNL     1     -32.394   7.665   3.590  1.00 20.00     0.230 C 
HETATM    4  O8  UNL     1     -31.947   8.413   4.449  1.00 20.00    -0.281 OA
ENDROOT
BRANCH   3   5
HETATM    5  C7  UNL     1     -33.044   6.324   3.879  1.00 20.00     0.200 C 
HETATM    6  C5  UNL     1     -32.964   5.384   2.687  1.00 20.00     0.049 C 
BRANCH   5   7
HETATM    7  O9  UNL     1     -34.406   6.545   4.211  1.00 20.00    -0.378 OA
BRANCH   7   8
HETATM    8  C6  UNL     1     -34.972   5.422   4.875  1.00 20.00     0.164 C 
HETATM    9  C4  UNL     1     -34.583   5.465   6.337  1.00 20.00     0.033 C 
ENDBRANCH   7   8
ENDBRANCH   5   7
ENDBRANCH   3   5
TORSDOF 3
ENDMDL
MODEL 9
REMARK VINA RESULT:      -3.8      1.629      3.997
REMARK  3 active torsions:
REMARK  status: ('A' for Active; 'I' for Inactive)
REMARK    1  A    between atoms: C3_3  and  C7_7 
REMARK    2  A    between atoms: C6_6  and  O9_9 
REMARK    3  A    between atoms: C7_7  and  O9_9 
ROOT
HETATM    1  C1  UNL     1     -34.923   5.730   5.352  1.00 20.00     0.021 C 
HETATM    2  C2  UNL     1     -34.123   5.859   4.466  1.00 20.00    -0.037 C 
HETATM    3  C3  UNL     1     -33.160   6.012   3.399  1.00 20.00     0.230 C 
HETATM    4  O8  UNL     1     -33.059   5.131   2.556  1.00 20.00    -0.281 OA
ENDROOT
BRANCH   3   5
HETATM    5  C7  UNL     1     -32.307   7.267   3.430  1.00 20.00     0.200 C 
HETATM    6  C5  UNL     1     -32.924   8.354   4.296  1.00 20.00     0.049 C 
BRANCH   5   7
HETATM    7  O9  UNL     1     -32.165   7.750   2.103  1.00 20.00    -0.378 OA
BRANCH   7   8
HETATM    8  C6  UNL     1     -32.710   9.055   1.959  1.00 20.00     0.164 C 
HETATM    9  C4  UNL     1     -32.740   9.418   0.490  1.00 20.00     0.033 C 
ENDBRANCH   7   8
ENDBRANCH   5   7
ENDBRANCH   3   5
TORSDOF 3
ENDMDL
