MODEL 1
REMARK VINA RESULT:      -4.4      0.000      0.000
REMARK  3 active torsions:
REMARK  status: ('A' for Active; 'I' for Inactive)
REMARK    1  A    between atoms: C7_7  and  C9_9 
REMARK    2  A    between atoms: C9_9  and  C10_10 
REMARK    3  A    between atoms: C10_10  and  N11_11 
ROOT
HETATM    1  C1  UNL     1     -33.700  14.656  -4.326  1.00 20.00     0.029 C 
HETATM    2  C4  UNL     1     -34.085  15.070  -5.743  1.00 20.00     0.023 C 
HETATM    3  C5  UNL     1     -33.355  15.858  -3.459  1.00 20.00     0.235 C 
HETATM    4  C6  UNL     1     -34.859  17.305  -4.857  1.00 20.00     0.254 C 
HETATM    5  C8  UNL     1     -35.211  16.102  -5.722  1.00 20.00     0.108 C 
HETATM    6  N11 UNL     1     -34.511  16.830  -3.463  1.00 20.00    -0.070 N 
HETATM    7 CL12 UNL     1     -35.563  16.646  -7.387  1.00 20.00    -0.123 Cl
HETATM    8  H31 UNL     1     -35.333  16.329  -3.100  1.00 20.00     0.279 HD
ENDROOT
BRANCH   6   9
HETATM    9  C10 UNL     1     -34.269  17.983  -2.529  1.00 20.00     0.235 C 
BRANCH   9  10
HETATM   10  C9  UNL     1     -33.440  17.501  -1.349  1.00 20.00     0.032 C 
BRANCH  10  11
HETATM   11  C7  UNL     1     -32.704  18.654  -0.686  1.00 20.00    -0.013 A 
HETATM   12  C2  UNL     1     -32.308  18.569   0.761  1.00 20.00     0.005 A 
HETATM   13  C3  UNL     1     -31.255  18.511  -0.310  1.00 20.00     0.005 A 
ENDBRANCH  10  11
ENDBRANCH   9  10
ENDBRANCH   6   9
TORSDOF 3
ENDMDL
MODEL 2
REMARK VINA RESULT:      -4.0      1.666      2.245
REMARK  3 active torsions:
REMARK  status: ('A' for Active; 'I' for Inactive)
REMARK    1  A    between atoms: C7_7  and  C9_9 
REMARK    2  A    between atoms: C9_9  and  C10_10 
REMARK    3  A    between atoms: C10_10  and  N11_11 
ROOT
HETATM    1  C1  UNL     1     -34.678  17.669  -6.040  1.00 20.00     0.029 C 
HETATM    2  C4  UNL     1     -35.007  16.255  -5.569  1.00 20.00     0.023 C 
HETATM    3  C5  UNL     1     -34.326  18.584  -4.877  1.00 20.00     0.235 C 
HETATM    4  C6  UNL     1     -33.530  16.606  -3.551  1.00 20.00     0.254 C 
HETATM    5  C8  UNL     1     -33.875  15.688  -4.716  1.00 20.00     0.108 C 
HETATM    6  N11 UNL     1     -33.191  17.980  -4.085  1.00 20.00    -0.070 N 
HETATM    7 CL12 UNL     1     -34.337  14.079  -4.092  1.00 20.00    -0.123 Cl
HETATM    8  H31 UNL     1     -32.396  17.868  -4.728  1.00 20.00     0.279 HD
ENDROOT
BRANCH   6   9
HETATM    9  C10 UNL     1     -32.727  18.901  -2.991  1.00 20.00     0.235 C 
BRANCH   9  10
HETATM   10  C9  UNL     1     -32.657  18.125  -1.685  1.00 20.00     0.032 C 
BRANCH  10  11
HETATM   11  C7  UNL     1     -32.099  18.987  -0.563  1.00 20.00    -0.013 A 
HETATM   12  C2  UNL     1     -32.348  18.617   0.873  1.00 20.00     0.005 A 
HETATM   13  C3  UNL     1     -30.969  18.480   0.290  1.00 20.00     0.005 A 
ENDBRANCH  10  11
ENDBRANCH   9  10
ENDBRANCH   6   9
TORSDOF 3
ENDMDL
MODEL 3
REMARK VINA RESULT:      -4.0     13.130     14.580
REMARK  3 active torsions:
REMARK  status: ('A' for Active; 'I' for Inactive)
REMARK    1  A    between atoms: C7_7  and  C9_9 
REMARK    2  A    between atoms: C9_9  and  C10_10 
REMARK    3  A    between atoms: C10_10  and  N11_11 
ROOT
HETATM    1  C1  UNL     1     -40.319  15.485   9.009  1.00 20.00     0.029 C 
HETATM    2  C4  UNL     1     -41.114  15.209  10.282  1.00 20.00     0.023 C 
HETATM    3  C5  UNL     1     -40.364  14.306   8.048  1.00 20.00     0.235 C 
HETATM    4  C6  UNL     1     -42.586  13.613   8.992  1.00 20.00     0.254 C 
HETATM    5  C8  UNL     1     -42.546  14.795   9.951  1.00 20.00     0.108 C 
HETATM    6  N11 UNL     1     -41.802  13.958   7.745  1.00 20.00    -0.070 N 
HETATM    7 CL12 UNL     1     -43.417  14.376  11.453  1.00 20.00    -0.123 Cl
HETATM    8  H31 UNL     1     -42.238  14.794   7.334  1.00 20.00     0.279 HD
ENDROOT
BRANCH   6   9
HETATM    9  C10 UNL     1     -41.903  12.873   6.708  1.00 20.00     0.235 C 
BRANCH   9  10
HETATM   10  C9  UNL     1     -40.844  13.104   5.642  1.00 20.00     0.032 C 
BRANCH  10  11
HETATM   11  C7  UNL     1     -39.957  11.881   5.475  1.00 20.00    -0.013 A 
HETATM   12  C2  UNL     1     -39.171  11.682   4.209  1.00 20.00     0.005 A 
HETATM   13  C3  UNL     1     -38.460  12.024   5.488  1.00 20.00     0.005 A 
ENDBRANCH  10  11
ENDBRANCH   9  10
ENDBRANCH   6   9
TORSDOF 3
ENDMDL
MODEL 4
REMARK VINA RESULT:      -3.9     12.459     13.932
REMARK  3 active torsions:
REMARK  status: ('A' for Active; 'I' for Inactive)
REMARK    1  A    between atoms: C7_7  and  C9_9 
REMARK    2  A    between atoms: C9_9  and  C10_10 
REMARK    3  A    between atoms: C10_10  and  N11_11 
ROOT
HETATM    1  C1  UNL     1     -41.660  16.666   7.476  1.00 20.00     0.029 C 
HETATM    2  C4  UNL     1     -40.792  16.611   8.730  1.00 20.00     0.023 C 
HETATM    3  C5  UNL     1     -41.527  15.401   6.641  1.00 20.00     0.235 C 
HETATM    4  C6  UNL     1     -40.951  14.090   8.704  1.00 20.00     0.254 C 
HETATM    5  C8  UNL     1     -41.089  15.353   9.544  1.00 20.00     0.108 C 
HETATM    6  N11 UNL     1     -41.851  14.197   7.493  1.00 20.00    -0.070 N 
HETATM    7 CL12 UNL     1     -39.983  15.264  10.944  1.00 20.00    -0.123 Cl
HETATM    8  H31 UNL     1     -42.813  14.319   7.840  1.00 20.00     0.279 HD
ENDROOT
BRANCH   6   9
HETATM    9  C10 UNL     1     -41.848  12.929   6.686  1.00 20.00     0.235 C 
BRANCH   9  10
HETATM   10  C9  UNL     1     -40.871  13.078   5.530  1.00 20.00     0.032 C 
BRANCH  10  11
HETATM   11  C7  UNL     1     -39.946  11.875   5.434  1.00 20.00    -0.013 A 
HETATM   12  C2  UNL     1     -39.121  11.650   4.198  1.00 20.00     0.005 A 
HETATM   13  C3  UNL     1     -38.455  12.061   5.481  1.00 20.00     0.005 A 
ENDBRANCH  10  11
ENDBRANCH   9  10
ENDBRANCH   6   9
TORSDOF 3
ENDMDL
MODEL 5
REMARK VINA RESULT:      -3.9     12.355     13.821
REMARK  3 active torsions:
REMARK  status: ('A' for Active; 'I' for Inactive)
REMARK    1  A    between atoms: C7_7  and  C9_9 
REMARK    2  A    between atoms: C9_9  and  C10_10 
REMARK    3  A    between atoms: C10_10  and  N11_11 
ROOT
HETATM    1  C1  UNL     1     -42.073  15.003   9.884  1.00 20.00     0.029 C 
HETATM    2  C4  UNL     1     -41.749  16.377   9.304  1.00 20.00     0.023 C 
HETATM    3  C5  UNL     1     -42.530  14.028   8.809  1.00 20.00     0.235 C 
HETATM    4  C6  UNL     1     -41.200  15.289   7.091  1.00 20.00     0.254 C 
HETATM    5  C8  UNL     1     -40.736  16.262   8.166  1.00 20.00     0.108 C 
HETATM    6  N11 UNL     1     -41.480  13.945   7.726  1.00 20.00    -0.070 N 
HETATM    7 CL12 UNL     1     -40.461  17.871   7.439  1.00 20.00    -0.123 Cl
HETATM    8  H31 UNL     1     -40.607  13.631   8.170  1.00 20.00     0.279 HD
ENDROOT
BRANCH   6   9
HETATM    9  C10 UNL     1     -41.830  12.907   6.695  1.00 20.00     0.235 C 
BRANCH   9  10
HETATM   10  C9  UNL     1     -40.897  13.058   5.503  1.00 20.00     0.032 C 
BRANCH  10  11
HETATM   11  C7  UNL     1     -39.951  11.873   5.392  1.00 20.00    -0.013 A 
HETATM   12  C2  UNL     1     -39.098  11.697   4.166  1.00 20.00     0.005 A 
HETATM   13  C3  UNL     1     -38.465  12.081   5.474  1.00 20.00     0.005 A 
ENDBRANCH  10  11
ENDBRANCH   9  10
ENDBRANCH   6   9
TORSDOF 3
ENDMDL
MODEL 6
REMARK VINA RESULT:      -3.9      1.103      1.648
REMARK  3 active torsions:
REMARK  status: ('A' for Active; 'I' for Inactive)
REMARK    1  A    between atoms: C7_7  and  C9_9 
REMARK    2  A    between atoms: C9_9  and  C10_10 
REMARK    3  A    between atoms: C10_10  and  N11_11 
ROOT
HETATM    1  C1  UNL     1     -35.727  14.403  -5.344  1.00 20.00     0.029 C 
HETATM    2  C4  UNL     1     -36.076  15.533  -6.308  1.00 20.00     0.023 C 
HETATM    3  C5  UNL     1     -34.419  14.667  -4.613  1.00 20.00     0.235 C 
HETATM    4  C6  UNL     1     -34.772  17.141  -4.861  1.00 20.00     0.254 C 
HETATM    5  C8  UNL     1     -36.085  16.880  -5.587  1.00 20.00     0.108 C 
HETATM    6  N11 UNL     1     -34.496  16.000  -3.907  1.00 20.00    -0.070 N 
HETATM    7 CL12 UNL     1     -36.389  18.191  -6.762  1.00 20.00    -0.123 Cl
HETATM    8  H31 UNL     1     -35.289  15.953  -3.253  1.00 20.00     0.279 HD
ENDROOT
BRANCH   6   9
HETATM    9  C10 UNL     1     -33.272  16.258  -3.073  1.00 20.00     0.235 C 
BRANCH   9  10
HETATM   10  C9  UNL     1     -33.335  17.673  -2.522  1.00 20.00     0.032 C 
BRANCH  10  11
HETATM   11  C7  UNL     1     -32.561  17.791  -1.219  1.00 20.00    -0.013 A 
HETATM   12  C2  UNL     1     -32.072  19.132  -0.746  1.00 20.00     0.005 A 
HETATM   13  C3  UNL     1     -33.193  18.443  -0.020  1.00 20.00     0.005 A 
ENDBRANCH  10  11
ENDBRANCH   9  10
ENDBRANCH   6   9
TORSDOF 3
ENDMDL
MODEL 7
REMARK VINA RESULT:      -3.7      3.309      6.126
REMARK  3 active torsions:
REMARK  status: ('A' for Active; 'I' for Inactive)
REMARK    1  A    between atoms: C7_7  and  C9_9 
REMARK    2  A    between atoms: C9_9  and  C10_10 
REMARK    3  A    between atoms: C10_10  and  N11_11 
ROOT
HETATM    1  C1  UNL     1     -34.468  18.931   0.733  1.00 20.00     0.029 C 
HETATM    2  C4  UNL     1     -33.125  19.262   1.378  1.00 20.00     0.023 C 
HETATM    3  C5  UNL     1     -34.385  18.943  -0.786  1.00 20.00     0.235 C 
HETATM    4  C6  UNL     1     -31.946  18.357  -0.665  1.00 20.00     0.254 C 
HETATM    5  C8  UNL     1     -32.027  18.337   0.856  1.00 20.00     0.108 C 
HETATM    6  N11 UNL     1     -33.298  17.998  -1.239  1.00 20.00    -0.070 N 
HETATM    7 CL12 UNL     1     -30.452  18.821   1.546  1.00 20.00    -0.123 Cl
HETATM    8  H31 UNL     1     -33.540  17.062  -0.885  1.00 20.00     0.279 HD
ENDROOT
BRANCH   6   9
HETATM    9  C10 UNL     1     -33.251  17.885  -2.738  1.00 20.00     0.235 C 
BRANCH   9  10
HETATM   10  C9  UNL     1     -32.915  16.451  -3.118  1.00 20.00     0.032 C 
BRANCH  10  11
HETATM   11  C7  UNL     1     -34.093  15.771  -3.795  1.00 20.00    -0.013 A 
HETATM   12  C2  UNL     1     -34.092  15.558  -5.283  1.00 20.00     0.005 A 
HETATM   13  C3  UNL     1     -33.946  14.384  -4.357  1.00 20.00     0.005 A 
ENDBRANCH  10  11
ENDBRANCH   9  10
ENDBRANCH   6   9
TORSDOF 3
ENDMDL
MODEL 8
REMARK VINA RESULT:      -3.7     24.522     25.533
REMARK  3 active torsions:
REMARK  status: ('A' for Active; 'I' for Inactive)
REMARK    1  A    between atoms: C7_7  and  C9_9 
REMARK    2  A    between atoms: C9_9  and  C10_10 
REMARK    3  A    between atoms: C10_10  and  N11_11 
ROOT
HETATM    1  C1  UNL     1     -26.900  -0.275  11.799  1.00 20.00     0.029 C 
HETATM    2  C4  UNL     1     -28.014  -1.221  11.360  1.00 20.00     0.023 C 
HETATM    3  C5  UNL     1     -25.639  -1.030  12.193  1.00 20.00     0.235 C 
HETATM    4  C6  UNL     1     -26.273  -2.908  10.650  1.00 20.00     0.254 C 
HETATM    5  C8  UNL     1     -27.533  -2.151  10.248  1.00 20.00     0.108 C 
HETATM    6  N11 UNL     1     -25.204  -1.915  11.049  1.00 20.00    -0.070 N 
HETATM    7 CL12 UNL     1     -28.823  -3.315   9.835  1.00 20.00    -0.123 Cl
HETATM    8  H31 UNL     1     -25.037  -1.305  10.237  1.00 20.00     0.279 HD
ENDROOT
BRANCH   6   9
HETATM    9  C10 UNL     1     -23.896  -2.598  11.342  1.00 20.00     0.235 C 
BRANCH   9  10
HETATM   10  C9  UNL     1     -23.657  -3.682  10.303  1.00 20.00     0.032 C 
BRANCH  10  11
HETATM   11  C7  UNL     1     -22.771  -3.177   9.176  1.00 20.00    -0.013 A 
HETATM   12  C2  UNL     1     -22.175  -4.142   8.190  1.00 20.00     0.005 A 
HETATM   13  C3  UNL     1     -23.264  -3.201   7.756  1.00 20.00     0.005 A 
ENDBRANCH  10  11
ENDBRANCH   9  10
ENDBRANCH   6   9
TORSDOF 3
ENDMDL
MODEL 9
REMARK VINA RESULT:      -3.7      1.613      2.193
REMARK  3 active torsions:
REMARK  status: ('A' for Active; 'I' for Inactive)
REMARK    1  A    between atoms: C7_7  and  C9_9 
REMARK    2  A    between atoms: C9_9  and  C10_10 
REMARK    3  A    between atoms: C10_10  and  N11_11 
ROOT
HETATM    1  C1  UNL     1     -34.987  17.144  -6.582  1.00 20.00     0.029 C 
HETATM    2  C4  UNL     1     -35.657  15.853  -6.122  1.00 20.00     0.023 C 
HETATM    3  C5  UNL     1     -34.508  17.983  -5.407  1.00 20.00     0.235 C 
HETATM    4  C6  UNL     1     -34.264  15.907  -4.016  1.00 20.00     0.254 C 
HETATM    5  C8  UNL     1     -34.737  15.064  -5.193  1.00 20.00     0.108 C 
HETATM    6  N11 UNL     1     -33.590  17.156  -4.539  1.00 20.00    -0.070 N 
HETATM    7 CL12 UNL     1     -35.589  13.616  -4.586  1.00 20.00    -0.123 Cl
HETATM    8  H31 UNL     1     -32.803  16.853  -5.129  1.00 20.00     0.279 HD
ENDROOT
BRANCH   6   9
HETATM    9  C10 UNL     1     -32.996  17.973  -3.425  1.00 20.00     0.235 C 
BRANCH   9  10
HETATM   10  C9  UNL     1     -33.388  17.356  -2.092  1.00 20.00     0.032 C 
BRANCH  10  11
HETATM   11  C7  UNL     1     -33.476  18.412  -1.002  1.00 20.00    -0.013 A 
HETATM   12  C2  UNL     1     -33.852  18.024   0.401  1.00 20.00     0.005 A 
HETATM   13  C3  UNL     1     -32.446  18.457   0.093  1.00 20.00     0.005 A 
ENDBRANCH  10  11
ENDBRANCH   9  10
ENDBRANCH   6   9
TORSDOF 3
ENDMDL
