MODEL 1
REMARK VINA RESULT:      -4.8      0.000      0.000
REMARK  2 active torsions:
REMARK  status: ('A' for Active; 'I' for Inactive)
REMARK    1  A    between atoms: C3_3  and  C7_7 
REMARK    2  A    between atoms: C8_8  and  C10_10 
ROOT
HETATM    1  C1  UNL     1     -32.846   4.996   1.940  1.00 20.00     0.021 C 
HETATM    2  C2  UNL     1     -33.416   4.884   2.992  1.00 20.00    -0.039 C 
HETATM    3  C3  UNL     1     -34.100   4.748   4.256  1.00 20.00     0.205 C 
HETATM    4  O11 UNL     1     -34.113   3.667   4.829  1.00 20.00    -0.283 OA
ENDROOT
BRANCH   3   5
HETATM    5  C7  UNL     1     -34.774   5.998   4.793  1.00 20.00     0.069 C 
HETATM    6  C4  UNL     1     -34.615   6.042   6.313  1.00 20.00     0.013 C 
HETATM    7  C5  UNL     1     -33.900   7.355   6.618  1.00 20.00     0.005 C 
HETATM    8  C8  UNL     1     -33.082   7.627   5.361  1.00 20.00    -0.014 C 
HETATM    9  C6  UNL     1     -34.045   7.222   4.244  1.00 20.00     0.017 C 
BRANCH   8  10
HETATM   10  C10 UNL     1     -32.612   9.068   5.253  1.00 20.00     0.000 C 
HETATM   11  C9  UNL     1     -32.395   9.479   3.830  1.00 20.00     0.005 C 
ENDBRANCH   8  10
ENDBRANCH   3   5
TORSDOF 2
ENDMDL
MODEL 2
REMARK VINA RESULT:      -4.7      2.641      4.005
REMARK  2 active torsions:
REMARK  status: ('A' for Active; 'I' for Inactive)
REMARK    1  A    between atoms: C3_3  and  C7_7 
REMARK    2  A    between atoms: C8_8  and  C10_10 
ROOT
HETATM    1  C1  UNL     1     -31.841   8.019  -0.037  1.00 20.00     0.021 C 
HETATM    2  C2  UNL     1     -32.135   8.386   1.069  1.00 20.00    -0.039 C 
HETATM    3  C3  UNL     1     -32.488   8.829   2.397  1.00 20.00     0.205 C 
HETATM    4  O11 UNL     1     -33.070   9.895   2.548  1.00 20.00    -0.283 OA
ENDROOT
BRANCH   3   5
HETATM    5  C7  UNL     1     -32.097   7.909   3.538  1.00 20.00     0.069 C 
HETATM    6  C4  UNL     1     -32.457   8.574   4.867  1.00 20.00     0.013 C 
HETATM    7  C5  UNL     1     -33.405   7.608   5.572  1.00 20.00     0.005 C 
HETATM    8  C8  UNL     1     -34.086   6.864   4.428  1.00 20.00    -0.014 C 
HETATM    9  C6  UNL     1     -32.934   6.635   3.449  1.00 20.00     0.017 C 
BRANCH   8  10
HETATM   10  C10 UNL     1     -34.761   5.576   4.870  1.00 20.00     0.000 C 
HETATM   11  C9  UNL     1     -34.673   5.378   6.350  1.00 20.00     0.005 C 
ENDBRANCH   8  10
ENDBRANCH   3   5
TORSDOF 2
ENDMDL
MODEL 3
REMARK VINA RESULT:      -4.5     12.485     13.693
REMARK  2 active torsions:
REMARK  status: ('A' for Active; 'I' for Inactive)
REMARK    1  A    between atoms: C3_3  and  C7_7 
REMARK    2  A    between atoms: C8_8  and  C10_10 
ROOT
HETATM    1  C1  UNL     1     -31.248  18.475   1.393  1.00 20.00     0.021 C 
HETATM    2  C2  UNL     1     -31.733  18.522   0.295  1.00 20.00    -0.039 C 
HETATM    3  C3  UNL     1     -32.316  18.579  -1.024  1.00 20.00     0.205 C 
HETATM    4  O11 UNL     1     -31.791  19.263  -1.893  1.00 20.00    -0.283 OA
ENDROOT
BRANCH   3   5
HETATM    5  C7  UNL     1     -33.576  17.761  -1.239  1.00 20.00     0.069 C 
HETATM    6  C4  UNL     1     -34.669  18.661  -1.816  1.00 20.00     0.013 C 
HETATM    7  C5  UNL     1     -35.078  18.020  -3.139  1.00 20.00     0.005 C 
HETATM    8  C8  UNL     1     -33.821  17.288  -3.596  1.00 20.00    -0.014 C 
HETATM    9  C6  UNL     1     -33.293  16.691  -2.291  1.00 20.00     0.017 C 
BRANCH   8  10
HETATM   10  C10 UNL     1     -34.092  16.242  -4.664  1.00 20.00     0.000 C 
HETATM   11  C9  UNL     1     -33.943  14.850  -4.135  1.00 20.00     0.005 C 
ENDBRANCH   8  10
ENDBRANCH   3   5
TORSDOF 2
ENDMDL
MODEL 4
REMARK VINA RESULT:      -4.4      2.385      3.788
REMARK  2 active torsions:
REMARK  status: ('A' for Active; 'I' for Inactive)
REMARK    1  A    between atoms: C3_3  and  C7_7 
REMARK    2  A    between atoms: C8_8  and  C10_10 
ROOT
HETATM    1  C1  UNL     1     -34.754   5.403   5.971  1.00 20.00     0.021 C 
HETATM    2  C2  UNL     1     -34.261   6.477   5.750  1.00 20.00    -0.039 C 
HETATM    3  C3  UNL     1     -33.671   7.767   5.485  1.00 20.00     0.205 C 
HETATM    4  O11 UNL     1     -34.157   8.773   5.983  1.00 20.00    -0.283 OA
ENDROOT
BRANCH   3   5
HETATM    5  C7  UNL     1     -32.453   7.776   4.579  1.00 20.00     0.069 C 
HETATM    6  C4  UNL     1     -32.594   6.668   3.535  1.00 20.00     0.013 C 
HETATM    7  C5  UNL     1     -32.520   7.364   2.179  1.00 20.00     0.005 C 
HETATM    8  C8  UNL     1     -33.051   8.766   2.458  1.00 20.00    -0.014 C 
HETATM    9  C6  UNL     1     -32.422   9.095   3.812  1.00 20.00     0.017 C 
BRANCH   8  10
HETATM   10  C10 UNL     1     -32.694   9.768   1.373  1.00 20.00     0.000 C 
HETATM   11  C9  UNL     1     -32.640   9.132   0.020  1.00 20.00     0.005 C 
ENDBRANCH   8  10
ENDBRANCH   3   5
TORSDOF 2
ENDMDL
MODEL 5
REMARK VINA RESULT:      -4.2      9.543     10.268
REMARK  2 active torsions:
REMARK  status: ('A' for Active; 'I' for Inactive)
REMARK    1  A    between atoms: C3_3  and  C7_7 
REMARK    2  A    between atoms: C8_8  and  C10_10 
ROOT
HETATM    1  C1  UNL     1     -38.938  11.563   3.641  1.00 20.00     0.021 C 
HETATM    2  C2  UNL     1     -39.301  11.910   4.733  1.00 20.00    -0.039 C 
HETATM    3  C3  UNL     1     -39.737  12.326   6.044  1.00 20.00     0.205 C 
HETATM    4  O11 UNL     1     -39.172  11.893   7.040  1.00 20.00    -0.283 OA
ENDROOT
BRANCH   3   5
HETATM    5  C7  UNL     1     -40.900  13.300   6.089  1.00 20.00     0.069 C 
HETATM    6  C4  UNL     1     -42.079  12.645   6.809  1.00 20.00     0.013 C 
HETATM    7  C5  UNL     1     -42.406  13.559   7.986  1.00 20.00     0.005 C 
HETATM    8  C8  UNL     1     -41.075  14.224   8.315  1.00 20.00    -0.014 C 
HETATM    9  C6  UNL     1     -40.495  14.509   6.929  1.00 20.00     0.017 C 
BRANCH   8  10
HETATM   10  C10 UNL     1     -41.223  15.471   9.169  1.00 20.00     0.000 C 
HETATM   11  C9  UNL     1     -40.899  16.715   8.403  1.00 20.00     0.005 C 
ENDBRANCH   8  10
ENDBRANCH   3   5
TORSDOF 2
ENDMDL
MODEL 6
REMARK VINA RESULT:      -4.1     12.324     13.042
REMARK  2 active torsions:
REMARK  status: ('A' for Active; 'I' for Inactive)
REMARK    1  A    between atoms: C3_3  and  C7_7 
REMARK    2  A    between atoms: C8_8  and  C10_10 
ROOT
HETATM    1  C1  UNL     1     -35.915  14.884  -6.549  1.00 20.00     0.021 C 
HETATM    2  C2  UNL     1     -35.145  14.940  -5.629  1.00 20.00    -0.039 C 
HETATM    3  C3  UNL     1     -34.220  15.007  -4.522  1.00 20.00     0.205 C 
HETATM    4  O11 UNL     1     -34.044  14.023  -3.816  1.00 20.00    -0.283 OA
ENDROOT
BRANCH   3   5
HETATM    5  C7  UNL     1     -33.516  16.335  -4.314  1.00 20.00     0.069 C 
HETATM    6  C4  UNL     1     -34.532  17.470  -4.442  1.00 20.00     0.013 C 
HETATM    7  C5  UNL     1     -34.475  18.229  -3.119  1.00 20.00     0.005 C 
HETATM    8  C8  UNL     1     -34.041  17.172  -2.109  1.00 20.00    -0.014 C 
HETATM    9  C6  UNL     1     -32.982  16.388  -2.884  1.00 20.00     0.017 C 
BRANCH   8  10
HETATM   10  C10 UNL     1     -33.516  17.764  -0.812  1.00 20.00     0.000 C 
HETATM   11  C9  UNL     1     -32.130  18.307  -0.966  1.00 20.00     0.005 C 
ENDBRANCH   8  10
ENDBRANCH   3   5
TORSDOF 2
ENDMDL
MODEL 7
REMARK VINA RESULT:      -4.0     12.570     13.983
REMARK  2 active torsions:
REMARK  status: ('A' for Active; 'I' for Inactive)
REMARK    1  A    between atoms: C3_3  and  C7_7 
REMARK    2  A    between atoms: C8_8  and  C10_10 
ROOT
HETATM    1  C1  UNL     1     -33.687  17.884  -0.247  1.00 20.00     0.021 C 
HETATM    2  C2  UNL     1     -34.068  17.922  -1.386  1.00 20.00    -0.039 C 
HETATM    3  C3  UNL     1     -34.526  17.967  -2.754  1.00 20.00     0.205 C 
HETATM    4  O11 UNL     1     -35.602  18.488  -3.019  1.00 20.00    -0.283 OA
ENDROOT
BRANCH   3   5
HETATM    5  C7  UNL     1     -33.610  17.344  -3.791  1.00 20.00     0.069 C 
HETATM    6  C4  UNL     1     -33.171  15.961  -3.310  1.00 20.00     0.013 C 
HETATM    7  C5  UNL     1     -33.617  14.983  -4.393  1.00 20.00     0.005 C 
HETATM    8  C8  UNL     1     -34.833  15.658  -5.018  1.00 20.00    -0.014 C 
HETATM    9  C6  UNL     1     -34.403  17.125  -5.078  1.00 20.00     0.017 C 
BRANCH   8  10
HETATM   10  C10 UNL     1     -35.203  15.088  -6.376  1.00 20.00     0.000 C 
HETATM   11  C9  UNL     1     -34.255  15.532  -7.446  1.00 20.00     0.005 C 
ENDBRANCH   8  10
ENDBRANCH   3   5
TORSDOF 2
ENDMDL
MODEL 8
REMARK VINA RESULT:      -4.0     10.207     10.802
REMARK  2 active torsions:
REMARK  status: ('A' for Active; 'I' for Inactive)
REMARK    1  A    between atoms: C3_3  and  C7_7 
REMARK    2  A    between atoms: C8_8  and  C10_10 
ROOT
HETATM    1  C1  UNL     1     -39.000  11.673   3.999  1.00 20.00     0.021 C 
HETATM    2  C2  UNL     1     -39.558  12.019   5.005  1.00 20.00    -0.039 C 
HETATM    3  C3  UNL     1     -40.228  12.435   6.214  1.00 20.00     0.205 C 
HETATM    4  O11 UNL     1     -39.601  12.511   7.263  1.00 20.00    -0.283 OA
ENDROOT
BRANCH   3   5
HETATM    5  C7  UNL     1     -41.706  12.756   6.087  1.00 20.00     0.069 C 
HETATM    6  C4  UNL     1     -42.251  13.170   7.454  1.00 20.00     0.013 C 
HETATM    7  C5  UNL     1     -42.825  14.571   7.265  1.00 20.00     0.005 C 
HETATM    8  C8  UNL     1     -42.001  15.154   6.123  1.00 20.00    -0.014 C 
HETATM    9  C6  UNL     1     -41.868  13.966   5.170  1.00 20.00     0.017 C 
BRANCH   8  10
HETATM   10  C10 UNL     1     -42.646  16.369   5.478  1.00 20.00     0.000 C 
HETATM   11  C9  UNL     1     -42.773  16.213   3.995  1.00 20.00     0.005 C 
ENDBRANCH   8  10
ENDBRANCH   3   5
TORSDOF 2
ENDMDL
MODEL 9
REMARK VINA RESULT:      -4.0     12.416     14.017
REMARK  2 active torsions:
REMARK  status: ('A' for Active; 'I' for Inactive)
REMARK    1  A    between atoms: C3_3  and  C7_7 
REMARK    2  A    between atoms: C8_8  and  C10_10 
ROOT
HETATM    1  C1  UNL     1     -33.301  16.916  -2.066  1.00 20.00     0.021 C 
HETATM    2  C2  UNL     1     -33.492  16.238  -3.038  1.00 20.00    -0.039 C 
HETATM    3  C3  UNL     1     -33.721  15.422  -4.207  1.00 20.00     0.205 C 
HETATM    4  O11 UNL     1     -33.516  14.216  -4.158  1.00 20.00    -0.283 OA
ENDROOT
BRANCH   3   5
HETATM    5  C7  UNL     1     -34.216  16.146  -5.446  1.00 20.00     0.069 C 
HETATM    6  C4  UNL     1     -34.533  15.121  -6.535  1.00 20.00     0.013 C 
HETATM    7  C5  UNL     1     -36.001  15.336  -6.892  1.00 20.00     0.005 C 
HETATM    8  C8  UNL     1     -36.612  15.888  -5.610  1.00 20.00    -0.014 C 
HETATM    9  C6  UNL     1     -35.530  16.847  -5.113  1.00 20.00     0.017 C 
BRANCH   8  10
HETATM   10  C10 UNL     1     -37.955  16.565  -5.830  1.00 20.00     0.000 C 
HETATM   11  C9  UNL     1     -38.964  16.153  -4.805  1.00 20.00     0.005 C 
ENDBRANCH   8  10
ENDBRANCH   3   5
TORSDOF 2
ENDMDL
