MODEL 1
REMARK VINA RESULT:      -4.6      0.000      0.000
REMARK  1 active torsions:
REMARK  status: ('A' for Active; 'I' for Inactive)
REMARK    1  A    between atoms: C3_3  and  C7_7 
ROOT
HETATM    1  C1  UNL     1     -38.917  11.585   3.734  1.00 20.00     0.021 C 
HETATM    2  C2  UNL     1     -39.291  11.947   4.815  1.00 20.00    -0.039 C 
HETATM    3  C3  UNL     1     -39.741  12.383   6.116  1.00 20.00     0.208 C 
HETATM    4  O10 UNL     1     -39.159  11.998   7.121  1.00 20.00    -0.283 OA
ENDROOT
BRANCH   3   5
HETATM    5  C7  UNL     1     -40.922  13.304   6.136  1.00 20.00     0.100 C 
HETATM    6  C6  UNL     1     -40.738  14.407   7.183  1.00 20.00     0.047 C 
HETATM    7  C8  UNL     1     -41.938  14.173   8.101  1.00 20.00     0.122 C 
HETATM    8  C4  UNL     1     -43.242  14.558   7.406  1.00 20.00     0.034 C 
HETATM    9  O11 UNL     1     -42.024  12.731   8.084  1.00 20.00    -0.380 OA
HETATM   10  C5  UNL     1     -43.416  13.422   6.396  1.00 20.00     0.035 C 
HETATM   11  C9  UNL     1     -42.168  12.577   6.651  1.00 20.00     0.134 C 
ENDBRANCH   3   5
TORSDOF 1
ENDMDL
MODEL 2
REMARK VINA RESULT:      -4.5      9.345     10.197
REMARK  1 active torsions:
REMARK  status: ('A' for Active; 'I' for Inactive)
REMARK    1  A    between atoms: C3_3  and  C7_7 
ROOT
HETATM    1  C1  UNL     1     -32.148   8.036   1.327  1.00 20.00     0.021 C 
HETATM    2  C2  UNL     1     -32.299   8.133   2.513  1.00 20.00    -0.039 C 
HETATM    3  C3  UNL     1     -32.480   8.249   3.941  1.00 20.00     0.208 C 
HETATM    4  O10 UNL     1     -32.340   9.337   4.485  1.00 20.00    -0.283 OA
ENDROOT
BRANCH   3   5
HETATM    5  C7  UNL     1     -32.838   6.992   4.670  1.00 20.00     0.100 C 
HETATM    6  C6  UNL     1     -33.419   5.948   3.710  1.00 20.00     0.047 C 
HETATM    7  C8  UNL     1     -34.810   5.717   4.301  1.00 20.00     0.122 C 
HETATM    8  C4  UNL     1     -34.723   4.967   5.628  1.00 20.00     0.034 C 
HETATM    9  O11 UNL     1     -35.147   7.049   4.750  1.00 20.00    -0.380 OA
HETATM   10  C5  UNL     1     -34.177   6.042   6.571  1.00 20.00     0.035 C 
HETATM   11  C9  UNL     1     -34.009   7.233   5.628  1.00 20.00     0.134 C 
ENDBRANCH   3   5
TORSDOF 1
ENDMDL
MODEL 3
REMARK VINA RESULT:      -4.5     12.721     13.684
REMARK  1 active torsions:
REMARK  status: ('A' for Active; 'I' for Inactive)
REMARK    1  A    between atoms: C3_3  and  C7_7 
ROOT
HETATM    1  C1  UNL     1     -33.260  16.828  -2.349  1.00 20.00     0.021 C 
HETATM    2  C2  UNL     1     -33.559  16.090  -3.246  1.00 20.00    -0.039 C 
HETATM    3  C3  UNL     1     -33.919  15.201  -4.326  1.00 20.00     0.208 C 
HETATM    4  O10 UNL     1     -33.674  14.005  -4.236  1.00 20.00    -0.283 OA
ENDROOT
BRANCH   3   5
HETATM    5  C7  UNL     1     -34.586  15.830  -5.509  1.00 20.00     0.100 C 
HETATM    6  C6  UNL     1     -35.645  16.844  -5.066  1.00 20.00     0.047 C 
HETATM    7  C8  UNL     1     -36.916  16.265  -5.688  1.00 20.00     0.122 C 
HETATM    8  C4  UNL     1     -36.898  16.413  -7.207  1.00 20.00     0.034 C 
HETATM    9  O11 UNL     1     -36.677  14.847  -5.539  1.00 20.00    -0.380 OA
HETATM   10  C5  UNL     1     -35.862  15.366  -7.621  1.00 20.00     0.035 C 
HETATM   11  C9  UNL     1     -35.427  14.800  -6.270  1.00 20.00     0.134 C 
ENDBRANCH   3   5
TORSDOF 1
ENDMDL
MODEL 4
REMARK VINA RESULT:      -4.3      9.485     10.051
REMARK  1 active torsions:
REMARK  status: ('A' for Active; 'I' for Inactive)
REMARK    1  A    between atoms: C3_3  and  C7_7 
ROOT
HETATM    1  C1  UNL     1     -32.159   7.961   1.828  1.00 20.00     0.021 C 
HETATM    2  C2  UNL     1     -32.420   8.157   2.983  1.00 20.00    -0.039 C 
HETATM    3  C3  UNL     1     -32.733   8.391   4.373  1.00 20.00     0.208 C 
HETATM    4  O10 UNL     1     -32.040   9.156   5.031  1.00 20.00    -0.283 OA
ENDROOT
BRANCH   3   5
HETATM    5  C7  UNL     1     -33.919   7.659   4.919  1.00 20.00     0.100 C 
HETATM    6  C6  UNL     1     -33.694   7.267   6.383  1.00 20.00     0.047 C 
HETATM    7  C8  UNL     1     -33.810   5.743   6.322  1.00 20.00     0.122 C 
HETATM    8  C4  UNL     1     -35.252   5.315   6.058  1.00 20.00     0.034 C 
HETATM    9  O11 UNL     1     -33.195   5.468   5.043  1.00 20.00    -0.380 OA
HETATM   10  C5  UNL     1     -35.434   5.685   4.584  1.00 20.00     0.035 C 
HETATM   11  C9  UNL     1     -34.075   6.294   4.241  1.00 20.00     0.134 C 
ENDBRANCH   3   5
TORSDOF 1
ENDMDL
MODEL 5
REMARK VINA RESULT:      -4.2      9.532     10.624
REMARK  1 active torsions:
REMARK  status: ('A' for Active; 'I' for Inactive)
REMARK    1  A    between atoms: C3_3  and  C7_7 
ROOT
HETATM    1  C1  UNL     1     -32.161   8.294   1.911  1.00 20.00     0.021 C 
HETATM    2  C2  UNL     1     -32.464   7.202   2.303  1.00 20.00    -0.039 C 
HETATM    3  C3  UNL     1     -32.830   5.887   2.775  1.00 20.00     0.208 C 
HETATM    4  O10 UNL     1     -32.909   4.957   1.983  1.00 20.00    -0.283 OA
ENDROOT
BRANCH   3   5
HETATM    5  C7  UNL     1     -33.092   5.758   4.244  1.00 20.00     0.100 C 
HETATM    6  C6  UNL     1     -33.956   4.528   4.539  1.00 20.00     0.047 C 
HETATM    7  C8  UNL     1     -35.179   5.156   5.208  1.00 20.00     0.122 C 
HETATM    8  C4  UNL     1     -34.831   5.687   6.597  1.00 20.00     0.034 C 
HETATM    9  O11 UNL     1     -35.305   6.386   4.459  1.00 20.00    -0.380 OA
HETATM   10  C5  UNL     1     -34.002   6.930   6.268  1.00 20.00     0.035 C 
HETATM   11  C9  UNL     1     -33.981   6.902   4.740  1.00 20.00     0.134 C 
ENDBRANCH   3   5
TORSDOF 1
ENDMDL
MODEL 6
REMARK VINA RESULT:      -4.2     12.597     14.002
REMARK  1 active torsions:
REMARK  status: ('A' for Active; 'I' for Inactive)
REMARK    1  A    between atoms: C3_3  and  C7_7 
ROOT
HETATM    1  C1  UNL     1     -33.489  17.114  -1.859  1.00 20.00     0.021 C 
HETATM    2  C2  UNL     1     -33.415  16.389  -2.812  1.00 20.00    -0.039 C 
HETATM    3  C3  UNL     1     -33.326  15.518  -3.960  1.00 20.00     0.208 C 
HETATM    4  O10 UNL     1     -32.286  14.912  -4.184  1.00 20.00    -0.283 OA
ENDROOT
BRANCH   3   5
HETATM    5  C7  UNL     1     -34.551  15.416  -4.814  1.00 20.00     0.100 C 
HETATM    6  C6  UNL     1     -34.184  15.049  -6.256  1.00 20.00     0.047 C 
HETATM    7  C8  UNL     1     -34.735  16.244  -7.035  1.00 20.00     0.122 C 
HETATM    8  C4  UNL     1     -36.262  16.233  -7.044  1.00 20.00     0.034 C 
HETATM    9  O11 UNL     1     -34.466  17.325  -6.114  1.00 20.00    -0.380 OA
HETATM   10  C5  UNL     1     -36.596  16.638  -5.606  1.00 20.00     0.035 C 
HETATM   11  C9  UNL     1     -35.206  16.790  -4.990  1.00 20.00     0.134 C 
ENDBRANCH   3   5
TORSDOF 1
ENDMDL
MODEL 7
REMARK VINA RESULT:      -4.0      1.628      2.307
REMARK  1 active torsions:
REMARK  status: ('A' for Active; 'I' for Inactive)
REMARK    1  A    between atoms: C3_3  and  C7_7 
ROOT
HETATM    1  C1  UNL     1     -38.791  11.558   4.143  1.00 20.00     0.021 C 
HETATM    2  C2  UNL     1     -39.676  12.241   4.579  1.00 20.00    -0.039 C 
HETATM    3  C3  UNL     1     -40.740  13.064   5.104  1.00 20.00     0.208 C 
HETATM    4  O10 UNL     1     -41.458  13.692   4.337  1.00 20.00    -0.283 OA
ENDROOT
BRANCH   3   5
HETATM    5  C7  UNL     1     -40.891  13.084   6.594  1.00 20.00     0.100 C 
HETATM    6  C6  UNL     1     -42.365  12.974   6.996  1.00 20.00     0.047 C 
HETATM    7  C8  UNL     1     -42.577  14.272   7.776  1.00 20.00     0.122 C 
HETATM    8  C4  UNL     1     -41.840  14.233   9.113  1.00 20.00     0.034 C 
HETATM    9  O11 UNL     1     -41.748  15.187   7.024  1.00 20.00    -0.380 OA
HETATM   10  C5  UNL     1     -40.379  14.382   8.681  1.00 20.00     0.035 C 
HETATM   11  C9  UNL     1     -40.505  14.455   7.160  1.00 20.00     0.134 C 
ENDBRANCH   3   5
TORSDOF 1
ENDMDL
MODEL 8
REMARK VINA RESULT:      -3.9      1.520      2.207
REMARK  1 active torsions:
REMARK  status: ('A' for Active; 'I' for Inactive)
REMARK    1  A    between atoms: C3_3  and  C7_7 
ROOT
HETATM    1  C1  UNL     1     -39.290  11.829   4.593  1.00 20.00     0.021 C 
HETATM    2  C2  UNL     1     -40.008  12.292   5.434  1.00 20.00    -0.039 C 
HETATM    3  C3  UNL     1     -40.874  12.849   6.447  1.00 20.00     0.208 C 
HETATM    4  O10 UNL     1     -41.823  12.196   6.862  1.00 20.00    -0.283 OA
ENDROOT
BRANCH   3   5
HETATM    5  C7  UNL     1     -40.532  14.224   6.930  1.00 20.00     0.100 C 
HETATM    6  C6  UNL     1     -40.274  14.226   8.440  1.00 20.00     0.047 C 
HETATM    7  C8  UNL     1     -41.339  15.202   8.941  1.00 20.00     0.122 C 
HETATM    8  C4  UNL     1     -41.009  16.633   8.523  1.00 20.00     0.034 C 
HETATM    9  O11 UNL     1     -42.437  14.895   8.053  1.00 20.00    -0.380 OA
HETATM   10  C5  UNL     1     -41.311  16.609   7.023  1.00 20.00     0.035 C 
HETATM   11  C9  UNL     1     -41.741  15.158   6.810  1.00 20.00     0.134 C 
ENDBRANCH   3   5
TORSDOF 1
ENDMDL
MODEL 9
REMARK VINA RESULT:      -3.9      9.234     10.573
REMARK  1 active torsions:
REMARK  status: ('A' for Active; 'I' for Inactive)
REMARK    1  A    between atoms: C3_3  and  C7_7 
ROOT
HETATM    1  C1  UNL     1     -34.781   5.000   6.324  1.00 20.00     0.021 C 
HETATM    2  C2  UNL     1     -34.411   6.102   6.027  1.00 20.00    -0.039 C 
HETATM    3  C3  UNL     1     -33.966   7.429   5.670  1.00 20.00     0.208 C 
HETATM    4  O10 UNL     1     -33.737   8.250   6.548  1.00 20.00    -0.283 OA
ENDROOT
BRANCH   3   5
HETATM    5  C7  UNL     1     -33.813   7.706   4.206  1.00 20.00     0.100 C 
HETATM    6  C6  UNL     1     -33.285   6.472   3.468  1.00 20.00     0.047 C 
HETATM    7  C8  UNL     1     -31.979   6.997   2.871  1.00 20.00     0.122 C 
HETATM    8  C4  UNL     1     -32.254   7.993   1.746  1.00 20.00     0.034 C 
HETATM    9  O11 UNL     1     -31.526   7.878   3.923  1.00 20.00    -0.380 OA
HETATM   10  C5  UNL     1     -32.742   9.222   2.515  1.00 20.00     0.035 C 
HETATM   11  C9  UNL     1     -32.699   8.728   3.961  1.00 20.00     0.134 C 
ENDBRANCH   3   5
TORSDOF 1
ENDMDL
