MODEL 1
REMARK VINA RESULT:      -3.9      0.000      0.000
REMARK  2 active torsions:
REMARK  status: ('A' for Active; 'I' for Inactive)
REMARK    1  A    between atoms: C3_3  and  C7_7 
REMARK    2  A    between atoms: C7_7  and  C8_8 
ROOT
HETATM    1  C1  UNL     1     -38.955  11.692   3.690  1.00 20.00     0.021 C 
HETATM    2  C2  UNL     1     -39.360  11.845   4.810  1.00 20.00    -0.040 C 
HETATM    3  C3  UNL     1     -39.846  12.029   6.158  1.00 20.00     0.202 C 
HETATM    4  O9  UNL     1     -39.056  11.986   7.093  1.00 20.00    -0.283 OA
ENDROOT
BRANCH   3   5
HETATM    5  C7  UNL     1     -41.331  12.271   6.322  1.00 20.00     0.101 C 
BRANCH   5   6
HETATM    6  C8  UNL     1     -41.761  13.755   6.247  1.00 20.00    -0.044 C 
HETATM    7  C4  UNL     1     -40.734  14.669   6.934  1.00 20.00     0.015 C 
HETATM    8  C5  UNL     1     -43.109  13.898   6.983  1.00 20.00     0.015 C 
HETATM    9  C6  UNL     1     -41.952  14.206   4.790  1.00 20.00     0.015 C 
ENDBRANCH   5   6
ENDBRANCH   3   5
TORSDOF 2
ENDMDL
MODEL 2
REMARK VINA RESULT:      -3.8      0.046      1.437
REMARK  2 active torsions:
REMARK  status: ('A' for Active; 'I' for Inactive)
REMARK    1  A    between atoms: C3_3  and  C7_7 
REMARK    2  A    between atoms: C7_7  and  C8_8 
ROOT
HETATM    1  C1  UNL     1     -38.949  11.697   3.693  1.00 20.00     0.021 C 
HETATM    2  C2  UNL     1     -39.352  11.849   4.814  1.00 20.00    -0.040 C 
HETATM    3  C3  UNL     1     -39.837  12.031   6.163  1.00 20.00     0.202 C 
HETATM    4  O9  UNL     1     -39.046  11.990   7.097  1.00 20.00    -0.283 OA
ENDROOT
BRANCH   3   5
HETATM    5  C7  UNL     1     -41.323  12.268   6.329  1.00 20.00     0.101 C 
BRANCH   5   6
HETATM    6  C8  UNL     1     -41.751  13.754   6.308  1.00 20.00    -0.044 C 
HETATM    7  C4  UNL     1     -43.087  13.961   7.040  1.00 20.00     0.015 C 
HETATM    8  C5  UNL     1     -41.932  14.178   4.837  1.00 20.00     0.015 C 
HETATM    9  C6  UNL     1     -40.676  14.652   6.944  1.00 20.00     0.015 C 
ENDBRANCH   5   6
ENDBRANCH   3   5
TORSDOF 2
ENDMDL
MODEL 3
REMARK VINA RESULT:      -3.7      8.842      9.803
REMARK  2 active torsions:
REMARK  status: ('A' for Active; 'I' for Inactive)
REMARK    1  A    between atoms: C3_3  and  C7_7 
REMARK    2  A    between atoms: C7_7  and  C8_8 
ROOT
HETATM    1  C1  UNL     1     -32.151   8.040   1.499  1.00 20.00     0.021 C 
HETATM    2  C2  UNL     1     -32.398   8.064   2.673  1.00 20.00    -0.040 C 
HETATM    3  C3  UNL     1     -32.693   8.093   4.087  1.00 20.00     0.202 C 
HETATM    4  O9  UNL     1     -31.806   8.383   4.881  1.00 20.00    -0.283 OA
ENDROOT
BRANCH   3   5
HETATM    5  C7  UNL     1     -34.111   7.756   4.496  1.00 20.00     0.101 C 
BRANCH   5   6
HETATM    6  C8  UNL     1     -34.374   6.256   4.762  1.00 20.00    -0.044 C 
HETATM    7  C4  UNL     1     -33.445   5.368   3.916  1.00 20.00     0.015 C 
HETATM    8  C5  UNL     1     -35.832   5.949   4.366  1.00 20.00     0.015 C 
HETATM    9  C6  UNL     1     -34.191   5.913   6.250  1.00 20.00     0.015 C 
ENDBRANCH   5   6
ENDBRANCH   3   5
TORSDOF 2
ENDMDL
MODEL 4
REMARK VINA RESULT:      -3.7      8.814      9.761
REMARK  2 active torsions:
REMARK  status: ('A' for Active; 'I' for Inactive)
REMARK    1  A    between atoms: C3_3  and  C7_7 
REMARK    2  A    between atoms: C7_7  and  C8_8 
ROOT
HETATM    1  C1  UNL     1     -32.146   8.086   1.539  1.00 20.00     0.021 C 
HETATM    2  C2  UNL     1     -32.395   8.114   2.713  1.00 20.00    -0.040 C 
HETATM    3  C3  UNL     1     -32.693   8.148   4.127  1.00 20.00     0.202 C 
HETATM    4  O9  UNL     1     -31.807   8.439   4.921  1.00 20.00    -0.283 OA
ENDROOT
BRANCH   3   5
HETATM    5  C7  UNL     1     -34.113   7.816   4.534  1.00 20.00     0.101 C 
BRANCH   5   6
HETATM    6  C8  UNL     1     -34.391   6.312   4.757  1.00 20.00    -0.044 C 
HETATM    7  C4  UNL     1     -35.828   5.943   4.355  1.00 20.00     0.015 C 
HETATM    8  C5  UNL     1     -34.214   6.012   6.259  1.00 20.00     0.015 C 
HETATM    9  C6  UNL     1     -33.401   5.439   3.967  1.00 20.00     0.015 C 
ENDBRANCH   5   6
ENDBRANCH   3   5
TORSDOF 2
ENDMDL
MODEL 5
REMARK VINA RESULT:      -3.6      8.531      9.647
REMARK  2 active torsions:
REMARK  status: ('A' for Active; 'I' for Inactive)
REMARK    1  A    between atoms: C3_3  and  C7_7 
REMARK    2  A    between atoms: C7_7  and  C8_8 
ROOT
HETATM    1  C1  UNL     1     -34.434   4.468   4.750  1.00 20.00     0.021 C 
HETATM    2  C2  UNL     1     -34.340   5.620   5.073  1.00 20.00    -0.040 C 
HETATM    3  C3  UNL     1     -34.227   7.006   5.464  1.00 20.00     0.202 C 
HETATM    4  O9  UNL     1     -34.163   7.293   6.653  1.00 20.00    -0.283 OA
ENDROOT
BRANCH   3   5
HETATM    5  C7  UNL     1     -34.191   8.030   4.348  1.00 20.00     0.101 C 
BRANCH   5   6
HETATM    6  C8  UNL     1     -32.780   8.345   3.800  1.00 20.00    -0.044 C 
HETATM    7  C4  UNL     1     -31.850   8.857   4.912  1.00 20.00     0.015 C 
HETATM    8  C5  UNL     1     -32.919   9.451   2.735  1.00 20.00     0.015 C 
HETATM    9  C6  UNL     1     -32.150   7.108   3.138  1.00 20.00     0.015 C 
ENDBRANCH   5   6
ENDBRANCH   3   5
TORSDOF 2
ENDMDL
MODEL 6
REMARK VINA RESULT:      -3.6     12.108     13.245
REMARK  2 active torsions:
REMARK  status: ('A' for Active; 'I' for Inactive)
REMARK    1  A    between atoms: C3_3  and  C7_7 
REMARK    2  A    between atoms: C7_7  and  C8_8 
ROOT
HETATM    1  C1  UNL     1     -33.235  16.639  -2.696  1.00 20.00     0.021 C 
HETATM    2  C2  UNL     1     -33.594  15.788  -3.463  1.00 20.00    -0.040 C 
HETATM    3  C3  UNL     1     -34.025  14.763  -4.386  1.00 20.00     0.202 C 
HETATM    4  O9  UNL     1     -34.425  13.691  -3.950  1.00 20.00    -0.283 OA
ENDROOT
BRANCH   3   5
HETATM    5  C7  UNL     1     -33.952  15.097  -5.861  1.00 20.00     0.101 C 
BRANCH   5   6
HETATM    6  C8  UNL     1     -35.136  15.935  -6.397  1.00 20.00    -0.044 C 
HETATM    7  C4  UNL     1     -36.433  15.623  -5.633  1.00 20.00     0.015 C 
HETATM    8  C5  UNL     1     -35.346  15.569  -7.881  1.00 20.00     0.015 C 
HETATM    9  C6  UNL     1     -34.840  17.441  -6.305  1.00 20.00     0.015 C 
ENDBRANCH   5   6
ENDBRANCH   3   5
TORSDOF 2
ENDMDL
MODEL 7
REMARK VINA RESULT:      -3.6      8.817      9.766
REMARK  2 active torsions:
REMARK  status: ('A' for Active; 'I' for Inactive)
REMARK    1  A    between atoms: C3_3  and  C7_7 
REMARK    2  A    between atoms: C7_7  and  C8_8 
ROOT
HETATM    1  C1  UNL     1     -32.136   8.064   1.495  1.00 20.00     0.021 C 
HETATM    2  C2  UNL     1     -32.386   8.098   2.669  1.00 20.00    -0.040 C 
HETATM    3  C3  UNL     1     -32.687   8.139   4.082  1.00 20.00     0.202 C 
HETATM    4  O9  UNL     1     -31.799   8.421   4.877  1.00 20.00    -0.283 OA
ENDROOT
BRANCH   3   5
HETATM    5  C7  UNL     1     -34.111   7.825   4.487  1.00 20.00     0.101 C 
BRANCH   5   6
HETATM    6  C8  UNL     1     -34.392   6.331   4.773  1.00 20.00    -0.044 C 
HETATM    7  C4  UNL     1     -34.176   5.997   6.258  1.00 20.00     0.015 C 
HETATM    8  C5  UNL     1     -33.404   5.492   3.938  1.00 20.00     0.015 C 
HETATM    9  C6  UNL     1     -35.824   5.946   4.367  1.00 20.00     0.015 C 
ENDBRANCH   5   6
ENDBRANCH   3   5
TORSDOF 2
ENDMDL
MODEL 8
REMARK VINA RESULT:      -3.5     12.131     13.253
REMARK  2 active torsions:
REMARK  status: ('A' for Active; 'I' for Inactive)
REMARK    1  A    between atoms: C3_3  and  C7_7 
REMARK    2  A    between atoms: C7_7  and  C8_8 
ROOT
HETATM    1  C1  UNL     1     -33.235  16.629  -2.735  1.00 20.00     0.021 C 
HETATM    2  C2  UNL     1     -33.606  15.780  -3.499  1.00 20.00    -0.040 C 
HETATM    3  C3  UNL     1     -34.052  14.757  -4.416  1.00 20.00     0.202 C 
HETATM    4  O9  UNL     1     -34.458  13.689  -3.975  1.00 20.00    -0.283 OA
ENDROOT
BRANCH   3   5
HETATM    5  C7  UNL     1     -33.987  15.087  -5.892  1.00 20.00     0.101 C 
BRANCH   5   6
HETATM    6  C8  UNL     1     -35.209  15.862  -6.440  1.00 20.00    -0.044 C 
HETATM    7  C4  UNL     1     -35.490  15.497  -7.906  1.00 20.00     0.015 C 
HETATM    8  C5  UNL     1     -34.889  17.369  -6.367  1.00 20.00     0.015 C 
HETATM    9  C6  UNL     1     -36.465  15.590  -5.596  1.00 20.00     0.015 C 
ENDBRANCH   5   6
ENDBRANCH   3   5
TORSDOF 2
ENDMDL
MODEL 9
REMARK VINA RESULT:      -3.5      9.138     10.250
REMARK  2 active torsions:
REMARK  status: ('A' for Active; 'I' for Inactive)
REMARK    1  A    between atoms: C3_3  and  C7_7 
REMARK    2  A    between atoms: C7_7  and  C8_8 
ROOT
HETATM    1  C1  UNL     1     -32.142   8.373   1.337  1.00 20.00     0.021 C 
HETATM    2  C2  UNL     1     -32.442   7.480   2.083  1.00 20.00    -0.040 C 
HETATM    3  C3  UNL     1     -32.802   6.406   2.979  1.00 20.00     0.202 C 
HETATM    4  O9  UNL     1     -32.765   5.250   2.577  1.00 20.00    -0.283 OA
ENDROOT
BRANCH   3   5
HETATM    5  C7  UNL     1     -33.207   6.795   4.385  1.00 20.00     0.101 C 
BRANCH   5   6
HETATM    6  C8  UNL     1     -34.345   5.943   4.994  1.00 20.00    -0.044 C 
HETATM    7  C4  UNL     1     -35.674   6.175   4.256  1.00 20.00     0.015 C 
HETATM    8  C5  UNL     1     -34.524   6.368   6.465  1.00 20.00     0.015 C 
HETATM    9  C6  UNL     1     -33.998   4.445   4.959  1.00 20.00     0.015 C 
ENDBRANCH   5   6
ENDBRANCH   3   5
TORSDOF 2
ENDMDL
