MODEL 1
REMARK VINA RESULT:      -5.0      0.000      0.000
REMARK  4 active torsions:
REMARK  status: ('A' for Active; 'I' for Inactive)
REMARK    1  A    between atoms: C1_1  and  C5_5 
REMARK    2  A    between atoms: C1_1  and  C9_9 
REMARK    3  A    between atoms: C6_6  and  C10_10 
REMARK    4  A    between atoms: C9_9  and  C10_10 
ROOT
HETATM    1  C1  UNL     1     -33.429   7.368   4.435  1.00 20.00     0.131 C 
HETATM    2  O11 UNL     1     -33.871   8.090   5.327  1.00 20.00    -0.298 OA
ENDROOT
BRANCH   1   3
HETATM    3  C5  UNL     1     -34.115   6.078   4.068  1.00 20.00     0.059 A 
HETATM    4  C4  UNL     1     -35.561   5.937   4.389  1.00 20.00     0.017 A 
HETATM    5  C7  UNL     1     -34.538   5.135   5.141  1.00 20.00    -0.007 A 
HETATM    6  C8  UNL     1     -34.313   5.388   6.592  1.00 20.00     0.011 C 
ENDBRANCH   1   3
BRANCH   1   7
HETATM    7  C9  UNL     1     -32.179   7.711   3.641  1.00 20.00     0.079 C 
BRANCH   7   8
HETATM    8  C10 UNL     1     -32.299   7.331   2.169  1.00 20.00     0.012 C 
BRANCH   8   9
HETATM    9  C6  UNL     1     -31.993   8.511   1.262  1.00 20.00    -0.014 A 
HETATM   10  C2  UNL     1     -32.869   8.799   0.073  1.00 20.00     0.005 A 
HETATM   11  C3  UNL     1     -32.889   9.719   1.263  1.00 20.00     0.005 A 
ENDBRANCH   8   9
ENDBRANCH   7   8
ENDBRANCH   1   7
TORSDOF 4
ENDMDL
MODEL 2
REMARK VINA RESULT:      -4.8      1.212      4.659
REMARK  4 active torsions:
REMARK  status: ('A' for Active; 'I' for Inactive)
REMARK    1  A    between atoms: C1_1  and  C5_5 
REMARK    2  A    between atoms: C1_1  and  C9_9 
REMARK    3  A    between atoms: C6_6  and  C10_10 
REMARK    4  A    between atoms: C9_9  and  C10_10 
ROOT
HETATM    1  C1  UNL     1     -32.827   8.367   4.805  1.00 20.00     0.131 C 
HETATM    2  O11 UNL     1     -32.106   9.332   5.055  1.00 20.00    -0.298 OA
ENDROOT
BRANCH   1   3
HETATM    3  C5  UNL     1     -32.532   7.459   3.640  1.00 20.00     0.059 A 
HETATM    4  C4  UNL     1     -31.257   7.661   2.899  1.00 20.00     0.017 A 
HETATM    5  C7  UNL     1     -32.569   8.001   2.253  1.00 20.00    -0.007 A 
HETATM    6  C8  UNL     1     -32.897   9.420   1.934  1.00 20.00     0.011 C 
ENDBRANCH   1   3
BRANCH   1   7
HETATM    7  C9  UNL     1     -34.050   8.015   5.634  1.00 20.00     0.079 C 
BRANCH   7   8
HETATM    8  C10 UNL     1     -33.865   6.729   6.434  1.00 20.00     0.012 C 
BRANCH   8   9
HETATM    9  C6  UNL     1     -34.806   5.635   5.959  1.00 20.00    -0.014 A 
HETATM   10  C2  UNL     1     -35.449   5.727   4.602  1.00 20.00     0.005 A 
HETATM   11  C3  UNL     1     -34.384   4.697   4.863  1.00 20.00     0.005 A 
ENDBRANCH   8   9
ENDBRANCH   7   8
ENDBRANCH   1   7
TORSDOF 4
ENDMDL
MODEL 3
REMARK VINA RESULT:      -4.6      1.617      4.916
REMARK  4 active torsions:
REMARK  status: ('A' for Active; 'I' for Inactive)
REMARK    1  A    between atoms: C1_1  and  C5_5 
REMARK    2  A    between atoms: C1_1  and  C9_9 
REMARK    3  A    between atoms: C6_6  and  C10_10 
REMARK    4  A    between atoms: C9_9  and  C10_10 
ROOT
HETATM    1  C1  UNL     1     -33.089   6.017   3.142  1.00 20.00     0.131 C 
HETATM    2  O11 UNL     1     -32.748   5.118   2.375  1.00 20.00    -0.298 OA
ENDROOT
BRANCH   1   3
HETATM    3  C5  UNL     1     -32.151   7.144   3.483  1.00 20.00     0.059 A 
HETATM    4  C4  UNL     1     -32.734   8.492   3.728  1.00 20.00     0.017 A 
HETATM    5  C7  UNL     1     -31.916   8.235   2.495  1.00 20.00    -0.007 A 
HETATM    6  C8  UNL     1     -32.559   8.278   1.152  1.00 20.00     0.011 C 
ENDBRANCH   1   3
BRANCH   1   7
HETATM    7  C9  UNL     1     -34.461   6.067   3.794  1.00 20.00     0.079 C 
BRANCH   7   8
HETATM    8  C10 UNL     1     -34.669   4.944   4.806  1.00 20.00     0.012 C 
BRANCH   8   9
HETATM    9  C6  UNL     1     -34.622   5.462   6.233  1.00 20.00    -0.014 A 
HETATM   10  C2  UNL     1     -33.325   5.946   6.820  1.00 20.00     0.005 A 
HETATM   11  C3  UNL     1     -34.419   6.927   6.500  1.00 20.00     0.005 A 
ENDBRANCH   8   9
ENDBRANCH   7   8
ENDBRANCH   1   7
TORSDOF 4
ENDMDL
MODEL 4
REMARK VINA RESULT:      -4.6      9.936     10.836
REMARK  4 active torsions:
REMARK  status: ('A' for Active; 'I' for Inactive)
REMARK    1  A    between atoms: C1_1  and  C5_5 
REMARK    2  A    between atoms: C1_1  and  C9_9 
REMARK    3  A    between atoms: C6_6  and  C10_10 
REMARK    4  A    between atoms: C9_9  and  C10_10 
ROOT
HETATM    1  C1  UNL     1     -41.597  13.603   7.760  1.00 20.00     0.131 C 
HETATM    2  O11 UNL     1     -42.206  13.268   8.775  1.00 20.00    -0.298 OA
ENDROOT
BRANCH   1   3
HETATM    3  C5  UNL     1     -40.398  14.511   7.837  1.00 20.00     0.059 A 
HETATM    4  C4  UNL     1     -40.197  15.303   9.082  1.00 20.00     0.017 A 
HETATM    5  C7  UNL     1     -40.587  15.988   7.804  1.00 20.00    -0.007 A 
HETATM    6  C8  UNL     1     -41.921  16.643   7.686  1.00 20.00     0.011 C 
ENDBRANCH   1   3
BRANCH   1   7
HETATM    7  C9  UNL     1     -41.993  13.135   6.370  1.00 20.00     0.079 C 
BRANCH   7   8
HETATM    8  C10 UNL     1     -40.846  13.234   5.369  1.00 20.00     0.012 C 
BRANCH   8   9
HETATM    9  C6  UNL     1     -39.998  11.973   5.366  1.00 20.00    -0.014 A 
HETATM   10  C2  UNL     1     -39.095  11.671   4.201  1.00 20.00     0.005 A 
HETATM   11  C3  UNL     1     -38.506  12.064   5.528  1.00 20.00     0.005 A 
ENDBRANCH   8   9
ENDBRANCH   7   8
ENDBRANCH   1   7
TORSDOF 4
ENDMDL
MODEL 5
REMARK VINA RESULT:      -4.5      1.081      1.787
REMARK  4 active torsions:
REMARK  status: ('A' for Active; 'I' for Inactive)
REMARK    1  A    between atoms: C1_1  and  C5_5 
REMARK    2  A    between atoms: C1_1  and  C9_9 
REMARK    3  A    between atoms: C6_6  and  C10_10 
REMARK    4  A    between atoms: C9_9  and  C10_10 
ROOT
HETATM    1  C1  UNL     1     -33.635   7.297   5.581  1.00 20.00     0.131 C 
HETATM    2  O11 UNL     1     -32.940   6.967   6.541  1.00 20.00    -0.298 OA
ENDROOT
BRANCH   1   3
HETATM    3  C5  UNL     1     -34.806   6.457   5.144  1.00 20.00     0.059 A 
HETATM    4  C4  UNL     1     -34.851   5.035   5.583  1.00 20.00     0.017 A 
HETATM    5  C7  UNL     1     -34.604   5.374   4.141  1.00 20.00    -0.007 A 
HETATM    6  C8  UNL     1     -33.284   5.066   3.519  1.00 20.00     0.011 C 
ENDBRANCH   1   3
BRANCH   1   7
HETATM    7  C9  UNL     1     -33.376   8.558   4.773  1.00 20.00     0.079 C 
BRANCH   7   8
HETATM    8  C10 UNL     1     -32.285   8.367   3.724  1.00 20.00     0.012 C 
BRANCH   8   9
HETATM    9  C6  UNL     1     -32.861   8.329   2.319  1.00 20.00    -0.014 A 
HETATM   10  C2  UNL     1     -32.830   9.560   1.455  1.00 20.00     0.005 A 
HETATM   11  C3  UNL     1     -31.949   8.386   1.125  1.00 20.00     0.005 A 
ENDBRANCH   8   9
ENDBRANCH   7   8
ENDBRANCH   1   7
TORSDOF 4
ENDMDL
MODEL 6
REMARK VINA RESULT:      -4.3     11.319     13.089
REMARK  4 active torsions:
REMARK  status: ('A' for Active; 'I' for Inactive)
REMARK    1  A    between atoms: C1_1  and  C5_5 
REMARK    2  A    between atoms: C1_1  and  C9_9 
REMARK    3  A    between atoms: C6_6  and  C10_10 
REMARK    4  A    between atoms: C9_9  and  C10_10 
ROOT
HETATM    1  C1  UNL     1     -35.538  14.978  -6.198  1.00 20.00     0.131 C 
HETATM    2  O11 UNL     1     -35.965  14.310  -7.138  1.00 20.00    -0.298 OA
ENDROOT
BRANCH   1   3
HETATM    3  C5  UNL     1     -36.419  15.972  -5.488  1.00 20.00     0.059 A 
HETATM    4  C4  UNL     1     -37.579  16.537  -6.231  1.00 20.00     0.017 A 
HETATM    5  C7  UNL     1     -36.398  17.404  -5.900  1.00 20.00    -0.007 A 
HETATM    6  C8  UNL     1     -35.532  17.932  -6.992  1.00 20.00     0.011 C 
ENDBRANCH   1   3
BRANCH   1   7
HETATM    7  C9  UNL     1     -34.114  14.857  -5.682  1.00 20.00     0.079 C 
BRANCH   7   8
HETATM    8  C10 UNL     1     -34.046  14.806  -4.159  1.00 20.00     0.012 C 
BRANCH   8   9
HETATM    9  C6  UNL     1     -33.109  15.866  -3.605  1.00 20.00    -0.014 A 
HETATM   10  C2  UNL     1     -33.484  17.321  -3.679  1.00 20.00     0.005 A 
HETATM   11  C3  UNL     1     -33.468  16.614  -2.352  1.00 20.00     0.005 A 
ENDBRANCH   8   9
ENDBRANCH   7   8
ENDBRANCH   1   7
TORSDOF 4
ENDMDL
MODEL 7
REMARK VINA RESULT:      -4.3     11.134     12.373
REMARK  4 active torsions:
REMARK  status: ('A' for Active; 'I' for Inactive)
REMARK    1  A    between atoms: C1_1  and  C5_5 
REMARK    2  A    between atoms: C1_1  and  C9_9 
REMARK    3  A    between atoms: C6_6  and  C10_10 
REMARK    4  A    between atoms: C9_9  and  C10_10 
ROOT
HETATM    1  C1  UNL     1     -33.995  15.016  -4.652  1.00 20.00     0.131 C 
HETATM    2  O11 UNL     1     -34.087  13.989  -3.980  1.00 20.00    -0.298 OA
ENDROOT
BRANCH   1   3
HETATM    3  C5  UNL     1     -34.313  15.012  -6.124  1.00 20.00     0.059 A 
HETATM    4  C4  UNL     1     -34.553  16.320  -6.793  1.00 20.00     0.017 A 
HETATM    5  C7  UNL     1     -35.688  15.359  -6.583  1.00 20.00    -0.007 A 
HETATM    6  C8  UNL     1     -36.800  15.711  -5.655  1.00 20.00     0.011 C 
ENDBRANCH   1   3
BRANCH   1   7
HETATM    7  C9  UNL     1     -33.563  16.349  -4.064  1.00 20.00     0.079 C 
BRANCH   7   8
HETATM    8  C10 UNL     1     -33.456  16.310  -2.543  1.00 20.00     0.012 C 
BRANCH   8   9
HETATM    9  C6  UNL     1     -33.453  17.708  -1.948  1.00 20.00    -0.014 A 
HETATM   10  C2  UNL     1     -33.716  17.906  -0.480  1.00 20.00     0.005 A 
HETATM   11  C3  UNL     1     -32.338  18.141  -1.037  1.00 20.00     0.005 A 
ENDBRANCH   8   9
ENDBRANCH   7   8
ENDBRANCH   1   7
TORSDOF 4
ENDMDL
MODEL 8
REMARK VINA RESULT:      -4.2     10.968     11.871
REMARK  4 active torsions:
REMARK  status: ('A' for Active; 'I' for Inactive)
REMARK    1  A    between atoms: C1_1  and  C5_5 
REMARK    2  A    between atoms: C1_1  and  C9_9 
REMARK    3  A    between atoms: C6_6  and  C10_10 
REMARK    4  A    between atoms: C9_9  and  C10_10 
ROOT
HETATM    1  C1  UNL     1     -33.735  17.923  -1.502  1.00 20.00     0.131 C 
HETATM    2  O11 UNL     1     -33.958  18.945  -2.148  1.00 20.00    -0.298 OA
ENDROOT
BRANCH   1   3
HETATM    3  C5  UNL     1     -33.728  17.942   0.004  1.00 20.00     0.059 A 
HETATM    4  C4  UNL     1     -33.807  19.262   0.689  1.00 20.00     0.017 A 
HETATM    5  C7  UNL     1     -32.536  18.464   0.730  1.00 20.00    -0.007 A 
HETATM    6  C8  UNL     1     -31.314  18.973   0.045  1.00 20.00     0.011 C 
ENDBRANCH   1   3
BRANCH   1   7
HETATM    7  C9  UNL     1     -33.456  16.580  -2.155  1.00 20.00     0.079 C 
BRANCH   7   8
HETATM    8  C10 UNL     1     -33.434  16.663  -3.678  1.00 20.00     0.012 C 
BRANCH   8   9
HETATM    9  C6  UNL     1     -33.219  15.297  -4.309  1.00 20.00    -0.014 A 
HETATM   10  C2  UNL     1     -34.307  14.260  -4.257  1.00 20.00     0.005 A 
HETATM   11  C3  UNL     1     -33.956  14.919  -5.563  1.00 20.00     0.005 A 
ENDBRANCH   8   9
ENDBRANCH   7   8
ENDBRANCH   1   7
TORSDOF 4
ENDMDL
MODEL 9
REMARK VINA RESULT:      -4.1     10.060     10.840
REMARK  4 active torsions:
REMARK  status: ('A' for Active; 'I' for Inactive)
REMARK    1  A    between atoms: C1_1  and  C5_5 
REMARK    2  A    between atoms: C1_1  and  C9_9 
REMARK    3  A    between atoms: C6_6  and  C10_10 
REMARK    4  A    between atoms: C9_9  and  C10_10 
ROOT
HETATM    1  C1  UNL     1     -41.578  13.948   7.854  1.00 20.00     0.131 C 
HETATM    2  O11 UNL     1     -42.279  13.020   8.256  1.00 20.00    -0.298 OA
ENDROOT
BRANCH   1   3
HETATM    3  C5  UNL     1     -41.785  15.352   8.357  1.00 20.00     0.059 A 
HETATM    4  C4  UNL     1     -40.626  16.285   8.329  1.00 20.00     0.017 A 
HETATM    5  C7  UNL     1     -41.158  15.778   9.639  1.00 20.00    -0.007 A 
HETATM    6  C8  UNL     1     -40.323  14.877  10.484  1.00 20.00     0.011 C 
ENDBRANCH   1   3
BRANCH   1   7
HETATM    7  C9  UNL     1     -40.464  13.758   6.838  1.00 20.00     0.079 C 
BRANCH   7   8
HETATM    8  C10 UNL     1     -40.859  12.815   5.706  1.00 20.00     0.012 C 
BRANCH   8   9
HETATM    9  C6  UNL     1     -39.828  11.717   5.508  1.00 20.00    -0.014 A 
HETATM   10  C2  UNL     1     -39.077  11.609   4.209  1.00 20.00     0.005 A 
HETATM   11  C3  UNL     1     -38.364  12.054   5.456  1.00 20.00     0.005 A 
ENDBRANCH   8   9
ENDBRANCH   7   8
ENDBRANCH   1   7
TORSDOF 4
ENDMDL
