MODEL 1
REMARK VINA RESULT:      -4.2      0.000      0.000
REMARK  3 active torsions:
REMARK  status: ('A' for Active; 'I' for Inactive)
REMARK    1  A    between atoms: C6_6  and  C10_10 
REMARK    2  A    between atoms: C7_7  and  C11_11 
REMARK    3  A    between atoms: C11_11  and  N12_12 
ROOT
HETATM    1  C1  UNL     1     -34.764  17.945  -6.552  1.00 20.00     0.014 C 
HETATM    2  C2  UNL     1     -34.519  17.438  -5.491  1.00 20.00    -0.081 C 
HETATM    3  C11 UNL     1     -34.223  16.812  -4.194  1.00 20.00     0.301 C 
ENDROOT
BRANCH   3   4
HETATM    4  C7  UNL     1     -33.877  17.857  -3.145  1.00 20.00     0.031 C 
HETATM    5  C4  UNL     1     -35.111  18.519  -2.533  1.00 20.00     0.008 C 
HETATM    6  C3  UNL     1     -34.585  19.061  -1.215  1.00 20.00     0.005 C 
HETATM    7  C6  UNL     1     -33.720  17.916  -0.695  1.00 20.00    -0.014 C 
HETATM    8  C5  UNL     1     -33.098  17.284  -1.951  1.00 20.00     0.012 C 
BRANCH   7   9
HETATM    9  C10 UNL     1     -32.687  18.367   0.324  1.00 20.00     0.000 C 
HETATM   10  C8  UNL     1     -31.342  18.577  -0.297  1.00 20.00     0.005 C 
ENDBRANCH   7   9
ENDBRANCH   3   4
BRANCH   3  11
HETATM   11  N12 UNL     1     -33.146  15.865  -4.343  1.00 20.00     0.095 N 
HETATM   12  C9  UNL     1     -33.645  14.493  -4.419  1.00 20.00     0.308 C 
HETATM   13  H31 UNL     1     -32.506  15.934  -3.545  1.00 20.00     0.317 HD
ENDBRANCH   3  11
TORSDOF 3
ENDMDL
MODEL 2
REMARK VINA RESULT:      -4.2      1.160      1.944
REMARK  3 active torsions:
REMARK  status: ('A' for Active; 'I' for Inactive)
REMARK    1  A    between atoms: C6_6  and  C10_10 
REMARK    2  A    between atoms: C7_7  and  C11_11 
REMARK    3  A    between atoms: C11_11  and  N12_12 
ROOT
HETATM    1  C1  UNL     1     -33.315  14.509  -4.200  1.00 20.00     0.014 C 
HETATM    2  C2  UNL     1     -33.822  15.588  -4.351  1.00 20.00    -0.081 C 
HETATM    3  C11 UNL     1     -34.442  16.907  -4.542  1.00 20.00     0.301 C 
ENDROOT
BRANCH   3   4
HETATM    4  C7  UNL     1     -34.021  17.877  -3.450  1.00 20.00     0.031 C 
HETATM    5  C4  UNL     1     -35.194  18.659  -2.861  1.00 20.00     0.008 C 
HETATM    6  C3  UNL     1     -34.660  19.102  -1.508  1.00 20.00     0.005 C 
HETATM    7  C6  UNL     1     -33.950  17.851  -0.995  1.00 20.00    -0.014 C 
HETATM    8  C5  UNL     1     -33.357  17.187  -2.248  1.00 20.00     0.012 C 
BRANCH   7   9
HETATM    9  C10 UNL     1     -32.912  18.155   0.072  1.00 20.00     0.000 C 
HETATM   10  C8  UNL     1     -31.585  18.509  -0.522  1.00 20.00     0.005 C 
ENDBRANCH   7   9
ENDBRANCH   3   4
BRANCH   3  11
HETATM   11  N12 UNL     1     -35.877  16.772  -4.577  1.00 20.00     0.095 N 
HETATM   12  C9  UNL     1     -36.317  16.021  -5.751  1.00 20.00     0.308 C 
HETATM   13  H31 UNL     1     -36.316  17.698  -4.600  1.00 20.00     0.317 HD
ENDBRANCH   3  11
TORSDOF 3
ENDMDL
MODEL 3
REMARK VINA RESULT:      -4.1      1.701      4.915
REMARK  3 active torsions:
REMARK  status: ('A' for Active; 'I' for Inactive)
REMARK    1  A    between atoms: C6_6  and  C10_10 
REMARK    2  A    between atoms: C7_7  and  C11_11 
REMARK    3  A    between atoms: C11_11  and  N12_12 
ROOT
HETATM    1  C1  UNL     1     -34.609  18.892   1.154  1.00 20.00     0.014 C 
HETATM    2  C2  UNL     1     -34.001  18.842   0.120  1.00 20.00    -0.081 C 
HETATM    3  C11 UNL     1     -33.254  18.786  -1.146  1.00 20.00     0.301 C 
ENDROOT
BRANCH   3   4
HETATM    4  C7  UNL     1     -33.980  17.937  -2.177  1.00 20.00     0.031 C 
HETATM    5  C4  UNL     1     -33.854  18.486  -3.597  1.00 20.00     0.008 C 
HETATM    6  C3  UNL     1     -34.142  17.267  -4.458  1.00 20.00     0.005 C 
HETATM    7  C6  UNL     1     -33.361  16.160  -3.754  1.00 20.00    -0.014 C 
HETATM    8  C5  UNL     1     -33.453  16.496  -2.257  1.00 20.00     0.012 C 
BRANCH   7   9
HETATM    9  C10 UNL     1     -33.871  14.768  -4.089  1.00 20.00     0.000 C 
HETATM   10  C8  UNL     1     -34.931  14.800  -5.145  1.00 20.00     0.005 C 
ENDBRANCH   7   9
ENDBRANCH   3   4
BRANCH   3  11
HETATM   11  N12 UNL     1     -31.927  18.274  -0.908  1.00 20.00     0.095 N 
HETATM   12  C9  UNL     1     -31.207  19.086   0.071  1.00 20.00     0.308 C 
HETATM   13  H31 UNL     1     -31.392  18.268  -1.782  1.00 20.00     0.317 HD
ENDBRANCH   3  11
TORSDOF 3
ENDMDL
MODEL 4
REMARK VINA RESULT:      -4.0      1.675      2.235
REMARK  3 active torsions:
REMARK  status: ('A' for Active; 'I' for Inactive)
REMARK    1  A    between atoms: C6_6  and  C10_10 
REMARK    2  A    between atoms: C7_7  and  C11_11 
REMARK    3  A    between atoms: C11_11  and  N12_12 
ROOT
HETATM    1  C1  UNL     1     -36.768  15.230  -5.602  1.00 20.00     0.014 C 
HETATM    2  C2  UNL     1     -35.607  15.168  -5.303  1.00 20.00    -0.081 C 
HETATM    3  C11 UNL     1     -34.184  15.086  -4.937  1.00 20.00     0.301 C 
ENDROOT
BRANCH   3   4
HETATM    4  C7  UNL     1     -33.706  16.378  -4.296  1.00 20.00     0.031 C 
HETATM    5  C4  UNL     1     -34.762  17.482  -4.316  1.00 20.00     0.008 C 
HETATM    6  C3  UNL     1     -34.306  18.408  -3.202  1.00 20.00     0.005 C 
HETATM    7  C6  UNL     1     -33.913  17.438  -2.090  1.00 20.00    -0.014 C 
HETATM    8  C5  UNL     1     -33.325  16.217  -2.815  1.00 20.00     0.012 C 
BRANCH   7   9
HETATM    9  C10 UNL     1     -32.960  18.051  -1.077  1.00 20.00     0.000 C 
HETATM   10  C8  UNL     1     -33.576  18.149   0.283  1.00 20.00     0.005 C 
ENDBRANCH   7   9
ENDBRANCH   3   4
BRANCH   3  11
HETATM   11  N12 UNL     1     -33.396  14.774  -6.103  1.00 20.00     0.095 N 
HETATM   12  C9  UNL     1     -33.899  15.463  -7.290  1.00 20.00     0.308 C 
HETATM   13  H31 UNL     1     -33.416  13.765  -6.279  1.00 20.00     0.317 HD
ENDBRANCH   3  11
TORSDOF 3
ENDMDL
MODEL 5
REMARK VINA RESULT:      -3.9      2.099      4.933
REMARK  3 active torsions:
REMARK  status: ('A' for Active; 'I' for Inactive)
REMARK    1  A    between atoms: C6_6  and  C10_10 
REMARK    2  A    between atoms: C7_7  and  C11_11 
REMARK    3  A    between atoms: C11_11  and  N12_12 
ROOT
HETATM    1  C1  UNL     1     -31.071  18.741  -0.311  1.00 20.00     0.014 C 
HETATM    2  C2  UNL     1     -32.245  18.488  -0.298  1.00 20.00    -0.081 C 
HETATM    3  C11 UNL     1     -33.682  18.176  -0.277  1.00 20.00     0.301 C 
ENDROOT
BRANCH   3   4
HETATM    4  C7  UNL     1     -34.205  17.895  -1.676  1.00 20.00     0.031 C 
HETATM    5  C4  UNL     1     -33.834  18.983  -2.682  1.00 20.00     0.008 C 
HETATM    6  C3  UNL     1     -33.953  18.266  -4.016  1.00 20.00     0.005 C 
HETATM    7  C6  UNL     1     -33.299  16.914  -3.737  1.00 20.00    -0.014 C 
HETATM    8  C5  UNL     1     -33.659  16.591  -2.278  1.00 20.00     0.012 C 
BRANCH   7   9
HETATM    9  C10 UNL     1     -33.729  15.834  -4.716  1.00 20.00     0.000 C 
HETATM   10  C8  UNL     1     -33.667  14.470  -4.105  1.00 20.00     0.005 C 
ENDBRANCH   7   9
ENDBRANCH   3   4
BRANCH   3  11
HETATM   11  N12 UNL     1     -34.409  19.263   0.330  1.00 20.00     0.095 N 
HETATM   12  C9  UNL     1     -34.735  18.977   1.725  1.00 20.00     0.308 C 
HETATM   13  H31 UNL     1     -35.282  19.428  -0.181  1.00 20.00     0.317 HD
ENDBRANCH   3  11
TORSDOF 3
ENDMDL
MODEL 6
REMARK VINA RESULT:      -3.9      1.725      5.188
REMARK  3 active torsions:
REMARK  status: ('A' for Active; 'I' for Inactive)
REMARK    1  A    between atoms: C6_6  and  C10_10 
REMARK    2  A    between atoms: C7_7  and  C11_11 
REMARK    3  A    between atoms: C11_11  and  N12_12 
ROOT
HETATM    1  C1  UNL     1     -31.324  18.512  -0.416  1.00 20.00     0.014 C 
HETATM    2  C2  UNL     1     -32.344  18.199  -0.968  1.00 20.00    -0.081 C 
HETATM    3  C11 UNL     1     -33.595  17.815  -1.639  1.00 20.00     0.301 C 
ENDROOT
BRANCH   3   4
HETATM    4  C7  UNL     1     -33.326  17.257  -3.027  1.00 20.00     0.031 C 
HETATM    5  C4  UNL     1     -33.294  15.730  -3.062  1.00 20.00     0.008 C 
HETATM    6  C3  UNL     1     -33.566  15.418  -4.524  1.00 20.00     0.005 C 
HETATM    7  C6  UNL     1     -34.689  16.391  -4.877  1.00 20.00    -0.014 C 
HETATM    8  C5  UNL     1     -34.392  17.657  -4.060  1.00 20.00     0.012 C 
BRANCH   7   9
HETATM    9  C10 UNL     1     -34.799  16.652  -6.371  1.00 20.00     0.000 C 
HETATM   10  C8  UNL     1     -34.116  15.592  -7.176  1.00 20.00     0.005 C 
ENDBRANCH   7   9
ENDBRANCH   3   4
BRANCH   3  11
HETATM   11  N12 UNL     1     -34.481  18.950  -1.709  1.00 20.00     0.095 N 
HETATM   12  C9  UNL     1     -35.060  19.260  -0.404  1.00 20.00     0.308 C 
HETATM   13  H31 UNL     1     -35.243  18.759  -2.367  1.00 20.00     0.317 HD
ENDBRANCH   3  11
TORSDOF 3
ENDMDL
MODEL 7
REMARK VINA RESULT:      -3.7     11.770     13.609
REMARK  3 active torsions:
REMARK  status: ('A' for Active; 'I' for Inactive)
REMARK    1  A    between atoms: C6_6  and  C10_10 
REMARK    2  A    between atoms: C7_7  and  C11_11 
REMARK    3  A    between atoms: C11_11  and  N12_12 
ROOT
HETATM    1  C1  UNL     1     -40.440  14.610  10.885  1.00 20.00     0.014 C 
HETATM    2  C2  UNL     1     -40.852  14.996   9.825  1.00 20.00    -0.081 C 
HETATM    3  C11 UNL     1     -41.360  15.474   8.530  1.00 20.00     0.301 C 
ENDROOT
BRANCH   3   4
HETATM    4  C7  UNL     1     -41.568  14.322   7.562  1.00 20.00     0.031 C 
HETATM    5  C4  UNL     1     -41.988  14.782   6.167  1.00 20.00     0.008 C 
HETATM    6  C3  UNL     1     -41.607  13.601   5.291  1.00 20.00     0.005 C 
HETATM    7  C6  UNL     1     -40.233  13.207   5.828  1.00 20.00    -0.014 C 
HETATM    8  C5  UNL     1     -40.303  13.478   7.339  1.00 20.00     0.012 C 
BRANCH   7   9
HETATM    9  C10 UNL     1     -39.854  11.774   5.492  1.00 20.00     0.000 C 
HETATM   10  C8  UNL     1     -39.038  11.690   4.241  1.00 20.00     0.005 C 
ENDBRANCH   7   9
ENDBRANCH   3   4
BRANCH   3  11
HETATM   11  N12 UNL     1     -40.449  16.446   7.977  1.00 20.00     0.095 N 
HETATM   12  C9  UNL     1     -40.981  17.803   8.087  1.00 20.00     0.308 C 
HETATM   13  H31 UNL     1     -40.279  16.242   6.987  1.00 20.00     0.317 HD
ENDBRANCH   3  11
TORSDOF 3
ENDMDL
MODEL 8
REMARK VINA RESULT:      -3.7     12.052     13.280
REMARK  3 active torsions:
REMARK  status: ('A' for Active; 'I' for Inactive)
REMARK    1  A    between atoms: C6_6  and  C10_10 
REMARK    2  A    between atoms: C7_7  and  C11_11 
REMARK    3  A    between atoms: C11_11  and  N12_12 
ROOT
HETATM    1  C1  UNL     1     -39.545  11.946   5.677  1.00 20.00     0.014 C 
HETATM    2  C2  UNL     1     -40.598  12.388   6.047  1.00 20.00    -0.081 C 
HETATM    3  C11 UNL     1     -41.890  12.929   6.496  1.00 20.00     0.301 C 
ENDROOT
BRANCH   3   4
HETATM    4  C7  UNL     1     -41.697  14.059   7.494  1.00 20.00     0.031 C 
HETATM    5  C4  UNL     1     -40.368  13.975   8.242  1.00 20.00     0.008 C 
HETATM    6  C3  UNL     1     -40.157  15.401   8.721  1.00 20.00     0.005 C 
HETATM    7  C6  UNL     1     -40.554  16.232   7.503  1.00 20.00    -0.014 C 
HETATM    8  C5  UNL     1     -41.701  15.451   6.844  1.00 20.00     0.012 C 
BRANCH   7   9
HETATM    9  C10 UNL     1     -40.926  17.663   7.856  1.00 20.00     0.000 C 
HETATM   10  C8  UNL     1     -40.425  18.639   6.838  1.00 20.00     0.005 C 
ENDBRANCH   7   9
ENDBRANCH   3   4
BRANCH   3  11
HETATM   11  N12 UNL     1     -42.688  11.874   7.070  1.00 20.00     0.095 N 
HETATM   12  C9  UNL     1     -43.417  12.335   8.250  1.00 20.00     0.308 C 
HETATM   13  H31 UNL     1     -42.088  11.090   7.343  1.00 20.00     0.317 HD
ENDBRANCH   3  11
TORSDOF 3
ENDMDL
MODEL 9
REMARK VINA RESULT:      -3.7      1.668      4.931
REMARK  3 active torsions:
REMARK  status: ('A' for Active; 'I' for Inactive)
REMARK    1  A    between atoms: C6_6  and  C10_10 
REMARK    2  A    between atoms: C7_7  and  C11_11 
REMARK    3  A    between atoms: C11_11  and  N12_12 
ROOT
HETATM    1  C1  UNL     1     -36.372  18.982  -2.564  1.00 20.00     0.014 C 
HETATM    2  C2  UNL     1     -35.267  18.512  -2.579  1.00 20.00    -0.081 C 
HETATM    3  C11 UNL     1     -33.912  17.940  -2.593  1.00 20.00     0.301 C 
ENDROOT
BRANCH   3   4
HETATM    4  C7  UNL     1     -33.679  17.108  -3.843  1.00 20.00     0.031 C 
HETATM    5  C4  UNL     1     -33.345  15.650  -3.536  1.00 20.00     0.008 C 
HETATM    6  C3  UNL     1     -33.694  14.941  -4.834  1.00 20.00     0.005 C 
HETATM    7  C6  UNL     1     -35.020  15.588  -5.230  1.00 20.00    -0.014 C 
HETATM    8  C5  UNL     1     -34.902  17.050  -4.772  1.00 20.00     0.012 C 
BRANCH   7   9
HETATM    9  C10 UNL     1     -35.331  15.446  -6.711  1.00 20.00     0.000 C 
HETATM   10  C8  UNL     1     -34.099  15.549  -7.553  1.00 20.00     0.005 C 
ENDBRANCH   7   9
ENDBRANCH   3   4
BRANCH   3  11
HETATM   11  N12 UNL     1     -33.704  17.147  -1.407  1.00 20.00     0.095 N 
HETATM   12  C9  UNL     1     -33.742  17.968  -0.199  1.00 20.00     0.308 C 
HETATM   13  H31 UNL     1     -32.794  16.678  -1.454  1.00 20.00     0.317 HD
ENDBRANCH   3  11
TORSDOF 3
ENDMDL
