MODEL 1
REMARK VINA RESULT:      -4.2      0.000      0.000
REMARK  2 active torsions:
REMARK  status: ('A' for Active; 'I' for Inactive)
REMARK    1  A    between atoms: C3_3  and  C8_8 
REMARK    2  A    between atoms: C9_9  and  C12_12 
ROOT
HETATM    1  C1  UNL     1     -31.553  18.564   0.431  1.00 20.00     0.021 C 
HETATM    2  C2  UNL     1     -32.072  18.588  -0.650  1.00 20.00    -0.039 C 
HETATM    3  C3  UNL     1     -32.696  18.618  -1.952  1.00 20.00     0.205 C 
HETATM    4  O13 UNL     1     -32.173  19.248  -2.863  1.00 20.00    -0.283 OA
ENDROOT
BRANCH   3   5
HETATM    5  C8  UNL     1     -33.995  17.842  -2.096  1.00 20.00     0.069 C 
HETATM    6  C4  UNL     1     -34.849  18.478  -3.189  1.00 20.00     0.013 C 
HETATM    7  C6  UNL     1     -34.366  18.168  -4.605  1.00 20.00     0.006 C 
HETATM    8  C9  UNL     1     -34.125  16.672  -4.850  1.00 20.00    -0.011 C 
HETATM    9  C7  UNL     1     -33.193  16.094  -3.779  1.00 20.00     0.006 C 
HETATM   10  C5  UNL     1     -33.666  16.375  -2.352  1.00 20.00     0.013 C 
BRANCH   8  11
HETATM   11  C12 UNL     1     -35.441  15.894  -4.940  1.00 20.00    -0.019 C 
HETATM   12  C10 UNL     1     -36.235  16.322  -6.171  1.00 20.00     0.010 C 
HETATM   13  C11 UNL     1     -35.173  14.391  -4.967  1.00 20.00     0.010 C 
ENDBRANCH   8  11
ENDBRANCH   3   5
TORSDOF 2
ENDMDL
MODEL 2
REMARK VINA RESULT:      -4.0     12.350     13.652
REMARK  2 active torsions:
REMARK  status: ('A' for Active; 'I' for Inactive)
REMARK    1  A    between atoms: C3_3  and  C8_8 
REMARK    2  A    between atoms: C9_9  and  C12_12 
ROOT
HETATM    1  C1  UNL     1     -39.079  11.800   4.892  1.00 20.00     0.021 C 
HETATM    2  C2  UNL     1     -40.041  12.514   4.957  1.00 20.00    -0.039 C 
HETATM    3  C3  UNL     1     -41.198  13.375   5.032  1.00 20.00     0.205 C 
HETATM    4  O13 UNL     1     -41.579  13.971   4.033  1.00 20.00    -0.283 OA
ENDROOT
BRANCH   3   5
HETATM    5  C8  UNL     1     -41.875  13.478   6.390  1.00 20.00     0.069 C 
HETATM    6  C4  UNL     1     -40.834  13.823   7.451  1.00 20.00     0.013 C 
HETATM    7  C6  UNL     1     -40.393  15.287   7.425  1.00 20.00     0.006 C 
HETATM    8  C9  UNL     1     -41.567  16.274   7.417  1.00 20.00    -0.011 C 
HETATM    9  C7  UNL     1     -42.542  15.942   6.281  1.00 20.00     0.006 C 
HETATM   10  C5  UNL     1     -43.013  14.487   6.297  1.00 20.00     0.013 C 
BRANCH   8  11
HETATM   11  C12 UNL     1     -42.271  16.328   8.774  1.00 20.00    -0.019 C 
HETATM   12  C10 UNL     1     -41.279  16.675   9.881  1.00 20.00     0.010 C 
HETATM   13  C11 UNL     1     -43.417  17.338   8.743  1.00 20.00     0.010 C 
ENDBRANCH   8  11
ENDBRANCH   3   5
TORSDOF 2
ENDMDL
MODEL 3
REMARK VINA RESULT:      -3.9      2.319      3.993
REMARK  2 active torsions:
REMARK  status: ('A' for Active; 'I' for Inactive)
REMARK    1  A    between atoms: C3_3  and  C8_8 
REMARK    2  A    between atoms: C9_9  and  C12_12 
ROOT
HETATM    1  C1  UNL     1     -33.184  16.828  -2.260  1.00 20.00     0.021 C 
HETATM    2  C2  UNL     1     -33.533  16.099  -3.148  1.00 20.00    -0.039 C 
HETATM    3  C3  UNL     1     -33.951  15.221  -4.214  1.00 20.00     0.205 C 
HETATM    4  O13 UNL     1     -34.058  14.019  -4.007  1.00 20.00    -0.283 OA
ENDROOT
BRANCH   3   5
HETATM    5  C8  UNL     1     -34.236  15.878  -5.556  1.00 20.00     0.069 C 
HETATM    6  C4  UNL     1     -35.377  15.140  -6.251  1.00 20.00     0.013 C 
HETATM    7  C6  UNL     1     -36.756  15.452  -5.668  1.00 20.00     0.006 C 
HETATM    8  C9  UNL     1     -37.031  16.955  -5.533  1.00 20.00    -0.011 C 
HETATM    9  C7  UNL     1     -35.903  17.641  -4.754  1.00 20.00     0.006 C 
HETATM   10  C5  UNL     1     -34.514  17.360  -5.329  1.00 20.00     0.013 C 
BRANCH   8  11
HETATM   11  C12 UNL     1     -37.264  17.613  -6.895  1.00 20.00    -0.019 C 
HETATM   12  C10 UNL     1     -38.447  16.966  -7.610  1.00 20.00     0.010 C 
HETATM   13  C11 UNL     1     -37.490  19.115  -6.732  1.00 20.00     0.010 C 
ENDBRANCH   8  11
ENDBRANCH   3   5
TORSDOF 2
ENDMDL
MODEL 4
REMARK VINA RESULT:      -3.8     13.467     14.802
REMARK  2 active torsions:
REMARK  status: ('A' for Active; 'I' for Inactive)
REMARK    1  A    between atoms: C3_3  and  C8_8 
REMARK    2  A    between atoms: C9_9  and  C12_12 
ROOT
HETATM    1  C1  UNL     1     -39.061  12.144   5.403  1.00 20.00     0.021 C 
HETATM    2  C2  UNL     1     -40.103  12.438   5.921  1.00 20.00    -0.039 C 
HETATM    3  C3  UNL     1     -41.357  12.790   6.544  1.00 20.00     0.205 C 
HETATM    4  O13 UNL     1     -42.165  11.913   6.822  1.00 20.00    -0.283 OA
ENDROOT
BRANCH   3   5
HETATM    5  C8  UNL     1     -41.584  14.268   6.816  1.00 20.00     0.069 C 
HETATM    6  C4  UNL     1     -42.926  14.457   7.516  1.00 20.00     0.013 C 
HETATM    7  C6  UNL     1     -42.909  14.064   8.993  1.00 20.00     0.006 C 
HETATM    8  C9  UNL     1     -41.751  14.696   9.775  1.00 20.00    -0.011 C 
HETATM    9  C7  UNL     1     -40.413  14.409   9.083  1.00 20.00     0.006 C 
HETATM   10  C5  UNL     1     -40.399  14.811   7.607  1.00 20.00     0.013 C 
BRANCH   8  11
HETATM   11  C12 UNL     1     -41.967  16.195   9.995  1.00 20.00    -0.019 C 
HETATM   12  C10 UNL     1     -43.417  16.479  10.375  1.00 20.00     0.010 C 
HETATM   13  C11 UNL     1     -41.016  16.722  11.069  1.00 20.00     0.010 C 
ENDBRANCH   8  11
ENDBRANCH   3   5
TORSDOF 2
ENDMDL
MODEL 5
REMARK VINA RESULT:      -3.7     13.146     14.414
REMARK  2 active torsions:
REMARK  status: ('A' for Active; 'I' for Inactive)
REMARK    1  A    between atoms: C3_3  and  C8_8 
REMARK    2  A    between atoms: C9_9  and  C12_12 
ROOT
HETATM    1  C1  UNL     1     -39.363  11.757   4.732  1.00 20.00     0.021 C 
HETATM    2  C2  UNL     1     -40.087  12.271   5.540  1.00 20.00    -0.039 C 
HETATM    3  C3  UNL     1     -40.959  12.887   6.511  1.00 20.00     0.205 C 
HETATM    4  O13 UNL     1     -41.905  12.257   6.967  1.00 20.00    -0.283 OA
ENDROOT
BRANCH   3   5
HETATM    5  C8  UNL     1     -40.625  14.317   6.906  1.00 20.00     0.069 C 
HETATM    6  C4  UNL     1     -41.777  15.236   6.509  1.00 20.00     0.013 C 
HETATM    7  C6  UNL     1     -42.990  15.136   7.434  1.00 20.00     0.006 C 
HETATM    8  C9  UNL     1     -42.631  15.260   8.920  1.00 20.00    -0.011 C 
HETATM    9  C7  UNL     1     -41.532  14.259   9.294  1.00 20.00     0.006 C 
HETATM   10  C5  UNL     1     -40.299  14.353   8.395  1.00 20.00     0.013 C 
BRANCH   8  11
HETATM   11  C12 UNL     1     -42.246  16.694   9.292  1.00 20.00    -0.019 C 
HETATM   12  C10 UNL     1     -43.378  17.659   8.954  1.00 20.00     0.010 C 
HETATM   13  C11 UNL     1     -41.886  16.784  10.774  1.00 20.00     0.010 C 
ENDBRANCH   8  11
ENDBRANCH   3   5
TORSDOF 2
ENDMDL
MODEL 6
REMARK VINA RESULT:      -3.7      1.719      4.879
REMARK  2 active torsions:
REMARK  status: ('A' for Active; 'I' for Inactive)
REMARK    1  A    between atoms: C3_3  and  C8_8 
REMARK    2  A    between atoms: C9_9  and  C12_12 
ROOT
HETATM    1  C1  UNL     1     -34.287  14.663  -5.010  1.00 20.00     0.021 C 
HETATM    2  C2  UNL     1     -34.555  15.808  -4.771  1.00 20.00    -0.039 C 
HETATM    3  C3  UNL     1     -34.880  17.186  -4.485  1.00 20.00     0.205 C 
HETATM    4  O13 UNL     1     -36.008  17.605  -4.711  1.00 20.00    -0.283 OA
ENDROOT
BRANCH   3   5
HETATM    5  C8  UNL     1     -33.760  18.037  -3.908  1.00 20.00     0.069 C 
HETATM    6  C4  UNL     1     -34.356  19.261  -3.218  1.00 20.00     0.013 C 
HETATM    7  C6  UNL     1     -34.987  18.954  -1.860  1.00 20.00     0.006 C 
HETATM    8  C9  UNL     1     -34.067  18.151  -0.931  1.00 20.00    -0.011 C 
HETATM    9  C7  UNL     1     -33.561  16.887  -1.635  1.00 20.00     0.006 C 
HETATM   10  C5  UNL     1     -32.908  17.170  -2.988  1.00 20.00     0.013 C 
BRANCH   8  11
HETATM   11  C12 UNL     1     -32.914  19.006  -0.399  1.00 20.00    -0.019 C 
HETATM   12  C10 UNL     1     -33.081  19.262   1.097  1.00 20.00     0.010 C 
HETATM   13  C11 UNL     1     -31.572  18.332  -0.683  1.00 20.00     0.010 C 
ENDBRANCH   8  11
ENDBRANCH   3   5
TORSDOF 2
ENDMDL
MODEL 7
REMARK VINA RESULT:      -3.6     11.343     12.730
REMARK  2 active torsions:
REMARK  status: ('A' for Active; 'I' for Inactive)
REMARK    1  A    between atoms: C3_3  and  C8_8 
REMARK    2  A    between atoms: C9_9  and  C12_12 
ROOT
HETATM    1  C1  UNL     1     -32.331   8.380  -0.210  1.00 20.00     0.021 C 
HETATM    2  C2  UNL     1     -32.392   8.638   0.960  1.00 20.00    -0.039 C 
HETATM    3  C3  UNL     1     -32.466   8.950   2.368  1.00 20.00     0.205 C 
HETATM    4  O13 UNL     1     -32.876  10.046   2.728  1.00 20.00    -0.283 OA
ENDROOT
BRANCH   3   5
HETATM    5  C8  UNL     1     -32.013   7.858   3.325  1.00 20.00     0.069 C 
HETATM    6  C4  UNL     1     -32.502   8.182   4.734  1.00 20.00     0.013 C 
HETATM    7  C6  UNL     1     -33.993   7.916   4.943  1.00 20.00     0.006 C 
HETATM    8  C9  UNL     1     -34.430   6.520   4.481  1.00 20.00    -0.011 C 
HETATM    9  C7  UNL     1     -33.994   6.271   3.033  1.00 20.00     0.006 C 
HETATM   10  C5  UNL     1     -32.502   6.512   2.802  1.00 20.00     0.013 C 
BRANCH   8  11
HETATM   11  C12 UNL     1     -33.923   5.426   5.424  1.00 20.00    -0.019 C 
HETATM   12  C10 UNL     1     -34.749   5.398   6.708  1.00 20.00     0.010 C 
HETATM   13  C11 UNL     1     -33.957   4.065   4.733  1.00 20.00     0.010 C 
ENDBRANCH   8  11
ENDBRANCH   3   5
TORSDOF 2
ENDMDL
MODEL 8
REMARK VINA RESULT:      -3.6     12.273     13.417
REMARK  2 active torsions:
REMARK  status: ('A' for Active; 'I' for Inactive)
REMARK    1  A    between atoms: C3_3  and  C8_8 
REMARK    2  A    between atoms: C9_9  and  C12_12 
ROOT
HETATM    1  C1  UNL     1     -38.955  11.652   3.812  1.00 20.00     0.021 C 
HETATM    2  C2  UNL     1     -39.366  11.898   4.912  1.00 20.00    -0.039 C 
HETATM    3  C3  UNL     1     -39.859  12.192   6.237  1.00 20.00     0.205 C 
HETATM    4  O13 UNL     1     -39.100  12.134   7.196  1.00 20.00    -0.283 OA
ENDROOT
BRANCH   3   5
HETATM    5  C8  UNL     1     -41.330  12.563   6.342  1.00 20.00     0.069 C 
HETATM    6  C4  UNL     1     -41.657  12.946   7.782  1.00 20.00     0.013 C 
HETATM    7  C6  UNL     1     -41.154  14.335   8.177  1.00 20.00     0.006 C 
HETATM    8  C9  UNL     1     -41.550  15.430   7.178  1.00 20.00    -0.011 C 
HETATM    9  C7  UNL     1     -41.126  15.041   5.757  1.00 20.00     0.006 C 
HETATM   10  C5  UNL     1     -41.634  13.663   5.331  1.00 20.00     0.013 C 
BRANCH   8  11
HETATM   11  C12 UNL     1     -43.044  15.756   7.257  1.00 20.00    -0.019 C 
HETATM   12  C10 UNL     1     -43.417  16.225   8.661  1.00 20.00     0.010 C 
HETATM   13  C11 UNL     1     -43.417  16.812   6.219  1.00 20.00     0.010 C 
ENDBRANCH   8  11
ENDBRANCH   3   5
TORSDOF 2
ENDMDL
MODEL 9
REMARK VINA RESULT:      -3.5     12.315     13.762
REMARK  2 active torsions:
REMARK  status: ('A' for Active; 'I' for Inactive)
REMARK    1  A    between atoms: C3_3  and  C8_8 
REMARK    2  A    between atoms: C9_9  and  C12_12 
ROOT
HETATM    1  C1  UNL     1     -42.774  15.691   2.811  1.00 20.00     0.021 C 
HETATM    2  C2  UNL     1     -42.345  14.940   3.644  1.00 20.00    -0.039 C 
HETATM    3  C3  UNL     1     -41.828  14.035   4.643  1.00 20.00     0.205 C 
HETATM    4  O13 UNL     1     -40.903  13.283   4.363  1.00 20.00    -0.283 OA
ENDROOT
BRANCH   3   5
HETATM    5  C8  UNL     1     -42.492  14.089   6.009  1.00 20.00     0.069 C 
HETATM    6  C4  UNL     1     -41.700  13.234   6.994  1.00 20.00     0.013 C 
HETATM    7  C6  UNL     1     -40.400  13.886   7.466  1.00 20.00     0.006 C 
HETATM    8  C9  UNL     1     -40.590  15.324   7.965  1.00 20.00    -0.011 C 
HETATM    9  C7  UNL     1     -41.314  16.169   6.909  1.00 20.00     0.006 C 
HETATM   10  C5  UNL     1     -42.627  15.546   6.435  1.00 20.00     0.013 C 
BRANCH   8  11
HETATM   11  C12 UNL     1     -41.308  15.366   9.316  1.00 20.00    -0.019 C 
HETATM   12  C10 UNL     1     -40.562  14.523  10.347  1.00 20.00     0.010 C 
HETATM   13  C11 UNL     1     -41.452  16.807   9.802  1.00 20.00     0.010 C 
ENDBRANCH   8  11
ENDBRANCH   3   5
TORSDOF 2
ENDMDL
