MODEL 1
REMARK VINA RESULT:      -4.3      0.000      0.000
REMARK  2 active torsions:
REMARK  status: ('A' for Active; 'I' for Inactive)
REMARK    1  A    between atoms: C2_2  and  C3_3 
REMARK    2  A    between atoms: C3_3  and  C8_8 
ROOT
HETATM    1  C4  UNL     1     -33.564   6.695   6.406  1.00 20.00     0.027 C 
HETATM    2  C5  UNL     1     -34.062   7.521   5.222  1.00 20.00     0.017 C 
HETATM    3  C6  UNL     1     -34.467   5.497   6.649  1.00 20.00     0.167 C 
HETATM    4  C7  UNL     1     -35.180   5.404   4.391  1.00 20.00     0.180 C 
HETATM    5  C8  UNL     1     -34.394   6.656   4.007  1.00 20.00     0.083 C 
HETATM    6  O10 UNL     1     -34.564   4.700   5.471  1.00 20.00    -0.390 OA
ENDROOT
BRANCH   5   7
HETATM    7  C3  UNL     1     -33.138   6.259   3.286  1.00 20.00     0.154 C 
HETATM    8  O9  UNL     1     -32.973   5.111   2.881  1.00 20.00    -0.293 OA
BRANCH   7   9
HETATM    9  C2  UNL     1     -32.130   7.330   3.061  1.00 20.00     0.040 C 
HETATM   10  C1  UNL     1     -32.140   8.053   1.939  1.00 20.00     0.015 C 
ENDBRANCH   7   9
ENDBRANCH   5   7
TORSDOF 2
ENDMDL
MODEL 2
REMARK VINA RESULT:      -4.1      1.517      1.645
REMARK  2 active torsions:
REMARK  status: ('A' for Active; 'I' for Inactive)
REMARK    1  A    between atoms: C2_2  and  C3_3 
REMARK    2  A    between atoms: C3_3  and  C8_8 
ROOT
HETATM    1  C4  UNL     1     -33.719   5.842   6.671  1.00 20.00     0.027 C 
HETATM    2  C5  UNL     1     -34.171   7.261   6.331  1.00 20.00     0.017 C 
HETATM    3  C6  UNL     1     -34.461   4.820   5.826  1.00 20.00     0.167 C 
HETATM    4  C7  UNL     1     -34.845   6.355   4.062  1.00 20.00     0.180 C 
HETATM    5  C8  UNL     1     -34.207   7.514   4.824  1.00 20.00     0.083 C 
HETATM    6  O10 UNL     1     -34.283   5.097   4.439  1.00 20.00    -0.390 OA
ENDROOT
BRANCH   5   7
HETATM    7  C3  UNL     1     -32.822   7.759   4.298  1.00 20.00     0.154 C 
HETATM    8  O9  UNL     1     -32.027   8.471   4.907  1.00 20.00    -0.293 OA
BRANCH   7   9
HETATM    9  C2  UNL     1     -32.458   7.074   3.029  1.00 20.00     0.040 C 
HETATM   10  C1  UNL     1     -32.108   7.776   1.949  1.00 20.00     0.015 C 
ENDBRANCH   7   9
ENDBRANCH   5   7
TORSDOF 2
ENDMDL
MODEL 3
REMARK VINA RESULT:      -4.0     12.118     13.472
REMARK  2 active torsions:
REMARK  status: ('A' for Active; 'I' for Inactive)
REMARK    1  A    between atoms: C2_2  and  C3_3 
REMARK    2  A    between atoms: C3_3  and  C8_8 
ROOT
HETATM    1  C4  UNL     1     -36.085  17.233  -5.261  1.00 20.00     0.027 C 
HETATM    2  C5  UNL     1     -34.744  16.854  -5.885  1.00 20.00     0.017 C 
HETATM    3  C6  UNL     1     -37.191  16.313  -5.752  1.00 20.00     0.167 C 
HETATM    4  C7  UNL     1     -35.698  14.525  -6.185  1.00 20.00     0.180 C 
HETATM    5  C8  UNL     1     -34.471  15.353  -5.808  1.00 20.00     0.083 C 
HETATM    6  O10 UNL     1     -36.865  14.953  -5.479  1.00 20.00    -0.390 OA
ENDROOT
BRANCH   5   7
HETATM    7  C3  UNL     1     -34.011  14.971  -4.431  1.00 20.00     0.154 C 
HETATM    8  O9  UNL     1     -34.312  13.887  -3.937  1.00 20.00    -0.293 OA
BRANCH   7   9
HETATM    9  C2  UNL     1     -33.154  15.955  -3.716  1.00 20.00     0.040 C 
HETATM   10  C1  UNL     1     -33.501  16.417  -2.513  1.00 20.00     0.015 C 
ENDBRANCH   7   9
ENDBRANCH   5   7
TORSDOF 2
ENDMDL
MODEL 4
REMARK VINA RESULT:      -3.9      9.222     10.076
REMARK  2 active torsions:
REMARK  status: ('A' for Active; 'I' for Inactive)
REMARK    1  A    between atoms: C2_2  and  C3_3 
REMARK    2  A    between atoms: C3_3  and  C8_8 
ROOT
HETATM    1  C4  UNL     1     -40.769  14.359   8.555  1.00 20.00     0.027 C 
HETATM    2  C5  UNL     1     -40.426  14.615   7.089  1.00 20.00     0.017 C 
HETATM    3  C6  UNL     1     -42.186  13.827   8.695  1.00 20.00     0.167 C 
HETATM    4  C7  UNL     1     -42.198  12.897   6.515  1.00 20.00     0.180 C 
HETATM    5  C8  UNL     1     -40.809  13.443   6.188  1.00 20.00     0.083 C 
HETATM    6  O10 UNL     1     -42.355  12.647   7.913  1.00 20.00    -0.390 OA
ENDROOT
BRANCH   5   7
HETATM    7  C3  UNL     1     -39.797  12.340   6.299  1.00 20.00     0.154 C 
HETATM    8  O9  UNL     1     -39.115  12.202   7.312  1.00 20.00    -0.293 OA
BRANCH   7   9
HETATM    9  C2  UNL     1     -39.687  11.414   5.141  1.00 20.00     0.040 C 
HETATM   10  C1  UNL     1     -38.955  11.739   4.072  1.00 20.00     0.015 C 
ENDBRANCH   7   9
ENDBRANCH   5   7
TORSDOF 2
ENDMDL
MODEL 5
REMARK VINA RESULT:      -3.5      1.575      2.080
REMARK  2 active torsions:
REMARK  status: ('A' for Active; 'I' for Inactive)
REMARK    1  A    between atoms: C2_2  and  C3_3 
REMARK    2  A    between atoms: C3_3  and  C8_8 
ROOT
HETATM    1  C4  UNL     1     -33.291   7.865   5.105  1.00 20.00     0.027 C 
HETATM    2  C5  UNL     1     -34.466   7.385   4.257  1.00 20.00     0.017 C 
HETATM    3  C6  UNL     1     -33.537   7.589   6.580  1.00 20.00     0.167 C 
HETATM    4  C7  UNL     1     -34.982   5.763   6.136  1.00 20.00     0.180 C 
HETATM    5  C8  UNL     1     -34.908   5.968   4.624  1.00 20.00     0.083 C 
HETATM    6  O10 UNL     1     -33.790   6.202   6.791  1.00 20.00    -0.390 OA
ENDROOT
BRANCH   5   7
HETATM    7  C3  UNL     1     -33.977   4.955   4.024  1.00 20.00     0.154 C 
HETATM    8  O9  UNL     1     -33.964   3.791   4.419  1.00 20.00    -0.293 OA
BRANCH   7   9
HETATM    9  C2  UNL     1     -33.103   5.424   2.916  1.00 20.00     0.040 C 
HETATM   10  C1  UNL     1     -32.835   4.632   1.875  1.00 20.00     0.015 C 
ENDBRANCH   7   9
ENDBRANCH   5   7
TORSDOF 2
ENDMDL
MODEL 6
REMARK VINA RESULT:      -3.5     12.494     13.533
REMARK  2 active torsions:
REMARK  status: ('A' for Active; 'I' for Inactive)
REMARK    1  A    between atoms: C2_2  and  C3_3 
REMARK    2  A    between atoms: C3_3  and  C8_8 
ROOT
HETATM    1  C4  UNL     1     -33.766  17.635  -0.834  1.00 20.00     0.027 C 
HETATM    2  C5  UNL     1     -32.676  17.671  -1.903  1.00 20.00     0.017 C 
HETATM    3  C6  UNL     1     -34.616  18.893  -0.884  1.00 20.00     0.167 C 
HETATM    4  C7  UNL     1     -34.176  19.263  -3.183  1.00 20.00     0.180 C 
HETATM    5  C8  UNL     1     -33.218  18.076  -3.273  1.00 20.00     0.083 C 
HETATM    6  O10 UNL     1     -35.177  19.063  -2.183  1.00 20.00    -0.390 OA
ENDROOT
BRANCH   5   7
HETATM    7  C3  UNL     1     -33.913  16.918  -3.928  1.00 20.00     0.154 C 
HETATM    8  O9  UNL     1     -34.929  17.083  -4.598  1.00 20.00    -0.293 OA
BRANCH   7   9
HETATM    9  C2  UNL     1     -33.292  15.578  -3.748  1.00 20.00     0.040 C 
HETATM   10  C1  UNL     1     -33.919  14.474  -4.163  1.00 20.00     0.015 C 
ENDBRANCH   7   9
ENDBRANCH   5   7
TORSDOF 2
ENDMDL
MODEL 7
REMARK VINA RESULT:      -3.5     10.202     11.162
REMARK  2 active torsions:
REMARK  status: ('A' for Active; 'I' for Inactive)
REMARK    1  A    between atoms: C2_2  and  C3_3 
REMARK    2  A    between atoms: C3_3  and  C8_8 
ROOT
HETATM    1  C4  UNL     1     -40.164  14.460   8.948  1.00 20.00     0.027 C 
HETATM    2  C5  UNL     1     -40.748  14.955   7.627  1.00 20.00     0.017 C 
HETATM    3  C6  UNL     1     -41.250  14.325  10.004  1.00 20.00     0.167 C 
HETATM    4  C7  UNL     1     -42.959  13.985   8.398  1.00 20.00     0.180 C 
HETATM    5  C8  UNL     1     -42.005  14.186   7.222  1.00 20.00     0.083 C 
HETATM    6  O10 UNL     1     -42.286  13.461   9.544  1.00 20.00    -0.390 OA
ENDROOT
BRANCH   5   7
HETATM    7  C3  UNL     1     -41.641  12.853   6.636  1.00 20.00     0.154 C 
HETATM    8  O9  UNL     1     -42.299  11.846   6.889  1.00 20.00    -0.293 OA
BRANCH   7   9
HETATM    9  C2  UNL     1     -40.473  12.823   5.717  1.00 20.00     0.040 C 
HETATM   10  C1  UNL     1     -39.590  11.822   5.765  1.00 20.00     0.015 C 
ENDBRANCH   7   9
ENDBRANCH   5   7
TORSDOF 2
ENDMDL
MODEL 8
REMARK VINA RESULT:      -3.5     10.146     11.049
REMARK  2 active torsions:
REMARK  status: ('A' for Active; 'I' for Inactive)
REMARK    1  A    between atoms: C2_2  and  C3_3 
REMARK    2  A    between atoms: C3_3  and  C8_8 
ROOT
HETATM    1  C4  UNL     1     -42.234  15.905   6.082  1.00 20.00     0.027 C 
HETATM    2  C5  UNL     1     -42.755  14.473   6.175  1.00 20.00     0.017 C 
HETATM    3  C6  UNL     1     -41.315  16.225   7.249  1.00 20.00     0.167 C 
HETATM    4  C7  UNL     1     -40.695  13.959   7.559  1.00 20.00     0.180 C 
HETATM    5  C8  UNL     1     -41.642  13.467   6.467  1.00 20.00     0.083 C 
HETATM    6  O10 UNL     1     -40.240  15.291   7.308  1.00 20.00    -0.390 OA
ENDROOT
BRANCH   5   7
HETATM    7  C3  UNL     1     -40.861  13.170   5.220  1.00 20.00     0.154 C 
HETATM    8  O9  UNL     1     -41.217  13.605   4.127  1.00 20.00    -0.293 OA
BRANCH   7   9
HETATM    9  C2  UNL     1     -39.627  12.356   5.383  1.00 20.00     0.040 C 
HETATM   10  C1  UNL     1     -39.110  11.683   4.351  1.00 20.00     0.015 C 
ENDBRANCH   7   9
ENDBRANCH   5   7
TORSDOF 2
ENDMDL
MODEL 9
REMARK VINA RESULT:      -3.5     12.233     13.345
REMARK  2 active torsions:
REMARK  status: ('A' for Active; 'I' for Inactive)
REMARK    1  A    between atoms: C2_2  and  C3_3 
REMARK    2  A    between atoms: C3_3  and  C8_8 
ROOT
HETATM    1  C4  UNL     1     -36.343  15.544  -5.598  1.00 20.00     0.027 C 
HETATM    2  C5  UNL     1     -35.134  16.385  -6.000  1.00 20.00     0.017 C 
HETATM    3  C6  UNL     1     -35.928  14.117  -5.278  1.00 20.00     0.167 C 
HETATM    4  C7  UNL     1     -33.726  14.749  -4.673  1.00 20.00     0.180 C 
HETATM    5  C8  UNL     1     -33.959  16.213  -5.038  1.00 20.00     0.083 C 
HETATM    6  O10 UNL     1     -34.932  14.105  -4.258  1.00 20.00    -0.390 OA
ENDROOT
BRANCH   5   7
HETATM    7  C3  UNL     1     -34.182  17.013  -3.787  1.00 20.00     0.154 C 
HETATM    8  O9  UNL     1     -34.975  17.951  -3.765  1.00 20.00    -0.293 OA
BRANCH   7   9
HETATM    9  C2  UNL     1     -33.420  16.593  -2.581  1.00 20.00     0.040 C 
HETATM   10  C1  UNL     1     -33.464  17.315  -1.459  1.00 20.00     0.015 C 
ENDBRANCH   7   9
ENDBRANCH   5   7
TORSDOF 2
ENDMDL
