MODEL 1
REMARK VINA RESULT:      -4.3      0.000      0.000
REMARK  1 active torsions:
REMARK  status: ('A' for Active; 'I' for Inactive)
REMARK    1  A    between atoms: C3_3  and  C9_9 
ROOT
HETATM    1  C1  UNL     1     -33.569  16.383  -3.697  1.00 20.00     0.016 A 
HETATM    2  C2  UNL     1     -33.261  16.589  -2.321  1.00 20.00     0.015 A 
HETATM    3  C3  UNL     1     -34.457  17.323  -4.174  1.00 20.00    -0.013 A 
HETATM    4  C4  UNL     1     -33.925  17.677  -1.799  1.00 20.00    -0.021 A 
HETATM    5  C10 UNL     1     -33.871  18.215  -0.422  1.00 20.00     0.056 C 
HETATM    6  S12 UNL     1     -34.915  18.446  -2.966  1.00 20.00    -0.099 SA
ENDROOT
BRANCH   3   7
HETATM    7  C9  UNL     1     -35.033  17.453  -5.574  1.00 20.00     0.033 C 
HETATM    8  C7  UNL     1     -34.719  16.314  -6.557  1.00 20.00     0.088 C 
HETATM    9  C5  UNL     1     -35.908  15.400  -6.396  1.00 20.00     0.127 C 
HETATM   10  C6  UNL     1     -37.021  16.039  -5.609  1.00 20.00     0.079 C 
HETATM   11  O11 UNL     1     -35.961  14.266  -6.854  1.00 20.00    -0.298 OA
HETATM   12  C8  UNL     1     -36.569  17.495  -5.552  1.00 20.00     0.018 C 
ENDBRANCH   3   7
TORSDOF 1
ENDMDL
MODEL 2
REMARK VINA RESULT:      -4.3      1.603      2.105
REMARK  1 active torsions:
REMARK  status: ('A' for Active; 'I' for Inactive)
REMARK    1  A    between atoms: C3_3  and  C9_9 
ROOT
HETATM    1  C1  UNL     1     -35.058  18.061  -3.822  1.00 20.00     0.016 A 
HETATM    2  C2  UNL     1     -35.100  18.805  -2.606  1.00 20.00     0.015 A 
HETATM    3  C3  UNL     1     -34.199  16.986  -3.740  1.00 20.00    -0.013 A 
HETATM    4  C4  UNL     1     -34.274  18.270  -1.643  1.00 20.00    -0.021 A 
HETATM    5  C10 UNL     1     -34.041  18.746  -0.262  1.00 20.00     0.056 C 
HETATM    6  S12 UNL     1     -33.449  16.878  -2.205  1.00 20.00    -0.099 SA
ENDROOT
BRANCH   3   7
HETATM    7  C9  UNL     1     -33.871  15.956  -4.808  1.00 20.00     0.033 C 
HETATM    8  C7  UNL     1     -33.884  14.483  -4.370  1.00 20.00     0.088 C 
HETATM    9  C5  UNL     1     -35.290  14.050  -4.703  1.00 20.00     0.127 C 
HETATM   10  C6  UNL     1     -36.016  15.062  -5.549  1.00 20.00     0.079 C 
HETATM   11  O11 UNL     1     -35.785  12.995  -4.327  1.00 20.00    -0.298 OA
HETATM   12  C8  UNL     1     -34.884  15.996  -5.963  1.00 20.00     0.018 C 
ENDBRANCH   3   7
TORSDOF 1
ENDMDL
MODEL 3
REMARK VINA RESULT:      -4.2      2.796      4.968
REMARK  1 active torsions:
REMARK  status: ('A' for Active; 'I' for Inactive)
REMARK    1  A    between atoms: C3_3  and  C9_9 
ROOT
HETATM    1  C1  UNL     1     -33.393  15.680  -3.447  1.00 20.00     0.016 A 
HETATM    2  C2  UNL     1     -34.031  14.814  -4.382  1.00 20.00     0.015 A 
HETATM    3  C3  UNL     1     -33.661  17.007  -3.705  1.00 20.00    -0.013 A 
HETATM    4  C4  UNL     1     -34.762  15.511  -5.318  1.00 20.00    -0.021 A 
HETATM    5  C10 UNL     1     -35.563  14.979  -6.443  1.00 20.00     0.056 C 
HETATM    6  S12 UNL     1     -34.678  17.203  -5.069  1.00 20.00    -0.099 SA
ENDROOT
BRANCH   3   7
HETATM    7  C9  UNL     1     -33.177  18.233  -2.950  1.00 20.00     0.033 C 
HETATM    8  C7  UNL     1     -34.245  19.263  -2.551  1.00 20.00     0.088 C 
HETATM    9  C5  UNL     1     -34.619  18.830  -1.155  1.00 20.00     0.127 C 
HETATM   10  C6  UNL     1     -33.667  17.804  -0.600  1.00 20.00     0.079 C 
HETATM   11  O11 UNL     1     -35.587  19.263  -0.544  1.00 20.00    -0.298 OA
HETATM   12  C8  UNL     1     -32.526  17.852  -1.611  1.00 20.00     0.018 C 
ENDBRANCH   3   7
TORSDOF 1
ENDMDL
MODEL 4
REMARK VINA RESULT:      -3.9      1.260      1.453
REMARK  1 active torsions:
REMARK  status: ('A' for Active; 'I' for Inactive)
REMARK    1  A    between atoms: C3_3  and  C9_9 
ROOT
HETATM    1  C1  UNL     1     -33.710  16.107  -3.236  1.00 20.00     0.016 A 
HETATM    2  C2  UNL     1     -33.152  16.841  -2.150  1.00 20.00     0.015 A 
HETATM    3  C3  UNL     1     -33.976  16.913  -4.323  1.00 20.00    -0.013 A 
HETATM    4  C4  UNL     1     -33.011  18.179  -2.447  1.00 20.00    -0.021 A 
HETATM    5  C10 UNL     1     -32.474  19.260  -1.592  1.00 20.00     0.056 C 
HETATM    6  S12 UNL     1     -33.553  18.546  -4.030  1.00 20.00    -0.099 SA
ENDROOT
BRANCH   3   7
HETATM    7  C9  UNL     1     -34.569  16.523  -5.666  1.00 20.00     0.033 C 
HETATM    8  C7  UNL     1     -35.460  15.271  -5.688  1.00 20.00     0.088 C 
HETATM    9  C5  UNL     1     -36.842  15.843  -5.498  1.00 20.00     0.127 C 
HETATM   10  C6  UNL     1     -36.866  17.342  -5.642  1.00 20.00     0.079 C 
HETATM   11  O11 UNL     1     -37.832  15.166  -5.254  1.00 20.00    -0.298 OA
HETATM   12  C8  UNL     1     -35.484  17.625  -6.222  1.00 20.00     0.018 C 
ENDBRANCH   3   7
TORSDOF 1
ENDMDL
MODEL 5
REMARK VINA RESULT:      -3.7      3.610      4.868
REMARK  1 active torsions:
REMARK  status: ('A' for Active; 'I' for Inactive)
REMARK    1  A    between atoms: C3_3  and  C9_9 
ROOT
HETATM    1  C1  UNL     1     -31.480  18.665  -0.442  1.00 20.00     0.016 A 
HETATM    2  C2  UNL     1     -30.738  18.922   0.747  1.00 20.00     0.015 A 
HETATM    3  C3  UNL     1     -32.832  18.564  -0.197  1.00 20.00    -0.013 A 
HETATM    4  C4  UNL     1     -31.551  19.008   1.856  1.00 20.00    -0.021 A 
HETATM    5  C10 UNL     1     -31.167  19.263   3.261  1.00 20.00     0.056 C 
HETATM    6  S12 UNL     1     -33.202  18.778   1.461  1.00 20.00    -0.099 SA
ENDROOT
BRANCH   3   7
HETATM    7  C9  UNL     1     -33.955  18.298  -1.186  1.00 20.00     0.033 C 
HETATM    8  C7  UNL     1     -34.066  19.263  -2.377  1.00 20.00     0.088 C 
HETATM    9  C5  UNL     1     -33.263  18.563  -3.446  1.00 20.00     0.127 C 
HETATM   10  C6  UNL     1     -32.922  17.146  -3.071  1.00 20.00     0.079 C 
HETATM   11  O11 UNL     1     -32.927  19.090  -4.499  1.00 20.00    -0.298 OA
HETATM   12  C8  UNL     1     -33.808  16.921  -1.850  1.00 20.00     0.018 C 
ENDBRANCH   3   7
TORSDOF 1
ENDMDL
MODEL 6
REMARK VINA RESULT:      -3.6      1.695      2.160
REMARK  1 active torsions:
REMARK  status: ('A' for Active; 'I' for Inactive)
REMARK    1  A    between atoms: C3_3  and  C9_9 
ROOT
HETATM    1  C1  UNL     1     -33.239  15.916  -3.513  1.00 20.00     0.016 A 
HETATM    2  C2  UNL     1     -33.311  17.086  -2.701  1.00 20.00     0.015 A 
HETATM    3  C3  UNL     1     -34.168  15.935  -4.530  1.00 20.00    -0.013 A 
HETATM    4  C4  UNL     1     -34.292  17.953  -3.129  1.00 20.00    -0.021 A 
HETATM    5  C10 UNL     1     -34.675  19.263  -2.558  1.00 20.00     0.056 C 
HETATM    6  S12 UNL     1     -35.122  17.357  -4.504  1.00 20.00    -0.099 SA
ENDROOT
BRANCH   3   7
HETATM    7  C9  UNL     1     -34.416  14.888  -5.603  1.00 20.00     0.033 C 
HETATM    8  C7  UNL     1     -35.878  14.657  -6.016  1.00 20.00     0.088 C 
HETATM    9  C5  UNL     1     -36.040  15.580  -7.198  1.00 20.00     0.127 C 
HETATM   10  C6  UNL     1     -34.723  16.126  -7.682  1.00 20.00     0.079 C 
HETATM   11  O11 UNL     1     -37.120  15.855  -7.704  1.00 20.00    -0.298 OA
HETATM   12  C8  UNL     1     -33.724  15.258  -6.924  1.00 20.00     0.018 C 
ENDBRANCH   3   7
TORSDOF 1
ENDMDL
MODEL 7
REMARK VINA RESULT:      -3.5     12.013     13.519
REMARK  1 active torsions:
REMARK  status: ('A' for Active; 'I' for Inactive)
REMARK    1  A    between atoms: C3_3  and  C9_9 
ROOT
HETATM    1  C1  UNL     1     -40.478  14.380   8.548  1.00 20.00     0.016 A 
HETATM    2  C2  UNL     1     -40.249  15.553   9.325  1.00 20.00     0.015 A 
HETATM    3  C3  UNL     1     -41.667  14.445   7.853  1.00 20.00    -0.013 A 
HETATM    4  C4  UNL     1     -41.269  16.469   9.193  1.00 20.00    -0.021 A 
HETATM    5  C10 UNL     1     -41.401  17.798   9.830  1.00 20.00     0.056 C 
HETATM    6  S12 UNL     1     -42.499  15.914   8.138  1.00 20.00    -0.099 SA
ENDROOT
BRANCH   3   7
HETATM    7  C9  UNL     1     -42.273  13.411   6.920  1.00 20.00     0.033 C 
HETATM    8  C7  UNL     1     -42.939  13.943   5.641  1.00 20.00     0.088 C 
HETATM    9  C5  UNL     1     -41.822  13.870   4.630  1.00 20.00     0.127 C 
HETATM   10  C6  UNL     1     -40.640  13.085   5.137  1.00 20.00     0.079 C 
HETATM   11  O11 UNL     1     -41.870  14.390   3.523  1.00 20.00    -0.298 OA
HETATM   12  C8  UNL     1     -41.211  12.433   6.392  1.00 20.00     0.018 C 
ENDBRANCH   3   7
TORSDOF 1
ENDMDL
MODEL 8
REMARK VINA RESULT:      -3.4      2.588      4.816
REMARK  1 active torsions:
REMARK  status: ('A' for Active; 'I' for Inactive)
REMARK    1  A    between atoms: C3_3  and  C9_9 
ROOT
HETATM    1  C1  UNL     1     -34.959  15.706  -5.118  1.00 20.00     0.016 A 
HETATM    2  C2  UNL     1     -36.265  15.488  -5.646  1.00 20.00     0.015 A 
HETATM    3  C3  UNL     1     -34.812  16.981  -4.614  1.00 20.00    -0.013 A 
HETATM    4  C4  UNL     1     -37.065  16.602  -5.525  1.00 20.00    -0.021 A 
HETATM    5  C10 UNL     1     -38.473  16.775  -5.947  1.00 20.00     0.056 C 
HETATM    6  S12 UNL     1     -36.243  17.906  -4.779  1.00 20.00    -0.099 SA
ENDROOT
BRANCH   3   7
HETATM    7  C9  UNL     1     -33.586  17.606  -3.970  1.00 20.00     0.033 C 
HETATM    8  C7  UNL     1     -33.797  18.944  -3.244  1.00 20.00     0.088 C 
HETATM    9  C5  UNL     1     -34.048  18.514  -1.820  1.00 20.00     0.127 C 
HETATM   10  C6  UNL     1     -33.731  17.059  -1.597  1.00 20.00     0.079 C 
HETATM   11  O11 UNL     1     -34.463  19.263  -0.945  1.00 20.00    -0.298 OA
HETATM   12  C8  UNL     1     -32.993  16.697  -2.882  1.00 20.00     0.018 C 
ENDBRANCH   3   7
TORSDOF 1
ENDMDL
MODEL 9
REMARK VINA RESULT:      -3.4     11.760     13.716
REMARK  1 active torsions:
REMARK  status: ('A' for Active; 'I' for Inactive)
REMARK    1  A    between atoms: C3_3  and  C9_9 
ROOT
HETATM    1  C1  UNL     1     -39.651  12.568   7.111  1.00 20.00     0.016 A 
HETATM    2  C2  UNL     1     -38.934  11.914   6.067  1.00 20.00     0.015 A 
HETATM    3  C3  UNL     1     -40.718  13.296   6.629  1.00 20.00    -0.013 A 
HETATM    4  C4  UNL     1     -39.480  12.167   4.828  1.00 20.00    -0.021 A 
HETATM    5  C10 UNL     1     -39.031  11.675   3.507  1.00 20.00     0.056 C 
HETATM    6  S12 UNL     1     -40.851  13.189   4.926  1.00 20.00    -0.099 SA
ENDROOT
BRANCH   3   7
HETATM    7  C9  UNL     1     -41.721  14.129   7.408  1.00 20.00     0.033 C 
HETATM    8  C7  UNL     1     -41.568  14.141   8.937  1.00 20.00     0.088 C 
HETATM    9  C5  UNL     1     -40.711  15.359   9.176  1.00 20.00     0.127 C 
HETATM   10  C6  UNL     1     -40.578  16.216   7.945  1.00 20.00     0.079 C 
HETATM   11  O11 UNL     1     -40.184  15.620  10.249  1.00 20.00    -0.298 OA
HETATM   12  C8  UNL     1     -41.637  15.616   7.027  1.00 20.00     0.018 C 
ENDBRANCH   3   7
TORSDOF 1
ENDMDL
