MODEL 1
REMARK VINA RESULT:      -3.0      0.000      0.000
REMARK  4 active torsions:
REMARK  status: ('A' for Active; 'I' for Inactive)
REMARK    1  A    between atoms: C1_1  and  C5_5 
REMARK       I    between atoms: C1_1  and  N8_8 
REMARK    2  A    between atoms: C5_5  and  S10_10 
REMARK    3  A    between atoms: C6_6  and  N8_8 
REMARK    4  A    between atoms: C7_7  and  N8_8 
ROOT
HETATM    1  C1  UNL     1     -35.000  17.022  -5.280  1.00 20.00     0.229 C 
HETATM    2  N8  UNL     1     -34.141  16.786  -4.199  1.00 20.00    -0.348 N 
HETATM    3  O9  UNL     1     -36.051  17.660  -5.173  1.00 20.00    -0.273 OA
ENDROOT
BRANCH   2   4
HETATM    4  C6  UNL     1     -33.303  15.591  -4.110  1.00 20.00     0.121 C 
HETATM    5  C2  UNL     1     -34.134  14.353  -4.081  1.00 20.00     0.026 C 
ENDBRANCH   2   4
BRANCH   2   6
HETATM    6  C7  UNL     1     -34.017  17.713  -3.080  1.00 20.00     0.079 C 
HETATM    7  C3  UNL     1     -33.103  18.860  -3.484  1.00 20.00     0.032 C 
HETATM    8  C4  UNL     1     -33.477  16.960  -1.873  1.00 20.00     0.032 C 
ENDBRANCH   2   6
BRANCH   1   9
HETATM    9  C5  UNL     1     -34.554  16.442  -6.612  1.00 20.00     0.173 C 
BRANCH   9  10
HETATM   10  S10 UNL     1     -35.847  15.435  -7.381  1.00 20.00    -0.173 SA
HETATM   11  H25 UNL     1     -35.828  14.452  -6.469  1.00 20.00     0.102 HD
ENDBRANCH   9  10
ENDBRANCH   1   9
TORSDOF 4
ENDMDL
MODEL 2
REMARK VINA RESULT:      -2.9      2.805      4.090
REMARK  4 active torsions:
REMARK  status: ('A' for Active; 'I' for Inactive)
REMARK    1  A    between atoms: C1_1  and  C5_5 
REMARK       I    between atoms: C1_1  and  N8_8 
REMARK    2  A    between atoms: C5_5  and  S10_10 
REMARK    3  A    between atoms: C6_6  and  N8_8 
REMARK    4  A    between atoms: C7_7  and  N8_8 
ROOT
HETATM    1  C1  UNL     1     -33.572  16.998  -3.520  1.00 20.00     0.229 C 
HETATM    2  N8  UNL     1     -34.142  16.525  -4.709  1.00 20.00    -0.348 N 
HETATM    3  O9  UNL     1     -33.322  16.266  -2.559  1.00 20.00    -0.273 OA
ENDROOT
BRANCH   2   4
HETATM    4  C6  UNL     1     -35.002  17.355  -5.551  1.00 20.00     0.121 C 
HETATM    5  C2  UNL     1     -36.362  17.496  -4.958  1.00 20.00     0.026 C 
ENDBRANCH   2   4
BRANCH   2   6
HETATM    6  C7  UNL     1     -33.923  15.168  -5.196  1.00 20.00     0.079 C 
HETATM    7  C3  UNL     1     -33.987  15.169  -6.716  1.00 20.00     0.032 C 
HETATM    8  C4  UNL     1     -34.973  14.250  -4.588  1.00 20.00     0.032 C 
ENDBRANCH   2   6
BRANCH   1   9
HETATM    9  C5  UNL     1     -33.273  18.488  -3.484  1.00 20.00     0.173 C 
BRANCH   9  10
HETATM   10  S10 UNL     1     -32.604  19.008  -1.884  1.00 20.00    -0.173 SA
HETATM   11  H25 UNL     1     -31.315  18.988  -2.251  1.00 20.00     0.102 HD
ENDBRANCH   9  10
ENDBRANCH   1   9
TORSDOF 4
ENDMDL
MODEL 3
REMARK VINA RESULT:      -2.9     14.054     15.036
REMARK  4 active torsions:
REMARK  status: ('A' for Active; 'I' for Inactive)
REMARK    1  A    between atoms: C1_1  and  C5_5 
REMARK       I    between atoms: C1_1  and  N8_8 
REMARK    2  A    between atoms: C5_5  and  S10_10 
REMARK    3  A    between atoms: C6_6  and  N8_8 
REMARK    4  A    between atoms: C7_7  and  N8_8 
ROOT
HETATM    1  C1  UNL     1     -41.353  14.011   8.463  1.00 20.00     0.229 C 
HETATM    2  N8  UNL     1     -41.761  13.578   7.194  1.00 20.00    -0.348 N 
HETATM    3  O9  UNL     1     -40.204  13.858   8.885  1.00 20.00    -0.273 OA
ENDROOT
BRANCH   2   4
HETATM    4  C6  UNL     1     -43.133  13.161   6.912  1.00 20.00     0.121 C 
HETATM    5  C2  UNL     1     -43.417  11.817   7.493  1.00 20.00     0.026 C 
ENDBRANCH   2   4
BRANCH   2   6
HETATM    6  C7  UNL     1     -40.848  13.510   6.060  1.00 20.00     0.079 C 
HETATM    7  C3  UNL     1     -41.597  13.897   4.794  1.00 20.00     0.032 C 
HETATM    8  C4  UNL     1     -40.278  12.102   5.969  1.00 20.00     0.032 C 
ENDBRANCH   2   6
BRANCH   1   9
HETATM    9  C5  UNL     1     -42.424  14.692   9.299  1.00 20.00     0.173 C 
BRANCH   9  10
HETATM   10  S10 UNL     1     -42.811  13.756  10.800  1.00 20.00    -0.173 SA
HETATM   11  H25 UNL     1     -42.972  14.822  11.598  1.00 20.00     0.102 HD
ENDBRANCH   9  10
ENDBRANCH   1   9
TORSDOF 4
ENDMDL
MODEL 4
REMARK VINA RESULT:      -2.9     12.256     13.513
REMARK  4 active torsions:
REMARK  status: ('A' for Active; 'I' for Inactive)
REMARK    1  A    between atoms: C1_1  and  C5_5 
REMARK       I    between atoms: C1_1  and  N8_8 
REMARK    2  A    between atoms: C5_5  and  S10_10 
REMARK    3  A    between atoms: C6_6  and  N8_8 
REMARK    4  A    between atoms: C7_7  and  N8_8 
ROOT
HETATM    1  C1  UNL     1     -32.789   6.540   3.301  1.00 20.00     0.229 C 
HETATM    2  N8  UNL     1     -33.485   6.472   4.516  1.00 20.00    -0.348 N 
HETATM    3  O9  UNL     1     -32.639   5.564   2.561  1.00 20.00    -0.273 OA
ENDROOT
BRANCH   2   4
HETATM    4  C6  UNL     1     -33.162   7.333   5.653  1.00 20.00     0.121 C 
HETATM    5  C2  UNL     1     -33.783   8.680   5.500  1.00 20.00     0.026 C 
ENDBRANCH   2   4
BRANCH   2   6
HETATM    6  C7  UNL     1     -34.582   5.538   4.739  1.00 20.00     0.079 C 
HETATM    7  C3  UNL     1     -35.860   6.125   4.160  1.00 20.00     0.032 C 
HETATM    8  C4  UNL     1     -34.709   5.273   6.232  1.00 20.00     0.032 C 
ENDBRANCH   2   6
BRANCH   1   9
HETATM    9  C5  UNL     1     -32.227   7.905   2.943  1.00 20.00     0.173 C 
BRANCH   9  10
HETATM   10  S10 UNL     1     -32.239   8.197   1.156  1.00 20.00    -0.173 SA
HETATM   11  H25 UNL     1     -31.652   9.402   1.202  1.00 20.00     0.102 HD
ENDBRANCH   9  10
ENDBRANCH   1   9
TORSDOF 4
ENDMDL
MODEL 5
REMARK VINA RESULT:      -2.8      2.648      3.905
REMARK  4 active torsions:
REMARK  status: ('A' for Active; 'I' for Inactive)
REMARK    1  A    between atoms: C1_1  and  C5_5 
REMARK       I    between atoms: C1_1  and  N8_8 
REMARK    2  A    between atoms: C5_5  and  S10_10 
REMARK    3  A    between atoms: C6_6  and  N8_8 
REMARK    4  A    between atoms: C7_7  and  N8_8 
ROOT
HETATM    1  C1  UNL     1     -33.820  17.280  -3.679  1.00 20.00     0.229 C 
HETATM    2  N8  UNL     1     -34.383  16.240  -4.432  1.00 20.00    -0.348 N 
HETATM    3  O9  UNL     1     -33.585  18.396  -4.150  1.00 20.00    -0.273 OA
ENDROOT
BRANCH   2   4
HETATM    4  C6  UNL     1     -34.098  14.832  -4.160  1.00 20.00     0.121 C 
HETATM    5  C2  UNL     1     -32.676  14.502  -4.466  1.00 20.00     0.026 C 
ENDBRANCH   2   4
BRANCH   2   6
HETATM    6  C7  UNL     1     -35.295  16.484  -5.543  1.00 20.00     0.079 C 
HETATM    7  C3  UNL     1     -36.377  15.414  -5.542  1.00 20.00     0.032 C 
HETATM    8  C4  UNL     1     -34.502  16.482  -6.841  1.00 20.00     0.032 C 
ENDBRANCH   2   6
BRANCH   1   9
HETATM    9  C5  UNL     1     -33.513  16.947  -2.228  1.00 20.00     0.173 C 
BRANCH   9  10
HETATM   10  S10 UNL     1     -32.601  18.277  -1.405  1.00 20.00    -0.173 SA
HETATM   11  H25 UNL     1     -31.433  17.624  -1.324  1.00 20.00     0.102 HD
ENDBRANCH   9  10
ENDBRANCH   1   9
TORSDOF 4
ENDMDL
MODEL 6
REMARK VINA RESULT:      -2.8      1.873      2.780
REMARK  4 active torsions:
REMARK  status: ('A' for Active; 'I' for Inactive)
REMARK    1  A    between atoms: C1_1  and  C5_5 
REMARK       I    between atoms: C1_1  and  N8_8 
REMARK    2  A    between atoms: C5_5  and  S10_10 
REMARK    3  A    between atoms: C6_6  and  N8_8 
REMARK    4  A    between atoms: C7_7  and  N8_8 
ROOT
HETATM    1  C1  UNL     1     -33.564  16.002  -4.154  1.00 20.00     0.229 C 
HETATM    2  N8  UNL     1     -33.661  17.275  -3.576  1.00 20.00    -0.348 N 
HETATM    3  O9  UNL     1     -32.545  15.310  -4.082  1.00 20.00    -0.273 OA
ENDROOT
BRANCH   2   4
HETATM    4  C6  UNL     1     -34.509  18.327  -4.134  1.00 20.00     0.121 C 
HETATM    5  C2  UNL     1     -33.947  18.848  -5.414  1.00 20.00     0.026 C 
ENDBRANCH   2   4
BRANCH   2   6
HETATM    6  C7  UNL     1     -32.924  17.647  -2.374  1.00 20.00     0.079 C 
HETATM    7  C3  UNL     1     -33.751  17.281  -1.151  1.00 20.00     0.032 C 
HETATM    8  C4  UNL     1     -32.620  19.137  -2.424  1.00 20.00     0.032 C 
ENDBRANCH   2   6
BRANCH   1   9
HETATM    9  C5  UNL     1     -34.805  15.517  -4.884  1.00 20.00     0.173 C 
BRANCH   9  10
HETATM   10  S10 UNL     1     -34.506  15.288  -6.655  1.00 20.00    -0.173 SA
HETATM   11  H25 UNL     1     -35.552  14.479  -6.876  1.00 20.00     0.102 HD
ENDBRANCH   9  10
ENDBRANCH   1   9
TORSDOF 4
ENDMDL
MODEL 7
REMARK VINA RESULT:      -2.8      1.689      2.848
REMARK  4 active torsions:
REMARK  status: ('A' for Active; 'I' for Inactive)
REMARK    1  A    between atoms: C1_1  and  C5_5 
REMARK       I    between atoms: C1_1  and  N8_8 
REMARK    2  A    between atoms: C5_5  and  S10_10 
REMARK    3  A    between atoms: C6_6  and  N8_8 
REMARK    4  A    between atoms: C7_7  and  N8_8 
ROOT
HETATM    1  C1  UNL     1     -35.183  15.777  -6.102  1.00 20.00     0.229 C 
HETATM    2  N8  UNL     1     -34.594  16.374  -4.979  1.00 20.00    -0.348 N 
HETATM    3  O9  UNL     1     -34.582  14.983  -6.830  1.00 20.00    -0.273 OA
ENDROOT
BRANCH   2   4
HETATM    4  C6  UNL     1     -34.980  17.701  -4.504  1.00 20.00     0.121 C 
HETATM    5  C2  UNL     1     -34.405  18.770  -5.370  1.00 20.00     0.026 C 
ENDBRANCH   2   4
BRANCH   2   6
HETATM    6  C7  UNL     1     -33.553  15.715  -4.199  1.00 20.00     0.079 C 
HETATM    7  C3  UNL     1     -33.969  14.278  -3.926  1.00 20.00     0.032 C 
HETATM    8  C4  UNL     1     -33.336  16.494  -2.910  1.00 20.00     0.032 C 
ENDBRANCH   2   6
BRANCH   1   9
HETATM    9  C5  UNL     1     -36.626  16.171  -6.373  1.00 20.00     0.173 C 
BRANCH   9  10
HETATM   10  S10 UNL     1     -36.795  17.116  -7.908  1.00 20.00    -0.173 SA
HETATM   11  H25 UNL     1     -37.925  17.751  -7.563  1.00 20.00     0.102 HD
ENDBRANCH   9  10
ENDBRANCH   1   9
TORSDOF 4
ENDMDL
MODEL 8
REMARK VINA RESULT:      -2.8      2.314      3.627
REMARK  4 active torsions:
REMARK  status: ('A' for Active; 'I' for Inactive)
REMARK    1  A    between atoms: C1_1  and  C5_5 
REMARK       I    between atoms: C1_1  and  N8_8 
REMARK    2  A    between atoms: C5_5  and  S10_10 
REMARK    3  A    between atoms: C6_6  and  N8_8 
REMARK    4  A    between atoms: C7_7  and  N8_8 
ROOT
HETATM    1  C1  UNL     1     -36.837  16.292  -5.760  1.00 20.00     0.229 C 
HETATM    2  N8  UNL     1     -35.534  16.175  -5.259  1.00 20.00    -0.348 N 
HETATM    3  O9  UNL     1     -37.209  15.734  -6.796  1.00 20.00    -0.273 OA
ENDROOT
BRANCH   2   4
HETATM    4  C6  UNL     1     -34.892  17.237  -4.485  1.00 20.00     0.121 C 
HETATM    5  C2  UNL     1     -34.439  18.348  -5.371  1.00 20.00     0.026 C 
ENDBRANCH   2   4
BRANCH   2   6
HETATM    6  C7  UNL     1     -34.718  14.985  -5.471  1.00 20.00     0.079 C 
HETATM    7  C3  UNL     1     -33.834  14.764  -4.252  1.00 20.00     0.032 C 
HETATM    8  C4  UNL     1     -33.896  15.169  -6.738  1.00 20.00     0.032 C 
ENDBRANCH   2   6
BRANCH   1   9
HETATM    9  C5  UNL     1     -37.779  17.159  -4.941  1.00 20.00     0.173 C 
BRANCH   9  10
HETATM   10  S10 UNL     1     -39.304  16.284  -4.509  1.00 20.00    -0.173 SA
HETATM   11  H25 UNL     1     -38.964  15.114  -5.069  1.00 20.00     0.102 HD
ENDBRANCH   9  10
ENDBRANCH   1   9
TORSDOF 4
ENDMDL
MODEL 9
REMARK VINA RESULT:      -2.7      2.198      2.570
REMARK  4 active torsions:
REMARK  status: ('A' for Active; 'I' for Inactive)
REMARK    1  A    between atoms: C1_1  and  C5_5 
REMARK       I    between atoms: C1_1  and  N8_8 
REMARK    2  A    between atoms: C5_5  and  S10_10 
REMARK    3  A    between atoms: C6_6  and  N8_8 
REMARK    4  A    between atoms: C7_7  and  N8_8 
ROOT
HETATM    1  C1  UNL     1     -35.303  18.617  -3.004  1.00 20.00     0.229 C 
HETATM    2  N8  UNL     1     -34.037  18.324  -2.481  1.00 20.00    -0.348 N 
HETATM    3  O9  UNL     1     -36.288  18.835  -2.293  1.00 20.00    -0.273 OA
ENDROOT
BRANCH   2   4
HETATM    4  C6  UNL     1     -33.073  17.479  -3.184  1.00 20.00     0.121 C 
HETATM    5  C2  UNL     1     -33.498  16.049  -3.164  1.00 20.00     0.026 C 
ENDBRANCH   2   4
BRANCH   2   6
HETATM    6  C7  UNL     1     -33.583  18.841  -1.195  1.00 20.00     0.079 C 
HETATM    7  C3  UNL     1     -32.089  19.117  -1.268  1.00 20.00     0.032 C 
HETATM    8  C4  UNL     1     -33.916  17.827  -0.111  1.00 20.00     0.032 C 
ENDBRANCH   2   6
BRANCH   1   9
HETATM    9  C5  UNL     1     -35.393  18.652  -4.521  1.00 20.00     0.173 C 
BRANCH   9  10
HETATM   10  S10 UNL     1     -36.588  17.450  -5.159  1.00 20.00    -0.173 SA
HETATM   11  H25 UNL     1     -36.364  17.697  -6.457  1.00 20.00     0.102 HD
ENDBRANCH   9  10
ENDBRANCH   1   9
TORSDOF 4
ENDMDL
