MODEL 1
REMARK VINA RESULT:      -4.3      0.000      0.000
REMARK  1 active torsions:
REMARK  status: ('A' for Active; 'I' for Inactive)
REMARK    1  A    between atoms: C3_3  and  C8_8 
ROOT
HETATM    1  C1  UNL     1     -31.619  18.365  -0.889  1.00 20.00     0.016 A 
HETATM    2  C2  UNL     1     -31.046  18.767   0.353  1.00 20.00     0.015 A 
HETATM    3  C3  UNL     1     -32.981  18.182  -0.796  1.00 20.00    -0.012 A 
HETATM    4  C4  UNL     1     -31.993  18.875   1.348  1.00 20.00    -0.021 A 
HETATM    5  C10 UNL     1     -31.802  19.263   2.762  1.00 20.00     0.056 C 
HETATM    6  S11 UNL     1     -33.564  18.493   0.785  1.00 20.00    -0.099 SA
ENDROOT
BRANCH   3   7
HETATM    7  C8  UNL     1     -33.950  17.761  -1.878  1.00 20.00     0.040 C 
HETATM    8  C6  UNL     1     -35.085  18.776  -2.093  1.00 20.00     0.011 C 
HETATM    9  C5  UNL     1     -35.487  18.571  -3.545  1.00 20.00     0.002 C 
HETATM   10  C7  UNL     1     -34.149  18.397  -4.248  1.00 20.00     0.016 C 
HETATM   11  C9  UNL     1     -33.298  17.591  -3.267  1.00 20.00     0.067 C 
HETATM   12 BR12 UNL     1     -33.311  15.699  -3.782  1.00 20.00    -0.090 Br
ENDBRANCH   3   7
TORSDOF 1
ENDMDL
MODEL 2
REMARK VINA RESULT:      -4.2      2.779      5.170
REMARK  1 active torsions:
REMARK  status: ('A' for Active; 'I' for Inactive)
REMARK    1  A    between atoms: C3_3  and  C8_8 
ROOT
HETATM    1  C1  UNL     1     -33.280  15.889  -3.048  1.00 20.00     0.016 A 
HETATM    2  C2  UNL     1     -33.522  15.171  -4.255  1.00 20.00     0.015 A 
HETATM    3  C3  UNL     1     -33.772  17.175  -3.103  1.00 20.00    -0.012 A 
HETATM    4  C4  UNL     1     -34.188  15.936  -5.188  1.00 20.00    -0.021 A 
HETATM    5  C10 UNL     1     -34.618  15.558  -6.551  1.00 20.00     0.056 C 
HETATM    6  S11 UNL     1     -34.520  17.512  -4.606  1.00 20.00    -0.099 SA
ENDROOT
BRANCH   3   7
HETATM    7  C8  UNL     1     -33.721  18.249  -2.039  1.00 20.00     0.040 C 
HETATM    8  C6  UNL     1     -35.112  18.785  -1.663  1.00 20.00     0.011 C 
HETATM    9  C5  UNL     1     -34.943  19.263  -0.229  1.00 20.00     0.002 C 
HETATM   10  C7  UNL     1     -34.084  18.172   0.395  1.00 20.00     0.016 C 
HETATM   11  C9  UNL     1     -33.102  17.775  -0.705  1.00 20.00     0.067 C 
HETATM   12 BR12 UNL     1     -31.385  18.676  -0.413  1.00 20.00    -0.090 Br
ENDBRANCH   3   7
TORSDOF 1
ENDMDL
MODEL 3
REMARK VINA RESULT:      -4.0      1.811      2.395
REMARK  1 active torsions:
REMARK  status: ('A' for Active; 'I' for Inactive)
REMARK    1  A    between atoms: C3_3  and  C8_8 
ROOT
HETATM    1  C1  UNL     1     -34.088  17.837  -0.679  1.00 20.00     0.016 A 
HETATM    2  C2  UNL     1     -33.661  18.268   0.610  1.00 20.00     0.015 A 
HETATM    3  C3  UNL     1     -33.042  17.765  -1.574  1.00 20.00    -0.012 A 
HETATM    4  C4  UNL     1     -32.304  18.510   0.652  1.00 20.00    -0.021 A 
HETATM    5  C10 UNL     1     -31.486  18.966   1.796  1.00 20.00     0.056 C 
HETATM    6  S11 UNL     1     -31.553  18.216  -0.858  1.00 20.00    -0.099 SA
ENDROOT
BRANCH   3   7
HETATM    7  C8  UNL     1     -33.075  17.353  -3.029  1.00 20.00     0.040 C 
HETATM    8  C6  UNL     1     -33.280  15.840  -3.218  1.00 20.00     0.011 C 
HETATM    9  C5  UNL     1     -33.950  15.732  -4.579  1.00 20.00     0.002 C 
HETATM   10  C7  UNL     1     -34.941  16.886  -4.565  1.00 20.00     0.016 C 
HETATM   11  C9  UNL     1     -34.213  18.014  -3.838  1.00 20.00     0.067 C 
HETATM   12 BR12 UNL     1     -33.457  19.263  -5.147  1.00 20.00    -0.090 Br
ENDBRANCH   3   7
TORSDOF 1
ENDMDL
MODEL 4
REMARK VINA RESULT:      -3.9      3.067      4.218
REMARK  1 active torsions:
REMARK  status: ('A' for Active; 'I' for Inactive)
REMARK    1  A    between atoms: C3_3  and  C8_8 
ROOT
HETATM    1  C1  UNL     1     -33.377  16.317  -3.032  1.00 20.00     0.016 A 
HETATM    2  C2  UNL     1     -33.436  17.069  -1.823  1.00 20.00     0.015 A 
HETATM    3  C3  UNL     1     -34.180  16.854  -4.015  1.00 20.00    -0.012 A 
HETATM    4  C4  UNL     1     -34.284  18.151  -1.927  1.00 20.00    -0.021 A 
HETATM    5  C10 UNL     1     -34.612  19.164  -0.901  1.00 20.00     0.056 C 
HETATM    6  S11 UNL     1     -35.002  18.257  -3.477  1.00 20.00    -0.099 SA
ENDROOT
BRANCH   3   7
HETATM    7  C8  UNL     1     -34.395  16.359  -5.428  1.00 20.00     0.040 C 
HETATM    8  C6  UNL     1     -35.014  14.952  -5.482  1.00 20.00     0.011 C 
HETATM    9  C5  UNL     1     -35.753  14.931  -6.811  1.00 20.00     0.002 C 
HETATM   10  C7  UNL     1     -36.391  16.311  -6.868  1.00 20.00     0.016 C 
HETATM   11  C9  UNL     1     -35.348  17.246  -6.260  1.00 20.00     0.067 C 
HETATM   12 BR12 UNL     1     -34.346  18.137  -7.690  1.00 20.00    -0.090 Br
ENDBRANCH   3   7
TORSDOF 1
ENDMDL
MODEL 5
REMARK VINA RESULT:      -3.8      2.275      3.438
REMARK  1 active torsions:
REMARK  status: ('A' for Active; 'I' for Inactive)
REMARK    1  A    between atoms: C3_3  and  C8_8 
ROOT
HETATM    1  C1  UNL     1     -35.231  18.735  -2.696  1.00 20.00     0.016 A 
HETATM    2  C2  UNL     1     -35.277  19.262  -1.373  1.00 20.00     0.015 A 
HETATM    3  C3  UNL     1     -34.249  17.779  -2.838  1.00 20.00    -0.012 A 
HETATM    4  C4  UNL     1     -34.327  18.691  -0.554  1.00 20.00    -0.021 A 
HETATM    5  C10 UNL     1     -34.057  18.965   0.873  1.00 20.00     0.056 C 
HETATM    6  S11 UNL     1     -33.387  17.522  -1.381  1.00 20.00    -0.099 SA
ENDROOT
BRANCH   3   7
HETATM    7  C8  UNL     1     -33.879  16.986  -4.072  1.00 20.00     0.040 C 
HETATM    8  C6  UNL     1     -33.355  15.578  -3.743  1.00 20.00     0.011 C 
HETATM    9  C5  UNL     1     -33.696  14.764  -4.982  1.00 20.00     0.002 C 
HETATM   10  C7  UNL     1     -35.089  15.259  -5.341  1.00 20.00     0.016 C 
HETATM   11  C9  UNL     1     -35.059  16.756  -5.042  1.00 20.00     0.067 C 
HETATM   12 BR12 UNL     1     -34.759  17.755  -6.702  1.00 20.00    -0.090 Br
ENDBRANCH   3   7
TORSDOF 1
ENDMDL
MODEL 6
REMARK VINA RESULT:      -3.7      2.530      3.578
REMARK  1 active torsions:
REMARK  status: ('A' for Active; 'I' for Inactive)
REMARK    1  A    between atoms: C3_3  and  C8_8 
ROOT
HETATM    1  C1  UNL     1     -33.246  16.774  -2.941  1.00 20.00     0.016 A 
HETATM    2  C2  UNL     1     -33.016  17.414  -1.689  1.00 20.00     0.015 A 
HETATM    3  C3  UNL     1     -34.356  17.278  -3.584  1.00 20.00    -0.012 A 
HETATM    4  C4  UNL     1     -33.960  18.383  -1.422  1.00 20.00    -0.021 A 
HETATM    5  C10 UNL     1     -34.066  19.262  -0.238  1.00 20.00     0.056 C 
HETATM    6  S11 UNL     1     -35.115  18.517  -2.679  1.00 20.00    -0.099 SA
ENDROOT
BRANCH   3   7
HETATM    7  C8  UNL     1     -34.933  16.872  -4.923  1.00 20.00     0.040 C 
HETATM    8  C6  UNL     1     -34.468  17.781  -6.074  1.00 20.00     0.011 C 
HETATM    9  C5  UNL     1     -34.545  16.883  -7.299  1.00 20.00     0.002 C 
HETATM   10  C7  UNL     1     -34.004  15.557  -6.785  1.00 20.00     0.016 C 
HETATM   11  C9  UNL     1     -34.546  15.443  -5.361  1.00 20.00     0.067 C 
HETATM   12 BR12 UNL     1     -36.133  14.292  -5.349  1.00 20.00    -0.090 Br
ENDBRANCH   3   7
TORSDOF 1
ENDMDL
MODEL 7
REMARK VINA RESULT:      -3.7      2.432      3.444
REMARK  1 active torsions:
REMARK  status: ('A' for Active; 'I' for Inactive)
REMARK    1  A    between atoms: C3_3  and  C8_8 
ROOT
HETATM    1  C1  UNL     1     -32.485  19.246   2.616  1.00 20.00     0.016 A 
HETATM    2  C2  UNL     1     -31.548  19.209   3.690  1.00 20.00     0.015 A 
HETATM    3  C3  UNL     1     -31.883  19.030   1.396  1.00 20.00    -0.012 A 
HETATM    4  C4  UNL     1     -30.265  18.967   3.248  1.00 20.00    -0.021 A 
HETATM    5  C10 UNL     1     -29.024  18.854   4.044  1.00 20.00     0.056 C 
HETATM    6  S11 UNL     1     -30.194  18.785   1.547  1.00 20.00    -0.099 SA
ENDROOT
BRANCH   3   7
HETATM    7  C8  UNL     1     -32.522  18.991   0.025  1.00 20.00     0.040 C 
HETATM    8  C6  UNL     1     -31.576  18.449  -1.060  1.00 20.00     0.011 C 
HETATM    9  C5  UNL     1     -32.515  17.858  -2.099  1.00 20.00     0.002 C 
HETATM   10  C7  UNL     1     -33.570  17.165  -1.249  1.00 20.00     0.016 C 
HETATM   11  C9  UNL     1     -33.775  18.091  -0.052  1.00 20.00     0.067 C 
HETATM   12 BR12 UNL     1     -35.369  19.197  -0.338  1.00 20.00    -0.090 Br
ENDBRANCH   3   7
TORSDOF 1
ENDMDL
MODEL 8
REMARK VINA RESULT:      -3.6      2.998      4.245
REMARK  1 active torsions:
REMARK  status: ('A' for Active; 'I' for Inactive)
REMARK    1  A    between atoms: C3_3  and  C8_8 
ROOT
HETATM    1  C1  UNL     1     -33.687  16.380  -3.698  1.00 20.00     0.016 A 
HETATM    2  C2  UNL     1     -33.220  16.650  -2.379  1.00 20.00     0.015 A 
HETATM    3  C3  UNL     1     -34.692  17.242  -4.079  1.00 20.00    -0.012 A 
HETATM    4  C4  UNL     1     -33.888  17.707  -1.800  1.00 20.00    -0.021 A 
HETATM    5  C10 UNL     1     -33.698  18.291  -0.455  1.00 20.00     0.056 C 
HETATM    6  S11 UNL     1     -35.071  18.370  -2.847  1.00 20.00    -0.099 SA
ENDROOT
BRANCH   3   7
HETATM    7  C8  UNL     1     -35.446  17.288  -5.389  1.00 20.00     0.040 C 
HETATM    8  C6  UNL     1     -34.516  17.324  -6.614  1.00 20.00     0.011 C 
HETATM    9  C5  UNL     1     -35.347  16.694  -7.720  1.00 20.00     0.002 C 
HETATM   10  C7  UNL     1     -36.033  15.534  -7.013  1.00 20.00     0.016 C 
HETATM   11  C9  UNL     1     -36.366  16.070  -5.622  1.00 20.00     0.067 C 
HETATM   12 BR12 UNL     1     -38.243  16.634  -5.565  1.00 20.00    -0.090 Br
ENDBRANCH   3   7
TORSDOF 1
ENDMDL
MODEL 9
REMARK VINA RESULT:      -3.4     12.068     13.367
REMARK  1 active torsions:
REMARK  status: ('A' for Active; 'I' for Inactive)
REMARK    1  A    between atoms: C3_3  and  C8_8 
ROOT
HETATM    1  C1  UNL     1     -41.559  14.019   5.948  1.00 20.00     0.016 A 
HETATM    2  C2  UNL     1     -41.078  13.343   4.790  1.00 20.00     0.015 A 
HETATM    3  C3  UNL     1     -40.843  13.685   7.077  1.00 20.00    -0.012 A 
HETATM    4  C4  UNL     1     -40.013  12.517   5.077  1.00 20.00    -0.021 A 
HETATM    5  C10 UNL     1     -39.242  11.654   4.156  1.00 20.00     0.056 C 
HETATM    6  S11 UNL     1     -39.597  12.560   6.738  1.00 20.00    -0.099 SA
ENDROOT
BRANCH   3   7
HETATM    7  C8  UNL     1     -41.034  14.180   8.494  1.00 20.00     0.040 C 
HETATM    8  C6  UNL     1     -40.233  15.458   8.794  1.00 20.00     0.011 C 
HETATM    9  C5  UNL     1     -41.033  16.139   9.893  1.00 20.00     0.002 C 
HETATM   10  C7  UNL     1     -42.472  15.938   9.442  1.00 20.00     0.016 C 
HETATM   11  C9  UNL     1     -42.498  14.536   8.837  1.00 20.00     0.067 C 
HETATM   12 BR12 UNL     1     -43.200  13.263  10.151  1.00 20.00    -0.090 Br
ENDBRANCH   3   7
TORSDOF 1
ENDMDL
