MODEL 1
REMARK VINA RESULT:      -4.1      0.000      0.000
REMARK  1 active torsions:
REMARK  status: ('A' for Active; 'I' for Inactive)
REMARK    1  A    between atoms: C3_3  and  C8_8 
ROOT
HETATM    1  C1  UNL     1     -33.932  18.140  -0.088  1.00 20.00     0.016 A 
HETATM    2  C2  UNL     1     -33.436  18.566   1.178  1.00 20.00     0.015 A 
HETATM    3  C3  UNL     1     -32.936  18.078  -1.038  1.00 20.00    -0.012 A 
HETATM    4  C4  UNL     1     -32.081  18.811   1.148  1.00 20.00    -0.021 A 
HETATM    5  C10 UNL     1     -31.203  19.263   2.249  1.00 20.00     0.056 C 
HETATM    6  S11 UNL     1     -31.411  18.529  -0.402  1.00 20.00    -0.099 SA
ENDROOT
BRANCH   3   7
HETATM    7  C8  UNL     1     -33.046  17.675  -2.493  1.00 20.00     0.040 C 
HETATM    8  C6  UNL     1     -33.596  16.275  -2.814  1.00 20.00     0.011 C 
HETATM    9  C5  UNL     1     -33.962  16.317  -4.298  1.00 20.00     0.002 C 
HETATM   10  C7  UNL     1     -33.997  17.794  -4.699  1.00 20.00     0.016 C 
HETATM   11  C9  UNL     1     -33.895  18.581  -3.398  1.00 20.00     0.067 C 
HETATM   12 BR12 UNL     1     -35.693  18.887  -2.682  1.00 20.00    -0.090 Br
ENDBRANCH   3   7
TORSDOF 1
ENDMDL
MODEL 2
REMARK VINA RESULT:      -4.1      2.511      3.856
REMARK  1 active torsions:
REMARK  status: ('A' for Active; 'I' for Inactive)
REMARK    1  A    between atoms: C3_3  and  C8_8 
ROOT
HETATM    1  C1  UNL     1     -33.759  16.037  -3.438  1.00 20.00     0.016 A 
HETATM    2  C2  UNL     1     -33.219  16.722  -2.311  1.00 20.00     0.015 A 
HETATM    3  C3  UNL     1     -34.001  16.889  -4.493  1.00 20.00    -0.012 A 
HETATM    4  C4  UNL     1     -33.067  18.070  -2.548  1.00 20.00    -0.021 A 
HETATM    5  C10 UNL     1     -32.541  19.111  -1.639  1.00 20.00     0.056 C 
HETATM    6  S11 UNL     1     -33.575  18.506  -4.124  1.00 20.00    -0.099 SA
ENDROOT
BRANCH   3   7
HETATM    7  C8  UNL     1     -34.567  16.561  -5.858  1.00 20.00     0.040 C 
HETATM    8  C6  UNL     1     -35.012  15.113  -6.125  1.00 20.00     0.011 C 
HETATM    9  C5  UNL     1     -35.881  15.185  -7.381  1.00 20.00     0.002 C 
HETATM   10  C7  UNL     1     -36.244  16.659  -7.580  1.00 20.00     0.016 C 
HETATM   11  C9  UNL     1     -35.788  17.374  -6.313  1.00 20.00     0.067 C 
HETATM   12 BR12 UNL     1     -37.240  17.349  -4.997  1.00 20.00    -0.090 Br
ENDBRANCH   3   7
TORSDOF 1
ENDMDL
MODEL 3
REMARK VINA RESULT:      -4.0      2.118      3.466
REMARK  1 active torsions:
REMARK  status: ('A' for Active; 'I' for Inactive)
REMARK    1  A    between atoms: C3_3  and  C8_8 
ROOT
HETATM    1  C1  UNL     1     -33.469  18.749  -4.290  1.00 20.00     0.016 A 
HETATM    2  C2  UNL     1     -32.904  19.208  -3.066  1.00 20.00     0.015 A 
HETATM    3  C3  UNL     1     -33.784  17.408  -4.243  1.00 20.00    -0.012 A 
HETATM    4  C4  UNL     1     -32.809  18.202  -2.129  1.00 20.00    -0.021 A 
HETATM    5  C10 UNL     1     -32.284  18.277  -0.748  1.00 20.00     0.056 C 
HETATM    6  S11 UNL     1     -33.401  16.711  -2.727  1.00 20.00    -0.099 SA
ENDROOT
BRANCH   3   7
HETATM    7  C8  UNL     1     -34.398  16.546  -5.326  1.00 20.00     0.040 C 
HETATM    8  C6  UNL     1     -34.846  15.125  -4.948  1.00 20.00     0.011 C 
HETATM    9  C5  UNL     1     -35.760  14.675  -6.088  1.00 20.00     0.002 C 
HETATM   10  C7  UNL     1     -36.137  15.935  -6.871  1.00 20.00     0.016 C 
HETATM   11  C9  UNL     1     -35.639  17.109  -6.035  1.00 20.00     0.067 C 
HETATM   12 BR12 UNL     1     -37.042  17.651  -4.779  1.00 20.00    -0.090 Br
ENDBRANCH   3   7
TORSDOF 1
ENDMDL
MODEL 4
REMARK VINA RESULT:      -3.9      2.784      4.096
REMARK  1 active torsions:
REMARK  status: ('A' for Active; 'I' for Inactive)
REMARK    1  A    between atoms: C3_3  and  C8_8 
ROOT
HETATM    1  C1  UNL     1     -33.623  16.492  -3.813  1.00 20.00     0.016 A 
HETATM    2  C2  UNL     1     -33.204  16.667  -2.462  1.00 20.00     0.015 A 
HETATM    3  C3  UNL     1     -34.638  17.357  -4.156  1.00 20.00    -0.012 A 
HETATM    4  C4  UNL     1     -33.914  17.661  -1.824  1.00 20.00    -0.021 A 
HETATM    5  C10 UNL     1     -33.778  18.141  -0.432  1.00 20.00     0.056 C 
HETATM    6  S11 UNL     1     -35.081  18.377  -2.853  1.00 20.00    -0.099 SA
ENDROOT
BRANCH   3   7
HETATM    7  C8  UNL     1     -35.354  17.491  -5.482  1.00 20.00     0.040 C 
HETATM    8  C6  UNL     1     -34.514  17.400  -6.767  1.00 20.00     0.011 C 
HETATM    9  C5  UNL     1     -35.523  17.163  -7.892  1.00 20.00     0.002 C 
HETATM   10  C7  UNL     1     -36.831  16.733  -7.223  1.00 20.00     0.016 C 
HETATM   11  C9  UNL     1     -36.490  16.494  -5.757  1.00 20.00     0.067 C 
HETATM   12 BR12 UNL     1     -35.930  14.631  -5.518  1.00 20.00    -0.090 Br
ENDBRANCH   3   7
TORSDOF 1
ENDMDL
MODEL 5
REMARK VINA RESULT:      -3.9      1.494      1.874
REMARK  1 active torsions:
REMARK  status: ('A' for Active; 'I' for Inactive)
REMARK    1  A    between atoms: C3_3  and  C8_8 
ROOT
HETATM    1  C1  UNL     1     -34.120  18.139  -0.454  1.00 20.00     0.016 A 
HETATM    2  C2  UNL     1     -33.315  18.133   0.722  1.00 20.00     0.015 A 
HETATM    3  C3  UNL     1     -33.430  18.612  -1.549  1.00 20.00    -0.012 A 
HETATM    4  C4  UNL     1     -32.042  18.600   0.482  1.00 20.00    -0.021 A 
HETATM    5  C10 UNL     1     -30.919  18.745   1.434  1.00 20.00     0.056 C 
HETATM    6  S11 UNL     1     -31.820  19.044  -1.157  1.00 20.00    -0.099 SA
ENDROOT
BRANCH   3   7
HETATM    7  C8  UNL     1     -33.920  18.776  -2.972  1.00 20.00     0.040 C 
HETATM    8  C6  UNL     1     -32.915  19.263  -4.029  1.00 20.00     0.011 C 
HETATM    9  C5  UNL     1     -33.562  18.944  -5.377  1.00 20.00     0.002 C 
HETATM   10  C7  UNL     1     -34.696  17.955  -5.095  1.00 20.00     0.016 C 
HETATM   11  C9  UNL     1     -34.529  17.534  -3.639  1.00 20.00     0.067 C 
HETATM   12 BR12 UNL     1     -33.348  15.975  -3.547  1.00 20.00    -0.090 Br
ENDBRANCH   3   7
TORSDOF 1
ENDMDL
MODEL 6
REMARK VINA RESULT:      -3.7     11.732     12.691
REMARK  1 active torsions:
REMARK  status: ('A' for Active; 'I' for Inactive)
REMARK    1  A    between atoms: C3_3  and  C8_8 
ROOT
HETATM    1  C1  UNL     1     -40.420  14.391   9.476  1.00 20.00     0.016 A 
HETATM    2  C2  UNL     1     -40.686  15.276  10.561  1.00 20.00     0.015 A 
HETATM    3  C3  UNL     1     -40.639  14.991   8.255  1.00 20.00    -0.012 A 
HETATM    4  C4  UNL     1     -41.095  16.518  10.129  1.00 20.00    -0.021 A 
HETATM    5  C10 UNL     1     -41.460  17.700  10.938  1.00 20.00     0.056 C 
HETATM    6  S11 UNL     1     -41.159  16.614   8.420  1.00 20.00    -0.099 SA
ENDROOT
BRANCH   3   7
HETATM    7  C8  UNL     1     -40.474  14.399   6.872  1.00 20.00     0.040 C 
HETATM    8  C6  UNL     1     -39.885  12.983   6.759  1.00 20.00     0.011 C 
HETATM    9  C5  UNL     1     -40.215  12.522   5.339  1.00 20.00     0.002 C 
HETATM   10  C7  UNL     1     -41.293  13.470   4.810  1.00 20.00     0.016 C 
HETATM   11  C9  UNL     1     -41.739  14.303   6.007  1.00 20.00     0.067 C 
HETATM   12 BR12 UNL     1     -43.208  13.385   6.923  1.00 20.00    -0.090 Br
ENDBRANCH   3   7
TORSDOF 1
ENDMDL
MODEL 7
REMARK VINA RESULT:      -3.7     11.164     13.067
REMARK  1 active torsions:
REMARK  status: ('A' for Active; 'I' for Inactive)
REMARK    1  A    between atoms: C3_3  and  C8_8 
ROOT
HETATM    1  C1  UNL     1     -41.867  14.149   5.893  1.00 20.00     0.016 A 
HETATM    2  C2  UNL     1     -41.309  13.404   4.814  1.00 20.00     0.015 A 
HETATM    3  C3  UNL     1     -41.161  13.971   7.063  1.00 20.00    -0.012 A 
HETATM    4  C4  UNL     1     -40.198  12.686   5.199  1.00 20.00    -0.021 A 
HETATM    5  C10 UNL     1     -39.345  11.800   4.379  1.00 20.00     0.056 C 
HETATM    6  S11 UNL     1     -39.831  12.912   6.857  1.00 20.00    -0.099 SA
ENDROOT
BRANCH   3   7
HETATM    7  C8  UNL     1     -41.424  14.580   8.424  1.00 20.00     0.040 C 
HETATM    8  C6  UNL     1     -40.260  14.632   9.428  1.00 20.00     0.011 C 
HETATM    9  C5  UNL     1     -40.699  15.628  10.501  1.00 20.00     0.002 C 
HETATM   10  C7  UNL     1     -41.880  16.408   9.918  1.00 20.00     0.016 C 
HETATM   11  C9  UNL     1     -41.946  16.024   8.444  1.00 20.00     0.067 C 
HETATM   12 BR12 UNL     1     -40.819  17.245   7.405  1.00 20.00    -0.090 Br
ENDBRANCH   3   7
TORSDOF 1
ENDMDL
MODEL 8
REMARK VINA RESULT:      -3.5     11.500     13.247
REMARK  1 active torsions:
REMARK  status: ('A' for Active; 'I' for Inactive)
REMARK    1  A    between atoms: C3_3  and  C8_8 
ROOT
HETATM    1  C1  UNL     1     -41.409  14.229   5.962  1.00 20.00     0.016 A 
HETATM    2  C2  UNL     1     -41.137  13.303   4.914  1.00 20.00     0.015 A 
HETATM    3  C3  UNL     1     -40.519  14.104   7.006  1.00 20.00    -0.012 A 
HETATM    4  C4  UNL     1     -40.049  12.507   5.196  1.00 20.00    -0.021 A 
HETATM    5  C10 UNL     1     -39.453  11.436   4.368  1.00 20.00     0.056 C 
HETATM    6  S11 UNL     1     -39.360  12.876   6.719  1.00 20.00    -0.099 SA
ENDROOT
BRANCH   3   7
HETATM    7  C8  UNL     1     -40.464  14.893   8.297  1.00 20.00     0.040 C 
HETATM    8  C6  UNL     1     -41.093  16.296   8.312  1.00 20.00     0.011 C 
HETATM    9  C5  UNL     1     -41.244  16.654   9.790  1.00 20.00     0.002 C 
HETATM   10  C7  UNL     1     -41.084  15.350  10.575  1.00 20.00     0.016 C 
HETATM   11  C9  UNL     1     -41.089  14.235   9.535  1.00 20.00     0.067 C 
HETATM   12 BR12 UNL     1     -42.932  13.647   9.225  1.00 20.00    -0.090 Br
ENDBRANCH   3   7
TORSDOF 1
ENDMDL
MODEL 9
REMARK VINA RESULT:      -3.5     12.133     13.866
REMARK  1 active torsions:
REMARK  status: ('A' for Active; 'I' for Inactive)
REMARK    1  A    between atoms: C3_3  and  C8_8 
ROOT
HETATM    1  C1  UNL     1     -40.422  13.356   6.861  1.00 20.00     0.016 A 
HETATM    2  C2  UNL     1     -41.009  13.261   5.567  1.00 20.00     0.015 A 
HETATM    3  C3  UNL     1     -40.859  14.469   7.546  1.00 20.00    -0.012 A 
HETATM    4  C4  UNL     1     -41.873  14.304   5.312  1.00 20.00    -0.021 A 
HETATM    5  C10 UNL     1     -42.672  14.560   4.094  1.00 20.00     0.056 C 
HETATM    6  S11 UNL     1     -41.973  15.391   6.630  1.00 20.00    -0.099 SA
ENDROOT
BRANCH   3   7
HETATM    7  C8  UNL     1     -40.479  14.927   8.938  1.00 20.00     0.040 C 
HETATM    8  C6  UNL     1     -40.973  16.307   9.403  1.00 20.00     0.011 C 
HETATM    9  C5  UNL     1     -40.792  16.309  10.921  1.00 20.00     0.002 C 
HETATM   10  C7  UNL     1     -40.587  14.852  11.340  1.00 20.00     0.016 C 
HETATM   11  C9  UNL     1     -40.895  14.016  10.102  1.00 20.00     0.067 C 
HETATM   12 BR12 UNL     1     -42.805  13.581  10.073  1.00 20.00    -0.090 Br
ENDBRANCH   3   7
TORSDOF 1
ENDMDL
