MODEL 1
REMARK VINA RESULT:      -3.8      0.000      0.000
REMARK  5 active torsions:
REMARK  status: ('A' for Active; 'I' for Inactive)
REMARK    1  A    between atoms: C3_3  and  C5_5 
REMARK    2  A    between atoms: C3_3  and  C7_7 
REMARK    3  A    between atoms: C4_4  and  C6_6 
REMARK    4  A    between atoms: C4_4  and  C7_7 
REMARK    5  A    between atoms: C5_5  and  S8_8 
ROOT
HETATM    1  C1  UNL     1     -34.425   4.941   6.727  1.00 20.00     0.010 C 
HETATM    2  C7  UNL     1     -34.747   6.183   5.887  1.00 20.00    -0.017 C 
ENDROOT
BRANCH   2   3
HETATM    3  C3  UNL     1     -33.717   7.308   6.128  1.00 20.00     0.014 C 
BRANCH   3   4
HETATM    4  C5  UNL     1     -33.668   8.376   5.035  1.00 20.00     0.073 C 
BRANCH   4   5
HETATM    5  S8  UNL     1     -32.061   8.340   4.185  1.00 20.00    -0.173 SA
HETATM    6  C2  UNL     1     -32.629   8.800   2.532  1.00 20.00     0.089 C 
ENDBRANCH   4   5
ENDBRANCH   3   4
ENDBRANCH   2   3
BRANCH   2   7
HETATM    7  C4  UNL     1     -34.909   5.775   4.406  1.00 20.00     0.019 C 
BRANCH   7   8
HETATM    8  C6  UNL     1     -34.005   4.642   3.924  1.00 20.00     0.115 C 
HETATM    9 CL9  UNL     1     -32.924   5.158   2.610  1.00 20.00    -0.130 Cl
ENDBRANCH   7   8
ENDBRANCH   2   7
TORSDOF 5
ENDMDL
MODEL 2
REMARK VINA RESULT:      -3.6      2.317      3.991
REMARK  5 active torsions:
REMARK  status: ('A' for Active; 'I' for Inactive)
REMARK    1  A    between atoms: C3_3  and  C5_5 
REMARK    2  A    between atoms: C3_3  and  C7_7 
REMARK    3  A    between atoms: C4_4  and  C6_6 
REMARK    4  A    between atoms: C4_4  and  C7_7 
REMARK    5  A    between atoms: C5_5  and  S8_8 
ROOT
HETATM    1  C1  UNL     1     -32.093   9.275   4.916  1.00 20.00     0.010 C 
HETATM    2  C7  UNL     1     -32.494   7.889   4.396  1.00 20.00    -0.017 C 
ENDROOT
BRANCH   2   3
HETATM    3  C3  UNL     1     -33.917   7.506   4.857  1.00 20.00     0.014 C 
BRANCH   3   4
HETATM    4  C5  UNL     1     -34.016   7.044   6.311  1.00 20.00     0.073 C 
BRANCH   4   5
HETATM    5  S8  UNL     1     -34.518   5.299   6.390  1.00 20.00    -0.173 SA
HETATM    6  C2  UNL     1     -34.577   4.964   4.615  1.00 20.00     0.089 C 
ENDBRANCH   4   5
ENDBRANCH   3   4
ENDBRANCH   2   3
BRANCH   2   7
HETATM    7  C4  UNL     1     -32.283   7.831   2.867  1.00 20.00     0.019 C 
BRANCH   7   8
HETATM    8  C6  UNL     1     -32.701   9.077   2.089  1.00 20.00     0.115 C 
HETATM    9 CL9  UNL     1     -32.490   8.874   0.335  1.00 20.00    -0.130 Cl
ENDBRANCH   7   8
ENDBRANCH   2   7
TORSDOF 5
ENDMDL
MODEL 3
REMARK VINA RESULT:      -3.4      1.840      3.511
REMARK  5 active torsions:
REMARK  status: ('A' for Active; 'I' for Inactive)
REMARK    1  A    between atoms: C3_3  and  C5_5 
REMARK    2  A    between atoms: C3_3  and  C7_7 
REMARK    3  A    between atoms: C4_4  and  C6_6 
REMARK    4  A    between atoms: C4_4  and  C7_7 
REMARK    5  A    between atoms: C5_5  and  S8_8 
ROOT
HETATM    1  C1  UNL     1     -31.892   9.301   5.196  1.00 20.00     0.010 C 
HETATM    2  C7  UNL     1     -32.631   8.130   4.537  1.00 20.00    -0.017 C 
ENDROOT
BRANCH   2   3
HETATM    3  C3  UNL     1     -34.011   7.898   5.189  1.00 20.00     0.014 C 
BRANCH   3   4
HETATM    4  C5  UNL     1     -33.985   7.040   6.455  1.00 20.00     0.073 C 
BRANCH   4   5
HETATM    5  S8  UNL     1     -34.538   5.348   6.087  1.00 20.00    -0.173 SA
HETATM    6  C2  UNL     1     -35.484   5.703   4.589  1.00 20.00     0.089 C 
ENDBRANCH   4   5
ENDBRANCH   3   4
ENDBRANCH   2   3
BRANCH   2   7
HETATM    7  C4  UNL     1     -32.678   8.345   3.009  1.00 20.00     0.019 C 
BRANCH   7   8
HETATM    8  C6  UNL     1     -32.101   7.214   2.159  1.00 20.00     0.115 C 
HETATM    9 CL9  UNL     1     -32.698   5.619   2.670  1.00 20.00    -0.130 Cl
ENDBRANCH   7   8
ENDBRANCH   2   7
TORSDOF 5
ENDMDL
MODEL 4
REMARK VINA RESULT:      -3.2     12.568     13.472
REMARK  5 active torsions:
REMARK  status: ('A' for Active; 'I' for Inactive)
REMARK    1  A    between atoms: C3_3  and  C5_5 
REMARK    2  A    between atoms: C3_3  and  C7_7 
REMARK    3  A    between atoms: C4_4  and  C6_6 
REMARK    4  A    between atoms: C4_4  and  C7_7 
REMARK    5  A    between atoms: C5_5  and  S8_8 
ROOT
HETATM    1  C1  UNL     1     -33.348  18.289  -3.781  1.00 20.00     0.010 C 
HETATM    2  C7  UNL     1     -33.746  17.010  -3.035  1.00 20.00    -0.017 C 
ENDROOT
BRANCH   2   3
HETATM    3  C3  UNL     1     -33.006  15.777  -3.598  1.00 20.00     0.014 C 
BRANCH   3   4
HETATM    4  C5  UNL     1     -33.909  14.733  -4.257  1.00 20.00     0.073 C 
BRANCH   4   5
HETATM    5  S8  UNL     1     -34.201  15.157  -6.000  1.00 20.00    -0.173 SA
HETATM    6  C2  UNL     1     -35.991  14.912  -6.033  1.00 20.00     0.089 C 
ENDBRANCH   4   5
ENDBRANCH   3   4
ENDBRANCH   2   3
BRANCH   2   7
HETATM    7  C4  UNL     1     -33.567  17.221  -1.517  1.00 20.00     0.019 C 
BRANCH   7   8
HETATM    8  C6  UNL     1     -32.966  18.562  -1.096  1.00 20.00     0.115 C 
HETATM    9 CL9  UNL     1     -31.299  18.393  -0.501  1.00 20.00    -0.130 Cl
ENDBRANCH   7   8
ENDBRANCH   2   7
TORSDOF 5
ENDMDL
MODEL 5
REMARK VINA RESULT:      -3.2     12.524     13.371
REMARK  5 active torsions:
REMARK  status: ('A' for Active; 'I' for Inactive)
REMARK    1  A    between atoms: C3_3  and  C5_5 
REMARK    2  A    between atoms: C3_3  and  C7_7 
REMARK    3  A    between atoms: C4_4  and  C6_6 
REMARK    4  A    between atoms: C4_4  and  C7_7 
REMARK    5  A    between atoms: C5_5  and  S8_8 
ROOT
HETATM    1  C1  UNL     1     -32.766  19.087  -2.689  1.00 20.00     0.010 C 
HETATM    2  C7  UNL     1     -33.453  18.084  -1.755  1.00 20.00    -0.017 C 
ENDROOT
BRANCH   2   3
HETATM    3  C3  UNL     1     -33.400  16.652  -2.330  1.00 20.00     0.014 C 
BRANCH   3   4
HETATM    4  C5  UNL     1     -33.659  16.556  -3.834  1.00 20.00     0.073 C 
BRANCH   4   5
HETATM    5  S8  UNL     1     -33.764  14.816  -4.350  1.00 20.00    -0.173 SA
HETATM    6  C2  UNL     1     -34.069  15.083  -6.111  1.00 20.00     0.089 C 
ENDBRANCH   4   5
ENDBRANCH   3   4
ENDBRANCH   2   3
BRANCH   2   7
HETATM    7  C4  UNL     1     -32.869  18.221  -0.332  1.00 20.00     0.019 C 
BRANCH   7   8
HETATM    8  C6  UNL     1     -31.384  18.572  -0.252  1.00 20.00     0.115 C 
HETATM    9 CL9  UNL     1     -30.701  18.237   1.355  1.00 20.00    -0.130 Cl
ENDBRANCH   7   8
ENDBRANCH   2   7
TORSDOF 5
ENDMDL
MODEL 6
REMARK VINA RESULT:      -3.2      1.163      1.396
REMARK  5 active torsions:
REMARK  status: ('A' for Active; 'I' for Inactive)
REMARK    1  A    between atoms: C3_3  and  C5_5 
REMARK    2  A    between atoms: C3_3  and  C7_7 
REMARK    3  A    between atoms: C4_4  and  C6_6 
REMARK    4  A    between atoms: C4_4  and  C7_7 
REMARK    5  A    between atoms: C5_5  and  S8_8 
ROOT
HETATM    1  C1  UNL     1     -34.074   6.553   6.630  1.00 20.00     0.010 C 
HETATM    2  C7  UNL     1     -34.148   7.160   5.223  1.00 20.00    -0.017 C 
ENDROOT
BRANCH   2   3
HETATM    3  C3  UNL     1     -32.779   7.724   4.782  1.00 20.00     0.014 C 
BRANCH   3   4
HETATM    4  C5  UNL     1     -32.845   8.762   3.662  1.00 20.00     0.073 C 
BRANCH   4   5
HETATM    5  S8  UNL     1     -32.214   8.059   2.108  1.00 20.00    -0.173 SA
HETATM    6  C2  UNL     1     -32.725   9.387   0.994  1.00 20.00     0.089 C 
ENDBRANCH   4   5
ENDBRANCH   3   4
ENDBRANCH   2   3
BRANCH   2   7
HETATM    7  C4  UNL     1     -34.756   6.130   4.247  1.00 20.00     0.019 C 
BRANCH   7   8
HETATM    8  C6  UNL     1     -33.968   4.833   4.071  1.00 20.00     0.115 C 
HETATM    9 CL9  UNL     1     -32.969   4.849   2.601  1.00 20.00    -0.130 Cl
ENDBRANCH   7   8
ENDBRANCH   2   7
TORSDOF 5
ENDMDL
MODEL 7
REMARK VINA RESULT:      -3.1     12.297     12.914
REMARK  5 active torsions:
REMARK  status: ('A' for Active; 'I' for Inactive)
REMARK    1  A    between atoms: C3_3  and  C5_5 
REMARK    2  A    between atoms: C3_3  and  C7_7 
REMARK    3  A    between atoms: C4_4  and  C6_6 
REMARK    4  A    between atoms: C4_4  and  C7_7 
REMARK    5  A    between atoms: C5_5  and  S8_8 
ROOT
HETATM    1  C1  UNL     1     -34.170  17.557  -4.340  1.00 20.00     0.010 C 
HETATM    2  C7  UNL     1     -33.325  16.598  -3.492  1.00 20.00    -0.017 C 
ENDROOT
BRANCH   2   3
HETATM    3  C3  UNL     1     -33.448  16.922  -1.986  1.00 20.00     0.014 C 
BRANCH   3   4
HETATM    4  C5  UNL     1     -32.571  18.079  -1.508  1.00 20.00     0.073 C 
BRANCH   4   5
HETATM    5  S8  UNL     1     -32.955  18.493   0.221  1.00 20.00    -0.173 SA
HETATM    6  C2  UNL     1     -31.264  18.554   0.857  1.00 20.00     0.089 C 
ENDBRANCH   4   5
ENDBRANCH   3   4
ENDBRANCH   2   3
BRANCH   2   7
HETATM    7  C4  UNL     1     -33.676  15.140  -3.859  1.00 20.00     0.019 C 
BRANCH   7   8
HETATM    8  C6  UNL     1     -34.147  14.908  -5.293  1.00 20.00     0.115 C 
HETATM    9 CL9  UNL     1     -35.841  14.373  -5.364  1.00 20.00    -0.130 Cl
ENDBRANCH   7   8
ENDBRANCH   2   7
TORSDOF 5
ENDMDL
MODEL 8
REMARK VINA RESULT:      -3.1      2.424      3.942
REMARK  5 active torsions:
REMARK  status: ('A' for Active; 'I' for Inactive)
REMARK    1  A    between atoms: C3_3  and  C5_5 
REMARK    2  A    between atoms: C3_3  and  C7_7 
REMARK    3  A    between atoms: C4_4  and  C6_6 
REMARK    4  A    between atoms: C4_4  and  C7_7 
REMARK    5  A    between atoms: C5_5  and  S8_8 
ROOT
HETATM    1  C1  UNL     1     -32.775   4.859   2.658  1.00 20.00     0.010 C 
HETATM    2  C7  UNL     1     -33.327   6.275   2.864  1.00 20.00    -0.017 C 
ENDROOT
BRANCH   2   3
HETATM    3  C3  UNL     1     -34.442   6.294   3.933  1.00 20.00     0.014 C 
BRANCH   3   4
HETATM    4  C5  UNL     1     -34.588   4.996   4.727  1.00 20.00     0.073 C 
BRANCH   4   5
HETATM    5  S8  UNL     1     -34.494   5.330   6.512  1.00 20.00    -0.173 SA
HETATM    6  C2  UNL     1     -34.060   7.083   6.426  1.00 20.00     0.089 C 
ENDBRANCH   4   5
ENDBRANCH   3   4
ENDBRANCH   2   3
BRANCH   2   7
HETATM    7  C4  UNL     1     -32.160   7.247   3.145  1.00 20.00     0.019 C 
BRANCH   7   8
HETATM    8  C6  UNL     1     -32.542   8.717   3.309  1.00 20.00     0.115 C 
HETATM    9 CL9  UNL     1     -32.854   9.508   1.747  1.00 20.00    -0.130 Cl
ENDBRANCH   7   8
ENDBRANCH   2   7
TORSDOF 5
ENDMDL
MODEL 9
REMARK VINA RESULT:      -2.9     12.794     13.829
REMARK  5 active torsions:
REMARK  status: ('A' for Active; 'I' for Inactive)
REMARK    1  A    between atoms: C3_3  and  C5_5 
REMARK    2  A    between atoms: C3_3  and  C7_7 
REMARK    3  A    between atoms: C4_4  and  C6_6 
REMARK    4  A    between atoms: C4_4  and  C7_7 
REMARK    5  A    between atoms: C5_5  and  S8_8 
ROOT
HETATM    1  C1  UNL     1     -33.379  15.333  -3.778  1.00 20.00     0.010 C 
HETATM    2  C7  UNL     1     -33.340  16.836  -3.476  1.00 20.00    -0.017 C 
ENDROOT
BRANCH   2   3
HETATM    3  C3  UNL     1     -34.495  17.582  -4.179  1.00 20.00     0.014 C 
BRANCH   3   4
HETATM    4  C5  UNL     1     -34.695  17.211  -5.649  1.00 20.00     0.073 C 
BRANCH   4   5
HETATM    5  S8  UNL     1     -36.330  16.452  -5.894  1.00 20.00    -0.173 SA
HETATM    6  C2  UNL     1     -35.783  14.866  -6.565  1.00 20.00     0.089 C 
ENDBRANCH   4   5
ENDBRANCH   3   4
ENDBRANCH   2   3
BRANCH   2   7
HETATM    7  C4  UNL     1     -33.280  17.053  -1.948  1.00 20.00     0.019 C 
BRANCH   7   8
HETATM    8  C6  UNL     1     -32.827  18.438  -1.488  1.00 20.00     0.115 C 
HETATM    9 CL9  UNL     1     -31.345  18.368  -0.508  1.00 20.00    -0.130 Cl
ENDBRANCH   7   8
ENDBRANCH   2   7
TORSDOF 5
ENDMDL
