MODEL 1
REMARK VINA RESULT:      -3.5      0.000      0.000
REMARK  4 active torsions:
REMARK  status: ('A' for Active; 'I' for Inactive)
REMARK    1  A    between atoms: C1_1  and  C8_8 
REMARK    2  A    between atoms: C1_1  and  O11_11 
REMARK    3  A    between atoms: C4_4  and  C8_8 
REMARK    4  A    between atoms: C8_8  and  N9_9 
ROOT
HETATM    1  C8  UNL     1     -41.186  13.654   6.532  1.00 20.00     0.324 C 
ENDROOT
BRANCH   1   2
HETATM    2  C1  UNL     1     -40.460  14.257   7.726  1.00 20.00     0.292 C 
HETATM    3  O10 UNL     1     -40.282  13.640   8.772  1.00 20.00    -0.263 OA
BRANCH   2   4
HETATM    4  O11 UNL     1     -40.039  15.530   7.485  1.00 20.00    -0.325 OA
HETATM    5  C7  UNL     1     -40.821  16.568   8.084  1.00 20.00     0.213 C 
ENDBRANCH   2   4
ENDBRANCH   1   2
BRANCH   1   6
HETATM    6  C4  UNL     1     -40.598  12.297   6.185  1.00 20.00     0.029 A 
HETATM    7  C2  UNL     1     -39.890  12.090   4.874  1.00 20.00     0.008 A 
HETATM    8  C3  UNL     1     -39.106  12.103   6.157  1.00 20.00     0.008 A 
ENDBRANCH   1   6
BRANCH   1   9
HETATM    9  N9  UNL     1     -42.603  13.541   6.769  1.00 20.00     0.094 N 
HETATM   10  C5  UNL     1     -42.983  12.152   7.067  1.00 20.00     0.310 C 
HETATM   11  C6  UNL     1     -43.377  14.028   5.618  1.00 20.00     0.310 C 
ENDBRANCH   1   9
TORSDOF 4
ENDMDL
MODEL 2
REMARK VINA RESULT:      -3.4     13.223     14.300
REMARK  4 active torsions:
REMARK  status: ('A' for Active; 'I' for Inactive)
REMARK    1  A    between atoms: C1_1  and  C8_8 
REMARK    2  A    between atoms: C1_1  and  O11_11 
REMARK    3  A    between atoms: C4_4  and  C8_8 
REMARK    4  A    between atoms: C8_8  and  N9_9 
ROOT
HETATM    1  C8  UNL     1     -35.002  16.172  -5.274  1.00 20.00     0.324 C 
ENDROOT
BRANCH   1   2
HETATM    2  C1  UNL     1     -34.914  15.119  -6.369  1.00 20.00     0.292 C 
HETATM    3  O10 UNL     1     -34.050  15.143  -7.241  1.00 20.00    -0.263 OA
BRANCH   2   4
HETATM    4  O11 UNL     1     -35.885  14.170  -6.253  1.00 20.00    -0.325 OA
HETATM    5  C7  UNL     1     -36.266  13.832  -4.915  1.00 20.00     0.213 C 
ENDBRANCH   2   4
ENDBRANCH   1   2
BRANCH   1   6
HETATM    6  C4  UNL     1     -33.650  16.355  -4.604  1.00 20.00     0.029 A 
HETATM    7  C2  UNL     1     -33.511  16.182  -3.117  1.00 20.00     0.008 A 
HETATM    8  C3  UNL     1     -32.913  15.166  -4.051  1.00 20.00     0.008 A 
ENDBRANCH   1   6
BRANCH   1   9
HETATM    9  N9  UNL     1     -35.485  17.431  -5.780  1.00 20.00     0.094 N 
HETATM   10  C5  UNL     1     -34.392  18.405  -5.917  1.00 20.00     0.310 C 
HETATM   11  C6  UNL     1     -36.535  17.988  -4.915  1.00 20.00     0.310 C 
ENDBRANCH   1   9
TORSDOF 4
ENDMDL
MODEL 3
REMARK VINA RESULT:      -3.3      0.798      1.387
REMARK  4 active torsions:
REMARK  status: ('A' for Active; 'I' for Inactive)
REMARK    1  A    between atoms: C1_1  and  C8_8 
REMARK    2  A    between atoms: C1_1  and  O11_11 
REMARK    3  A    between atoms: C4_4  and  C8_8 
REMARK    4  A    between atoms: C8_8  and  N9_9 
ROOT
HETATM    1  C8  UNL     1     -40.934  13.925   6.341  1.00 20.00     0.324 C 
ENDROOT
BRANCH   1   2
HETATM    2  C1  UNL     1     -40.386  14.605   7.587  1.00 20.00     0.292 C 
HETATM    3  O10 UNL     1     -40.067  15.790   7.607  1.00 20.00    -0.263 OA
BRANCH   2   4
HETATM    4  O11 UNL     1     -40.306  13.753   8.647  1.00 20.00    -0.325 OA
HETATM    5  C7  UNL     1     -40.667  14.305   9.917  1.00 20.00     0.213 C 
ENDBRANCH   2   4
ENDBRANCH   1   2
BRANCH   1   6
HETATM    6  C4  UNL     1     -40.438  12.491   6.259  1.00 20.00     0.029 A 
HETATM    7  C2  UNL     1     -39.842  11.966   4.982  1.00 20.00     0.008 A 
HETATM    8  C3  UNL     1     -38.964  12.203   6.180  1.00 20.00     0.008 A 
ENDBRANCH   1   6
BRANCH   1   9
HETATM    9  N9  UNL     1     -42.374  13.961   6.301  1.00 20.00     0.094 N 
HETATM   10  C5  UNL     1     -42.951  12.689   6.762  1.00 20.00     0.310 C 
HETATM   11  C6  UNL     1     -42.863  14.262   4.948  1.00 20.00     0.310 C 
ENDBRANCH   1   9
TORSDOF 4
ENDMDL
MODEL 4
REMARK VINA RESULT:      -3.3      1.454      2.015
REMARK  4 active torsions:
REMARK  status: ('A' for Active; 'I' for Inactive)
REMARK    1  A    between atoms: C1_1  and  C8_8 
REMARK    2  A    between atoms: C1_1  and  O11_11 
REMARK    3  A    between atoms: C4_4  and  C8_8 
REMARK    4  A    between atoms: C8_8  and  N9_9 
ROOT
HETATM    1  C8  UNL     1     -40.922  13.940   6.270  1.00 20.00     0.324 C 
ENDROOT
BRANCH   1   2
HETATM    2  C1  UNL     1     -40.908  13.984   7.791  1.00 20.00     0.292 C 
HETATM    3  O10 UNL     1     -40.101  14.655   8.426  1.00 20.00    -0.263 OA
BRANCH   2   4
HETATM    4  O11 UNL     1     -41.887  13.209   8.338  1.00 20.00    -0.325 OA
HETATM    5  C7  UNL     1     -42.579  13.778   9.454  1.00 20.00     0.213 C 
ENDBRANCH   2   4
ENDBRANCH   1   2
BRANCH   1   6
HETATM    6  C4  UNL     1     -40.678  12.523   5.779  1.00 20.00     0.029 A 
HETATM    7  C2  UNL     1     -39.595  12.244   4.774  1.00 20.00     0.008 A 
HETATM    8  C3  UNL     1     -39.439  11.780   6.196  1.00 20.00     0.008 A 
ENDBRANCH   1   6
BRANCH   1   9
HETATM    9  N9  UNL     1     -42.155  14.453   5.730  1.00 20.00     0.094 N 
HETATM   10  C5  UNL     1     -42.169  14.369   4.262  1.00 20.00     0.310 C 
HETATM   11  C6  UNL     1     -42.383  15.844   6.146  1.00 20.00     0.310 C 
ENDBRANCH   1   9
TORSDOF 4
ENDMDL
MODEL 5
REMARK VINA RESULT:      -3.2     13.114     14.370
REMARK  4 active torsions:
REMARK  status: ('A' for Active; 'I' for Inactive)
REMARK    1  A    between atoms: C1_1  and  C8_8 
REMARK    2  A    between atoms: C1_1  and  O11_11 
REMARK    3  A    between atoms: C4_4  and  C8_8 
REMARK    4  A    between atoms: C8_8  and  N9_9 
ROOT
HETATM    1  C8  UNL     1     -35.274  16.113  -5.659  1.00 20.00     0.324 C 
ENDROOT
BRANCH   1   2
HETATM    2  C1  UNL     1     -36.263  15.016  -6.025  1.00 20.00     0.292 C 
HETATM    3  O10 UNL     1     -36.062  14.223  -6.940  1.00 20.00    -0.263 OA
BRANCH   2   4
HETATM    4  O11 UNL     1     -37.363  15.024  -5.221  1.00 20.00    -0.325 OA
HETATM    5  C7  UNL     1     -38.096  16.252  -5.184  1.00 20.00     0.213 C 
ENDBRANCH   2   4
ENDBRANCH   1   2
BRANCH   1   6
HETATM    6  C4  UNL     1     -33.960  15.509  -5.194  1.00 20.00     0.029 A 
HETATM    7  C2  UNL     1     -33.436  15.804  -3.815  1.00 20.00     0.008 A 
HETATM    8  C3  UNL     1     -33.952  14.430  -4.145  1.00 20.00     0.008 A 
ENDBRANCH   1   6
BRANCH   1   9
HETATM    9  N9  UNL     1     -35.049  17.019  -6.757  1.00 20.00     0.094 N 
HETATM   10  C5  UNL     1     -33.983  16.526  -7.643  1.00 20.00     0.310 C 
HETATM   11  C6  UNL     1     -34.708  18.365  -6.278  1.00 20.00     0.310 C 
ENDBRANCH   1   9
TORSDOF 4
ENDMDL
MODEL 6
REMARK VINA RESULT:      -3.1     11.999     13.140
REMARK  4 active torsions:
REMARK  status: ('A' for Active; 'I' for Inactive)
REMARK    1  A    between atoms: C1_1  and  C8_8 
REMARK    2  A    between atoms: C1_1  and  O11_11 
REMARK    3  A    between atoms: C4_4  and  C8_8 
REMARK    4  A    between atoms: C8_8  and  N9_9 
ROOT
HETATM    1  C8  UNL     1     -33.205  17.388  -3.564  1.00 20.00     0.324 C 
ENDROOT
BRANCH   1   2
HETATM    2  C1  UNL     1     -32.907  17.995  -2.201  1.00 20.00     0.292 C 
HETATM    3  O10 UNL     1     -32.205  18.992  -2.062  1.00 20.00    -0.263 OA
BRANCH   2   4
HETATM    4  O11 UNL     1     -33.509  17.312  -1.189  1.00 20.00    -0.325 OA
HETATM    5  C7  UNL     1     -33.733  18.053   0.015  1.00 20.00     0.213 C 
ENDBRANCH   2   4
ENDBRANCH   1   2
BRANCH   1   6
HETATM    6  C4  UNL     1     -33.581  15.922  -3.420  1.00 20.00     0.029 A 
HETATM    7  C2  UNL     1     -34.297  15.210  -4.534  1.00 20.00     0.008 A 
HETATM    8  C3  UNL     1     -32.864  14.874  -4.226  1.00 20.00     0.008 A 
ENDBRANCH   1   6
BRANCH   1   9
HETATM    9  N9  UNL     1     -34.245  18.106  -4.255  1.00 20.00     0.094 N 
HETATM   10  C5  UNL     1     -33.694  19.228  -5.031  1.00 20.00     0.310 C 
HETATM   11  C6  UNL     1     -35.261  18.608  -3.318  1.00 20.00     0.310 C 
ENDBRANCH   1   9
TORSDOF 4
ENDMDL
MODEL 7
REMARK VINA RESULT:      -3.0     12.835     13.756
REMARK  4 active torsions:
REMARK  status: ('A' for Active; 'I' for Inactive)
REMARK    1  A    between atoms: C1_1  and  C8_8 
REMARK    2  A    between atoms: C1_1  and  O11_11 
REMARK    3  A    between atoms: C4_4  and  C8_8 
REMARK    4  A    between atoms: C8_8  and  N9_9 
ROOT
HETATM    1  C8  UNL     1     -34.637  16.323  -5.467  1.00 20.00     0.324 C 
ENDROOT
BRANCH   1   2
HETATM    2  C1  UNL     1     -34.940  17.762  -5.073  1.00 20.00     0.292 C 
HETATM    3  O10 UNL     1     -34.202  18.697  -5.366  1.00 20.00    -0.263 OA
BRANCH   2   4
HETATM    4  O11 UNL     1     -36.109  17.871  -4.381  1.00 20.00    -0.325 OA
HETATM    5  C7  UNL     1     -36.072  18.723  -3.231  1.00 20.00     0.213 C 
ENDBRANCH   2   4
ENDBRANCH   1   2
BRANCH   1   6
HETATM    6  C4  UNL     1     -34.177  15.529  -4.256  1.00 20.00     0.029 A 
HETATM    7  C2  UNL     1     -32.743  15.092  -4.136  1.00 20.00     0.008 A 
HETATM    8  C3  UNL     1     -33.281  16.165  -3.229  1.00 20.00     0.008 A 
ENDBRANCH   1   6
BRANCH   1   9
HETATM    9  N9  UNL     1     -35.772  15.686  -6.084  1.00 20.00     0.094 N 
HETATM   10  C5  UNL     1     -36.087  14.408  -5.427  1.00 20.00     0.310 C 
HETATM   11  C6  UNL     1     -35.544  15.460  -7.518  1.00 20.00     0.310 C 
ENDBRANCH   1   9
TORSDOF 4
ENDMDL
MODEL 8
REMARK VINA RESULT:      -3.0      1.359      2.984
REMARK  4 active torsions:
REMARK  status: ('A' for Active; 'I' for Inactive)
REMARK    1  A    between atoms: C1_1  and  C8_8 
REMARK    2  A    between atoms: C1_1  and  O11_11 
REMARK    3  A    between atoms: C4_4  and  C8_8 
REMARK    4  A    between atoms: C8_8  and  N9_9 
ROOT
HETATM    1  C8  UNL     1     -41.066  13.190   6.933  1.00 20.00     0.324 C 
ENDROOT
BRANCH   1   2
HETATM    2  C1  UNL     1     -40.582  14.278   7.881  1.00 20.00     0.292 C 
HETATM    3  O10 UNL     1     -40.592  15.467   7.581  1.00 20.00    -0.263 OA
BRANCH   2   4
HETATM    4  O11 UNL     1     -40.158  13.772   9.073  1.00 20.00    -0.325 OA
HETATM    5  C7  UNL     1     -40.575  14.492  10.237  1.00 20.00     0.213 C 
ENDBRANCH   2   4
ENDBRANCH   1   2
BRANCH   1   6
HETATM    6  C4  UNL     1     -42.585  13.157   6.896  1.00 20.00     0.029 A 
HETATM    7  C2  UNL     1     -43.326  11.906   7.280  1.00 20.00     0.008 A 
HETATM    8  C3  UNL     1     -43.373  13.113   8.177  1.00 20.00     0.008 A 
ENDBRANCH   1   6
BRANCH   1   9
HETATM    9  N9  UNL     1     -40.536  13.363   5.605  1.00 20.00     0.094 N 
HETATM   10  C5  UNL     1     -41.574  13.829   4.673  1.00 20.00     0.310 C 
HETATM   11  C6  UNL     1     -39.945  12.115   5.099  1.00 20.00     0.310 C 
ENDBRANCH   1   9
TORSDOF 4
ENDMDL
MODEL 9
REMARK VINA RESULT:      -3.0     13.252     14.473
REMARK  4 active torsions:
REMARK  status: ('A' for Active; 'I' for Inactive)
REMARK    1  A    between atoms: C1_1  and  C8_8 
REMARK    2  A    between atoms: C1_1  and  O11_11 
REMARK    3  A    between atoms: C4_4  and  C8_8 
REMARK    4  A    between atoms: C8_8  and  N9_9 
ROOT
HETATM    1  C8  UNL     1     -34.691  16.031  -5.276  1.00 20.00     0.324 C 
ENDROOT
BRANCH   1   2
HETATM    2  C1  UNL     1     -35.520  14.980  -5.999  1.00 20.00     0.292 C 
HETATM    3  O10 UNL     1     -36.363  14.295  -5.427  1.00 20.00    -0.263 OA
BRANCH   2   4
HETATM    4  O11 UNL     1     -35.218  14.906  -7.325  1.00 20.00    -0.325 OA
HETATM    5  C7  UNL     1     -34.017  15.573  -7.727  1.00 20.00     0.213 C 
ENDBRANCH   2   4
ENDBRANCH   1   2
BRANCH   1   6
HETATM    6  C4  UNL     1     -35.549  17.239  -4.936  1.00 20.00     0.029 A 
HETATM    7  C2  UNL     1     -35.444  18.498  -5.753  1.00 20.00     0.008 A 
HETATM    8  C3  UNL     1     -36.679  17.644  -5.841  1.00 20.00     0.008 A 
ENDBRANCH   1   6
BRANCH   1   9
HETATM    9  N9  UNL     1     -34.076  15.502  -4.085  1.00 20.00     0.094 N 
HETATM   10  C5  UNL     1     -33.532  16.579  -3.243  1.00 20.00     0.310 C 
HETATM   11  C6  UNL     1     -33.007  14.548  -4.415  1.00 20.00     0.310 C 
ENDBRANCH   1   9
TORSDOF 4
ENDMDL
