MODEL 1
REMARK VINA RESULT:      -4.7      0.000      0.000
REMARK  1 active torsions:
REMARK  status: ('A' for Active; 'I' for Inactive)
REMARK    1  A    between atoms: C3_3  and  C8_8 
ROOT
HETATM    1  C1  UNL     1     -31.129  18.423  -0.183  1.00 20.00     0.016 A 
HETATM    2  C2  UNL     1     -30.638  18.675   1.131  1.00 20.00     0.015 A 
HETATM    3  C3  UNL     1     -32.502  18.517  -0.250  1.00 20.00    -0.013 A 
HETATM    4  C4  UNL     1     -31.656  18.951   2.018  1.00 20.00    -0.021 A 
HETATM    5  C10 UNL     1     -31.559  19.263   3.460  1.00 20.00     0.056 C 
HETATM    6  S11 UNL     1     -33.194  18.907   1.267  1.00 20.00    -0.099 SA
ENDROOT
BRANCH   3   7
HETATM    7  C8  UNL     1     -33.401  18.324  -1.451  1.00 20.00     0.027 C 
HETATM    8  C5  UNL     1     -32.862  19.030  -2.711  1.00 20.00     0.011 C 
HETATM    9  C6  UNL     1     -33.222  18.099  -3.861  1.00 20.00     0.016 C 
HETATM   10  C9  UNL     1     -33.016  16.727  -3.250  1.00 20.00     0.058 C 
HETATM   11  C7  UNL     1     -33.619  16.849  -1.857  1.00 20.00     0.025 C 
HETATM   12 BR12 UNL     1     -33.884  15.350  -4.290  1.00 20.00    -0.091 Br
ENDBRANCH   3   7
TORSDOF 1
ENDMDL
MODEL 2
REMARK VINA RESULT:      -4.4      3.037      5.524
REMARK  1 active torsions:
REMARK  status: ('A' for Active; 'I' for Inactive)
REMARK    1  A    between atoms: C3_3  and  C8_8 
ROOT
HETATM    1  C1  UNL     1     -33.304  16.631  -2.281  1.00 20.00     0.016 A 
HETATM    2  C2  UNL     1     -33.701  16.062  -3.525  1.00 20.00     0.015 A 
HETATM    3  C3  UNL     1     -33.399  18.005  -2.285  1.00 20.00    -0.013 A 
HETATM    4  C4  UNL     1     -34.084  17.025  -4.434  1.00 20.00    -0.021 A 
HETATM    5  C10 UNL     1     -34.559  16.843  -5.823  1.00 20.00     0.056 C 
HETATM    6  S11 UNL     1     -33.965  18.605  -3.785  1.00 20.00    -0.099 SA
ENDROOT
BRANCH   3   7
HETATM    7  C8  UNL     1     -33.076  18.974  -1.170  1.00 20.00     0.027 C 
HETATM    8  C5  UNL     1     -34.006  18.804   0.048  1.00 20.00     0.011 C 
HETATM    9  C6  UNL     1     -33.115  19.061   1.256  1.00 20.00     0.016 C 
HETATM   10  C9  UNL     1     -31.801  18.433   0.834  1.00 20.00     0.058 C 
HETATM   11  C7  UNL     1     -31.637  18.859  -0.618  1.00 20.00     0.025 C 
HETATM   12 BR12 UNL     1     -30.337  19.049   1.934  1.00 20.00    -0.091 Br
ENDBRANCH   3   7
TORSDOF 1
ENDMDL
MODEL 3
REMARK VINA RESULT:      -4.4      3.404      5.963
REMARK  1 active torsions:
REMARK  status: ('A' for Active; 'I' for Inactive)
REMARK    1  A    between atoms: C3_3  and  C8_8 
ROOT
HETATM    1  C1  UNL     1     -33.322  15.685  -3.535  1.00 20.00     0.016 A 
HETATM    2  C2  UNL     1     -33.830  14.799  -4.527  1.00 20.00     0.015 A 
HETATM    3  C3  UNL     1     -33.895  16.935  -3.614  1.00 20.00    -0.013 A 
HETATM    4  C4  UNL     1     -34.774  15.406  -5.327  1.00 20.00    -0.021 A 
HETATM    5  C10 UNL     1     -35.530  14.827  -6.459  1.00 20.00     0.056 C 
HETATM    6  S11 UNL     1     -35.043  17.036  -4.881  1.00 20.00    -0.099 SA
ENDROOT
BRANCH   3   7
HETATM    7  C8  UNL     1     -33.632  18.148  -2.750  1.00 20.00     0.027 C 
HETATM    8  C5  UNL     1     -34.915  18.692  -2.091  1.00 20.00     0.011 C 
HETATM    9  C6  UNL     1     -34.472  19.169  -0.714  1.00 20.00     0.016 C 
HETATM   10  C9  UNL     1     -33.443  18.127  -0.321  1.00 20.00     0.058 C 
HETATM   11  C7  UNL     1     -32.636  17.907  -1.593  1.00 20.00     0.025 C 
HETATM   12 BR12 UNL     1     -32.334  18.740   1.137  1.00 20.00    -0.091 Br
ENDBRANCH   3   7
TORSDOF 1
ENDMDL
MODEL 4
REMARK VINA RESULT:      -4.2      1.678      2.489
REMARK  1 active torsions:
REMARK  status: ('A' for Active; 'I' for Inactive)
REMARK    1  A    between atoms: C3_3  and  C8_8 
ROOT
HETATM    1  C1  UNL     1     -34.060  17.791  -0.593  1.00 20.00     0.016 A 
HETATM    2  C2  UNL     1     -33.722  18.226   0.721  1.00 20.00     0.015 A 
HETATM    3  C3  UNL     1     -32.999  17.900  -1.464  1.00 20.00    -0.013 A 
HETATM    4  C4  UNL     1     -32.414  18.651   0.803  1.00 20.00    -0.021 A 
HETATM    5  C10 UNL     1     -31.688  19.172   1.982  1.00 20.00     0.056 C 
HETATM    6  S11 UNL     1     -31.601  18.525  -0.698  1.00 20.00    -0.099 SA
ENDROOT
BRANCH   3   7
HETATM    7  C8  UNL     1     -32.947  17.545  -2.933  1.00 20.00     0.027 C 
HETATM    8  C5  UNL     1     -33.363  16.086  -3.203  1.00 20.00     0.011 C 
HETATM    9  C6  UNL     1     -34.119  16.135  -4.524  1.00 20.00     0.016 C 
HETATM   10  C9  UNL     1     -34.872  17.447  -4.422  1.00 20.00     0.058 C 
HETATM   11  C7  UNL     1     -33.853  18.413  -3.834  1.00 20.00     0.025 C 
HETATM   12 BR12 UNL     1     -35.507  18.035  -6.150  1.00 20.00    -0.091 Br
ENDBRANCH   3   7
TORSDOF 1
ENDMDL
MODEL 5
REMARK VINA RESULT:      -3.9      2.978      5.552
REMARK  1 active torsions:
REMARK  status: ('A' for Active; 'I' for Inactive)
REMARK    1  A    between atoms: C3_3  and  C8_8 
ROOT
HETATM    1  C1  UNL     1     -34.745  18.387  -3.904  1.00 20.00     0.016 A 
HETATM    2  C2  UNL     1     -34.899  17.254  -4.753  1.00 20.00     0.015 A 
HETATM    3  C3  UNL     1     -33.911  18.126  -2.838  1.00 20.00    -0.013 A 
HETATM    4  C4  UNL     1     -34.177  16.169  -4.304  1.00 20.00    -0.021 A 
HETATM    5  C10 UNL     1     -34.075  14.821  -4.902  1.00 20.00     0.056 C 
HETATM    6  S11 UNL     1     -33.319  16.520  -2.865  1.00 20.00    -0.099 SA
ENDROOT
BRANCH   3   7
HETATM    7  C8  UNL     1     -33.493  19.055  -1.721  1.00 20.00     0.027 C 
HETATM    8  C5  UNL     1     -34.440  18.982  -0.507  1.00 20.00     0.011 C 
HETATM    9  C6  UNL     1     -33.532  19.143   0.705  1.00 20.00     0.016 C 
HETATM   10  C9  UNL     1     -32.289  18.382   0.287  1.00 20.00     0.058 C 
HETATM   11  C7  UNL     1     -32.077  18.790  -1.164  1.00 20.00     0.025 C 
HETATM   12 BR12 UNL     1     -30.773  18.839   1.393  1.00 20.00    -0.091 Br
ENDBRANCH   3   7
TORSDOF 1
ENDMDL
MODEL 6
REMARK VINA RESULT:      -3.8      2.348      3.582
REMARK  1 active torsions:
REMARK  status: ('A' for Active; 'I' for Inactive)
REMARK    1  A    between atoms: C3_3  and  C8_8 
ROOT
HETATM    1  C1  UNL     1     -35.162  18.611  -2.506  1.00 20.00     0.016 A 
HETATM    2  C2  UNL     1     -35.191  19.198  -1.208  1.00 20.00     0.015 A 
HETATM    3  C3  UNL     1     -34.047  17.825  -2.694  1.00 20.00    -0.013 A 
HETATM    4  C4  UNL     1     -34.096  18.838  -0.453  1.00 20.00    -0.021 A 
HETATM    5  C10 UNL     1     -33.763  19.233   0.932  1.00 20.00     0.056 C 
HETATM    6  S11 UNL     1     -33.041  17.796  -1.309  1.00 20.00    -0.099 SA
ENDROOT
BRANCH   3   7
HETATM    7  C8  UNL     1     -33.648  17.035  -3.920  1.00 20.00     0.027 C 
HETATM    8  C5  UNL     1     -33.440  15.538  -3.615  1.00 20.00     0.011 C 
HETATM    9  C6  UNL     1     -33.954  14.814  -4.852  1.00 20.00     0.016 C 
HETATM   10  C9  UNL     1     -35.152  15.655  -5.250  1.00 20.00     0.058 C 
HETATM   11  C7  UNL     1     -34.670  17.089  -5.077  1.00 20.00     0.025 C 
HETATM   12 BR12 UNL     1     -35.698  15.294  -7.068  1.00 20.00    -0.091 Br
ENDBRANCH   3   7
TORSDOF 1
ENDMDL
MODEL 7
REMARK VINA RESULT:      -3.8      3.348      4.782
REMARK  1 active torsions:
REMARK  status: ('A' for Active; 'I' for Inactive)
REMARK    1  A    between atoms: C3_3  and  C8_8 
ROOT
HETATM    1  C1  UNL     1     -33.338  16.360  -3.079  1.00 20.00     0.016 A 
HETATM    2  C2  UNL     1     -33.346  17.018  -1.816  1.00 20.00     0.015 A 
HETATM    3  C3  UNL     1     -34.174  16.970  -3.987  1.00 20.00    -0.013 A 
HETATM    4  C4  UNL     1     -34.190  18.108  -1.807  1.00 20.00    -0.021 A 
HETATM    5  C10 UNL     1     -34.473  19.042  -0.697  1.00 20.00     0.056 C 
HETATM    6  S11 UNL     1     -34.965  18.333  -3.316  1.00 20.00    -0.099 SA
ENDROOT
BRANCH   3   7
HETATM    7  C8  UNL     1     -34.445  16.585  -5.425  1.00 20.00     0.027 C 
HETATM    8  C5  UNL     1     -34.766  15.086  -5.583  1.00 20.00     0.011 C 
HETATM    9  C6  UNL     1     -35.821  15.028  -6.679  1.00 20.00     0.016 C 
HETATM   10  C9  UNL     1     -36.655  16.263  -6.398  1.00 20.00     0.058 C 
HETATM   11  C7  UNL     1     -35.626  17.338  -6.077  1.00 20.00     0.025 C 
HETATM   12 BR12 UNL     1     -37.747  16.743  -7.917  1.00 20.00    -0.091 Br
ENDBRANCH   3   7
TORSDOF 1
ENDMDL
MODEL 8
REMARK VINA RESULT:      -3.5      3.427      4.807
REMARK  1 active torsions:
REMARK  status: ('A' for Active; 'I' for Inactive)
REMARK    1  A    between atoms: C3_3  and  C8_8 
ROOT
HETATM    1  C1  UNL     1     -33.665  16.461  -3.649  1.00 20.00     0.016 A 
HETATM    2  C2  UNL     1     -33.284  16.592  -2.282  1.00 20.00     0.015 A 
HETATM    3  C3  UNL     1     -34.552  17.441  -4.036  1.00 20.00    -0.013 A 
HETATM    4  C4  UNL     1     -33.896  17.667  -1.676  1.00 20.00    -0.021 A 
HETATM    5  C10 UNL     1     -33.763  18.135  -0.280  1.00 20.00     0.056 C 
HETATM    6  S11 UNL     1     -34.923  18.513  -2.753  1.00 20.00    -0.099 SA
ENDROOT
BRANCH   3   7
HETATM    7  C8  UNL     1     -35.190  17.652  -5.391  1.00 20.00     0.027 C 
HETATM    8  C5  UNL     1     -34.977  16.454  -6.336  1.00 20.00     0.011 C 
HETATM    9  C6  UNL     1     -36.270  16.354  -7.134  1.00 20.00     0.016 C 
HETATM   10  C9  UNL     1     -37.321  16.711  -6.101  1.00 20.00     0.058 C 
HETATM   11  C7  UNL     1     -36.716  17.889  -5.351  1.00 20.00     0.025 C 
HETATM   12 BR12 UNL     1     -39.002  17.175  -6.932  1.00 20.00    -0.091 Br
ENDBRANCH   3   7
TORSDOF 1
ENDMDL
MODEL 9
REMARK VINA RESULT:      -3.4     12.300     13.841
REMARK  1 active torsions:
REMARK  status: ('A' for Active; 'I' for Inactive)
REMARK    1  A    between atoms: C3_3  and  C8_8 
ROOT
HETATM    1  C1  UNL     1     -41.955  14.313   5.785  1.00 20.00     0.016 A 
HETATM    2  C2  UNL     1     -41.358  13.500   4.779  1.00 20.00     0.015 A 
HETATM    3  C3  UNL     1     -41.319  14.185   7.000  1.00 20.00    -0.013 A 
HETATM    4  C4  UNL     1     -40.288  12.779   5.265  1.00 20.00    -0.021 A 
HETATM    5  C10 UNL     1     -39.414  11.830   4.543  1.00 20.00     0.056 C 
HETATM    6  S11 UNL     1     -40.008  13.086   6.926  1.00 20.00    -0.099 SA
ENDROOT
BRANCH   3   7
HETATM    7  C8  UNL     1     -41.640  14.873   8.308  1.00 20.00     0.027 C 
HETATM    8  C5  UNL     1     -42.684  14.100   9.140  1.00 20.00     0.011 C 
HETATM    9  C6  UNL     1     -42.248  14.292  10.586  1.00 20.00     0.016 C 
HETATM   10  C9  UNL     1     -40.736  14.247  10.481  1.00 20.00     0.058 C 
HETATM   11  C7  UNL     1     -40.426  15.073   9.241  1.00 20.00     0.025 C 
HETATM   12 BR12 UNL     1     -39.894  14.975  12.060  1.00 20.00    -0.091 Br
ENDBRANCH   3   7
TORSDOF 1
ENDMDL
