MODEL 1
REMARK VINA RESULT:      -4.3      0.000      0.000
REMARK  5 active torsions:
REMARK  status: ('A' for Active; 'I' for Inactive)
REMARK    1  A    between atoms: C1_1  and  C9_9 
REMARK    2  A    between atoms: C6_6  and  C7_7 
REMARK    3  A    between atoms: C6_6  and  C8_8 
REMARK    4  A    between atoms: C7_7  and  C9_9 
REMARK    5  A    between atoms: C8_8  and  C10_10 
ROOT
HETATM    1  C6  UNL     1     -33.039  16.071  -3.575  1.00 20.00     0.001 C 
ENDROOT
BRANCH   1   2
HETATM    2  C7  UNL     1     -33.842  14.829  -3.978  1.00 20.00     0.011 C 
BRANCH   2   3
HETATM    3  C9  UNL     1     -34.848  15.095  -5.110  1.00 20.00     0.043 C 
HETATM    4  C2  UNL     1     -34.197  15.142  -6.489  1.00 20.00     0.017 C 
BRANCH   3   5
HETATM    5  C1  UNL     1     -35.926  14.025  -5.052  1.00 20.00     0.235 C 
HETATM    6  O11 UNL     1     -35.876  13.018  -4.355  1.00 20.00    -0.306 OA
ENDBRANCH   3   5
ENDBRANCH   2   3
ENDBRANCH   1   2
BRANCH   1   7
HETATM    7  C8  UNL     1     -33.491  16.594  -2.204  1.00 20.00     0.008 C 
BRANCH   7   8
HETATM    8  C10 UNL     1     -33.232  18.102  -1.938  1.00 20.00    -0.051 C 
HETATM    9  C3  UNL     1     -34.496  18.697  -1.287  1.00 20.00     0.014 C 
HETATM   10  C4  UNL     1     -32.048  18.303  -0.977  1.00 20.00     0.014 C 
HETATM   11  C5  UNL     1     -32.957  18.858  -3.248  1.00 20.00     0.014 C 
ENDBRANCH   7   8
ENDBRANCH   1   7
TORSDOF 5
ENDMDL
MODEL 2
REMARK VINA RESULT:      -4.3      0.680      1.563
REMARK  5 active torsions:
REMARK  status: ('A' for Active; 'I' for Inactive)
REMARK    1  A    between atoms: C1_1  and  C9_9 
REMARK    2  A    between atoms: C6_6  and  C7_7 
REMARK    3  A    between atoms: C6_6  and  C8_8 
REMARK    4  A    between atoms: C7_7  and  C9_9 
REMARK    5  A    between atoms: C8_8  and  C10_10 
ROOT
HETATM    1  C6  UNL     1     -33.259  16.342  -3.572  1.00 20.00     0.001 C 
ENDROOT
BRANCH   1   2
HETATM    2  C7  UNL     1     -33.828  15.006  -4.066  1.00 20.00     0.011 C 
BRANCH   2   3
HETATM    3  C9  UNL     1     -34.885  15.165  -5.170  1.00 20.00     0.043 C 
HETATM    4  C2  UNL     1     -34.288  15.154  -6.575  1.00 20.00     0.017 C 
BRANCH   3   5
HETATM    5  C1  UNL     1     -35.916  14.061  -5.007  1.00 20.00     0.235 C 
HETATM    6  O11 UNL     1     -35.756  13.047  -4.336  1.00 20.00    -0.306 OA
ENDBRANCH   3   5
ENDBRANCH   2   3
ENDBRANCH   1   2
BRANCH   1   7
HETATM    7  C8  UNL     1     -33.543  16.538  -2.076  1.00 20.00     0.008 C 
BRANCH   7   8
HETATM    8  C10 UNL     1     -33.740  18.007  -1.614  1.00 20.00    -0.051 C 
HETATM    9  C3  UNL     1     -32.545  18.835  -2.126  1.00 20.00     0.014 C 
HETATM   10  C4  UNL     1     -35.032  18.605  -2.196  1.00 20.00     0.014 C 
HETATM   11  C5  UNL     1     -33.781  18.107  -0.081  1.00 20.00     0.014 C 
ENDBRANCH   7   8
ENDBRANCH   1   7
TORSDOF 5
ENDMDL
MODEL 3
REMARK VINA RESULT:      -4.2      0.250      1.324
REMARK  5 active torsions:
REMARK  status: ('A' for Active; 'I' for Inactive)
REMARK    1  A    between atoms: C1_1  and  C9_9 
REMARK    2  A    between atoms: C6_6  and  C7_7 
REMARK    3  A    between atoms: C6_6  and  C8_8 
REMARK    4  A    between atoms: C7_7  and  C9_9 
REMARK    5  A    between atoms: C8_8  and  C10_10 
ROOT
HETATM    1  C6  UNL     1     -32.918  15.887  -3.635  1.00 20.00     0.001 C 
ENDROOT
BRANCH   1   2
HETATM    2  C7  UNL     1     -33.711  14.681  -4.152  1.00 20.00     0.011 C 
BRANCH   2   3
HETATM    3  C9  UNL     1     -34.853  15.066  -5.106  1.00 20.00     0.043 C 
HETATM    4  C2  UNL     1     -34.392  15.237  -6.550  1.00 20.00     0.017 C 
BRANCH   3   5
HETATM    5  C1  UNL     1     -35.939  14.008  -5.002  1.00 20.00     0.235 C 
HETATM    6  O11 UNL     1     -35.846  12.971  -4.354  1.00 20.00    -0.306 OA
ENDBRANCH   3   5
ENDBRANCH   2   3
ENDBRANCH   1   2
BRANCH   1   7
HETATM    7  C8  UNL     1     -33.580  16.484  -2.385  1.00 20.00     0.008 C 
BRANCH   7   8
HETATM    8  C10 UNL     1     -33.410  18.015  -2.197  1.00 20.00    -0.051 C 
HETATM    9  C3  UNL     1     -32.225  18.253  -1.242  1.00 20.00     0.014 C 
HETATM   10  C4  UNL     1     -33.105  18.710  -3.535  1.00 20.00     0.014 C 
HETATM   11  C5  UNL     1     -34.670  18.642  -1.577  1.00 20.00     0.014 C 
ENDBRANCH   7   8
ENDBRANCH   1   7
TORSDOF 5
ENDMDL
MODEL 4
REMARK VINA RESULT:      -4.1      2.634      5.449
REMARK  5 active torsions:
REMARK  status: ('A' for Active; 'I' for Inactive)
REMARK    1  A    between atoms: C1_1  and  C9_9 
REMARK    2  A    between atoms: C6_6  and  C7_7 
REMARK    3  A    between atoms: C6_6  and  C8_8 
REMARK    4  A    between atoms: C7_7  and  C9_9 
REMARK    5  A    between atoms: C8_8  and  C10_10 
ROOT
HETATM    1  C6  UNL     1     -33.282  16.791  -3.388  1.00 20.00     0.001 C 
ENDROOT
BRANCH   1   2
HETATM    2  C7  UNL     1     -33.492  16.772  -1.870  1.00 20.00     0.011 C 
BRANCH   2   3
HETATM    3  C9  UNL     1     -33.463  18.170  -1.233  1.00 20.00     0.043 C 
HETATM    4  C2  UNL     1     -33.729  18.147   0.270  1.00 20.00     0.017 C 
BRANCH   3   5
HETATM    5  C1  UNL     1     -32.117  18.807  -1.538  1.00 20.00     0.235 C 
HETATM    6  O11 UNL     1     -31.123  18.719  -0.824  1.00 20.00    -0.306 OA
ENDBRANCH   3   5
ENDBRANCH   2   3
ENDBRANCH   1   2
BRANCH   1   7
HETATM    7  C8  UNL     1     -33.535  15.404  -3.995  1.00 20.00     0.008 C 
BRANCH   7   8
HETATM    8  C10 UNL     1     -34.605  15.344  -5.119  1.00 20.00    -0.051 C 
HETATM    9  C3  UNL     1     -35.388  16.671  -5.106  1.00 20.00     0.014 C 
HETATM   10  C4  UNL     1     -33.951  15.176  -6.501  1.00 20.00     0.014 C 
HETATM   11  C5  UNL     1     -35.595  14.192  -4.883  1.00 20.00     0.014 C 
ENDBRANCH   7   8
ENDBRANCH   1   7
TORSDOF 5
ENDMDL
MODEL 5
REMARK VINA RESULT:      -4.0     11.351     12.504
REMARK  5 active torsions:
REMARK  status: ('A' for Active; 'I' for Inactive)
REMARK    1  A    between atoms: C1_1  and  C9_9 
REMARK    2  A    between atoms: C6_6  and  C7_7 
REMARK    3  A    between atoms: C6_6  and  C8_8 
REMARK    4  A    between atoms: C7_7  and  C9_9 
REMARK    5  A    between atoms: C8_8  and  C10_10 
ROOT
HETATM    1  C6  UNL     1     -33.633   8.065   4.787  1.00 20.00     0.001 C 
ENDROOT
BRANCH   1   2
HETATM    2  C7  UNL     1     -32.241   8.464   4.284  1.00 20.00     0.011 C 
BRANCH   2   3
HETATM    3  C9  UNL     1     -32.042   8.217   2.780  1.00 20.00     0.043 C 
HETATM    4  C2  UNL     1     -32.344   6.779   2.367  1.00 20.00     0.017 C 
BRANCH   3   5
HETATM    5  C1  UNL     1     -32.914   9.198   2.015  1.00 20.00     0.235 C 
HETATM    6  O11 UNL     1     -32.712   9.562   0.861  1.00 20.00    -0.306 OA
ENDBRANCH   3   5
ENDBRANCH   2   3
ENDBRANCH   1   2
BRANCH   1   7
HETATM    7  C8  UNL     1     -33.553   6.835   5.702  1.00 20.00     0.008 C 
BRANCH   7   8
HETATM    8  C10 UNL     1     -34.514   5.668   5.349  1.00 20.00    -0.051 C 
HETATM    9  C3  UNL     1     -35.127   5.139   6.661  1.00 20.00     0.014 C 
HETATM   10  C4  UNL     1     -35.656   6.144   4.436  1.00 20.00     0.014 C 
HETATM   11  C5  UNL     1     -33.762   4.516   4.663  1.00 20.00     0.014 C 
ENDBRANCH   7   8
ENDBRANCH   1   7
TORSDOF 5
ENDMDL
MODEL 6
REMARK VINA RESULT:      -3.8      1.381      2.247
REMARK  5 active torsions:
REMARK  status: ('A' for Active; 'I' for Inactive)
REMARK    1  A    between atoms: C1_1  and  C9_9 
REMARK    2  A    between atoms: C6_6  and  C7_7 
REMARK    3  A    between atoms: C6_6  and  C8_8 
REMARK    4  A    between atoms: C7_7  and  C9_9 
REMARK    5  A    between atoms: C8_8  and  C10_10 
ROOT
HETATM    1  C6  UNL     1     -33.013  16.593  -3.251  1.00 20.00     0.001 C 
ENDROOT
BRANCH   1   2
HETATM    2  C7  UNL     1     -34.086  16.456  -4.338  1.00 20.00     0.011 C 
BRANCH   2   3
HETATM    3  C9  UNL     1     -34.042  15.106  -5.070  1.00 20.00     0.043 C 
HETATM    4  C2  UNL     1     -34.968  14.062  -4.454  1.00 20.00     0.017 C 
BRANCH   3   5
HETATM    5  C1  UNL     1     -34.385  15.343  -6.532  1.00 20.00     0.235 C 
HETATM    6  O11 UNL     1     -35.207  14.696  -7.172  1.00 20.00    -0.306 OA
ENDBRANCH   3   5
ENDBRANCH   2   3
ENDBRANCH   1   2
BRANCH   1   7
HETATM    7  C8  UNL     1     -33.653  16.707  -1.860  1.00 20.00     0.008 C 
BRANCH   7   8
HETATM    8  C10 UNL     1     -33.669  18.130  -1.239  1.00 20.00    -0.051 C 
HETATM    9  C3  UNL     1     -32.364  18.844  -1.644  1.00 20.00     0.014 C 
HETATM   10  C4  UNL     1     -34.858  18.953  -1.762  1.00 20.00     0.014 C 
HETATM   11  C5  UNL     1     -33.734  18.066   0.296  1.00 20.00     0.014 C 
ENDBRANCH   7   8
ENDBRANCH   1   7
TORSDOF 5
ENDMDL
MODEL 7
REMARK VINA RESULT:      -3.6     12.018     12.824
REMARK  5 active torsions:
REMARK  status: ('A' for Active; 'I' for Inactive)
REMARK    1  A    between atoms: C1_1  and  C9_9 
REMARK    2  A    between atoms: C6_6  and  C7_7 
REMARK    3  A    between atoms: C6_6  and  C8_8 
REMARK    4  A    between atoms: C7_7  and  C9_9 
REMARK    5  A    between atoms: C8_8  and  C10_10 
ROOT
HETATM    1  C6  UNL     1     -34.312   6.994   6.378  1.00 20.00     0.001 C 
ENDROOT
BRANCH   1   2
HETATM    2  C7  UNL     1     -34.466   5.469   6.373  1.00 20.00     0.011 C 
BRANCH   2   3
HETATM    3  C9  UNL     1     -34.990   4.913   5.039  1.00 20.00     0.043 C 
HETATM    4  C2  UNL     1     -35.769   5.945   4.228  1.00 20.00     0.017 C 
BRANCH   3   5
HETATM    5  C1  UNL     1     -33.810   4.375   4.248  1.00 20.00     0.235 C 
HETATM    6  O11 UNL     1     -33.462   4.784   3.145  1.00 20.00    -0.306 OA
ENDBRANCH   3   5
ENDBRANCH   2   3
ENDBRANCH   1   2
BRANCH   1   7
HETATM    7  C8  UNL     1     -32.887   7.403   5.979  1.00 20.00     0.008 C 
BRANCH   7   8
HETATM    8  C10 UNL     1     -32.773   8.334   4.742  1.00 20.00    -0.051 C 
HETATM    9  C3  UNL     1     -34.191   8.812   4.371  1.00 20.00     0.014 C 
HETATM   10  C4  UNL     1     -31.908   9.567   5.051  1.00 20.00     0.014 C 
HETATM   11  C5  UNL     1     -32.180   7.587   3.537  1.00 20.00     0.014 C 
ENDBRANCH   7   8
ENDBRANCH   1   7
TORSDOF 5
ENDMDL
MODEL 8
REMARK VINA RESULT:      -3.6      3.359      5.679
REMARK  5 active torsions:
REMARK  status: ('A' for Active; 'I' for Inactive)
REMARK    1  A    between atoms: C1_1  and  C9_9 
REMARK    2  A    between atoms: C6_6  and  C7_7 
REMARK    3  A    between atoms: C6_6  and  C8_8 
REMARK    4  A    between atoms: C7_7  and  C9_9 
REMARK    5  A    between atoms: C8_8  and  C10_10 
ROOT
HETATM    1  C6  UNL     1     -33.521  17.107  -1.685  1.00 20.00     0.001 C 
ENDROOT
BRANCH   1   2
HETATM    2  C7  UNL     1     -32.381  18.040  -1.260  1.00 20.00     0.011 C 
BRANCH   2   3
HETATM    3  C9  UNL     1     -32.741  18.937  -0.065  1.00 20.00     0.043 C 
HETATM    4  C2  UNL     1     -33.988  18.468   0.679  1.00 20.00     0.017 C 
BRANCH   3   5
HETATM    5  C1  UNL     1     -31.542  18.998   0.866  1.00 20.00     0.235 C 
HETATM    6  O11 UNL     1     -30.371  18.991   0.500  1.00 20.00    -0.306 OA
ENDBRANCH   3   5
ENDBRANCH   2   3
ENDBRANCH   1   2
BRANCH   1   7
HETATM    7  C8  UNL     1     -33.524  16.902  -3.207  1.00 20.00     0.008 C 
BRANCH   7   8
HETATM    8  C10 UNL     1     -34.460  17.843  -4.012  1.00 20.00    -0.051 C 
HETATM    9  C3  UNL     1     -33.592  18.933  -4.670  1.00 20.00     0.014 C 
HETATM   10  C4  UNL     1     -35.201  17.075  -5.120  1.00 20.00     0.014 C 
HETATM   11  C5  UNL     1     -35.487  18.525  -3.094  1.00 20.00     0.014 C 
ENDBRANCH   7   8
ENDBRANCH   1   7
TORSDOF 5
ENDMDL
MODEL 9
REMARK VINA RESULT:      -3.6     11.226     12.367
REMARK  5 active torsions:
REMARK  status: ('A' for Active; 'I' for Inactive)
REMARK    1  A    between atoms: C1_1  and  C9_9 
REMARK    2  A    between atoms: C6_6  and  C7_7 
REMARK    3  A    between atoms: C6_6  and  C8_8 
REMARK    4  A    between atoms: C7_7  and  C9_9 
REMARK    5  A    between atoms: C8_8  and  C10_10 
ROOT
HETATM    1  C6  UNL     1     -33.322   5.548   2.913  1.00 20.00     0.001 C 
ENDROOT
BRANCH   1   2
HETATM    2  C7  UNL     1     -32.204   6.550   2.607  1.00 20.00     0.011 C 
BRANCH   2   3
HETATM    3  C9  UNL     1     -32.703   7.996   2.460  1.00 20.00     0.043 C 
HETATM    4  C2  UNL     1     -32.249   8.903   3.600  1.00 20.00     0.017 C 
BRANCH   3   5
HETATM    5  C1  UNL     1     -32.234   8.530   1.117  1.00 20.00     0.235 C 
HETATM    6  O11 UNL     1     -32.669   9.541   0.575  1.00 20.00    -0.306 OA
ENDBRANCH   3   5
ENDBRANCH   2   3
ENDBRANCH   1   2
BRANCH   1   7
HETATM    7  C8  UNL     1     -33.325   5.166   4.400  1.00 20.00     0.008 C 
BRANCH   7   8
HETATM    8  C10 UNL     1     -34.407   5.857   5.272  1.00 20.00    -0.051 C 
HETATM    9  C3  UNL     1     -35.617   6.174   4.371  1.00 20.00     0.014 C 
HETATM   10  C4  UNL     1     -34.876   4.936   6.411  1.00 20.00     0.014 C 
HETATM   11  C5  UNL     1     -33.884   7.174   5.868  1.00 20.00     0.014 C 
ENDBRANCH   7   8
ENDBRANCH   1   7
TORSDOF 5
ENDMDL
