MODEL 1
REMARK VINA RESULT:      -3.9      0.000      0.000
REMARK  3 active torsions:
REMARK  status: ('A' for Active; 'I' for Inactive)
REMARK    1  A    between atoms: C4_4  and  C9_9 
REMARK    2  A    between atoms: C7_7  and  C8_8 
REMARK    3  A    between atoms: C7_7  and  N10_10 
ROOT
HETATM    1  C1  UNL     1     -33.637   4.635   3.131  1.00 20.00     0.032 C 
HETATM    2  C2  UNL     1     -34.250   5.307   4.356  1.00 20.00     0.038 C 
HETATM    3  C3  UNL     1     -32.859   5.732   2.424  1.00 20.00     0.273 C 
HETATM    4  C4  UNL     1     -33.781   6.763   4.295  1.00 20.00     0.226 C 
HETATM    5  N10 UNL     1     -32.548   6.673   3.503  1.00 20.00     0.094 N 
ENDROOT
BRANCH   4   6
HETATM    6  C9  UNL     1     -33.567   7.346   5.686  1.00 20.00     0.011 C 
HETATM    7  C5  UNL     1     -33.901   8.837   5.704  1.00 20.00     0.011 C 
HETATM    8  C6  UNL     1     -34.405   6.598   6.721  1.00 20.00     0.011 C 
ENDBRANCH   4   6
BRANCH   5   9
HETATM    9  C7  UNL     1     -32.105   7.959   2.978  1.00 20.00     0.287 C 
BRANCH   9  10
HETATM   10  C8  UNL     1     -32.127   8.009   1.459  1.00 20.00     0.144 C 
HETATM   11 CL11 UNL     1     -32.776   9.560   0.871  1.00 20.00    -0.129 Cl
ENDBRANCH   9  10
ENDBRANCH   5   9
TORSDOF 3
ENDMDL
MODEL 2
REMARK VINA RESULT:      -3.9      0.989      2.800
REMARK  3 active torsions:
REMARK  status: ('A' for Active; 'I' for Inactive)
REMARK    1  A    between atoms: C4_4  and  C9_9 
REMARK    2  A    between atoms: C7_7  and  C8_8 
REMARK    3  A    between atoms: C7_7  and  N10_10 
ROOT
HETATM    1  C1  UNL     1     -33.435   8.764   5.961  1.00 20.00     0.032 C 
HETATM    2  C2  UNL     1     -34.003   7.349   5.917  1.00 20.00     0.038 C 
HETATM    3  C3  UNL     1     -32.447   8.831   4.809  1.00 20.00     0.273 C 
HETATM    4  C4  UNL     1     -33.314   6.674   4.729  1.00 20.00     0.226 C 
HETATM    5  N10 UNL     1     -32.942   7.813   3.880  1.00 20.00     0.094 N 
ENDROOT
BRANCH   4   6
HETATM    6  C9  UNL     1     -34.232   5.676   4.036  1.00 20.00     0.011 C 
HETATM    7  C5  UNL     1     -33.842   4.242   4.394  1.00 20.00     0.011 C 
HETATM    8  C6  UNL     1     -35.693   5.939   4.402  1.00 20.00     0.011 C 
ENDBRANCH   4   6
BRANCH   5   9
HETATM    9  C7  UNL     1     -31.944   7.480   2.871  1.00 20.00     0.287 C 
BRANCH   9  10
HETATM   10  C8  UNL     1     -32.339   7.950   1.481  1.00 20.00     0.144 C 
HETATM   11 CL11 UNL     1     -32.887   9.646   1.503  1.00 20.00    -0.129 Cl
ENDBRANCH   9  10
ENDBRANCH   5   9
TORSDOF 3
ENDMDL
MODEL 3
REMARK VINA RESULT:      -3.7      9.445     11.089
REMARK  3 active torsions:
REMARK  status: ('A' for Active; 'I' for Inactive)
REMARK    1  A    between atoms: C4_4  and  C9_9 
REMARK    2  A    between atoms: C7_7  and  C8_8 
REMARK    3  A    between atoms: C7_7  and  N10_10 
ROOT
HETATM    1  C1  UNL     1     -43.194  13.049   7.824  1.00 20.00     0.032 C 
HETATM    2  C2  UNL     1     -42.688  14.444   8.174  1.00 20.00     0.038 C 
HETATM    3  C3  UNL     1     -42.223  12.524   6.779  1.00 20.00     0.273 C 
HETATM    4  C4  UNL     1     -41.438  14.648   7.314  1.00 20.00     0.226 C 
HETATM    5  N10 UNL     1     -40.995  13.272   7.056  1.00 20.00     0.094 N 
ENDROOT
BRANCH   4   6
HETATM    6  C9  UNL     1     -40.395  15.498   8.026  1.00 20.00     0.011 C 
HETATM    7  C5  UNL     1     -40.797  16.973   8.013  1.00 20.00     0.011 C 
HETATM    8  C6  UNL     1     -40.189  15.013   9.460  1.00 20.00     0.011 C 
ENDBRANCH   4   6
BRANCH   5   9
HETATM    9  C7  UNL     1     -40.047  13.169   5.952  1.00 20.00     0.287 C 
BRANCH   9  10
HETATM   10  C8  UNL     1     -39.629  11.734   5.675  1.00 20.00     0.144 C 
HETATM   11 CL11 UNL     1     -39.001  11.551   4.018  1.00 20.00    -0.129 Cl
ENDBRANCH   9  10
ENDBRANCH   5   9
TORSDOF 3
ENDMDL
MODEL 4
REMARK VINA RESULT:      -3.7      0.863      1.371
REMARK  3 active torsions:
REMARK  status: ('A' for Active; 'I' for Inactive)
REMARK    1  A    between atoms: C4_4  and  C9_9 
REMARK    2  A    between atoms: C7_7  and  C8_8 
REMARK    3  A    between atoms: C7_7  and  N10_10 
ROOT
HETATM    1  C1  UNL     1     -33.087   4.634   2.947  1.00 20.00     0.032 C 
HETATM    2  C2  UNL     1     -34.118   4.818   4.057  1.00 20.00     0.038 C 
HETATM    3  C3  UNL     1     -32.626   6.040   2.597  1.00 20.00     0.273 C 
HETATM    4  C4  UNL     1     -34.190   6.328   4.295  1.00 20.00     0.226 C 
HETATM    5  N10 UNL     1     -32.878   6.793   3.828  1.00 20.00     0.094 N 
ENDROOT
BRANCH   4   6
HETATM    6  C9  UNL     1     -34.464   6.656   5.757  1.00 20.00     0.011 C 
HETATM    7  C5  UNL     1     -34.739   5.382   6.555  1.00 20.00     0.011 C 
HETATM    8  C6  UNL     1     -33.293   7.427   6.367  1.00 20.00     0.011 C 
ENDBRANCH   4   6
BRANCH   5   9
HETATM    9  C7  UNL     1     -32.825   8.231   3.593  1.00 20.00     0.287 C 
BRANCH   9  10
HETATM   10  C8  UNL     1     -32.198   8.582   2.254  1.00 20.00     0.144 C 
HETATM   11 CL11 UNL     1     -33.046   9.943   1.478  1.00 20.00    -0.129 Cl
ENDBRANCH   9  10
ENDBRANCH   5   9
TORSDOF 3
ENDMDL
MODEL 5
REMARK VINA RESULT:      -3.6     11.503     13.222
REMARK  3 active torsions:
REMARK  status: ('A' for Active; 'I' for Inactive)
REMARK    1  A    between atoms: C4_4  and  C9_9 
REMARK    2  A    between atoms: C7_7  and  C8_8 
REMARK    3  A    between atoms: C7_7  and  N10_10 
ROOT
HETATM    1  C1  UNL     1     -34.101  18.914  -5.196  1.00 20.00     0.032 C 
HETATM    2  C2  UNL     1     -34.565  17.564  -5.735  1.00 20.00     0.038 C 
HETATM    3  C3  UNL     1     -33.710  18.652  -3.751  1.00 20.00     0.273 C 
HETATM    4  C4  UNL     1     -34.407  16.587  -4.567  1.00 20.00     0.226 C 
HETATM    5  N10 UNL     1     -33.370  17.228  -3.747  1.00 20.00     0.094 N 
ENDROOT
BRANCH   4   6
HETATM    6  C9  UNL     1     -34.026  15.193  -5.045  1.00 20.00     0.011 C 
HETATM    7  C5  UNL     1     -34.998  14.149  -4.496  1.00 20.00     0.011 C 
HETATM    8  C6  UNL     1     -33.987  15.136  -6.572  1.00 20.00     0.011 C 
ENDBRANCH   4   6
BRANCH   5   9
HETATM    9  C7  UNL     1     -33.299  16.700  -2.390  1.00 20.00     0.287 C 
BRANCH   9  10
HETATM   10  C8  UNL     1     -33.415  17.786  -1.334  1.00 20.00     0.144 C 
HETATM   11 CL11 UNL     1     -31.812  18.291  -0.745  1.00 20.00    -0.129 Cl
ENDBRANCH   9  10
ENDBRANCH   5   9
TORSDOF 3
ENDMDL
MODEL 6
REMARK VINA RESULT:      -3.6     11.691     13.420
REMARK  3 active torsions:
REMARK  status: ('A' for Active; 'I' for Inactive)
REMARK    1  A    between atoms: C4_4  and  C9_9 
REMARK    2  A    between atoms: C7_7  and  C8_8 
REMARK    3  A    between atoms: C7_7  and  N10_10 
ROOT
HETATM    1  C1  UNL     1     -33.437  17.394  -2.113  1.00 20.00     0.032 C 
HETATM    2  C2  UNL     1     -33.310  16.183  -3.032  1.00 20.00     0.038 C 
HETATM    3  C3  UNL     1     -34.127  18.458  -2.951  1.00 20.00     0.273 C 
HETATM    4  C4  UNL     1     -33.947  16.612  -4.357  1.00 20.00     0.226 C 
HETATM    5  N10 UNL     1     -34.870  17.676  -3.942  1.00 20.00     0.094 N 
ENDROOT
BRANCH   4   6
HETATM    6  C9  UNL     1     -34.637  15.448  -5.055  1.00 20.00     0.011 C 
HETATM    7  C5  UNL     1     -34.060  15.238  -6.455  1.00 20.00     0.011 C 
HETATM    8  C6  UNL     1     -34.511  14.169  -4.228  1.00 20.00     0.011 C 
ENDBRANCH   4   6
BRANCH   5   9
HETATM    9  C7  UNL     1     -35.324  18.510  -5.049  1.00 20.00     0.287 C 
BRANCH   9  10
HETATM   10  C8  UNL     1     -34.178  19.216  -5.755  1.00 20.00     0.144 C 
HETATM   11 CL11 UNL     1     -34.054  18.706  -7.458  1.00 20.00    -0.129 Cl
ENDBRANCH   9  10
ENDBRANCH   5   9
TORSDOF 3
ENDMDL
MODEL 7
REMARK VINA RESULT:      -3.5     11.476     13.205
REMARK  3 active torsions:
REMARK  status: ('A' for Active; 'I' for Inactive)
REMARK    1  A    between atoms: C4_4  and  C9_9 
REMARK    2  A    between atoms: C7_7  and  C8_8 
REMARK    3  A    between atoms: C7_7  and  N10_10 
ROOT
HETATM    1  C1  UNL     1     -33.485  17.400  -2.086  1.00 20.00     0.032 C 
HETATM    2  C2  UNL     1     -33.270  16.250  -3.065  1.00 20.00     0.038 C 
HETATM    3  C3  UNL     1     -34.382  18.384  -2.819  1.00 20.00     0.273 C 
HETATM    4  C4  UNL     1     -34.068  16.629  -4.315  1.00 20.00     0.226 C 
HETATM    5  N10 UNL     1     -35.091  17.538  -3.783  1.00 20.00     0.094 N 
ENDROOT
BRANCH   4   6
HETATM    6  C9  UNL     1     -34.648  15.403  -5.008  1.00 20.00     0.011 C 
HETATM    7  C5  UNL     1     -34.043  15.232  -6.401  1.00 20.00     0.011 C 
HETATM    8  C6  UNL     1     -34.418  14.147  -4.168  1.00 20.00     0.011 C 
ENDBRANCH   4   6
BRANCH   5   9
HETATM    9  C7  UNL     1     -35.747  18.336  -4.812  1.00 20.00     0.287 C 
BRANCH   9  10
HETATM   10  C8  UNL     1     -37.262  18.282  -4.716  1.00 20.00     0.144 C 
HETATM   11 CL11 UNL     1     -37.902  16.774  -5.417  1.00 20.00    -0.129 Cl
ENDBRANCH   9  10
ENDBRANCH   5   9
TORSDOF 3
ENDMDL
MODEL 8
REMARK VINA RESULT:      -3.5      9.446     11.092
REMARK  3 active torsions:
REMARK  status: ('A' for Active; 'I' for Inactive)
REMARK    1  A    between atoms: C4_4  and  C9_9 
REMARK    2  A    between atoms: C7_7  and  C8_8 
REMARK    3  A    between atoms: C7_7  and  N10_10 
ROOT
HETATM    1  C1  UNL     1     -42.403  15.422   5.353  1.00 20.00     0.032 C 
HETATM    2  C2  UNL     1     -41.747  15.731   6.695  1.00 20.00     0.038 C 
HETATM    3  C3  UNL     1     -41.911  14.033   4.981  1.00 20.00     0.273 C 
HETATM    4  C4  UNL     1     -40.913  14.492   7.032  1.00 20.00     0.226 C 
HETATM    5  N10 UNL     1     -41.591  13.431   6.277  1.00 20.00     0.094 N 
ENDROOT
BRANCH   4   6
HETATM    6  C9  UNL     1     -40.867  14.234   8.532  1.00 20.00     0.011 C 
HETATM    7  C5  UNL     1     -40.172  15.386   9.258  1.00 20.00     0.011 C 
HETATM    8  C6  UNL     1     -42.275  14.025   9.089  1.00 20.00     0.011 C 
ENDBRANCH   4   6
BRANCH   5   9
HETATM    9  C7  UNL     1     -40.783  12.227   6.122  1.00 20.00     0.287 C 
BRANCH   9  10
HETATM   10  C8  UNL     1     -39.386  12.525   5.605  1.00 20.00     0.144 C 
HETATM   11 CL11 UNL     1     -39.060  11.659   4.082  1.00 20.00    -0.129 Cl
ENDBRANCH   9  10
ENDBRANCH   5   9
TORSDOF 3
ENDMDL
MODEL 9
REMARK VINA RESULT:      -3.4     11.462     13.209
REMARK  3 active torsions:
REMARK  status: ('A' for Active; 'I' for Inactive)
REMARK    1  A    between atoms: C4_4  and  C9_9 
REMARK    2  A    between atoms: C7_7  and  C8_8 
REMARK    3  A    between atoms: C7_7  and  N10_10 
ROOT
HETATM    1  C1  UNL     1     -34.433  16.947  -7.439  1.00 20.00     0.032 C 
HETATM    2  C2  UNL     1     -34.855  15.634  -6.788  1.00 20.00     0.038 C 
HETATM    3  C3  UNL     1     -34.544  17.989  -6.338  1.00 20.00     0.273 C 
HETATM    4  C4  UNL     1     -35.180  15.988  -5.335  1.00 20.00     0.226 C 
HETATM    5  N10 UNL     1     -34.385  17.203  -5.112  1.00 20.00     0.094 N 
ENDROOT
BRANCH   4   6
HETATM    6  C9  UNL     1     -34.830  14.852  -4.384  1.00 20.00     0.011 C 
HETATM    7  C5  UNL     1     -35.700  13.626  -4.663  1.00 20.00     0.011 C 
HETATM    8  C6  UNL     1     -33.349  14.491  -4.494  1.00 20.00     0.011 C 
ENDBRANCH   4   6
BRANCH   5   9
HETATM    9  C7  UNL     1     -34.801  17.957  -3.936  1.00 20.00     0.287 C 
BRANCH   9  10
HETATM   10  C8  UNL     1     -33.651  18.230  -2.981  1.00 20.00     0.144 C 
HETATM   11 CL11 UNL     1     -33.538  16.970  -1.726  1.00 20.00    -0.129 Cl
ENDBRANCH   9  10
ENDBRANCH   5   9
TORSDOF 3
ENDMDL
