MODEL 1
REMARK VINA RESULT:      -4.4      0.000      0.000
REMARK  0 active torsions:
REMARK  status: ('A' for Active; 'I' for Inactive)
ROOT
HETATM    1  C1  UNL     1     -34.798   5.050   6.078  1.00 20.00     0.002 C 
HETATM    2  C2  UNL     1     -33.739   6.174   6.172  1.00 20.00     0.015 C 
HETATM    3  C3  UNL     1     -35.361   5.765   4.824  1.00 20.00     0.015 C 
HETATM    4  C4  UNL     1     -31.549   8.142   4.196  1.00 20.00     0.036 C 
HETATM    5  C5  UNL     1     -32.256   9.367   4.766  1.00 20.00     0.168 C 
HETATM    6  C6  UNL     1     -32.633   7.418   3.392  1.00 20.00     0.050 C 
HETATM    7  C7  UNL     1     -32.935   5.923   3.724  1.00 20.00     0.178 C 
HETATM    8  C8  UNL     1     -33.913   7.838   4.169  1.00 20.00     0.139 C 
HETATM    9  C9  UNL     1     -34.001   6.421   4.689  1.00 20.00     0.016 C 
HETATM   10  O10 UNL     1     -33.420   5.237   2.596  1.00 20.00    -0.234 OA
HETATM   11  O11 UNL     1     -33.572   8.902   5.088  1.00 20.00    -0.385 OA
ENDROOT
TORSDOF 0
ENDMDL
MODEL 2
REMARK VINA RESULT:      -4.0      1.332      3.712
REMARK  0 active torsions:
REMARK  status: ('A' for Active; 'I' for Inactive)
ROOT
HETATM    1  C1  UNL     1     -31.950   7.626   2.094  1.00 20.00     0.002 C 
HETATM    2  C2  UNL     1     -32.484   6.550   3.069  1.00 20.00     0.015 C 
HETATM    3  C3  UNL     1     -33.067   8.566   2.613  1.00 20.00     0.015 C 
HETATM    4  C4  UNL     1     -33.700   6.104   6.369  1.00 20.00     0.036 C 
HETATM    5  C5  UNL     1     -34.969   5.535   5.745  1.00 20.00     0.168 C 
HETATM    6  C6  UNL     1     -33.672   7.564   5.908  1.00 20.00     0.050 C 
HETATM    7  C7  UNL     1     -32.408   8.083   5.153  1.00 20.00     0.178 C 
HETATM    8  C8  UNL     1     -34.427   7.464   4.552  1.00 20.00     0.139 C 
HETATM    9  C9  UNL     1     -33.105   7.700   3.857  1.00 20.00     0.016 C 
HETATM   10  O10 UNL     1     -32.226   9.464   5.351  1.00 20.00    -0.234 OA
HETATM   11  O11 UNL     1     -35.045   6.160   4.458  1.00 20.00    -0.385 OA
ENDROOT
TORSDOF 0
ENDMDL
MODEL 3
REMARK VINA RESULT:      -3.9      9.552     10.634
REMARK  0 active torsions:
REMARK  status: ('A' for Active; 'I' for Inactive)
ROOT
HETATM    1  C1  UNL     1     -38.811  12.201   5.931  1.00 20.00     0.002 C 
HETATM    2  C2  UNL     1     -39.695  12.879   7.004  1.00 20.00     0.015 C 
HETATM    3  C3  UNL     1     -40.105  11.596   5.331  1.00 20.00     0.015 C 
HETATM    4  C4  UNL     1     -42.755  14.617   7.434  1.00 20.00     0.036 C 
HETATM    5  C5  UNL     1     -43.144  13.533   8.434  1.00 20.00     0.168 C 
HETATM    6  C6  UNL     1     -42.642  13.878   6.098  1.00 20.00     0.050 C 
HETATM    7  C7  UNL     1     -41.304  13.980   5.300  1.00 20.00     0.178 C 
HETATM    8  C8  UNL     1     -42.234  12.455   6.577  1.00 20.00     0.139 C 
HETATM    9  C9  UNL     1     -40.852  12.720   6.023  1.00 20.00     0.016 C 
HETATM   10  O10 UNL     1     -41.521  13.835   3.918  1.00 20.00    -0.234 OA
HETATM   11  O11 UNL     1     -42.411  12.378   8.010  1.00 20.00    -0.385 OA
ENDROOT
TORSDOF 0
ENDMDL
MODEL 4
REMARK VINA RESULT:      -3.8     12.902     13.992
REMARK  0 active torsions:
REMARK  status: ('A' for Active; 'I' for Inactive)
ROOT
HETATM    1  C1  UNL     1     -33.285  15.815  -3.850  1.00 20.00     0.002 C 
HETATM    2  C2  UNL     1     -34.511  16.620  -4.343  1.00 20.00     0.015 C 
HETATM    3  C3  UNL     1     -33.910  14.566  -4.519  1.00 20.00     0.015 C 
HETATM    4  C4  UNL     1     -36.637  17.063  -7.146  1.00 20.00     0.036 C 
HETATM    5  C5  UNL     1     -37.799  16.705  -6.227  1.00 20.00     0.168 C 
HETATM    6  C6  UNL     1     -35.790  15.789  -7.202  1.00 20.00     0.050 C 
HETATM    7  C7  UNL     1     -34.281  15.878  -6.813  1.00 20.00     0.178 C 
HETATM    8  C8  UNL     1     -36.100  15.162  -5.813  1.00 20.00     0.139 C 
HETATM    9  C9  UNL     1     -34.694  15.527  -5.392  1.00 20.00     0.016 C 
HETATM   10  O10 UNL     1     -33.523  14.897  -7.478  1.00 20.00    -0.234 OA
HETATM   11  O11 UNL     1     -37.214  15.869  -5.221  1.00 20.00    -0.385 OA
ENDROOT
TORSDOF 0
ENDMDL
MODEL 5
REMARK VINA RESULT:      -3.7     12.868     13.916
REMARK  0 active torsions:
REMARK  status: ('A' for Active; 'I' for Inactive)
ROOT
HETATM    1  C1  UNL     1     -37.840  17.248  -6.127  1.00 20.00     0.002 C 
HETATM    2  C2  UNL     1     -36.885  16.901  -4.960  1.00 20.00     0.015 C 
HETATM    3  C3  UNL     1     -36.616  17.176  -7.074  1.00 20.00     0.015 C 
HETATM    4  C4  UNL     1     -34.167  14.800  -4.085  1.00 20.00     0.036 C 
HETATM    5  C5  UNL     1     -33.386  16.069  -3.763  1.00 20.00     0.168 C 
HETATM    6  C6  UNL     1     -34.427  14.887  -5.592  1.00 20.00     0.050 C 
HETATM    7  C7  UNL     1     -35.900  14.796  -6.101  1.00 20.00     0.178 C 
HETATM    8  C8  UNL     1     -34.460  16.428  -5.801  1.00 20.00     0.139 C 
HETATM    9  C9  UNL     1     -35.953  16.314  -6.016  1.00 20.00     0.016 C 
HETATM   10  O10 UNL     1     -35.959  14.265  -7.402  1.00 20.00    -0.234 OA
HETATM   11  O11 UNL     1     -33.972  17.071  -4.602  1.00 20.00    -0.385 OA
ENDROOT
TORSDOF 0
ENDMDL
MODEL 6
REMARK VINA RESULT:      -3.6     11.893     13.196
REMARK  0 active torsions:
REMARK  status: ('A' for Active; 'I' for Inactive)
ROOT
HETATM    1  C1  UNL     1     -36.082  16.295  -6.016  1.00 20.00     0.002 C 
HETATM    2  C2  UNL     1     -35.800  17.037  -4.688  1.00 20.00     0.015 C 
HETATM    3  C3  UNL     1     -34.552  16.260  -6.253  1.00 20.00     0.015 C 
HETATM    4  C4  UNL     1     -33.632  17.049  -1.882  1.00 20.00     0.036 C 
HETATM    5  C5  UNL     1     -33.290  18.490  -2.247  1.00 20.00     0.168 C 
HETATM    6  C6  UNL     1     -33.115  16.226  -3.065  1.00 20.00     0.050 C 
HETATM    7  C7  UNL     1     -34.111  15.282  -3.809  1.00 20.00     0.178 C 
HETATM    8  C8  UNL     1     -33.241  17.255  -4.225  1.00 20.00     0.139 C 
HETATM    9  C9  UNL     1     -34.398  16.439  -4.755  1.00 20.00     0.016 C 
HETATM   10  O10 UNL     1     -33.444  14.186  -4.386  1.00 20.00    -0.234 OA
HETATM   11  O11 UNL     1     -33.504  18.561  -3.662  1.00 20.00    -0.385 OA
ENDROOT
TORSDOF 0
ENDMDL
MODEL 7
REMARK VINA RESULT:      -3.5     12.130     13.688
REMARK  0 active torsions:
REMARK  status: ('A' for Active; 'I' for Inactive)
ROOT
HETATM    1  C1  UNL     1     -32.314  18.142  -1.281  1.00 20.00     0.002 C 
HETATM    2  C2  UNL     1     -32.778  18.828  -2.588  1.00 20.00     0.015 C 
HETATM    3  C3  UNL     1     -33.667  17.388  -1.265  1.00 20.00     0.015 C 
HETATM    4  C4  UNL     1     -34.417  18.189  -5.666  1.00 20.00     0.036 C 
HETATM    5  C5  UNL     1     -35.424  19.263  -5.267  1.00 20.00     0.168 C 
HETATM    6  C6  UNL     1     -34.604  17.086  -4.621  1.00 20.00     0.050 C 
HETATM    7  C7  UNL     1     -33.361  16.616  -3.802  1.00 20.00     0.178 C 
HETATM    8  C8  UNL     1     -35.085  17.915  -3.395  1.00 20.00     0.139 C 
HETATM    9  C9  UNL     1     -33.739  17.656  -2.756  1.00 20.00     0.016 C 
HETATM   10  O10 UNL     1     -33.495  15.277  -3.393  1.00 20.00    -0.234 OA
HETATM   11  O11 UNL     1     -35.406  19.254  -3.835  1.00 20.00    -0.385 OA
ENDROOT
TORSDOF 0
ENDMDL
MODEL 8
REMARK VINA RESULT:      -3.5     12.798     13.930
REMARK  0 active torsions:
REMARK  status: ('A' for Active; 'I' for Inactive)
ROOT
HETATM    1  C1  UNL     1     -24.396  -4.599  10.733  1.00 20.00     0.002 C 
HETATM    2  C2  UNL     1     -25.855  -4.275  11.136  1.00 20.00     0.015 C 
HETATM    3  C3  UNL     1     -24.398  -3.293   9.900  1.00 20.00     0.015 C 
HETATM    4  C4  UNL     1     -27.967  -1.610  12.137  1.00 20.00     0.036 C 
HETATM    5  C5  UNL     1     -28.842  -1.951  10.935  1.00 20.00     0.168 C 
HETATM    6  C6  UNL     1     -26.640  -1.156  11.524  1.00 20.00     0.050 C 
HETATM    7  C7  UNL     1     -25.328  -1.879  11.963  1.00 20.00     0.178 C 
HETATM    8  C8  UNL     1     -26.630  -1.967  10.196  1.00 20.00     0.139 C 
HETATM    9  C9  UNL     1     -25.534  -2.825  10.789  1.00 20.00     0.016 C 
HETATM   10  O10 UNL     1     -24.215  -1.026  11.860  1.00 20.00    -0.234 OA
HETATM   11  O11 UNL     1     -27.940  -2.546   9.995  1.00 20.00    -0.385 OA
ENDROOT
TORSDOF 0
ENDMDL
MODEL 9
REMARK VINA RESULT:      -3.5     12.065     13.283
REMARK  0 active torsions:
REMARK  status: ('A' for Active; 'I' for Inactive)
ROOT
HETATM    1  C1  UNL     1     -33.856  15.573  -4.407  1.00 20.00     0.002 C 
HETATM    2  C2  UNL     1     -33.163  16.012  -3.095  1.00 20.00     0.015 C 
HETATM    3  C3  UNL     1     -34.856  16.737  -4.200  1.00 20.00     0.015 C 
HETATM    4  C4  UNL     1     -32.100  18.882  -1.305  1.00 20.00     0.036 C 
HETATM    5  C5  UNL     1     -32.982  18.401  -0.158  1.00 20.00     0.168 C 
HETATM    6  C6  UNL     1     -33.084  19.184  -2.439  1.00 20.00     0.050 C 
HETATM    7  C7  UNL     1     -32.873  18.482  -3.817  1.00 20.00     0.178 C 
HETATM    8  C8  UNL     1     -34.230  18.183  -2.116  1.00 20.00     0.139 C 
HETATM    9  C9  UNL     1     -33.799  17.380  -3.323  1.00 20.00     0.016 C 
HETATM   10  O10 UNL     1     -33.378  19.263  -4.872  1.00 20.00    -0.234 OA
HETATM   11  O11 UNL     1     -34.011  17.635  -0.796  1.00 20.00    -0.385 OA
ENDROOT
TORSDOF 0
ENDMDL
