MODEL 1
REMARK VINA RESULT:      -3.9      0.000      0.000
REMARK  1 active torsions:
REMARK  status: ('A' for Active; 'I' for Inactive)
REMARK    1  A    between atoms: C3_3  and  C6_6 
ROOT
HETATM    1  C1  UNL     1     -31.409  18.522  -0.391  1.00 20.00     0.087 C 
HETATM    2  C5  UNL     1     -32.311  18.516  -1.489  1.00 20.00     0.095 C 
HETATM    3  C6  UNL     1     -32.943  17.379  -1.948  1.00 20.00     0.032 C 
HETATM    4  N8  UNL     1     -30.672  18.531   0.506  1.00 20.00    -0.192 NA
ENDROOT
BRANCH   3   5
HETATM    5  C3  UNL     1     -33.841  17.279  -3.029  1.00 20.00     0.031 A 
HETATM    6  C4  UNL     1     -33.953  16.315  -4.009  1.00 20.00     0.048 A 
HETATM    7  C7  UNL     1     -33.110  15.109  -4.151  1.00 20.00     0.072 C 
HETATM    8  N9  UNL     1     -34.955  16.513  -4.938  1.00 20.00    -0.258 NA
HETATM    9  C2  UNL     1     -35.590  17.627  -4.647  1.00 20.00     0.167 A 
HETATM   10  S10 UNL     1     -35.033  18.487  -3.271  1.00 20.00    -0.081 SA
ENDBRANCH   3   5
TORSDOF 1
ENDMDL
MODEL 2
REMARK VINA RESULT:      -3.9      2.785      3.358
REMARK  1 active torsions:
REMARK  status: ('A' for Active; 'I' for Inactive)
REMARK    1  A    between atoms: C3_3  and  C6_6 
ROOT
HETATM    1  C1  UNL     1     -33.229  16.910  -2.400  1.00 20.00     0.087 C 
HETATM    2  C5  UNL     1     -33.602  16.196  -3.572  1.00 20.00     0.095 C 
HETATM    3  C6  UNL     1     -34.570  16.633  -4.452  1.00 20.00     0.032 C 
HETATM    4  N8  UNL     1     -32.921  17.489  -1.443  1.00 20.00    -0.192 NA
ENDROOT
BRANCH   3   5
HETATM    5  C3  UNL     1     -35.008  15.991  -5.627  1.00 20.00     0.031 A 
HETATM    6  C4  UNL     1     -35.622  14.767  -5.798  1.00 20.00     0.048 A 
HETATM    7  C7  UNL     1     -35.974  13.807  -4.731  1.00 20.00     0.072 C 
HETATM    8  N9  UNL     1     -35.929  14.424  -7.100  1.00 20.00    -0.258 NA
HETATM    9  C2  UNL     1     -35.543  15.395  -7.898  1.00 20.00     0.167 A 
HETATM   10  S10 UNL     1     -34.802  16.749  -7.150  1.00 20.00    -0.081 SA
ENDBRANCH   3   5
TORSDOF 1
ENDMDL
MODEL 3
REMARK VINA RESULT:      -3.8      1.684      2.399
REMARK  1 active torsions:
REMARK  status: ('A' for Active; 'I' for Inactive)
REMARK    1  A    between atoms: C3_3  and  C6_6 
ROOT
HETATM    1  C1  UNL     1     -32.205  18.176  -1.340  1.00 20.00     0.087 C 
HETATM    2  C5  UNL     1     -33.144  17.362  -2.030  1.00 20.00     0.095 C 
HETATM    3  C6  UNL     1     -33.183  17.244  -3.403  1.00 20.00     0.032 C 
HETATM    4  N8  UNL     1     -31.441  18.839  -0.773  1.00 20.00    -0.192 NA
ENDROOT
BRANCH   3   5
HETATM    5  C3  UNL     1     -34.079  16.470  -4.169  1.00 20.00     0.031 A 
HETATM    6  C4  UNL     1     -35.214  16.844  -4.859  1.00 20.00     0.048 A 
HETATM    7  C7  UNL     1     -35.772  18.209  -4.953  1.00 20.00     0.072 C 
HETATM    8  N9  UNL     1     -35.878  15.829  -5.519  1.00 20.00    -0.258 NA
HETATM    9  C2  UNL     1     -35.236  14.699  -5.319  1.00 20.00     0.167 A 
HETATM   10  S10 UNL     1     -33.826  14.785  -4.346  1.00 20.00    -0.081 SA
ENDBRANCH   3   5
TORSDOF 1
ENDMDL
MODEL 4
REMARK VINA RESULT:      -3.6     13.232     13.853
REMARK  1 active torsions:
REMARK  status: ('A' for Active; 'I' for Inactive)
REMARK    1  A    between atoms: C3_3  and  C6_6 
ROOT
HETATM    1  C1  UNL     1     -39.519  11.893   4.460  1.00 20.00     0.087 C 
HETATM    2  C5  UNL     1     -40.128  12.089   5.730  1.00 20.00     0.095 C 
HETATM    3  C6  UNL     1     -41.218  12.908   5.931  1.00 20.00     0.032 C 
HETATM    4  N8  UNL     1     -39.019  11.730   3.426  1.00 20.00    -0.192 NA
ENDROOT
BRANCH   3   5
HETATM    5  C3  UNL     1     -41.879  13.167   7.149  1.00 20.00     0.031 A 
HETATM    6  C4  UNL     1     -41.564  14.046   8.165  1.00 20.00     0.048 A 
HETATM    7  C7  UNL     1     -40.402  14.958   8.204  1.00 20.00     0.072 C 
HETATM    8  N9  UNL     1     -42.430  14.059   9.240  1.00 20.00    -0.258 NA
HETATM    9  C2  UNL     1     -43.391  13.188   9.023  1.00 20.00     0.167 A 
HETATM   10  S10 UNL     1     -43.314  12.318   7.547  1.00 20.00    -0.081 SA
ENDBRANCH   3   5
TORSDOF 1
ENDMDL
MODEL 5
REMARK VINA RESULT:      -3.4     12.991     16.239
REMARK  1 active torsions:
REMARK  status: ('A' for Active; 'I' for Inactive)
REMARK    1  A    between atoms: C3_3  and  C6_6 
ROOT
HETATM    1  C1  UNL     1     -26.105  19.232   7.051  1.00 20.00     0.087 C 
HETATM    2  C5  UNL     1     -25.006  19.263   7.951  1.00 20.00     0.095 C 
HETATM    3  C6  UNL     1     -24.982  18.573   9.145  1.00 20.00     0.032 C 
HETATM    4  N8  UNL     1     -27.000  19.210   6.313  1.00 20.00    -0.192 NA
ENDROOT
BRANCH   3   5
HETATM    5  C3  UNL     1     -23.944  18.552  10.098  1.00 20.00     0.031 A 
HETATM    6  C4  UNL     1     -23.999  18.565  11.477  1.00 20.00     0.048 A 
HETATM    7  C7  UNL     1     -25.223  18.609  12.304  1.00 20.00     0.072 C 
HETATM    8  N9  UNL     1     -22.782  18.535  12.128  1.00 20.00    -0.258 NA
HETATM    9  C2  UNL     1     -21.820  18.498  11.232  1.00 20.00     0.167 A 
HETATM   10  S10 UNL     1     -22.309  18.500   9.588  1.00 20.00    -0.081 SA
ENDBRANCH   3   5
TORSDOF 1
ENDMDL
MODEL 6
REMARK VINA RESULT:      -3.4     12.709     15.945
REMARK  1 active torsions:
REMARK  status: ('A' for Active; 'I' for Inactive)
REMARK    1  A    between atoms: C3_3  and  C6_6 
ROOT
HETATM    1  C1  UNL     1     -26.483  19.262   7.006  1.00 20.00     0.087 C 
HETATM    2  C5  UNL     1     -25.884  19.263   8.295  1.00 20.00     0.095 C 
HETATM    3  C6  UNL     1     -24.624  18.761   8.548  1.00 20.00     0.032 C 
HETATM    4  N8  UNL     1     -26.976  19.263   5.956  1.00 20.00    -0.192 NA
ENDROOT
BRANCH   3   5
HETATM    5  C3  UNL     1     -23.958  18.714   9.789  1.00 20.00     0.031 A 
HETATM    6  C4  UNL     1     -22.610  18.770  10.080  1.00 20.00     0.048 A 
HETATM    7  C7  UNL     1     -21.508  18.898   9.103  1.00 20.00     0.072 C 
HETATM    8  N9  UNL     1     -22.280  18.698  11.418  1.00 20.00    -0.258 NA
HETATM    9  C2  UNL     1     -23.384  18.588  12.124  1.00 20.00     0.167 A 
HETATM   10  S10 UNL     1     -24.855  18.564  11.242  1.00 20.00    -0.081 SA
ENDBRANCH   3   5
TORSDOF 1
ENDMDL
MODEL 7
REMARK VINA RESULT:      -3.3      3.861      4.997
REMARK  1 active torsions:
REMARK  status: ('A' for Active; 'I' for Inactive)
REMARK    1  A    between atoms: C3_3  and  C6_6 
ROOT
HETATM    1  C1  UNL     1     -29.028  18.714   3.443  1.00 20.00     0.087 C 
HETATM    2  C5  UNL     1     -30.358  18.976   3.014  1.00 20.00     0.095 C 
HETATM    3  C6  UNL     1     -30.879  18.510   1.825  1.00 20.00     0.032 C 
HETATM    4  N8  UNL     1     -27.944  18.503   3.796  1.00 20.00    -0.192 NA
ENDROOT
BRANCH   3   5
HETATM    5  C3  UNL     1     -32.176  18.726   1.319  1.00 20.00     0.031 A 
HETATM    6  C4  UNL     1     -32.671  18.573   0.040  1.00 20.00     0.048 A 
HETATM    7  C7  UNL     1     -31.910  18.128  -1.146  1.00 20.00     0.072 C 
HETATM    8  N9  UNL     1     -34.009  18.871  -0.128  1.00 20.00    -0.258 NA
HETATM    9  C2  UNL     1     -34.510  19.245   1.029  1.00 20.00     0.167 A 
HETATM   10  S10 UNL     1     -33.428  19.263   2.360  1.00 20.00    -0.081 SA
ENDBRANCH   3   5
TORSDOF 1
ENDMDL
MODEL 8
REMARK VINA RESULT:      -3.2     14.385     16.002
REMARK  1 active torsions:
REMARK  status: ('A' for Active; 'I' for Inactive)
REMARK    1  A    between atoms: C3_3  and  C6_6 
ROOT
HETATM    1  C1  UNL     1     -42.273   3.402  -3.498  1.00 20.00     0.087 C 
HETATM    2  C5  UNL     1     -42.730   3.906  -2.249  1.00 20.00     0.095 C 
HETATM    3  C6  UNL     1     -42.103   4.928  -1.568  1.00 20.00     0.032 C 
HETATM    4  N8  UNL     1     -41.904   2.987  -4.516  1.00 20.00    -0.192 NA
ENDROOT
BRANCH   3   5
HETATM    5  C3  UNL     1     -42.479   5.483  -0.328  1.00 20.00     0.031 A 
HETATM    6  C4  UNL     1     -42.216   6.727   0.208  1.00 20.00     0.048 A 
HETATM    7  C7  UNL     1     -41.440   7.810  -0.431  1.00 20.00     0.072 C 
HETATM    8  N9  UNL     1     -42.737   6.963   1.465  1.00 20.00    -0.258 NA
HETATM    9  C2  UNL     1     -43.389   5.893   1.864  1.00 20.00     0.167 A 
HETATM   10  S10 UNL     1     -43.414   4.566   0.777  1.00 20.00    -0.081 SA
ENDBRANCH   3   5
TORSDOF 1
ENDMDL
MODEL 9
REMARK VINA RESULT:      -3.2      2.406      5.404
REMARK  1 active torsions:
REMARK  status: ('A' for Active; 'I' for Inactive)
REMARK    1  A    between atoms: C3_3  and  C6_6 
ROOT
HETATM    1  C1  UNL     1     -35.539  14.800  -6.524  1.00 20.00     0.087 C 
HETATM    2  C5  UNL     1     -35.088  15.294  -5.269  1.00 20.00     0.095 C 
HETATM    3  C6  UNL     1     -34.977  16.637  -4.977  1.00 20.00     0.032 C 
HETATM    4  N8  UNL     1     -35.906  14.392  -7.546  1.00 20.00    -0.192 NA
ENDROOT
BRANCH   3   5
HETATM    5  C3  UNL     1     -34.535  17.214  -3.770  1.00 20.00     0.031 A 
HETATM    6  C4  UNL     1     -34.963  18.350  -3.115  1.00 20.00     0.048 A 
HETATM    7  C7  UNL     1     -36.038  19.263  -3.558  1.00 20.00     0.072 C 
HETATM    8  N9  UNL     1     -34.313  18.645  -1.933  1.00 20.00    -0.258 NA
HETATM    9  C2  UNL     1     -33.399  17.727  -1.709  1.00 20.00     0.167 A 
HETATM   10  S10 UNL     1     -33.267  16.480  -2.879  1.00 20.00    -0.081 SA
ENDBRANCH   3   5
TORSDOF 1
ENDMDL
