MODEL 1
REMARK VINA RESULT:      -3.8      0.000      0.000
REMARK  2 active torsions:
REMARK  status: ('A' for Active; 'I' for Inactive)
REMARK    1  A    between atoms: C6_6  and  C7_7 
REMARK    2  A    between atoms: C7_7  and  N8_8 
ROOT
HETATM    1  C1  UNL     1     -31.423  18.896  -0.305  1.00 20.00     0.157 C 
HETATM    2  N8  UNL     1     -31.709  19.158  -1.416  1.00 20.00    -0.274 NA
HETATM    3  S9  UNL     1     -31.013  18.546   1.194  1.00 20.00    -0.055 SA
ENDROOT
BRANCH   2   4
HETATM    4  C7  UNL     1     -33.109  18.946  -1.761  1.00 20.00     0.165 C 
BRANCH   4   5
HETATM    5  C6  UNL     1     -33.177  18.051  -2.997  1.00 20.00     0.067 C 
HETATM    6  C4  UNL     1     -33.295  16.579  -2.598  1.00 20.00     0.017 C 
HETATM    7  C2  UNL     1     -33.321  15.632  -3.798  1.00 20.00     0.002 C 
HETATM    8  C3  UNL     1     -34.493  15.897  -4.738  1.00 20.00     0.010 C 
HETATM    9  C5  UNL     1     -34.484  17.306  -5.318  1.00 20.00     0.074 C 
HETATM   10  S10 UNL     1     -34.598  18.570  -4.020  1.00 20.00    -0.163 SA
ENDBRANCH   4   5
ENDBRANCH   2   4
TORSDOF 2
ENDMDL
MODEL 2
REMARK VINA RESULT:      -3.6     12.128     13.111
REMARK  2 active torsions:
REMARK  status: ('A' for Active; 'I' for Inactive)
REMARK    1  A    between atoms: C6_6  and  C7_7 
REMARK    2  A    between atoms: C7_7  and  N8_8 
ROOT
HETATM    1  C1  UNL     1     -32.321   8.310   1.305  1.00 20.00     0.157 C 
HETATM    2  N8  UNL     1     -32.115   7.643   2.253  1.00 20.00    -0.274 NA
HETATM    3  S9  UNL     1     -32.589   9.195   0.009  1.00 20.00    -0.055 SA
ENDROOT
BRANCH   2   4
HETATM    4  C7  UNL     1     -32.515   8.235   3.524  1.00 20.00     0.165 C 
BRANCH   4   5
HETATM    5  C6  UNL     1     -32.919   7.114   4.479  1.00 20.00     0.067 C 
HETATM    6  C4  UNL     1     -33.815   7.647   5.599  1.00 20.00     0.017 C 
HETATM    7  C2  UNL     1     -34.213   6.574   6.612  1.00 20.00     0.002 C 
HETATM    8  C3  UNL     1     -34.987   5.420   5.982  1.00 20.00     0.010 C 
HETATM    9  C5  UNL     1     -34.199   4.698   4.896  1.00 20.00     0.074 C 
HETATM   10  S10 UNL     1     -33.767   5.807   3.526  1.00 20.00    -0.163 SA
ENDBRANCH   4   5
ENDBRANCH   2   4
TORSDOF 2
ENDMDL
MODEL 3
REMARK VINA RESULT:      -3.6     12.097     13.189
REMARK  2 active torsions:
REMARK  status: ('A' for Active; 'I' for Inactive)
REMARK    1  A    between atoms: C6_6  and  C7_7 
REMARK    2  A    between atoms: C7_7  and  N8_8 
ROOT
HETATM    1  C1  UNL     1     -32.324   8.281   1.522  1.00 20.00     0.157 C 
HETATM    2  N8  UNL     1     -32.124   7.646   2.494  1.00 20.00    -0.274 NA
HETATM    3  S9  UNL     1     -32.584   9.123   0.196  1.00 20.00    -0.055 SA
ENDROOT
BRANCH   2   4
HETATM    4  C7  UNL     1     -32.573   8.260   3.738  1.00 20.00     0.165 C 
BRANCH   4   5
HETATM    5  C6  UNL     1     -33.630   7.360   4.373  1.00 20.00     0.067 C 
HETATM    6  C4  UNL     1     -33.472   5.914   3.899  1.00 20.00     0.017 C 
HETATM    7  C2  UNL     1     -34.534   4.975   4.469  1.00 20.00     0.002 C 
HETATM    8  C3  UNL     1     -34.514   4.911   5.993  1.00 20.00     0.010 C 
HETATM    9  C5  UNL     1     -34.757   6.264   6.649  1.00 20.00     0.074 C 
HETATM   10  S10 UNL     1     -33.485   7.475   6.190  1.00 20.00    -0.163 SA
ENDBRANCH   4   5
ENDBRANCH   2   4
TORSDOF 2
ENDMDL
MODEL 4
REMARK VINA RESULT:      -3.4     12.075     15.551
REMARK  2 active torsions:
REMARK  status: ('A' for Active; 'I' for Inactive)
REMARK    1  A    between atoms: C6_6  and  C7_7 
REMARK    2  A    between atoms: C7_7  and  N8_8 
ROOT
HETATM    1  C1  UNL     1     -26.200  19.262   6.834  1.00 20.00     0.157 C 
HETATM    2  N8  UNL     1     -25.743  19.262   7.919  1.00 20.00    -0.274 NA
HETATM    3  S9  UNL     1     -26.840  19.262   5.375  1.00 20.00    -0.055 SA
ENDROOT
BRANCH   2   4
HETATM    4  C7  UNL     1     -24.288  19.189   7.978  1.00 20.00     0.165 C 
BRANCH   4   5
HETATM    5  C6  UNL     1     -23.855  19.244   9.441  1.00 20.00     0.067 C 
HETATM    6  C4  UNL     1     -24.858  18.510  10.334  1.00 20.00     0.017 C 
HETATM    7  C2  UNL     1     -24.498  18.572  11.818  1.00 20.00     0.002 C 
HETATM    8  C3  UNL     1     -23.140  17.948  12.126  1.00 20.00     0.010 C 
HETATM    9  C5  UNL     1     -21.992  18.624  11.389  1.00 20.00     0.074 C 
HETATM   10  S10 UNL     1     -22.188  18.513   9.588  1.00 20.00    -0.163 SA
ENDBRANCH   4   5
ENDBRANCH   2   4
TORSDOF 2
ENDMDL
MODEL 5
REMARK VINA RESULT:      -3.2      3.230      5.257
REMARK  2 active torsions:
REMARK  status: ('A' for Active; 'I' for Inactive)
REMARK    1  A    between atoms: C6_6  and  C7_7 
REMARK    2  A    between atoms: C7_7  and  N8_8 
ROOT
HETATM    1  C1  UNL     1     -36.691  15.856  -5.665  1.00 20.00     0.157 C 
HETATM    2  N8  UNL     1     -35.703  15.216  -5.660  1.00 20.00    -0.274 NA
HETATM    3  S9  UNL     1     -38.040  16.703  -5.675  1.00 20.00    -0.055 SA
ENDROOT
BRANCH   2   4
HETATM    4  C7  UNL     1     -34.466  15.986  -5.634  1.00 20.00     0.165 C 
BRANCH   4   5
HETATM    5  C6  UNL     1     -34.413  16.783  -4.333  1.00 20.00     0.067 C 
HETATM    6  C4  UNL     1     -33.431  16.151  -3.345  1.00 20.00     0.017 C 
HETATM    7  C2  UNL     1     -33.373  16.883  -2.005  1.00 20.00     0.002 C 
HETATM    8  C3  UNL     1     -32.936  18.338  -2.142  1.00 20.00     0.010 C 
HETATM    9  C5  UNL     1     -33.867  19.159  -3.025  1.00 20.00     0.074 C 
HETATM   10  S10 UNL     1     -33.941  18.505  -4.717  1.00 20.00    -0.163 SA
ENDBRANCH   4   5
ENDBRANCH   2   4
TORSDOF 2
ENDMDL
MODEL 6
REMARK VINA RESULT:      -3.2      2.303      3.188
REMARK  2 active torsions:
REMARK  status: ('A' for Active; 'I' for Inactive)
REMARK    1  A    between atoms: C6_6  and  C7_7 
REMARK    2  A    between atoms: C7_7  and  N8_8 
ROOT
HETATM    1  C1  UNL     1     -33.445  17.311  -1.524  1.00 20.00     0.157 C 
HETATM    2  N8  UNL     1     -33.377  16.629  -2.481  1.00 20.00    -0.274 NA
HETATM    3  S9  UNL     1     -33.536  18.214  -0.215  1.00 20.00    -0.055 SA
ENDROOT
BRANCH   2   4
HETATM    4  C7  UNL     1     -33.485  17.336  -3.752  1.00 20.00     0.165 C 
BRANCH   4   5
HETATM    5  C6  UNL     1     -34.627  16.720  -4.557  1.00 20.00     0.067 C 
HETATM    6  C4  UNL     1     -34.800  17.439  -5.897  1.00 20.00     0.017 C 
HETATM    7  C2  UNL     1     -35.961  16.892  -6.726  1.00 20.00     0.002 C 
HETATM    8  C3  UNL     1     -35.802  15.415  -7.071  1.00 20.00     0.010 C 
HETATM    9  C5  UNL     1     -35.712  14.523  -5.840  1.00 20.00     0.074 C 
HETATM   10  S10 UNL     1     -34.282  14.944  -4.804  1.00 20.00    -0.163 SA
ENDBRANCH   4   5
ENDBRANCH   2   4
TORSDOF 2
ENDMDL
MODEL 7
REMARK VINA RESULT:      -3.2     12.767     13.533
REMARK  2 active torsions:
REMARK  status: ('A' for Active; 'I' for Inactive)
REMARK    1  A    between atoms: C6_6  and  C7_7 
REMARK    2  A    between atoms: C7_7  and  N8_8 
ROOT
HETATM    1  C1  UNL     1     -39.729  12.017   5.568  1.00 20.00     0.157 C 
HETATM    2  N8  UNL     1     -40.167  12.292   6.626  1.00 20.00    -0.274 NA
HETATM    3  S9  UNL     1     -39.114  11.640   4.148  1.00 20.00    -0.055 SA
ENDROOT
BRANCH   2   4
HETATM    4  C7  UNL     1     -41.561  12.719   6.625  1.00 20.00     0.165 C 
BRANCH   4   5
HETATM    5  C6  UNL     1     -41.681  13.998   7.451  1.00 20.00     0.067 C 
HETATM    6  C4  UNL     1     -40.387  14.274   8.220  1.00 20.00     0.017 C 
HETATM    7  C2  UNL     1     -40.466  15.520   9.100  1.00 20.00     0.002 C 
HETATM    8  C3  UNL     1     -40.750  16.792   8.307  1.00 20.00     0.010 C 
HETATM    9  C5  UNL     1     -42.067  16.735   7.544  1.00 20.00     0.074 C 
HETATM   10  S10 UNL     1     -42.088  15.384   6.333  1.00 20.00    -0.163 SA
ENDBRANCH   4   5
ENDBRANCH   2   4
TORSDOF 2
ENDMDL
MODEL 8
REMARK VINA RESULT:      -3.1      3.985      5.692
REMARK  2 active torsions:
REMARK  status: ('A' for Active; 'I' for Inactive)
REMARK    1  A    between atoms: C6_6  and  C7_7 
REMARK    2  A    between atoms: C7_7  and  N8_8 
ROOT
HETATM    1  C1  UNL     1     -38.294  16.780  -5.495  1.00 20.00     0.157 C 
HETATM    2  N8  UNL     1     -37.831  16.188  -6.402  1.00 20.00    -0.274 NA
HETATM    3  S9  UNL     1     -38.940  17.572  -4.274  1.00 20.00    -0.055 SA
ENDROOT
BRANCH   2   4
HETATM    4  C7  UNL     1     -36.415  16.433  -6.643  1.00 20.00     0.165 C 
BRANCH   4   5
HETATM    5  C6  UNL     1     -35.644  16.152  -5.355  1.00 20.00     0.067 C 
HETATM    6  C4  UNL     1     -34.788  14.891  -5.496  1.00 20.00     0.017 C 
HETATM    7  C2  UNL     1     -34.029  14.536  -4.218  1.00 20.00     0.002 C 
HETATM    8  C3  UNL     1     -33.070  15.635  -3.772  1.00 20.00     0.010 C 
HETATM    9  C5  UNL     1     -33.770  16.957  -3.486  1.00 20.00     0.074 C 
HETATM   10  S10 UNL     1     -34.612  17.605  -4.958  1.00 20.00    -0.163 SA
ENDBRANCH   4   5
ENDBRANCH   2   4
TORSDOF 2
ENDMDL
MODEL 9
REMARK VINA RESULT:      -3.1     24.456     25.465
REMARK  2 active torsions:
REMARK  status: ('A' for Active; 'I' for Inactive)
REMARK    1  A    between atoms: C6_6  and  C7_7 
REMARK    2  A    between atoms: C7_7  and  N8_8 
ROOT
HETATM    1  C1  UNL     1     -23.068  -3.343   9.394  1.00 20.00     0.157 C 
HETATM    2  N8  UNL     1     -23.137  -3.237  10.564  1.00 20.00    -0.274 NA
HETATM    3  S9  UNL     1     -22.953  -3.479   7.811  1.00 20.00    -0.055 SA
ENDROOT
BRANCH   2   4
HETATM    4  C7  UNL     1     -24.440  -3.549  11.138  1.00 20.00     0.165 C 
BRANCH   4   5
HETATM    5  C6  UNL     1     -25.395  -2.397  10.835  1.00 20.00     0.067 C 
HETATM    6  C4  UNL     1     -26.782  -2.922  10.459  1.00 20.00     0.017 C 
HETATM    7  C2  UNL     1     -27.768  -1.812  10.100  1.00 20.00     0.002 C 
HETATM    8  C3  UNL     1     -27.999  -0.829  11.243  1.00 20.00     0.010 C 
HETATM    9  C5  UNL     1     -26.724  -0.126  11.690  1.00 20.00     0.074 C 
HETATM   10  S10 UNL     1     -25.481  -1.304  12.295  1.00 20.00    -0.163 SA
ENDBRANCH   4   5
ENDBRANCH   2   4
TORSDOF 2
ENDMDL
