MODEL 1
REMARK VINA RESULT:      -4.6      0.000      0.000
REMARK  2 active torsions:
REMARK  status: ('A' for Active; 'I' for Inactive)
REMARK    1  A    between atoms: C1_1  and  C7_7 
REMARK    2  A    between atoms: C3_3  and  C7_7 
ROOT
HETATM    1  C2  UNL     1     -35.544   6.124   4.394  1.00 20.00     0.015 A 
HETATM    2  C3  UNL     1     -34.130   6.631   4.293  1.00 20.00     0.004 A 
HETATM    3  C4  UNL     1     -34.425   5.352   5.059  1.00 20.00    -0.043 A 
HETATM    4  C5  UNL     1     -33.989   4.056   4.425  1.00 20.00     0.015 C 
HETATM    5  C6  UNL     1     -34.370   5.342   6.564  1.00 20.00     0.015 C 
ENDROOT
BRANCH   2   6
HETATM    6  C7  UNL     1     -33.736   7.901   4.968  1.00 20.00     0.118 C 
BRANCH   6   7
HETATM    7  C1  UNL     1     -32.373   8.495   4.558  1.00 20.00     0.172 C 
HETATM    8  O8  UNL     1     -32.018   9.533   5.181  1.00 20.00    -0.648 OA
HETATM    9  O9  UNL     1     -31.771   7.866   3.641  1.00 20.00    -0.648 OA
ENDBRANCH   6   7
ENDBRANCH   2   6
TORSDOF 2
ENDMDL
MODEL 2
REMARK VINA RESULT:      -4.1      0.796      1.933
REMARK  2 active torsions:
REMARK  status: ('A' for Active; 'I' for Inactive)
REMARK    1  A    between atoms: C1_1  and  C7_7 
REMARK    2  A    between atoms: C3_3  and  C7_7 
ROOT
HETATM    1  C2  UNL     1     -34.782   5.785   6.290  1.00 20.00     0.015 A 
HETATM    2  C3  UNL     1     -34.314   7.009   5.549  1.00 20.00     0.004 A 
HETATM    3  C4  UNL     1     -34.812   5.798   4.777  1.00 20.00    -0.043 A 
HETATM    4  C5  UNL     1     -36.153   5.919   4.099  1.00 20.00     0.015 C 
HETATM    5  C6  UNL     1     -33.836   4.917   4.043  1.00 20.00     0.015 C 
ENDROOT
BRANCH   2   6
HETATM    6  C7  UNL     1     -32.878   7.407   5.585  1.00 20.00     0.118 C 
BRANCH   6   7
HETATM    7  C1  UNL     1     -32.421   8.406   4.502  1.00 20.00     0.172 C 
HETATM    8  O8  UNL     1     -32.405   7.965   3.321  1.00 20.00    -0.648 OA
HETATM    9  O9  UNL     1     -32.117   9.556   4.933  1.00 20.00    -0.648 OA
ENDBRANCH   6   7
ENDBRANCH   2   6
TORSDOF 2
ENDMDL
MODEL 3
REMARK VINA RESULT:      -4.0      1.374      2.214
REMARK  2 active torsions:
REMARK  status: ('A' for Active; 'I' for Inactive)
REMARK    1  A    between atoms: C1_1  and  C7_7 
REMARK    2  A    between atoms: C3_3  and  C7_7 
ROOT
HETATM    1  C2  UNL     1     -34.070   4.232   4.416  1.00 20.00     0.015 A 
HETATM    2  C3  UNL     1     -33.245   5.479   4.244  1.00 20.00     0.004 A 
HETATM    3  C4  UNL     1     -34.597   5.553   4.934  1.00 20.00    -0.043 A 
HETATM    4  C5  UNL     1     -34.597   5.778   6.424  1.00 20.00     0.015 C 
HETATM    5  C6  UNL     1     -35.774   6.170   4.225  1.00 20.00     0.015 C 
ENDROOT
BRANCH   2   6
HETATM    6  C7  UNL     1     -33.003   6.039   2.884  1.00 20.00     0.118 C 
BRANCH   6   7
HETATM    7  C1  UNL     1     -32.291   7.407   2.827  1.00 20.00     0.172 C 
HETATM    8  O8  UNL     1     -31.989   7.914   3.941  1.00 20.00    -0.648 OA
HETATM    9  O9  UNL     1     -32.096   7.857   1.661  1.00 20.00    -0.648 OA
ENDBRANCH   6   7
ENDBRANCH   2   6
TORSDOF 2
ENDMDL
MODEL 4
REMARK VINA RESULT:      -4.0      2.542      4.082
REMARK  2 active torsions:
REMARK  status: ('A' for Active; 'I' for Inactive)
REMARK    1  A    between atoms: C1_1  and  C7_7 
REMARK    2  A    between atoms: C3_3  and  C7_7 
ROOT
HETATM    1  C2  UNL     1     -32.401   6.871   3.522  1.00 20.00     0.015 A 
HETATM    2  C3  UNL     1     -33.776   7.295   3.967  1.00 20.00     0.004 A 
HETATM    3  C4  UNL     1     -32.702   8.342   3.721  1.00 20.00    -0.043 A 
HETATM    4  C5  UNL     1     -32.850   9.203   2.493  1.00 20.00     0.015 C 
HETATM    5  C6  UNL     1     -32.052   9.045   4.883  1.00 20.00     0.015 C 
ENDROOT
BRANCH   2   6
HETATM    6  C7  UNL     1     -34.265   6.949   5.331  1.00 20.00     0.118 C 
BRANCH   6   7
HETATM    7  C1  UNL     1     -34.474   5.448   5.620  1.00 20.00     0.172 C 
HETATM    8  O8  UNL     1     -34.965   4.771   4.675  1.00 20.00    -0.648 OA
HETATM    9  O9  UNL     1     -34.125   5.074   6.777  1.00 20.00    -0.648 OA
ENDBRANCH   6   7
ENDBRANCH   2   6
TORSDOF 2
ENDMDL
MODEL 5
REMARK VINA RESULT:      -3.8     15.538     16.404
REMARK  2 active torsions:
REMARK  status: ('A' for Active; 'I' for Inactive)
REMARK    1  A    between atoms: C1_1  and  C7_7 
REMARK    2  A    between atoms: C3_3  and  C7_7 
ROOT
HETATM    1  C2  UNL     1     -23.918  17.123  10.484  1.00 20.00     0.015 A 
HETATM    2  C3  UNL     1     -22.985  18.266  10.786  1.00 20.00     0.004 A 
HETATM    3  C4  UNL     1     -24.489  18.478  10.845  1.00 20.00    -0.043 A 
HETATM    4  C5  UNL     1     -25.108  18.641  12.209  1.00 20.00     0.015 C 
HETATM    5  C6  UNL     1     -25.184  19.263   9.763  1.00 20.00     0.015 C 
ENDROOT
BRANCH   2   6
HETATM    6  C7  UNL     1     -22.131  18.845   9.711  1.00 20.00     0.118 C 
BRANCH   6   7
HETATM    7  C1  UNL     1     -22.005  18.013   8.418  1.00 20.00     0.172 C 
HETATM    8  O8  UNL     1     -21.293  16.975   8.502  1.00 20.00    -0.648 OA
HETATM    9  O9  UNL     1     -22.636  18.475   7.424  1.00 20.00    -0.648 OA
ENDBRANCH   6   7
ENDBRANCH   2   6
TORSDOF 2
ENDMDL
MODEL 6
REMARK VINA RESULT:      -3.8      2.534      3.857
REMARK  2 active torsions:
REMARK  status: ('A' for Active; 'I' for Inactive)
REMARK    1  A    between atoms: C1_1  and  C7_7 
REMARK    2  A    between atoms: C3_3  and  C7_7 
ROOT
HETATM    1  C2  UNL     1     -34.433   8.142   4.742  1.00 20.00     0.015 A 
HETATM    2  C3  UNL     1     -33.696   7.371   5.805  1.00 20.00     0.004 A 
HETATM    3  C4  UNL     1     -32.936   7.950   4.623  1.00 20.00    -0.043 A 
HETATM    4  C5  UNL     1     -32.050   9.140   4.891  1.00 20.00     0.015 C 
HETATM    5  C6  UNL     1     -32.424   7.043   3.536  1.00 20.00     0.015 C 
ENDROOT
BRANCH   2   6
HETATM    6  C7  UNL     1     -33.930   5.909   5.974  1.00 20.00     0.118 C 
BRANCH   6   7
HETATM    7  C1  UNL     1     -34.731   5.214   4.854  1.00 20.00     0.172 C 
HETATM    8  O8  UNL     1     -35.810   5.777   4.521  1.00 20.00    -0.648 OA
HETATM    9  O9  UNL     1     -34.206   4.156   4.401  1.00 20.00    -0.648 OA
ENDBRANCH   6   7
ENDBRANCH   2   6
TORSDOF 2
ENDMDL
MODEL 7
REMARK VINA RESULT:      -3.8     12.135     13.097
REMARK  2 active torsions:
REMARK  status: ('A' for Active; 'I' for Inactive)
REMARK    1  A    between atoms: C1_1  and  C7_7 
REMARK    2  A    between atoms: C3_3  and  C7_7 
ROOT
HETATM    1  C2  UNL     1     -34.171  17.804  -1.421  1.00 20.00     0.015 A 
HETATM    2  C3  UNL     1     -33.325  16.835  -2.204  1.00 20.00     0.004 A 
HETATM    3  C4  UNL     1     -32.797  18.226  -1.894  1.00 20.00    -0.043 A 
HETATM    4  C5  UNL     1     -31.699  18.332  -0.868  1.00 20.00     0.015 C 
HETATM    5  C6  UNL     1     -32.713  19.262  -2.984  1.00 20.00     0.015 C 
ENDROOT
BRANCH   2   6
HETATM    6  C7  UNL     1     -33.735  16.416  -3.574  1.00 20.00     0.118 C 
BRANCH   6   7
HETATM    7  C1  UNL     1     -33.355  14.980  -3.990  1.00 20.00     0.172 C 
HETATM    8  O8  UNL     1     -34.299  14.144  -4.000  1.00 20.00    -0.648 OA
HETATM    9  O9  UNL     1     -32.133  14.813  -4.272  1.00 20.00    -0.648 OA
ENDBRANCH   6   7
ENDBRANCH   2   6
TORSDOF 2
ENDMDL
MODEL 8
REMARK VINA RESULT:      -3.7      1.468      1.668
REMARK  2 active torsions:
REMARK  status: ('A' for Active; 'I' for Inactive)
REMARK    1  A    between atoms: C1_1  and  C7_7 
REMARK    2  A    between atoms: C3_3  and  C7_7 
ROOT
HETATM    1  C2  UNL     1     -35.125   6.638   4.413  1.00 20.00     0.015 A 
HETATM    2  C3  UNL     1     -33.623   6.572   4.345  1.00 20.00     0.004 A 
HETATM    3  C4  UNL     1     -34.339   6.237   5.643  1.00 20.00    -0.043 A 
HETATM    4  C5  UNL     1     -34.369   4.789   6.058  1.00 20.00     0.015 C 
HETATM    5  C6  UNL     1     -34.297   7.201   6.800  1.00 20.00     0.015 C 
ENDROOT
BRANCH   2   6
HETATM    6  C7  UNL     1     -32.823   7.817   4.165  1.00 20.00     0.118 C 
BRANCH   6   7
HETATM    7  C1  UNL     1     -32.504   8.218   2.710  1.00 20.00     0.172 C 
HETATM    8  O8  UNL     1     -32.744   9.419   2.408  1.00 20.00    -0.648 OA
HETATM    9  O9  UNL     1     -32.037   7.288   1.992  1.00 20.00    -0.648 OA
ENDBRANCH   6   7
ENDBRANCH   2   6
TORSDOF 2
ENDMDL
MODEL 9
REMARK VINA RESULT:      -3.7      8.897      9.836
REMARK  2 active torsions:
REMARK  status: ('A' for Active; 'I' for Inactive)
REMARK    1  A    between atoms: C1_1  and  C7_7 
REMARK    2  A    between atoms: C3_3  and  C7_7 
ROOT
HETATM    1  C2  UNL     1     -41.047  13.914   7.188  1.00 20.00     0.015 A 
HETATM    2  C3  UNL     1     -40.954  13.257   5.837  1.00 20.00     0.004 A 
HETATM    3  C4  UNL     1     -42.301  13.380   6.529  1.00 20.00    -0.043 A 
HETATM    4  C5  UNL     1     -43.278  14.376   5.961  1.00 20.00     0.015 C 
HETATM    5  C6  UNL     1     -42.954  12.164   7.134  1.00 20.00     0.015 C 
ENDROOT
BRANCH   2   6
HETATM    6  C7  UNL     1     -40.245  11.956   5.680  1.00 20.00     0.118 C 
BRANCH   6   7
HETATM    7  C1  UNL     1     -39.025  11.953   4.736  1.00 20.00     0.172 C 
HETATM    8  O8  UNL     1     -39.280  11.792   3.512  1.00 20.00    -0.648 OA
HETATM    9  O9  UNL     1     -37.908  12.116   5.309  1.00 20.00    -0.648 OA
ENDBRANCH   6   7
ENDBRANCH   2   6
TORSDOF 2
ENDMDL
