MODEL 1
REMARK VINA RESULT:      -4.2      0.000      0.000
REMARK  2 active torsions:
REMARK  status: ('A' for Active; 'I' for Inactive)
REMARK    1  A    between atoms: C6_6  and  C7_7 
REMARK    2  A    between atoms: C7_7  and  N8_8 
ROOT
HETATM    1  C1  UNL     1     -32.321   8.294   1.474  1.00 20.00     0.157 C 
HETATM    2  N8  UNL     1     -32.101   7.634   2.423  1.00 20.00    -0.274 NA
HETATM    3  S9  UNL     1     -32.612   9.172   0.176  1.00 20.00    -0.055 SA
ENDROOT
BRANCH   2   4
HETATM    4  C7  UNL     1     -32.383   8.274   3.702  1.00 20.00     0.165 C 
BRANCH   4   5
HETATM    5  C6  UNL     1     -33.504   7.506   4.397  1.00 20.00     0.067 C 
HETATM    6  C4  UNL     1     -33.295   7.486   5.913  1.00 20.00     0.017 C 
HETATM    7  C2  UNL     1     -34.416   6.768   6.663  1.00 20.00     0.002 C 
HETATM    8  C3  UNL     1     -34.566   5.307   6.251  1.00 20.00     0.010 C 
HETATM    9  C5  UNL     1     -34.879   5.135   4.772  1.00 20.00     0.074 C 
HETATM   10  S10 UNL     1     -33.562   5.811   3.721  1.00 20.00    -0.163 SA
ENDBRANCH   4   5
ENDBRANCH   2   4
TORSDOF 2
ENDMDL
MODEL 2
REMARK VINA RESULT:      -3.8     11.558     12.177
REMARK  2 active torsions:
REMARK  status: ('A' for Active; 'I' for Inactive)
REMARK    1  A    between atoms: C6_6  and  C7_7 
REMARK    2  A    between atoms: C7_7  and  N8_8 
ROOT
HETATM    1  C1  UNL     1     -33.506  16.052  -3.067  1.00 20.00     0.157 C 
HETATM    2  N8  UNL     1     -33.488  16.791  -2.151  1.00 20.00    -0.274 NA
HETATM    3  S9  UNL     1     -33.543  15.038  -4.295  1.00 20.00    -0.055 SA
ENDROOT
BRANCH   2   4
HETATM    4  C7  UNL     1     -32.774  18.042  -2.378  1.00 20.00     0.165 C 
BRANCH   4   5
HETATM    5  C6  UNL     1     -32.596  18.753  -1.039  1.00 20.00     0.067 C 
HETATM    6  C4  UNL     1     -31.186  18.533  -0.487  1.00 20.00     0.017 C 
HETATM    7  C2  UNL     1     -30.938  19.263   0.833  1.00 20.00     0.002 C 
HETATM    8  C3  UNL     1     -31.886  18.821   1.943  1.00 20.00     0.010 C 
HETATM    9  C5  UNL     1     -33.351  19.059   1.605  1.00 20.00     0.074 C 
HETATM   10  S10 UNL     1     -33.860  18.137   0.126  1.00 20.00    -0.163 SA
ENDBRANCH   4   5
ENDBRANCH   2   4
TORSDOF 2
ENDMDL
MODEL 3
REMARK VINA RESULT:      -3.6     12.070     12.924
REMARK  2 active torsions:
REMARK  status: ('A' for Active; 'I' for Inactive)
REMARK    1  A    between atoms: C6_6  and  C7_7 
REMARK    2  A    between atoms: C7_7  and  N8_8 
ROOT
HETATM    1  C1  UNL     1     -32.410  18.143  -0.852  1.00 20.00     0.157 C 
HETATM    2  N8  UNL     1     -33.191  17.521  -1.474  1.00 20.00    -0.274 NA
HETATM    3  S9  UNL     1     -31.353  18.970   0.007  1.00 20.00    -0.055 SA
ENDROOT
BRANCH   2   4
HETATM    4  C7  UNL     1     -33.580  18.112  -2.750  1.00 20.00     0.165 C 
BRANCH   4   5
HETATM    5  C6  UNL     1     -34.160  17.016  -3.639  1.00 20.00     0.067 C 
HETATM    6  C4  UNL     1     -33.219  15.812  -3.706  1.00 20.00     0.017 C 
HETATM    7  C2  UNL     1     -33.774  14.663  -4.548  1.00 20.00     0.002 C 
HETATM    8  C3  UNL     1     -34.033  15.061  -5.998  1.00 20.00     0.010 C 
HETATM    9  C5  UNL     1     -35.035  16.198  -6.133  1.00 20.00     0.074 C 
HETATM   10  S10 UNL     1     -34.460  17.706  -5.303  1.00 20.00    -0.163 SA
ENDBRANCH   4   5
ENDBRANCH   2   4
TORSDOF 2
ENDMDL
MODEL 4
REMARK VINA RESULT:      -3.5     12.193     12.829
REMARK  2 active torsions:
REMARK  status: ('A' for Active; 'I' for Inactive)
REMARK    1  A    between atoms: C6_6  and  C7_7 
REMARK    2  A    between atoms: C7_7  and  N8_8 
ROOT
HETATM    1  C1  UNL     1     -28.784  19.110   3.003  1.00 20.00     0.157 C 
HETATM    2  N8  UNL     1     -29.625  19.262   2.196  1.00 20.00    -0.274 NA
HETATM    3  S9  UNL     1     -27.628  18.910   4.083  1.00 20.00    -0.055 SA
ENDROOT
BRANCH   2   4
HETATM    4  C7  UNL     1     -30.979  18.959   2.646  1.00 20.00     0.165 C 
BRANCH   4   5
HETATM    5  C6  UNL     1     -31.785  18.440   1.458  1.00 20.00     0.067 C 
HETATM    6  C4  UNL     1     -31.050  18.705   0.142  1.00 20.00     0.017 C 
HETATM    7  C2  UNL     1     -31.792  18.162  -1.079  1.00 20.00     0.002 C 
HETATM    8  C3  UNL     1     -33.178  18.775  -1.252  1.00 20.00     0.010 C 
HETATM    9  C5  UNL     1     -34.093  18.524  -0.063  1.00 20.00     0.074 C 
HETATM   10  S10 UNL     1     -33.426  19.240   1.465  1.00 20.00    -0.163 SA
ENDBRANCH   4   5
ENDBRANCH   2   4
TORSDOF 2
ENDMDL
MODEL 5
REMARK VINA RESULT:      -3.4     12.063     12.998
REMARK  2 active torsions:
REMARK  status: ('A' for Active; 'I' for Inactive)
REMARK    1  A    between atoms: C6_6  and  C7_7 
REMARK    2  A    between atoms: C7_7  and  N8_8 
ROOT
HETATM    1  C1  UNL     1     -31.221  18.651   0.182  1.00 20.00     0.157 C 
HETATM    2  N8  UNL     1     -31.636  18.689  -0.918  1.00 20.00    -0.274 NA
HETATM    3  S9  UNL     1     -30.640  18.593   1.665  1.00 20.00    -0.055 SA
ENDROOT
BRANCH   2   4
HETATM    4  C7  UNL     1     -33.008  19.166  -1.047  1.00 20.00     0.165 C 
BRANCH   4   5
HETATM    5  C6  UNL     1     -33.781  18.195  -1.935  1.00 20.00     0.067 C 
HETATM    6  C4  UNL     1     -32.894  17.027  -2.370  1.00 20.00     0.017 C 
HETATM    7  C2  UNL     1     -33.632  15.998  -3.224  1.00 20.00     0.002 C 
HETATM    8  C3  UNL     1     -34.191  16.589  -4.515  1.00 20.00     0.010 C 
HETATM    9  C5  UNL     1     -35.183  17.717  -4.271  1.00 20.00     0.074 C 
HETATM   10  S10 UNL     1     -34.422  19.105  -3.383  1.00 20.00    -0.163 SA
ENDBRANCH   4   5
ENDBRANCH   2   4
TORSDOF 2
ENDMDL
MODEL 6
REMARK VINA RESULT:      -3.4     11.857     13.048
REMARK  2 active torsions:
REMARK  status: ('A' for Active; 'I' for Inactive)
REMARK    1  A    between atoms: C6_6  and  C7_7 
REMARK    2  A    between atoms: C7_7  and  N8_8 
ROOT
HETATM    1  C1  UNL     1     -32.182  18.405  -1.124  1.00 20.00     0.157 C 
HETATM    2  N8  UNL     1     -32.866  18.253  -2.069  1.00 20.00    -0.274 NA
HETATM    3  S9  UNL     1     -31.256  18.632   0.152  1.00 20.00    -0.055 SA
ENDROOT
BRANCH   2   4
HETATM    4  C7  UNL     1     -33.277  16.877  -2.323  1.00 20.00     0.165 C 
BRANCH   4   5
HETATM    5  C6  UNL     1     -33.510  16.705  -3.822  1.00 20.00     0.067 C 
HETATM    6  C4  UNL     1     -34.731  17.506  -4.280  1.00 20.00     0.017 C 
HETATM    7  C2  UNL     1     -34.983  17.407  -5.785  1.00 20.00     0.002 C 
HETATM    8  C3  UNL     1     -35.232  15.977  -6.252  1.00 20.00     0.010 C 
HETATM    9  C5  UNL     1     -34.065  15.044  -5.963  1.00 20.00     0.074 C 
HETATM   10  S10 UNL     1     -33.718  14.928  -4.185  1.00 20.00    -0.163 SA
ENDBRANCH   4   5
ENDBRANCH   2   4
TORSDOF 2
ENDMDL
MODEL 7
REMARK VINA RESULT:      -3.4     10.084     11.039
REMARK  2 active torsions:
REMARK  status: ('A' for Active; 'I' for Inactive)
REMARK    1  A    between atoms: C6_6  and  C7_7 
REMARK    2  A    between atoms: C7_7  and  N8_8 
ROOT
HETATM    1  C1  UNL     1     -42.682   3.017  -3.130  1.00 20.00     0.157 C 
HETATM    2  N8  UNL     1     -42.682   4.099  -2.669  1.00 20.00    -0.274 NA
HETATM    3  S9  UNL     1     -42.671   1.558  -3.773  1.00 20.00    -0.055 SA
ENDROOT
BRANCH   2   4
HETATM    4  C7  UNL     1     -43.248   4.202  -1.329  1.00 20.00     0.165 C 
BRANCH   4   5
HETATM    5  C6  UNL     1     -42.852   5.550  -0.734  1.00 20.00     0.067 C 
HETATM    6  C4  UNL     1     -41.340   5.766  -0.827  1.00 20.00     0.017 C 
HETATM    7  C2  UNL     1     -40.893   7.124  -0.287  1.00 20.00     0.002 C 
HETATM    8  C3  UNL     1     -41.244   7.323   1.184  1.00 20.00     0.010 C 
HETATM    9  C5  UNL     1     -42.740   7.238   1.455  1.00 20.00     0.074 C 
HETATM   10  S10 UNL     1     -43.417   5.616   1.002  1.00 20.00    -0.163 SA
ENDBRANCH   4   5
ENDBRANCH   2   4
TORSDOF 2
ENDMDL
MODEL 8
REMARK VINA RESULT:      -3.4      1.161      1.752
REMARK  2 active torsions:
REMARK  status: ('A' for Active; 'I' for Inactive)
REMARK    1  A    between atoms: C6_6  and  C7_7 
REMARK    2  A    between atoms: C7_7  and  N8_8 
ROOT
HETATM    1  C1  UNL     1     -32.338   8.322   1.287  1.00 20.00     0.157 C 
HETATM    2  N8  UNL     1     -32.064   7.644   2.208  1.00 20.00    -0.274 NA
HETATM    3  S9  UNL     1     -32.700   9.226   0.025  1.00 20.00    -0.055 SA
ENDROOT
BRANCH   2   4
HETATM    4  C7  UNL     1     -32.471   8.168   3.507  1.00 20.00     0.165 C 
BRANCH   4   5
HETATM    5  C6  UNL     1     -32.922   7.003   4.384  1.00 20.00     0.067 C 
HETATM    6  C4  UNL     1     -33.742   5.996   3.574  1.00 20.00     0.017 C 
HETATM    7  C2  UNL     1     -34.181   4.783   4.394  1.00 20.00     0.002 C 
HETATM    8  C3  UNL     1     -35.055   5.158   5.587  1.00 20.00     0.010 C 
HETATM    9  C5  UNL     1     -34.358   6.092   6.566  1.00 20.00     0.074 C 
HETATM   10  S10 UNL     1     -33.892   7.663   5.783  1.00 20.00    -0.163 SA
ENDBRANCH   4   5
ENDBRANCH   2   4
TORSDOF 2
ENDMDL
MODEL 9
REMARK VINA RESULT:      -3.3     13.098     14.197
REMARK  2 active torsions:
REMARK  status: ('A' for Active; 'I' for Inactive)
REMARK    1  A    between atoms: C6_6  and  C7_7 
REMARK    2  A    between atoms: C7_7  and  N8_8 
ROOT
HETATM    1  C1  UNL     1     -23.107  -3.083   9.557  1.00 20.00     0.157 C 
HETATM    2  N8  UNL     1     -23.080  -2.907  10.720  1.00 20.00    -0.274 NA
HETATM    3  S9  UNL     1     -23.124  -3.315   7.981  1.00 20.00    -0.055 SA
ENDROOT
BRANCH   2   4
HETATM    4  C7  UNL     1     -24.316  -3.225  11.425  1.00 20.00     0.165 C 
BRANCH   4   5
HETATM    5  C6  UNL     1     -25.394  -2.233  10.994  1.00 20.00     0.067 C 
HETATM    6  C4  UNL     1     -25.638  -1.185  12.082  1.00 20.00     0.017 C 
HETATM    7  C2  UNL     1     -26.676  -0.136  11.683  1.00 20.00     0.002 C 
HETATM    8  C3  UNL     1     -28.044  -0.740  11.382  1.00 20.00     0.010 C 
HETATM    9  C5  UNL     1     -28.011  -1.749  10.243  1.00 20.00     0.074 C 
HETATM   10  S10 UNL     1     -26.924  -3.154  10.617  1.00 20.00    -0.163 SA
ENDBRANCH   4   5
ENDBRANCH   2   4
TORSDOF 2
ENDMDL
