MODEL 1
REMARK VINA RESULT:      -4.0      0.000      0.000
REMARK  0 active torsions:
REMARK  status: ('A' for Active; 'I' for Inactive)
ROOT
HETATM    1  C1  UNL     1     -22.393  17.636   8.871  1.00 20.00     0.066 C 
HETATM    2  C2  UNL     1     -24.420  16.625  10.839  1.00 20.00     0.038 C 
HETATM    3  C3  UNL     1     -23.625  16.735  12.140  1.00 20.00     0.273 C 
HETATM    4  C4  UNL     1     -22.239  18.483  11.229  1.00 20.00     0.292 C 
HETATM    5  C5  UNL     1     -24.502  18.823  11.653  1.00 20.00     0.278 C 
HETATM    6  C6  UNL     1     -22.993  18.497   9.893  1.00 20.00     0.127 C 
HETATM    7  C7  UNL     1     -24.401  18.073  10.335  1.00 20.00     0.035 C 
HETATM    8  N8  UNL     1     -21.918  16.954   8.062  1.00 20.00    -0.197 NA
HETATM    9  N9  UNL     1     -23.294  18.183  12.244  1.00 20.00     0.090 N 
ENDROOT
TORSDOF 0
ENDMDL
MODEL 2
REMARK VINA RESULT:      -3.5     15.594     16.779
REMARK  0 active torsions:
REMARK  status: ('A' for Active; 'I' for Inactive)
ROOT
HETATM    1  C1  UNL     1     -32.874   7.959   4.794  1.00 20.00     0.066 C 
HETATM    2  C2  UNL     1     -33.631   5.314   3.595  1.00 20.00     0.038 C 
HETATM    3  C3  UNL     1     -33.631   4.432   4.844  1.00 20.00     0.273 C 
HETATM    4  C4  UNL     1     -34.080   6.323   6.267  1.00 20.00     0.292 C 
HETATM    5  C5  UNL     1     -35.661   5.544   4.747  1.00 20.00     0.278 C 
HETATM    6  C6  UNL     1     -34.150   7.300   5.086  1.00 20.00     0.127 C 
HETATM    7  C7  UNL     1     -34.664   6.385   3.966  1.00 20.00     0.035 C 
HETATM    8  N8  UNL     1     -31.865   8.481   4.563  1.00 20.00    -0.197 NA
HETATM    9  N9  UNL     1     -34.655   5.053   5.729  1.00 20.00     0.090 N 
ENDROOT
TORSDOF 0
ENDMDL
MODEL 3
REMARK VINA RESULT:      -3.4     19.460     20.668
REMARK  0 active torsions:
REMARK  status: ('A' for Active; 'I' for Inactive)
ROOT
HETATM    1  C1  UNL     1     -29.933  -2.670  11.218  1.00 20.00     0.066 C 
HETATM    2  C2  UNL     1     -27.893  -0.647  10.353  1.00 20.00     0.038 C 
HETATM    3  C3  UNL     1     -26.980  -0.629  11.579  1.00 20.00     0.273 C 
HETATM    4  C4  UNL     1     -27.623  -2.872  12.179  1.00 20.00     0.292 C 
HETATM    5  C5  UNL     1     -26.379  -2.436  10.261  1.00 20.00     0.278 C 
HETATM    6  C6  UNL     1     -28.536  -3.026  10.955  1.00 20.00     0.127 C 
HETATM    7  C7  UNL     1     -27.830  -2.121   9.935  1.00 20.00     0.035 C 
HETATM    8  N8  UNL     1     -31.039  -2.389  11.425  1.00 20.00    -0.197 NA
HETATM    9  N9  UNL     1     -26.490  -2.030  11.690  1.00 20.00     0.090 N 
ENDROOT
TORSDOF 0
ENDMDL
MODEL 4
REMARK VINA RESULT:      -3.4     23.426     24.469
REMARK  0 active torsions:
REMARK  status: ('A' for Active; 'I' for Inactive)
ROOT
HETATM    1  C1  UNL     1     -42.318   5.020  -1.214  1.00 20.00     0.066 C 
HETATM    2  C2  UNL     1     -42.489   7.961  -0.642  1.00 20.00     0.038 C 
HETATM    3  C3  UNL     1     -43.235   7.942   0.693  1.00 20.00     0.273 C 
HETATM    4  C4  UNL     1     -42.432   5.726   1.192  1.00 20.00     0.292 C 
HETATM    5  C5  UNL     1     -40.991   7.553   1.116  1.00 20.00     0.278 C 
HETATM    6  C6  UNL     1     -41.604   5.646  -0.098  1.00 20.00     0.127 C 
HETATM    7  C7  UNL     1     -41.246   7.122  -0.320  1.00 20.00     0.035 C 
HETATM    8  N8  UNL     1     -42.882   4.525  -2.098  1.00 20.00    -0.197 NA
HETATM    9  N9  UNL     1     -42.345   7.162   1.597  1.00 20.00     0.090 N 
ENDROOT
TORSDOF 0
ENDMDL
MODEL 5
REMARK VINA RESULT:      -3.3      1.672      2.032
REMARK  0 active torsions:
REMARK  status: ('A' for Active; 'I' for Inactive)
ROOT
HETATM    1  C1  UNL     1     -24.014  18.897   8.726  1.00 20.00     0.066 C 
HETATM    2  C2  UNL     1     -25.208  18.661  11.468  1.00 20.00     0.038 C 
HETATM    3  C3  UNL     1     -25.151  17.146  11.668  1.00 20.00     0.273 C 
HETATM    4  C4  UNL     1     -23.306  16.942  10.131  1.00 20.00     0.292 C 
HETATM    5  C5  UNL     1     -23.068  18.020  12.180  1.00 20.00     0.278 C 
HETATM    6  C6  UNL     1     -23.236  18.455   9.886  1.00 20.00     0.127 C 
HETATM    7  C7  UNL     1     -23.733  19.003  11.231  1.00 20.00     0.035 C 
HETATM    8  N8  UNL     1     -24.630  19.248   7.807  1.00 20.00    -0.197 NA
HETATM    9  N9  UNL     1     -23.701  16.820  11.567  1.00 20.00     0.090 N 
ENDROOT
TORSDOF 0
ENDMDL
MODEL 6
REMARK VINA RESULT:      -3.3     23.420     24.519
REMARK  0 active torsions:
REMARK  status: ('A' for Active; 'I' for Inactive)
ROOT
HETATM    1  C1  UNL     1     -43.080   4.607   0.440  1.00 20.00     0.066 C 
HETATM    2  C2  UNL     1     -42.453   7.356   1.469  1.00 20.00     0.038 C 
HETATM    3  C3  UNL     1     -40.949   7.418   1.198  1.00 20.00     0.273 C 
HETATM    4  C4  UNL     1     -41.131   5.810  -0.587  1.00 20.00     0.292 C 
HETATM    5  C5  UNL     1     -42.057   7.938  -0.768  1.00 20.00     0.278 C 
HETATM    6  C6  UNL     1     -42.655   5.698  -0.441  1.00 20.00     0.127 C 
HETATM    7  C7  UNL     1     -43.015   7.102   0.065  1.00 20.00     0.035 C 
HETATM    8  N8  UNL     1     -43.417   3.744   1.138  1.00 20.00    -0.197 NA
HETATM    9  N9  UNL     1     -40.836   7.242  -0.276  1.00 20.00     0.090 N 
ENDROOT
TORSDOF 0
ENDMDL
MODEL 7
REMARK VINA RESULT:      -3.2     17.967     18.980
REMARK  0 active torsions:
REMARK  status: ('A' for Active; 'I' for Inactive)
ROOT
HETATM    1  C1  UNL     1     -33.616  16.680  -2.915  1.00 20.00     0.066 C 
HETATM    2  C2  UNL     1     -34.413  14.075  -4.173  1.00 20.00     0.038 C 
HETATM    3  C3  UNL     1     -35.731  14.477  -4.835  1.00 20.00     0.273 C 
HETATM    4  C4  UNL     1     -35.039  16.781  -4.980  1.00 20.00     0.292 C 
HETATM    5  C5  UNL     1     -33.999  15.118  -6.233  1.00 20.00     0.278 C 
HETATM    6  C6  UNL     1     -33.662  16.491  -4.367  1.00 20.00     0.127 C 
HETATM    7  C7  UNL     1     -33.423  15.046  -4.828  1.00 20.00     0.035 C 
HETATM    8  N8  UNL     1     -33.579  16.829  -1.765  1.00 20.00    -0.197 NA
HETATM    9  N9  UNL     1     -35.348  15.559  -5.783  1.00 20.00     0.090 N 
ENDROOT
TORSDOF 0
ENDMDL
MODEL 8
REMARK VINA RESULT:      -3.2      1.331      3.083
REMARK  0 active torsions:
REMARK  status: ('A' for Active; 'I' for Inactive)
ROOT
HETATM    1  C1  UNL     1     -24.343  16.542  11.235  1.00 20.00     0.066 C 
HETATM    2  C2  UNL     1     -22.406  18.828  11.411  1.00 20.00     0.038 C 
HETATM    3  C3  UNL     1     -21.294  18.322  10.492  1.00 20.00     0.273 C 
HETATM    4  C4  UNL     1     -22.839  16.938   9.265  1.00 20.00     0.292 C 
HETATM    5  C5  UNL     1     -22.949  19.261   9.170  1.00 20.00     0.278 C 
HETATM    6  C6  UNL     1     -24.044  17.408  10.092  1.00 20.00     0.127 C 
HETATM    7  C7  UNL     1     -23.616  18.833  10.468  1.00 20.00     0.035 C 
HETATM    8  N8  UNL     1     -24.580  15.858  12.141  1.00 20.00    -0.197 NA
HETATM    9  N9  UNL     1     -21.963  18.145   9.173  1.00 20.00     0.090 N 
ENDROOT
TORSDOF 0
ENDMDL
MODEL 9
REMARK VINA RESULT:      -3.2     16.482     17.372
REMARK  0 active torsions:
REMARK  status: ('A' for Active; 'I' for Inactive)
ROOT
HETATM    1  C1  UNL     1     -33.599  15.521  -3.675  1.00 20.00     0.066 C 
HETATM    2  C2  UNL     1     -34.775  18.259  -4.032  1.00 20.00     0.038 C 
HETATM    3  C3  UNL     1     -35.256  18.543  -2.609  1.00 20.00     0.273 C 
HETATM    4  C4  UNL     1     -33.617  17.041  -1.678  1.00 20.00     0.292 C 
HETATM    5  C5  UNL     1     -32.994  19.030  -2.715  1.00 20.00     0.278 C 
HETATM    6  C6  UNL     1     -33.018  16.713  -3.052  1.00 20.00     0.127 C 
HETATM    7  C7  UNL     1     -33.276  18.020  -3.816  1.00 20.00     0.035 C 
HETATM    8  N8  UNL     1     -34.059  14.578  -4.169  1.00 20.00    -0.197 NA
HETATM    9  N9  UNL     1     -34.018  18.477  -1.785  1.00 20.00     0.090 N 
ENDROOT
TORSDOF 0
ENDMDL
