MODEL 1
REMARK VINA RESULT:      -5.2      0.000      0.000
REMARK  1 active torsions:
REMARK  status: ('A' for Active; 'I' for Inactive)
REMARK    1  A    between atoms: C6_6  and  C10_10 
ROOT
HETATM    1  C1  UNL     1     -33.404   8.429   5.130  1.00 20.00     0.001 C 
HETATM    2  C2  UNL     1     -32.314   8.266   4.071  1.00 20.00     0.005 C 
HETATM    3  C3  UNL     1     -32.987   6.119   2.791  1.00 20.00     0.006 C 
HETATM    4  C4  UNL     1     -33.759   7.161   5.899  1.00 20.00     0.008 C 
HETATM    5  C5  UNL     1     -33.204   5.412   4.129  1.00 20.00     0.009 C 
HETATM    6  C6  UNL     1     -32.835   7.648   2.771  1.00 20.00    -0.001 C 
HETATM    7  C7  UNL     1     -34.285   5.953   5.091  1.00 20.00    -0.048 C 
HETATM    8  C8  UNL     1     -34.590   4.831   6.117  1.00 20.00     0.015 C 
HETATM    9  C9  UNL     1     -35.602   6.279   4.369  1.00 20.00     0.015 C 
ENDROOT
BRANCH   6  10
HETATM   10  C10 UNL     1     -31.930   8.049   1.597  1.00 20.00     0.119 C 
HETATM   11 CL11 UNL     1     -32.678   9.367   0.684  1.00 20.00    -0.130 Cl
ENDBRANCH   6  10
TORSDOF 1
ENDMDL
MODEL 2
REMARK VINA RESULT:      -3.8     11.472     13.247
REMARK  1 active torsions:
REMARK  status: ('A' for Active; 'I' for Inactive)
REMARK    1  A    between atoms: C6_6  and  C10_10 
ROOT
HETATM    1  C1  UNL     1     -33.864  14.807  -4.130  1.00 20.00     0.001 C 
HETATM    2  C2  UNL     1     -33.181  16.076  -3.623  1.00 20.00     0.005 C 
HETATM    3  C3  UNL     1     -34.563  18.000  -4.670  1.00 20.00     0.006 C 
HETATM    4  C4  UNL     1     -34.187  14.791  -5.620  1.00 20.00     0.008 C 
HETATM    5  C5  UNL     1     -34.491  17.290  -6.022  1.00 20.00     0.009 C 
HETATM    6  C6  UNL     1     -34.163  17.231  -3.401  1.00 20.00    -0.001 C 
HETATM    7  C7  UNL     1     -35.129  15.890  -6.164  1.00 20.00    -0.048 C 
HETATM    8  C8  UNL     1     -35.303  15.616  -7.680  1.00 20.00     0.015 C 
HETATM    9  C9  UNL     1     -36.524  15.815  -5.524  1.00 20.00     0.015 C 
ENDROOT
BRANCH   6  10
HETATM   10  C10 UNL     1     -33.592  18.217  -2.372  1.00 20.00     0.119 C 
HETATM   11 CL11 UNL     1     -33.732  17.537  -0.744  1.00 20.00    -0.130 Cl
ENDBRANCH   6  10
TORSDOF 1
ENDMDL
MODEL 3
REMARK VINA RESULT:      -3.7     11.761     13.390
REMARK  1 active torsions:
REMARK  status: ('A' for Active; 'I' for Inactive)
REMARK    1  A    between atoms: C6_6  and  C10_10 
ROOT
HETATM    1  C1  UNL     1     -33.241  16.323  -3.516  1.00 20.00     0.001 C 
HETATM    2  C2  UNL     1     -34.340  16.798  -4.465  1.00 20.00     0.005 C 
HETATM    3  C3  UNL     1     -34.879  19.199  -3.660  1.00 20.00     0.006 C 
HETATM    4  C4  UNL     1     -33.495  16.593  -2.037  1.00 20.00     0.008 C 
HETATM    5  C5  UNL     1     -34.945  18.682  -2.223  1.00 20.00     0.009 C 
HETATM    6  C6  UNL     1     -34.272  18.301  -4.749  1.00 20.00    -0.001 C 
HETATM    7  C7  UNL     1     -33.676  18.063  -1.595  1.00 20.00    -0.048 C 
HETATM    8  C8  UNL     1     -33.887  18.042  -0.059  1.00 20.00     0.015 C 
HETATM    9  C9  UNL     1     -32.418  18.901  -1.870  1.00 20.00     0.015 C 
ENDROOT
BRANCH   6  10
HETATM   10  C10 UNL     1     -34.943  18.615  -6.094  1.00 20.00     0.119 C 
HETATM   11 CL11 UNL     1     -34.419  17.446  -7.315  1.00 20.00    -0.130 Cl
ENDBRANCH   6  10
TORSDOF 1
ENDMDL
MODEL 4
REMARK VINA RESULT:      -3.6     10.085     11.360
REMARK  1 active torsions:
REMARK  status: ('A' for Active; 'I' for Inactive)
REMARK    1  A    between atoms: C6_6  and  C10_10 
ROOT
HETATM    1  C1  UNL     1     -42.477  14.205   4.897  1.00 20.00     0.001 C 
HETATM    2  C2  UNL     1     -41.114  13.516   4.864  1.00 20.00     0.005 C 
HETATM    3  C3  UNL     1     -40.273  13.655   7.309  1.00 20.00     0.006 C 
HETATM    4  C4  UNL     1     -42.517  15.534   5.644  1.00 20.00     0.008 C 
HETATM    5  C5  UNL     1     -40.651  15.136   7.334  1.00 20.00     0.009 C 
HETATM    6  C6  UNL     1     -40.792  12.772   6.163  1.00 20.00    -0.001 C 
HETATM    7  C7  UNL     1     -42.132  15.530   7.141  1.00 20.00    -0.048 C 
HETATM    8  C8  UNL     1     -42.288  16.989   7.643  1.00 20.00     0.015 C 
HETATM    9  C9  UNL     1     -43.084  14.658   7.973  1.00 20.00     0.015 C 
ENDROOT
BRANCH   6  10
HETATM   10  C10 UNL     1     -39.779  11.651   5.892  1.00 20.00     0.119 C 
HETATM   11 CL11 UNL     1     -39.187  11.765   4.228  1.00 20.00    -0.130 Cl
ENDBRANCH   6  10
TORSDOF 1
ENDMDL
MODEL 5
REMARK VINA RESULT:      -3.5     12.136     13.209
REMARK  1 active torsions:
REMARK  status: ('A' for Active; 'I' for Inactive)
REMARK    1  A    between atoms: C6_6  and  C10_10 
ROOT
HETATM    1  C1  UNL     1     -35.500  19.263  -1.988  1.00 20.00     0.001 C 
HETATM    2  C2  UNL     1     -34.788  18.866  -0.695  1.00 20.00     0.005 C 
HETATM    3  C3  UNL     1     -32.550  17.838  -1.492  1.00 20.00     0.006 C 
HETATM    4  C4  UNL     1     -35.494  18.205  -3.086  1.00 20.00     0.008 C 
HETATM    5  C5  UNL     1     -33.320  17.001  -2.515  1.00 20.00     0.009 C 
HETATM    6  C6  UNL     1     -33.266  19.001  -0.788  1.00 20.00    -0.001 C 
HETATM    7  C7  UNL     1     -34.123  17.727  -3.617  1.00 20.00    -0.048 C 
HETATM    8  C8  UNL     1     -34.417  16.688  -4.731  1.00 20.00     0.015 C 
HETATM    9  C9  UNL     1     -33.329  18.874  -4.262  1.00 20.00     0.015 C 
ENDROOT
BRANCH   6  10
HETATM   10  C10 UNL     1     -32.666  19.188   0.613  1.00 20.00     0.119 C 
HETATM   11 CL11 UNL     1     -31.012  18.558   0.648  1.00 20.00    -0.130 Cl
ENDBRANCH   6  10
TORSDOF 1
ENDMDL
MODEL 6
REMARK VINA RESULT:      -3.4     11.743     13.514
REMARK  1 active torsions:
REMARK  status: ('A' for Active; 'I' for Inactive)
REMARK    1  A    between atoms: C6_6  and  C10_10 
ROOT
HETATM    1  C1  UNL     1     -33.808  15.953  -3.245  1.00 20.00     0.001 C 
HETATM    2  C2  UNL     1     -33.042  16.848  -2.272  1.00 20.00     0.005 C 
HETATM    3  C3  UNL     1     -34.005  19.214  -2.693  1.00 20.00     0.006 C 
HETATM    4  C4  UNL     1     -33.925  16.487  -4.668  1.00 20.00     0.008 C 
HETATM    5  C5  UNL     1     -33.842  18.991  -4.198  1.00 20.00     0.009 C 
HETATM    6  C6  UNL     1     -33.886  18.012  -1.744  1.00 20.00    -0.001 C 
HETATM    7  C7  UNL     1     -34.632  17.847  -4.871  1.00 20.00    -0.048 C 
HETATM    8  C8  UNL     1     -34.632  18.124  -6.396  1.00 20.00     0.015 C 
HETATM    9  C9  UNL     1     -36.099  17.800  -4.416  1.00 20.00     0.015 C 
ENDROOT
BRANCH   6  10
HETATM   10  C10 UNL     1     -33.337  18.490  -0.392  1.00 20.00     0.119 C 
HETATM   11 CL11 UNL     1     -31.569  18.406  -0.397  1.00 20.00    -0.130 Cl
ENDBRANCH   6  10
TORSDOF 1
ENDMDL
MODEL 7
REMARK VINA RESULT:      -3.4     12.729     13.939
REMARK  1 active torsions:
REMARK  status: ('A' for Active; 'I' for Inactive)
REMARK    1  A    between atoms: C6_6  and  C10_10 
ROOT
HETATM    1  C1  UNL     1     -26.621  -0.331  11.669  1.00 20.00     0.001 C 
HETATM    2  C2  UNL     1     -25.429  -1.165  12.136  1.00 20.00     0.005 C 
HETATM    3  C3  UNL     1     -25.990  -3.568  11.351  1.00 20.00     0.006 C 
HETATM    4  C4  UNL     1     -27.992  -0.930  11.965  1.00 20.00     0.008 C 
HETATM    5  C5  UNL     1     -27.396  -3.409  11.931  1.00 20.00     0.009 C 
HETATM    6  C6  UNL     1     -25.105  -2.322  11.187  1.00 20.00    -0.001 C 
HETATM    7  C7  UNL     1     -28.319  -2.313  11.355  1.00 20.00    -0.048 C 
HETATM    8  C8  UNL     1     -29.767  -2.657  11.790  1.00 20.00     0.015 C 
HETATM    9  C9  UNL     1     -28.300  -2.277   9.819  1.00 20.00     0.015 C 
ENDROOT
BRANCH   6  10
HETATM   10  C10 UNL     1     -23.632  -2.728  11.334  1.00 20.00     0.119 C 
HETATM   11 CL11 UNL     1     -22.852  -2.750   9.745  1.00 20.00    -0.130 Cl
ENDBRANCH   6  10
TORSDOF 1
ENDMDL
MODEL 8
REMARK VINA RESULT:      -3.3     11.923     13.165
REMARK  1 active torsions:
REMARK  status: ('A' for Active; 'I' for Inactive)
REMARK    1  A    between atoms: C6_6  and  C10_10 
ROOT
HETATM    1  C1  UNL     1     -35.768  18.146  -4.750  1.00 20.00     0.001 C 
HETATM    2  C2  UNL     1     -35.053  18.071  -3.402  1.00 20.00     0.005 C 
HETATM    3  C3  UNL     1     -33.339  16.153  -3.699  1.00 20.00     0.006 C 
HETATM    4  C4  UNL     1     -36.213  16.807  -5.327  1.00 20.00     0.008 C 
HETATM    5  C5  UNL     1     -34.444  15.285  -4.302  1.00 20.00     0.009 C 
HETATM    6  C6  UNL     1     -33.583  17.661  -3.531  1.00 20.00    -0.001 C 
HETATM    7  C7  UNL     1     -35.124  15.747  -5.610  1.00 20.00    -0.048 C 
HETATM    8  C8  UNL     1     -35.849  14.515  -6.210  1.00 20.00     0.015 C 
HETATM    9  C9  UNL     1     -34.111  16.235  -6.657  1.00 20.00     0.015 C 
ENDROOT
BRANCH   6  10
HETATM   10  C10 UNL     1     -32.786  18.168  -2.320  1.00 20.00     0.119 C 
HETATM   11 CL11 UNL     1     -33.544  17.607  -0.823  1.00 20.00    -0.130 Cl
ENDBRANCH   6  10
TORSDOF 1
ENDMDL
MODEL 9
REMARK VINA RESULT:      -3.3     10.659     11.974
REMARK  1 active torsions:
REMARK  status: ('A' for Active; 'I' for Inactive)
REMARK    1  A    between atoms: C6_6  and  C10_10 
ROOT
HETATM    1  C1  UNL     1     -43.367  13.165   7.374  1.00 20.00     0.001 C 
HETATM    2  C2  UNL     1     -42.947  14.157   8.458  1.00 20.00     0.005 C 
HETATM    3  C3  UNL     1     -40.812  15.270   7.507  1.00 20.00     0.006 C 
HETATM    4  C4  UNL     1     -42.243  12.302   6.810  1.00 20.00     0.008 C 
HETATM    5  C5  UNL     1     -40.273  13.885   7.147  1.00 20.00     0.009 C 
HETATM    6  C6  UNL     1     -42.293  15.419   7.888  1.00 20.00    -0.001 C 
HETATM    7  C7  UNL     1     -41.055  13.022   6.132  1.00 20.00    -0.048 C 
HETATM    8  C8  UNL     1     -40.091  11.914   5.633  1.00 20.00     0.015 C 
HETATM    9  C9  UNL     1     -41.501  13.826   4.901  1.00 20.00     0.015 C 
ENDROOT
BRANCH   6  10
HETATM   10  C10 UNL     1     -42.444  16.583   8.877  1.00 20.00     0.119 C 
HETATM   11 CL11 UNL     1     -41.055  17.672   8.741  1.00 20.00    -0.130 Cl
ENDBRANCH   6  10
TORSDOF 1
ENDMDL
