MODEL 1
REMARK VINA RESULT:      -3.4      0.000      0.000
REMARK  4 active torsions:
REMARK  status: ('A' for Active; 'I' for Inactive)
REMARK    1  A    between atoms: C5_5  and  C7_7 
REMARK    2  A    between atoms: C5_5  and  C8_8 
REMARK    3  A    between atoms: C6_6  and  C7_7 
REMARK    4  A    between atoms: C8_8  and  O9_9 
ROOT
HETATM    1  C5  UNL     1     -33.253   6.545   4.859  1.00 20.00     0.042 C 
ENDROOT
BRANCH   1   2
HETATM    2  C7  UNL     1     -33.555   8.025   4.524  1.00 20.00    -0.002 C 
HETATM    3  C1  UNL     1     -33.683   8.825   5.829  1.00 20.00     0.011 C 
BRANCH   2   4
HETATM    4  C6  UNL     1     -32.566   8.706   3.564  1.00 20.00     0.119 C 
HETATM    5 CL10 UNL     1     -32.168   7.725   2.134  1.00 20.00    -0.130 Cl
ENDBRANCH   2   4
ENDBRANCH   1   2
BRANCH   1   6
HETATM    6  C8  UNL     1     -34.455   5.576   4.969  1.00 20.00     0.053 C 
HETATM    7  C2  UNL     1     -34.744   5.286   6.447  1.00 20.00     0.045 C 
HETATM    8  C3  UNL     1     -35.716   6.124   4.300  1.00 20.00     0.045 C 
BRANCH   6   9
HETATM    9  O9  UNL     1     -34.145   4.329   4.349  1.00 20.00    -0.386 OA
HETATM   10  C4  UNL     1     -33.430   4.519   3.138  1.00 20.00     0.202 C 
ENDBRANCH   6   9
ENDBRANCH   1   6
TORSDOF 4
ENDMDL
MODEL 2
REMARK VINA RESULT:      -3.4      2.527      3.941
REMARK  4 active torsions:
REMARK  status: ('A' for Active; 'I' for Inactive)
REMARK    1  A    between atoms: C5_5  and  C7_7 
REMARK    2  A    between atoms: C5_5  and  C8_8 
REMARK    3  A    between atoms: C6_6  and  C7_7 
REMARK    4  A    between atoms: C8_8  and  O9_9 
ROOT
HETATM    1  C5  UNL     1     -34.063   7.949   4.441  1.00 20.00     0.042 C 
ENDROOT
BRANCH   1   2
HETATM    2  C7  UNL     1     -34.021   6.623   5.238  1.00 20.00    -0.002 C 
HETATM    3  C1  UNL     1     -34.365   6.903   6.709  1.00 20.00     0.011 C 
BRANCH   2   4
HETATM    4  C6  UNL     1     -34.892   5.484   4.683  1.00 20.00     0.119 C 
HETATM    5 CL10 UNL     1     -33.959   4.071   4.137  1.00 20.00    -0.130 Cl
ENDBRANCH   2   4
ENDBRANCH   1   2
BRANCH   1   6
HETATM    6  C8  UNL     1     -32.751   8.422   3.769  1.00 20.00     0.053 C 
HETATM    7  C2  UNL     1     -31.851   9.087   4.817  1.00 20.00     0.045 C 
HETATM    8  C3  UNL     1     -31.991   7.281   3.093  1.00 20.00     0.045 C 
BRANCH   6   9
HETATM    9  O9  UNL     1     -33.032   9.404   2.772  1.00 20.00    -0.386 OA
HETATM   10  C4  UNL     1     -32.612   8.969   1.489  1.00 20.00     0.202 C 
ENDBRANCH   6   9
ENDBRANCH   1   6
TORSDOF 4
ENDMDL
MODEL 3
REMARK VINA RESULT:      -3.3     12.438     13.264
REMARK  4 active torsions:
REMARK  status: ('A' for Active; 'I' for Inactive)
REMARK    1  A    between atoms: C5_5  and  C7_7 
REMARK    2  A    between atoms: C5_5  and  C8_8 
REMARK    3  A    between atoms: C6_6  and  C7_7 
REMARK    4  A    between atoms: C8_8  and  O9_9 
ROOT
HETATM    1  C5  UNL     1     -33.296  17.362  -1.850  1.00 20.00     0.042 C 
ENDROOT
BRANCH   1   2
HETATM    2  C7  UNL     1     -32.892  18.407  -0.782  1.00 20.00    -0.002 C 
HETATM    3  C1  UNL     1     -33.706  18.166   0.498  1.00 20.00     0.011 C 
BRANCH   2   4
HETATM    4  C6  UNL     1     -31.391  18.489  -0.464  1.00 20.00     0.119 C 
HETATM    5 CL10 UNL     1     -31.016  18.313   1.267  1.00 20.00    -0.130 Cl
ENDBRANCH   2   4
ENDBRANCH   1   2
BRANCH   1   6
HETATM    6  C8  UNL     1     -33.902  17.888  -3.173  1.00 20.00     0.053 C 
HETATM    7  C2  UNL     1     -35.285  18.493  -2.897  1.00 20.00     0.045 C 
HETATM    8  C3  UNL     1     -33.016  18.931  -3.854  1.00 20.00     0.045 C 
BRANCH   6   9
HETATM    9  O9  UNL     1     -34.091  16.814  -4.093  1.00 20.00    -0.386 OA
HETATM   10  C4  UNL     1     -33.282  15.699  -3.756  1.00 20.00     0.202 C 
ENDBRANCH   6   9
ENDBRANCH   1   6
TORSDOF 4
ENDMDL
MODEL 4
REMARK VINA RESULT:      -3.2      0.889      1.930
REMARK  4 active torsions:
REMARK  status: ('A' for Active; 'I' for Inactive)
REMARK    1  A    between atoms: C5_5  and  C7_7 
REMARK    2  A    between atoms: C5_5  and  C8_8 
REMARK    3  A    between atoms: C6_6  and  C7_7 
REMARK    4  A    between atoms: C8_8  and  O9_9 
ROOT
HETATM    1  C5  UNL     1     -33.438   6.802   5.005  1.00 20.00     0.042 C 
ENDROOT
BRANCH   1   2
HETATM    2  C7  UNL     1     -33.003   7.935   4.044  1.00 20.00    -0.002 C 
HETATM    3  C1  UNL     1     -32.384   9.081   4.857  1.00 20.00     0.011 C 
BRANCH   2   4
HETATM    4  C6  UNL     1     -32.070   7.514   2.898  1.00 20.00     0.119 C 
HETATM    5 CL10 UNL     1     -32.321   8.437   1.396  1.00 20.00    -0.130 Cl
ENDBRANCH   2   4
ENDBRANCH   1   2
BRANCH   1   6
HETATM    6  C8  UNL     1     -34.311   5.664   4.423  1.00 20.00     0.053 C 
HETATM    7  C2  UNL     1     -35.677   6.227   4.014  1.00 20.00     0.045 C 
HETATM    8  C3  UNL     1     -33.661   4.978   3.221  1.00 20.00     0.045 C 
BRANCH   6   9
HETATM    9  O9  UNL     1     -34.548   4.665   5.414  1.00 20.00    -0.386 OA
HETATM   10  C4  UNL     1     -34.570   5.226   6.717  1.00 20.00     0.202 C 
ENDBRANCH   6   9
ENDBRANCH   1   6
TORSDOF 4
ENDMDL
MODEL 5
REMARK VINA RESULT:      -3.2     12.473     13.215
REMARK  4 active torsions:
REMARK  status: ('A' for Active; 'I' for Inactive)
REMARK    1  A    between atoms: C5_5  and  C7_7 
REMARK    2  A    between atoms: C5_5  and  C8_8 
REMARK    3  A    between atoms: C6_6  and  C7_7 
REMARK    4  A    between atoms: C8_8  and  O9_9 
ROOT
HETATM    1  C5  UNL     1     -33.724  17.672  -0.413  1.00 20.00     0.042 C 
ENDROOT
BRANCH   1   2
HETATM    2  C7  UNL     1     -33.583  18.957   0.439  1.00 20.00    -0.002 C 
HETATM    3  C1  UNL     1     -34.922  19.260   1.127  1.00 20.00     0.011 C 
BRANCH   2   4
HETATM    4  C6  UNL     1     -32.434  18.957   1.460  1.00 20.00     0.119 C 
HETATM    5 CL10 UNL     1     -30.899  18.334   0.810  1.00 20.00    -0.130 Cl
ENDBRANCH   2   4
ENDBRANCH   1   2
BRANCH   1   6
HETATM    6  C8  UNL     1     -33.663  17.823  -1.952  1.00 20.00     0.053 C 
HETATM    7  C2  UNL     1     -32.613  18.878  -2.321  1.00 20.00     0.045 C 
HETATM    8  C3  UNL     1     -33.337  16.508  -2.660  1.00 20.00     0.045 C 
BRANCH   6   9
HETATM    9  O9  UNL     1     -34.917  18.285  -2.454  1.00 20.00    -0.386 OA
HETATM   10  C4  UNL     1     -35.068  17.970  -3.829  1.00 20.00     0.202 C 
ENDBRANCH   6   9
ENDBRANCH   1   6
TORSDOF 4
ENDMDL
MODEL 6
REMARK VINA RESULT:      -3.2      9.597     10.859
REMARK  4 active torsions:
REMARK  status: ('A' for Active; 'I' for Inactive)
REMARK    1  A    between atoms: C5_5  and  C7_7 
REMARK    2  A    between atoms: C5_5  and  C8_8 
REMARK    3  A    between atoms: C6_6  and  C7_7 
REMARK    4  A    between atoms: C8_8  and  O9_9 
ROOT
HETATM    1  C5  UNL     1     -40.268  13.980   7.088  1.00 20.00     0.042 C 
ENDROOT
BRANCH   1   2
HETATM    2  C7  UNL     1     -40.761  12.846   6.157  1.00 20.00    -0.002 C 
HETATM    3  C1  UNL     1     -41.275  13.455   4.844  1.00 20.00     0.011 C 
BRANCH   2   4
HETATM    4  C6  UNL     1     -39.746  11.726   5.877  1.00 20.00     0.119 C 
HETATM    5 CL10 UNL     1     -39.133  11.719   4.206  1.00 20.00    -0.130 Cl
ENDBRANCH   2   4
ENDBRANCH   1   2
BRANCH   1   6
HETATM    6  C8  UNL     1     -41.173  14.371   8.281  1.00 20.00     0.053 C 
HETATM    7  C2  UNL     1     -40.301  14.858   9.446  1.00 20.00     0.045 C 
HETATM    8  C3  UNL     1     -42.191  15.452   7.919  1.00 20.00     0.045 C 
BRANCH   6   9
HETATM    9  O9  UNL     1     -41.898  13.233   8.747  1.00 20.00    -0.386 OA
HETATM   10  C4  UNL     1     -43.276  13.531   8.906  1.00 20.00     0.202 C 
ENDBRANCH   6   9
ENDBRANCH   1   6
TORSDOF 4
ENDMDL
MODEL 7
REMARK VINA RESULT:      -3.1     12.705     13.633
REMARK  4 active torsions:
REMARK  status: ('A' for Active; 'I' for Inactive)
REMARK    1  A    between atoms: C5_5  and  C7_7 
REMARK    2  A    between atoms: C5_5  and  C8_8 
REMARK    3  A    between atoms: C6_6  and  C7_7 
REMARK    4  A    between atoms: C8_8  and  O9_9 
ROOT
HETATM    1  C5  UNL     1     -33.551  16.997  -1.879  1.00 20.00     0.042 C 
ENDROOT
BRANCH   1   2
HETATM    2  C7  UNL     1     -33.457  16.916  -3.422  1.00 20.00    -0.002 C 
HETATM    3  C1  UNL     1     -33.048  15.493  -3.831  1.00 20.00     0.011 C 
BRANCH   2   4
HETATM    4  C6  UNL     1     -34.710  17.364  -4.191  1.00 20.00     0.119 C 
HETATM    5 CL10 UNL     1     -34.445  18.793  -5.218  1.00 20.00    -0.130 Cl
ENDBRANCH   2   4
ENDBRANCH   1   2
BRANCH   1   6
HETATM    6  C8  UNL     1     -33.328  18.379  -1.220  1.00 20.00     0.053 C 
HETATM    7  C2  UNL     1     -32.491  19.262  -2.155  1.00 20.00     0.045 C 
HETATM    8  C3  UNL     1     -34.638  19.091  -0.884  1.00 20.00     0.045 C 
BRANCH   6   9
HETATM    9  O9  UNL     1     -32.590  18.236  -0.006  1.00 20.00    -0.386 OA
HETATM   10  C4  UNL     1     -31.222  18.559  -0.194  1.00 20.00     0.202 C 
ENDBRANCH   6   9
ENDBRANCH   1   6
TORSDOF 4
ENDMDL
MODEL 8
REMARK VINA RESULT:      -3.1     12.317     13.669
REMARK  4 active torsions:
REMARK  status: ('A' for Active; 'I' for Inactive)
REMARK    1  A    between atoms: C5_5  and  C7_7 
REMARK    2  A    between atoms: C5_5  and  C8_8 
REMARK    3  A    between atoms: C6_6  and  C7_7 
REMARK    4  A    between atoms: C8_8  and  O9_9 
ROOT
HETATM    1  C5  UNL     1     -35.096  16.717  -4.936  1.00 20.00     0.042 C 
ENDROOT
BRANCH   1   2
HETATM    2  C7  UNL     1     -34.060  17.591  -4.189  1.00 20.00    -0.002 C 
HETATM    3  C1  UNL     1     -33.705  18.810  -5.054  1.00 20.00     0.011 C 
BRANCH   2   4
HETATM    4  C6  UNL     1     -34.457  18.029  -2.770  1.00 20.00     0.119 C 
HETATM    5 CL10 UNL     1     -33.612  17.136  -1.483  1.00 20.00    -0.130 Cl
ENDBRANCH   2   4
ENDBRANCH   1   2
BRANCH   1   6
HETATM    6  C8  UNL     1     -34.694  15.261  -5.273  1.00 20.00     0.053 C 
HETATM    7  C2  UNL     1     -33.784  14.713  -4.167  1.00 20.00     0.045 C 
HETATM    8  C3  UNL     1     -35.902  14.341  -5.443  1.00 20.00     0.045 C 
BRANCH   6   9
HETATM    9  O9  UNL     1     -33.947  15.222  -6.489  1.00 20.00    -0.386 OA
HETATM   10  C4  UNL     1     -34.601  15.947  -7.518  1.00 20.00     0.202 C 
ENDBRANCH   6   9
ENDBRANCH   1   6
TORSDOF 4
ENDMDL
MODEL 9
REMARK VINA RESULT:      -3.1     10.048     11.064
REMARK  4 active torsions:
REMARK  status: ('A' for Active; 'I' for Inactive)
REMARK    1  A    between atoms: C5_5  and  C7_7 
REMARK    2  A    between atoms: C5_5  and  C8_8 
REMARK    3  A    between atoms: C6_6  and  C7_7 
REMARK    4  A    between atoms: C8_8  and  O9_9 
ROOT
HETATM    1  C5  UNL     1     -41.711  14.552   7.594  1.00 20.00     0.042 C 
ENDROOT
BRANCH   1   2
HETATM    2  C7  UNL     1     -40.467  15.376   8.005  1.00 20.00    -0.002 C 
HETATM    3  C1  UNL     1     -40.642  16.828   7.537  1.00 20.00     0.011 C 
BRANCH   2   4
HETATM    4  C6  UNL     1     -40.098  15.326   9.496  1.00 20.00     0.119 C 
HETATM    5 CL10 UNL     1     -40.971  14.071  10.407  1.00 20.00    -0.130 Cl
ENDBRANCH   2   4
ENDBRANCH   1   2
BRANCH   1   6
HETATM    6  C8  UNL     1     -41.480  13.294   6.723  1.00 20.00     0.053 C 
HETATM    7  C2  UNL     1     -42.619  12.294   6.959  1.00 20.00     0.045 C 
HETATM    8  C3  UNL     1     -41.385  13.617   5.232  1.00 20.00     0.045 C 
BRANCH   6   9
HETATM    9  O9  UNL     1     -40.267  12.644   7.102  1.00 20.00    -0.386 OA
HETATM   10  C4  UNL     1     -39.661  11.999   5.994  1.00 20.00     0.202 C 
ENDBRANCH   6   9
ENDBRANCH   1   6
TORSDOF 4
ENDMDL
