MODEL 1
REMARK VINA RESULT:      -4.0      0.000      0.000
REMARK  2 active torsions:
REMARK  status: ('A' for Active; 'I' for Inactive)
REMARK    1  A    between atoms: C4_4  and  C8_8 
REMARK    2  A    between atoms: C5_5  and  C9_9 
ROOT
HETATM    1  C1  UNL     1     -42.677  13.639   8.214  1.00 20.00     0.032 C 
HETATM    2  C2  UNL     1     -40.447  14.088   7.170  1.00 20.00     0.043 C 
HETATM    3  C3  UNL     1     -42.890  12.561   7.161  1.00 20.00     0.169 C 
HETATM    4  C4  UNL     1     -41.740  14.730   7.693  1.00 20.00     0.004 C 
HETATM    5  C5  UNL     1     -40.720  12.946   6.170  1.00 20.00     0.057 C 
HETATM    6  C6  UNL     1     -41.215  13.468   4.813  1.00 20.00     0.046 C 
HETATM    7  O10 UNL     1     -41.651  12.005   6.725  1.00 20.00    -0.381 OA
ENDROOT
BRANCH   5   8
HETATM    8  C9  UNL     1     -39.421  12.162   5.938  1.00 20.00     0.033 C 
HETATM    9  C7  UNL     1     -39.274  11.763   4.509  1.00 20.00     0.008 C 
ENDBRANCH   5   8
BRANCH   4  10
HETATM   10  C8  UNL     1     -41.438  15.757   8.782  1.00 20.00     0.119 C 
HETATM   11 CL11 UNL     1     -40.021  15.254   9.720  1.00 20.00    -0.130 Cl
ENDBRANCH   4  10
TORSDOF 2
ENDMDL
MODEL 2
REMARK VINA RESULT:      -4.0      9.863     10.525
REMARK  2 active torsions:
REMARK  status: ('A' for Active; 'I' for Inactive)
REMARK    1  A    between atoms: C4_4  and  C8_8 
REMARK    2  A    between atoms: C5_5  and  C9_9 
ROOT
HETATM    1  C1  UNL     1     -33.455   7.606   6.436  1.00 20.00     0.032 C 
HETATM    2  C2  UNL     1     -33.419   6.785   4.071  1.00 20.00     0.043 C 
HETATM    3  C3  UNL     1     -34.411   6.467   6.757  1.00 20.00     0.169 C 
HETATM    4  C4  UNL     1     -33.577   8.021   4.968  1.00 20.00     0.004 C 
HETATM    5  C5  UNL     1     -34.350   5.630   4.491  1.00 20.00     0.057 C 
HETATM    6  C6  UNL     1     -35.819   5.912   4.140  1.00 20.00     0.046 C 
HETATM    7  O10 UNL     1     -34.205   5.352   5.892  1.00 20.00    -0.381 OA
ENDROOT
BRANCH   5   8
HETATM    8  C9  UNL     1     -33.920   4.349   3.763  1.00 20.00     0.033 C 
HETATM    9  C7  UNL     1     -32.983   4.648   2.643  1.00 20.00     0.008 C 
ENDBRANCH   5   8
BRANCH   4  10
HETATM   10  C8  UNL     1     -32.544   9.089   4.614  1.00 20.00     0.119 C 
HETATM   11 CL11 UNL     1     -32.495   9.331   2.859  1.00 20.00    -0.130 Cl
ENDBRANCH   4  10
TORSDOF 2
ENDMDL
MODEL 3
REMARK VINA RESULT:      -3.8      2.382      4.183
REMARK  2 active torsions:
REMARK  status: ('A' for Active; 'I' for Inactive)
REMARK    1  A    between atoms: C4_4  and  C8_8 
REMARK    2  A    between atoms: C5_5  and  C9_9 
ROOT
HETATM    1  C1  UNL     1     -41.099  13.396   4.884  1.00 20.00     0.032 C 
HETATM    2  C2  UNL     1     -40.348  13.646   7.258  1.00 20.00     0.043 C 
HETATM    3  C3  UNL     1     -42.202  14.400   5.187  1.00 20.00     0.169 C 
HETATM    4  C4  UNL     1     -40.690  12.640   6.150  1.00 20.00     0.004 C 
HETATM    5  C5  UNL     1     -41.461  14.691   7.468  1.00 20.00     0.057 C 
HETATM    6  C6  UNL     1     -42.699  14.093   8.153  1.00 20.00     0.046 C 
HETATM    7  O10 UNL     1     -41.816  15.304   6.219  1.00 20.00    -0.381 OA
ENDROOT
BRANCH   5   8
HETATM    8  C9  UNL     1     -40.924  15.825   8.353  1.00 20.00     0.033 C 
HETATM    9  C7  UNL     1     -40.138  15.292   9.502  1.00 20.00     0.008 C 
ENDBRANCH   5   8
BRANCH   4  10
HETATM   10  C8  UNL     1     -39.511  11.709   5.874  1.00 20.00     0.119 C 
HETATM   11 CL11 UNL     1     -39.143  11.687   4.141  1.00 20.00    -0.130 Cl
ENDBRANCH   4  10
TORSDOF 2
ENDMDL
MODEL 4
REMARK VINA RESULT:      -3.7      1.824      2.433
REMARK  2 active torsions:
REMARK  status: ('A' for Active; 'I' for Inactive)
REMARK    1  A    between atoms: C4_4  and  C8_8 
REMARK    2  A    between atoms: C5_5  and  C9_9 
ROOT
HETATM    1  C1  UNL     1     -40.563  15.714   8.260  1.00 20.00     0.032 C 
HETATM    2  C2  UNL     1     -41.450  14.666   6.167  1.00 20.00     0.043 C 
HETATM    3  C3  UNL     1     -40.391  14.310   8.822  1.00 20.00     0.169 C 
HETATM    4  C4  UNL     1     -41.691  15.751   7.226  1.00 20.00     0.004 C 
HETATM    5  C5  UNL     1     -41.198  13.280   6.792  1.00 20.00     0.057 C 
HETATM    6  C6  UNL     1     -42.477  12.666   7.379  1.00 20.00     0.046 C 
HETATM    7  O10 UNL     1     -40.166  13.357   7.786  1.00 20.00    -0.381 OA
ENDROOT
BRANCH   5   8
HETATM    8  C9  UNL     1     -40.665  12.331   5.708  1.00 20.00     0.033 C 
HETATM    9  C7  UNL     1     -39.201  12.094   5.865  1.00 20.00     0.008 C 
ENDBRANCH   5   8
BRANCH   4  10
HETATM   10  C8  UNL     1     -41.796  17.131   6.581  1.00 20.00     0.119 C 
HETATM   11 CL11 UNL     1     -40.417  18.135   7.059  1.00 20.00    -0.130 Cl
ENDBRANCH   4  10
TORSDOF 2
ENDMDL
MODEL 5
REMARK VINA RESULT:      -3.7     11.798     13.288
REMARK  2 active torsions:
REMARK  status: ('A' for Active; 'I' for Inactive)
REMARK    1  A    between atoms: C4_4  and  C8_8 
REMARK    2  A    between atoms: C5_5  and  C9_9 
ROOT
HETATM    1  C1  UNL     1     -34.472  17.611  -3.864  1.00 20.00     0.032 C 
HETATM    2  C2  UNL     1     -32.613  17.100  -2.267  1.00 20.00     0.043 C 
HETATM    3  C3  UNL     1     -34.883  18.744  -2.935  1.00 20.00     0.169 C 
HETATM    4  C4  UNL     1     -33.764  16.499  -3.086  1.00 20.00     0.004 C 
HETATM    5  C5  UNL     1     -33.065  18.297  -1.407  1.00 20.00     0.057 C 
HETATM    6  C6  UNL     1     -33.920  17.861  -0.209  1.00 20.00     0.046 C 
HETATM    7  O10 UNL     1     -33.766  19.257  -2.212  1.00 20.00    -0.381 OA
ENDROOT
BRANCH   5   8
HETATM    8  C9  UNL     1     -31.824  19.026  -0.872  1.00 20.00     0.033 C 
HETATM    9  C7  UNL     1     -31.530  18.637   0.537  1.00 20.00     0.008 C 
ENDBRANCH   5   8
BRANCH   4  10
HETATM   10  C8  UNL     1     -33.255  15.410  -4.029  1.00 20.00     0.119 C 
HETATM   11 CL11 UNL     1     -34.428  14.086  -4.121  1.00 20.00    -0.130 Cl
ENDBRANCH   4  10
TORSDOF 2
ENDMDL
MODEL 6
REMARK VINA RESULT:      -3.7     11.373     12.389
REMARK  2 active torsions:
REMARK  status: ('A' for Active; 'I' for Inactive)
REMARK    1  A    between atoms: C4_4  and  C8_8 
REMARK    2  A    between atoms: C5_5  and  C9_9 
ROOT
HETATM    1  C1  UNL     1     -33.172  19.262   1.048  1.00 20.00     0.032 C 
HETATM    2  C2  UNL     1     -31.908  18.092  -0.768  1.00 20.00     0.043 C 
HETATM    3  C3  UNL     1     -34.392  19.234   0.139  1.00 20.00     0.169 C 
HETATM    4  C4  UNL     1     -31.882  19.262   0.225  1.00 20.00     0.004 C 
HETATM    5  C5  UNL     1     -33.202  18.060  -1.606  1.00 20.00     0.057 C 
HETATM    6  C6  UNL     1     -33.242  19.180  -2.656  1.00 20.00     0.046 C 
HETATM    7  O10 UNL     1     -34.354  18.121  -0.752  1.00 20.00    -0.381 OA
ENDROOT
BRANCH   5   8
HETATM    8  C9  UNL     1     -33.293  16.713  -2.337  1.00 20.00     0.033 C 
HETATM    9  C7  UNL     1     -33.458  16.902  -3.806  1.00 20.00     0.008 C 
ENDBRANCH   5   8
BRANCH   4  10
HETATM   10  C8  UNL     1     -30.655  19.181   1.132  1.00 20.00     0.119 C 
HETATM   11 CL11 UNL     1     -31.101  18.495   2.703  1.00 20.00    -0.130 Cl
ENDBRANCH   4  10
TORSDOF 2
ENDMDL
MODEL 7
REMARK VINA RESULT:      -3.7     13.294     14.083
REMARK  2 active torsions:
REMARK  status: ('A' for Active; 'I' for Inactive)
REMARK    1  A    between atoms: C4_4  and  C8_8 
REMARK    2  A    between atoms: C5_5  and  C9_9 
ROOT
HETATM    1  C1  UNL     1     -33.288  15.886  -3.366  1.00 20.00     0.032 C 
HETATM    2  C2  UNL     1     -34.307  17.408  -5.071  1.00 20.00     0.043 C 
HETATM    3  C3  UNL     1     -33.894  14.717  -4.129  1.00 20.00     0.169 C 
HETATM    4  C4  UNL     1     -34.116  17.156  -3.569  1.00 20.00     0.004 C 
HETATM    5  C5  UNL     1     -34.845  16.167  -5.812  1.00 20.00     0.057 C 
HETATM    6  C6  UNL     1     -36.322  15.894  -5.493  1.00 20.00     0.046 C 
HETATM    7  O10 UNL     1     -34.038  15.017  -5.515  1.00 20.00    -0.381 OA
ENDROOT
BRANCH   5   8
HETATM    8  C9  UNL     1     -34.714  16.391  -7.325  1.00 20.00     0.033 C 
HETATM    9  C7  UNL     1     -33.666  15.511  -7.917  1.00 20.00     0.008 C 
ENDBRANCH   5   8
BRANCH   4  10
HETATM   10  C8  UNL     1     -33.452  18.355  -2.895  1.00 20.00     0.119 C 
HETATM   11 CL11 UNL     1     -32.544  17.827  -1.468  1.00 20.00    -0.130 Cl
ENDBRANCH   4  10
TORSDOF 2
ENDMDL
MODEL 8
REMARK VINA RESULT:      -3.5      2.235      3.970
REMARK  2 active torsions:
REMARK  status: ('A' for Active; 'I' for Inactive)
REMARK    1  A    between atoms: C4_4  and  C8_8 
REMARK    2  A    between atoms: C5_5  and  C9_9 
ROOT
HETATM    1  C1  UNL     1     -42.279  12.816   6.724  1.00 20.00     0.032 C 
HETATM    2  C2  UNL     1     -40.387  14.450   6.842  1.00 20.00     0.043 C 
HETATM    3  C3  UNL     1     -42.788  13.396   8.036  1.00 20.00     0.169 C 
HETATM    4  C4  UNL     1     -40.763  12.980   6.609  1.00 20.00     0.004 C 
HETATM    5  C5  UNL     1     -40.996  15.014   8.141  1.00 20.00     0.057 C 
HETATM    6  C6  UNL     1     -40.306  14.458   9.395  1.00 20.00     0.046 C 
HETATM    7  O10 UNL     1     -42.409  14.763   8.183  1.00 20.00    -0.381 OA
ENDROOT
BRANCH   5   8
HETATM    8  C9  UNL     1     -40.842  16.542   8.145  1.00 20.00     0.033 C 
HETATM    9  C7  UNL     1     -41.503  17.158   6.960  1.00 20.00     0.008 C 
ENDBRANCH   5   8
BRANCH   4  10
HETATM   10  C8  UNL     1     -40.261  12.497   5.249  1.00 20.00     0.119 C 
HETATM   11 CL11 UNL     1     -38.542  12.083   5.344  1.00 20.00    -0.130 Cl
ENDBRANCH   4  10
TORSDOF 2
ENDMDL
MODEL 9
REMARK VINA RESULT:      -3.5      9.765     11.023
REMARK  2 active torsions:
REMARK  status: ('A' for Active; 'I' for Inactive)
REMARK    1  A    between atoms: C4_4  and  C8_8 
REMARK    2  A    between atoms: C5_5  and  C9_9 
ROOT
HETATM    1  C1  UNL     1     -32.442   8.557   4.165  1.00 20.00     0.032 C 
HETATM    2  C2  UNL     1     -33.218   6.302   3.404  1.00 20.00     0.043 C 
HETATM    3  C3  UNL     1     -33.440   8.451   5.309  1.00 20.00     0.169 C 
HETATM    4  C4  UNL     1     -32.909   7.738   2.960  1.00 20.00     0.004 C 
HETATM    5  C5  UNL     1     -34.166   6.253   4.618  1.00 20.00     0.057 C 
HETATM    6  C6  UNL     1     -35.607   6.632   4.246  1.00 20.00     0.046 C 
HETATM    7  O10 UNL     1     -33.675   7.093   5.673  1.00 20.00    -0.381 OA
ENDROOT
BRANCH   5   8
HETATM    8  C9  UNL     1     -34.177   4.828   5.189  1.00 20.00     0.033 C 
HETATM    9  C7  UNL     1     -34.478   4.828   6.649  1.00 20.00     0.008 C 
ENDBRANCH   5   8
BRANCH   4  10
HETATM   10  C8  UNL     1     -31.860   7.753   1.849  1.00 20.00     0.119 C 
HETATM   11 CL11 UNL     1     -32.400   8.785   0.514  1.00 20.00    -0.130 Cl
ENDBRANCH   4  10
TORSDOF 2
ENDMDL
