MODEL 1
REMARK VINA RESULT:      -4.4      0.000      0.000
REMARK  2 active torsions:
REMARK  status: ('A' for Active; 'I' for Inactive)
REMARK    1  A    between atoms: C1_1  and  C7_7 
REMARK    2  A    between atoms: C8_8  and  C12_12 
ROOT
HETATM    1  C2  UNL     1     -33.671  14.895  -3.879  1.00 20.00     0.001 C 
HETATM    2  C3  UNL     1     -34.013  14.759  -5.361  1.00 20.00     0.011 C 
HETATM    3  C4  UNL     1     -35.679  16.715  -5.206  1.00 20.00     0.012 C 
HETATM    4  C5  UNL     1     -33.147  16.262  -3.450  1.00 20.00     0.005 C 
HETATM    5  C6  UNL     1     -35.057  17.776  -4.294  1.00 20.00     0.006 C 
HETATM    6  C7  UNL     1     -34.637  15.978  -6.058  1.00 20.00     0.047 C 
HETATM    7  C8  UNL     1     -34.274  17.237  -3.099  1.00 20.00    -0.007 C 
ENDROOT
BRANCH   7   8
HETATM    8  C12 UNL     1     -33.686  18.408  -2.366  1.00 20.00    -0.048 C 
HETATM    9  C9  UNL     1     -32.857  19.260  -3.338  1.00 20.00     0.015 C 
HETATM   10  C10 UNL     1     -32.783  17.901  -1.231  1.00 20.00     0.015 C 
HETATM   11  C11 UNL     1     -34.817  19.263  -1.774  1.00 20.00     0.015 C 
ENDBRANCH   7   8
BRANCH   6  12
HETATM   12  C1  UNL     1     -35.260  15.527  -7.386  1.00 20.00     0.235 C 
HETATM   13  O13 UNL     1     -36.014  14.565  -7.486  1.00 20.00    -0.306 OA
ENDBRANCH   6  12
TORSDOF 2
ENDMDL
MODEL 2
REMARK VINA RESULT:      -4.3     11.210     12.981
REMARK  2 active torsions:
REMARK  status: ('A' for Active; 'I' for Inactive)
REMARK    1  A    between atoms: C1_1  and  C7_7 
REMARK    2  A    between atoms: C8_8  and  C12_12 
ROOT
HETATM    1  C2  UNL     1     -32.624   8.839   4.737  1.00 20.00     0.001 C 
HETATM    2  C3  UNL     1     -32.495   9.433   3.336  1.00 20.00     0.011 C 
HETATM    3  C4  UNL     1     -32.223   7.088   2.312  1.00 20.00     0.012 C 
HETATM    4  C5  UNL     1     -33.756   7.832   4.919  1.00 20.00     0.005 C 
HETATM    5  C6  UNL     1     -33.188   6.153   3.045  1.00 20.00     0.006 C 
HETATM    6  C7  UNL     1     -32.782   8.507   2.145  1.00 20.00     0.047 C 
HETATM    7  C8  UNL     1     -33.339   6.408   4.544  1.00 20.00    -0.007 C 
ENDROOT
BRANCH   7   8
HETATM    8  C12 UNL     1     -34.365   5.450   5.075  1.00 20.00    -0.048 C 
HETATM    9  C9  UNL     1     -35.737   5.779   4.471  1.00 20.00     0.015 C 
HETATM   10  C10 UNL     1     -34.437   5.572   6.605  1.00 20.00     0.015 C 
HETATM   11  C11 UNL     1     -33.972   4.014   4.697  1.00 20.00     0.015 C 
ENDBRANCH   7   8
BRANCH   6  12
HETATM   12  C1  UNL     1     -32.224   9.150   0.868  1.00 20.00     0.235 C 
HETATM   13  O13 UNL     1     -32.926   9.502  -0.074  1.00 20.00    -0.306 OA
ENDBRANCH   6  12
TORSDOF 2
ENDMDL
MODEL 3
REMARK VINA RESULT:      -4.3      2.792      5.233
REMARK  2 active torsions:
REMARK  status: ('A' for Active; 'I' for Inactive)
REMARK    1  A    between atoms: C1_1  and  C7_7 
REMARK    2  A    between atoms: C8_8  and  C12_12 
ROOT
HETATM    1  C2  UNL     1     -35.441  18.762  -2.757  1.00 20.00     0.001 C 
HETATM    2  C3  UNL     1     -34.232  19.039  -1.866  1.00 20.00     0.011 C 
HETATM    3  C4  UNL     1     -33.333  16.660  -2.263  1.00 20.00     0.012 C 
HETATM    4  C5  UNL     1     -35.117  18.339  -4.187  1.00 20.00     0.005 C 
HETATM    5  C6  UNL     1     -33.582  16.315  -3.733  1.00 20.00     0.006 C 
HETATM    6  C7  UNL     1     -32.998  18.142  -2.048  1.00 20.00     0.047 C 
HETATM    7  C8  UNL     1     -34.898  16.828  -4.315  1.00 20.00    -0.007 C 
ENDROOT
BRANCH   7   8
HETATM    8  C12 UNL     1     -34.937  16.458  -5.769  1.00 20.00    -0.048 C 
HETATM    9  C9  UNL     1     -34.051  15.228  -6.010  1.00 20.00     0.015 C 
HETATM   10  C10 UNL     1     -34.421  17.634  -6.612  1.00 20.00     0.015 C 
HETATM   11  C11 UNL     1     -36.383  16.134  -6.177  1.00 20.00     0.015 C 
ENDBRANCH   7   8
BRANCH   6  12
HETATM   12  C1  UNL     1     -32.079  18.308  -0.831  1.00 20.00     0.235 C 
HETATM   13  O13 UNL     1     -30.968  18.824  -0.888  1.00 20.00    -0.306 OA
ENDBRANCH   6  12
TORSDOF 2
ENDMDL
MODEL 4
REMARK VINA RESULT:      -4.0      1.029      2.138
REMARK  2 active torsions:
REMARK  status: ('A' for Active; 'I' for Inactive)
REMARK    1  A    between atoms: C1_1  and  C7_7 
REMARK    2  A    between atoms: C8_8  and  C12_12 
ROOT
HETATM    1  C2  UNL     1     -34.437  18.143  -5.510  1.00 20.00     0.001 C 
HETATM    2  C3  UNL     1     -35.115  16.876  -6.028  1.00 20.00     0.011 C 
HETATM    3  C4  UNL     1     -33.749  15.421  -4.402  1.00 20.00     0.012 C 
HETATM    4  C5  UNL     1     -34.582  18.397  -4.013  1.00 20.00     0.005 C 
HETATM    5  C6  UNL     1     -33.658  16.179  -3.075  1.00 20.00     0.006 C 
HETATM    6  C7  UNL     1     -35.088  15.637  -5.120  1.00 20.00     0.047 C 
HETATM    7  C8  UNL     1     -33.498  17.693  -3.192  1.00 20.00    -0.007 C 
ENDROOT
BRANCH   7   8
HETATM    8  C12 UNL     1     -33.496  18.267  -1.805  1.00 20.00    -0.048 C 
HETATM    9  C9  UNL     1     -34.656  19.263  -1.659  1.00 20.00     0.015 C 
HETATM   10  C10 UNL     1     -32.165  18.991  -1.551  1.00 20.00     0.015 C 
HETATM   11  C11 UNL     1     -33.663  17.135  -0.781  1.00 20.00     0.015 C 
ENDBRANCH   7   8
BRANCH   6  12
HETATM   12  C1  UNL     1     -35.448  14.400  -5.954  1.00 20.00     0.235 C 
HETATM   13  O13 UNL     1     -35.865  14.460  -7.106  1.00 20.00    -0.306 OA
ENDBRANCH   6  12
TORSDOF 2
ENDMDL
MODEL 5
REMARK VINA RESULT:      -4.0     24.636     26.006
REMARK  2 active torsions:
REMARK  status: ('A' for Active; 'I' for Inactive)
REMARK    1  A    between atoms: C1_1  and  C7_7 
REMARK    2  A    between atoms: C8_8  and  C12_12 
ROOT
HETATM    1  C2  UNL     1     -26.922  -0.431  11.539  1.00 20.00     0.001 C 
HETATM    2  C3  UNL     1     -28.281  -0.820  12.115  1.00 20.00     0.011 C 
HETATM    3  C4  UNL     1     -28.431  -2.840  10.526  1.00 20.00     0.012 C 
HETATM    4  C5  UNL     1     -25.841  -1.504  11.627  1.00 20.00     0.005 C 
HETATM    5  C6  UNL     1     -27.034  -3.459  10.439  1.00 20.00     0.006 C 
HETATM    6  C7  UNL     1     -28.744  -2.271  11.916  1.00 20.00     0.047 C 
HETATM    7  C8  UNL     1     -25.874  -2.466  10.436  1.00 20.00    -0.007 C 
ENDROOT
BRANCH   7   8
HETATM    8  C12 UNL     1     -24.593  -3.250  10.416  1.00 20.00    -0.048 C 
HETATM    9  C9  UNL     1     -23.612  -2.659  11.438  1.00 20.00     0.015 C 
HETATM   10  C10 UNL     1     -23.972  -3.182   9.013  1.00 20.00     0.015 C 
HETATM   11  C11 UNL     1     -24.883  -4.716  10.774  1.00 20.00     0.015 C 
ENDBRANCH   7   8
BRANCH   6  12
HETATM   12  C1  UNL     1     -30.251  -2.356  12.197  1.00 20.00     0.235 C 
HETATM   13  O13 UNL     1     -31.104  -2.337  11.316  1.00 20.00    -0.306 OA
ENDBRANCH   6  12
TORSDOF 2
ENDMDL
MODEL 6
REMARK VINA RESULT:      -3.8      2.664      4.953
REMARK  2 active torsions:
REMARK  status: ('A' for Active; 'I' for Inactive)
REMARK    1  A    between atoms: C1_1  and  C7_7 
REMARK    2  A    between atoms: C8_8  and  C12_12 
ROOT
HETATM    1  C2  UNL     1     -32.991  16.281  -3.086  1.00 20.00     0.001 C 
HETATM    2  C3  UNL     1     -33.478  17.186  -1.957  1.00 20.00     0.011 C 
HETATM    3  C4  UNL     1     -34.579  18.784  -3.648  1.00 20.00     0.012 C 
HETATM    4  C5  UNL     1     -34.081  15.730  -4.001  1.00 20.00     0.005 C 
HETATM    5  C6  UNL     1     -35.212  17.925  -4.746  1.00 20.00     0.006 C 
HETATM    6  C7  UNL     1     -34.652  18.129  -2.263  1.00 20.00     0.047 C 
HETATM    7  C8  UNL     1     -34.418  16.685  -5.150  1.00 20.00    -0.007 C 
ENDROOT
BRANCH   7   8
HETATM    8  C12 UNL     1     -35.218  15.937  -6.177  1.00 20.00    -0.048 C 
HETATM    9  C9  UNL     1     -34.336  15.640  -7.398  1.00 20.00     0.015 C 
HETATM   10  C10 UNL     1     -36.421  16.789  -6.610  1.00 20.00     0.015 C 
HETATM   11  C11 UNL     1     -35.719  14.616  -5.575  1.00 20.00     0.015 C 
ENDBRANCH   7   8
BRANCH   6  12
HETATM   12  C1  UNL     1     -34.725  19.204  -1.170  1.00 20.00     0.235 C 
HETATM   13  O13 UNL     1     -34.679  18.952   0.029  1.00 20.00    -0.306 OA
ENDBRANCH   6  12
TORSDOF 2
ENDMDL
MODEL 7
REMARK VINA RESULT:      -3.7      2.601      4.908
REMARK  2 active torsions:
REMARK  status: ('A' for Active; 'I' for Inactive)
REMARK    1  A    between atoms: C1_1  and  C7_7 
REMARK    2  A    between atoms: C8_8  and  C12_12 
ROOT
HETATM    1  C2  UNL     1     -33.378  15.523  -3.998  1.00 20.00     0.001 C 
HETATM    2  C3  UNL     1     -33.167  16.442  -2.797  1.00 20.00     0.011 C 
HETATM    3  C4  UNL     1     -33.505  18.525  -4.270  1.00 20.00     0.012 C 
HETATM    4  C5  UNL     1     -34.710  15.689  -4.724  1.00 20.00     0.005 C 
HETATM    5  C6  UNL     1     -34.635  18.213  -5.254  1.00 20.00     0.006 C 
HETATM    6  C7  UNL     1     -33.715  17.874  -2.897  1.00 20.00     0.047 C 
HETATM    7  C8  UNL     1     -34.660  16.784  -5.793  1.00 20.00    -0.007 C 
ENDROOT
BRANCH   7   8
HETATM    8  C12 UNL     1     -35.863  16.645  -6.680  1.00 20.00    -0.048 C 
HETATM    9  C9  UNL     1     -37.140  16.722  -5.831  1.00 20.00     0.015 C 
HETATM   10  C10 UNL     1     -35.813  15.292  -7.406  1.00 20.00     0.015 C 
HETATM   11  C11 UNL     1     -35.871  17.779  -7.717  1.00 20.00     0.015 C 
ENDBRANCH   7   8
BRANCH   6  12
HETATM   12  C1  UNL     1     -33.071  18.731  -1.799  1.00 20.00     0.235 C 
HETATM   13  O13 UNL     1     -31.961  19.241  -1.904  1.00 20.00    -0.306 OA
ENDBRANCH   6  12
TORSDOF 2
ENDMDL
MODEL 8
REMARK VINA RESULT:      -3.4     13.480     14.743
REMARK  2 active torsions:
REMARK  status: ('A' for Active; 'I' for Inactive)
REMARK    1  A    between atoms: C1_1  and  C7_7 
REMARK    2  A    between atoms: C8_8  and  C12_12 
ROOT
HETATM    1  C2  UNL     1     -43.121  13.305   7.566  1.00 20.00     0.001 C 
HETATM    2  C3  UNL     1     -42.161  12.553   6.647  1.00 20.00     0.011 C 
HETATM    3  C4  UNL     1     -40.409  14.427   6.863  1.00 20.00     0.012 C 
HETATM    4  C5  UNL     1     -42.578  13.633   8.954  1.00 20.00     0.005 C 
HETATM    5  C6  UNL     1     -40.423  14.902   8.318  1.00 20.00     0.006 C 
HETATM    6  C7  UNL     1     -40.672  12.921   6.727  1.00 20.00     0.047 C 
HETATM    7  C8  UNL     1     -41.799  14.951   8.980  1.00 20.00    -0.007 C 
ENDROOT
BRANCH   7   8
HETATM    8  C12 UNL     1     -41.610  15.369  10.410  1.00 20.00    -0.048 C 
HETATM    9  C9  UNL     1     -41.294  16.871  10.469  1.00 20.00     0.015 C 
HETATM   10  C10 UNL     1     -40.448  14.577  11.027  1.00 20.00     0.015 C 
HETATM   11  C11 UNL     1     -42.896  15.087  11.201  1.00 20.00     0.015 C 
ENDBRANCH   7   8
BRANCH   6  12
HETATM   12  C1  UNL     1     -39.956  12.368   5.487  1.00 20.00     0.235 C 
HETATM   13  O13 UNL     1     -38.741  12.213   5.421  1.00 20.00    -0.306 OA
ENDBRANCH   6  12
TORSDOF 2
ENDMDL
MODEL 9
REMARK VINA RESULT:      -3.4     12.921     14.723
REMARK  2 active torsions:
REMARK  status: ('A' for Active; 'I' for Inactive)
REMARK    1  A    between atoms: C1_1  and  C7_7 
REMARK    2  A    between atoms: C8_8  and  C12_12 
ROOT
HETATM    1  C2  UNL     1     -40.085  14.895   9.400  1.00 20.00     0.001 C 
HETATM    2  C3  UNL     1     -40.787  16.134   9.951  1.00 20.00     0.011 C 
HETATM    3  C4  UNL     1     -41.181  17.030   7.571  1.00 20.00     0.012 C 
HETATM    4  C5  UNL     1     -40.910  14.049   8.434  1.00 20.00     0.005 C 
HETATM    5  C6  UNL     1     -41.550  15.836   6.686  1.00 20.00     0.006 C 
HETATM    6  C7  UNL     1     -41.721  16.900   9.001  1.00 20.00     0.047 C 
HETATM    7  C8  UNL     1     -40.801  14.539   6.987  1.00 20.00    -0.007 C 
ENDROOT
BRANCH   7   8
HETATM    8  C12 UNL     1     -41.337  13.473   6.077  1.00 20.00    -0.048 C 
HETATM    9  C9  UNL     1     -41.987  14.125   4.848  1.00 20.00     0.015 C 
HETATM   10  C10 UNL     1     -42.385  12.637   6.827  1.00 20.00     0.015 C 
HETATM   11  C11 UNL     1     -40.187  12.560   5.623  1.00 20.00     0.015 C 
ENDBRANCH   7   8
BRANCH   6  12
HETATM   12  C1  UNL     1     -42.001  18.288   9.591  1.00 20.00     0.235 C 
HETATM   13  O13 UNL     1     -41.236  19.240   9.473  1.00 20.00    -0.306 OA
ENDBRANCH   6  12
TORSDOF 2
ENDMDL
