MODEL 1
REMARK VINA RESULT:      -3.8      0.000      0.000
REMARK  4 active torsions:
REMARK  status: ('A' for Active; 'I' for Inactive)
REMARK    1  A    between atoms: C3_3  and  C6_6 
REMARK    2  A    between atoms: C4_4  and  C6_6 
REMARK    3  A    between atoms: C4_4  and  O7_7 
REMARK    4  A    between atoms: C5_5  and  C6_6 
ROOT
HETATM    1  C6  UNL     1     -33.503   6.713   4.503  1.00 20.00     0.023 C 
ENDROOT
BRANCH   1   2
HETATM    2  C3  UNL     1     -33.600   8.162   5.030  1.00 20.00     0.003 C 
HETATM    3  C1  UNL     1     -32.329   8.975   4.827  1.00 20.00     0.005 C 
ENDBRANCH   1   2
BRANCH   1   4
HETATM    4  C4  UNL     1     -34.900   6.081   4.398  1.00 20.00     0.172 C 
BRANCH   4   5
HETATM    5  O7  UNL     1     -34.947   4.880   5.160  1.00 20.00    -0.396 OA
HETATM    6  C2  UNL     1     -34.450   5.079   6.476  1.00 20.00     0.201 C 
ENDBRANCH   4   5
ENDBRANCH   1   4
BRANCH   1   7
HETATM    7  C5  UNL     1     -32.733   6.575   3.178  1.00 20.00     0.121 C 
HETATM    8 CL8  UNL     1     -32.837   4.950   2.462  1.00 20.00    -0.130 Cl
ENDBRANCH   1   7
TORSDOF 4
ENDMDL
MODEL 2
REMARK VINA RESULT:      -3.8      2.111      3.418
REMARK  4 active torsions:
REMARK  status: ('A' for Active; 'I' for Inactive)
REMARK    1  A    between atoms: C3_3  and  C6_6 
REMARK    2  A    between atoms: C4_4  and  C6_6 
REMARK    3  A    between atoms: C4_4  and  O7_7 
REMARK    4  A    between atoms: C5_5  and  C6_6 
ROOT
HETATM    1  C6  UNL     1     -33.879   6.925   4.547  1.00 20.00     0.023 C 
ENDROOT
BRANCH   1   2
HETATM    2  C3  UNL     1     -34.019   6.857   6.085  1.00 20.00     0.003 C 
HETATM    3  C1  UNL     1     -34.579   5.534   6.590  1.00 20.00     0.005 C 
ENDBRANCH   1   2
BRANCH   1   4
HETATM    4  C4  UNL     1     -32.534   7.560   4.155  1.00 20.00     0.172 C 
BRANCH   4   5
HETATM    5  O7  UNL     1     -32.749   8.863   3.628  1.00 20.00    -0.396 OA
HETATM    6  C2  UNL     1     -32.605   8.884   2.215  1.00 20.00     0.201 C 
ENDBRANCH   4   5
ENDBRANCH   1   4
BRANCH   1   7
HETATM    7  C5  UNL     1     -34.082   5.577   3.835  1.00 20.00     0.121 C 
HETATM    8 CL8  UNL     1     -32.851   5.234   2.598  1.00 20.00    -0.130 Cl
ENDBRANCH   1   7
TORSDOF 4
ENDMDL
MODEL 3
REMARK VINA RESULT:      -3.5      2.066      3.136
REMARK  4 active torsions:
REMARK  status: ('A' for Active; 'I' for Inactive)
REMARK    1  A    between atoms: C3_3  and  C6_6 
REMARK    2  A    between atoms: C4_4  and  C6_6 
REMARK    3  A    between atoms: C4_4  and  O7_7 
REMARK    4  A    between atoms: C5_5  and  C6_6 
ROOT
HETATM    1  C6  UNL     1     -33.642   6.820   4.938  1.00 20.00     0.023 C 
ENDROOT
BRANCH   1   2
HETATM    2  C3  UNL     1     -34.079   6.691   6.415  1.00 20.00     0.003 C 
HETATM    3  C1  UNL     1     -34.778   5.376   6.734  1.00 20.00     0.005 C 
ENDBRANCH   1   2
BRANCH   1   4
HETATM    4  C4  UNL     1     -34.508   5.923   4.038  1.00 20.00     0.172 C 
BRANCH   4   5
HETATM    5  O7  UNL     1     -33.737   4.824   3.566  1.00 20.00    -0.396 OA
HETATM    6  C2  UNL     1     -32.839   5.220   2.539  1.00 20.00     0.201 C 
ENDBRANCH   4   5
ENDBRANCH   1   4
BRANCH   1   7
HETATM    7  C5  UNL     1     -33.613   8.266   4.414  1.00 20.00     0.121 C 
HETATM    8 CL8  UNL     1     -32.140   9.155   4.866  1.00 20.00    -0.130 Cl
ENDBRANCH   1   7
TORSDOF 4
ENDMDL
MODEL 4
REMARK VINA RESULT:      -3.4      2.267      2.846
REMARK  4 active torsions:
REMARK  status: ('A' for Active; 'I' for Inactive)
REMARK    1  A    between atoms: C3_3  and  C6_6 
REMARK    2  A    between atoms: C4_4  and  C6_6 
REMARK    3  A    between atoms: C4_4  and  O7_7 
REMARK    4  A    between atoms: C5_5  and  C6_6 
ROOT
HETATM    1  C6  UNL     1     -33.872   7.231   4.646  1.00 20.00     0.023 C 
ENDROOT
BRANCH   1   2
HETATM    2  C3  UNL     1     -32.655   8.055   4.169  1.00 20.00     0.003 C 
HETATM    3  C1  UNL     1     -32.254   9.166   5.130  1.00 20.00     0.005 C 
ENDBRANCH   1   2
BRANCH   1   4
HETATM    4  C4  UNL     1     -33.939   5.887   3.901  1.00 20.00     0.172 C 
BRANCH   4   5
HETATM    5  O7  UNL     1     -32.909   5.825   2.922  1.00 20.00    -0.396 OA
HETATM    6  C2  UNL     1     -32.891   4.565   2.266  1.00 20.00     0.201 C 
ENDBRANCH   4   5
ENDBRANCH   1   4
BRANCH   1   7
HETATM    7  C5  UNL     1     -33.935   7.023   6.169  1.00 20.00     0.121 C 
HETATM    8 CL8  UNL     1     -34.468   5.393   6.641  1.00 20.00    -0.130 Cl
ENDBRANCH   1   7
TORSDOF 4
ENDMDL
MODEL 5
REMARK VINA RESULT:      -3.3      1.978      2.768
REMARK  4 active torsions:
REMARK  status: ('A' for Active; 'I' for Inactive)
REMARK    1  A    between atoms: C3_3  and  C6_6 
REMARK    2  A    between atoms: C4_4  and  C6_6 
REMARK    3  A    between atoms: C4_4  and  O7_7 
REMARK    4  A    between atoms: C5_5  and  C6_6 
ROOT
HETATM    1  C6  UNL     1     -33.659   7.241   4.065  1.00 20.00     0.023 C 
ENDROOT
BRANCH   1   2
HETATM    2  C3  UNL     1     -32.620   6.641   3.091  1.00 20.00     0.003 C 
HETATM    3  C1  UNL     1     -32.927   5.209   2.674  1.00 20.00     0.005 C 
ENDBRANCH   1   2
BRANCH   1   4
HETATM    4  C4  UNL     1     -34.683   6.174   4.487  1.00 20.00     0.172 C 
BRANCH   4   5
HETATM    5  O7  UNL     1     -34.854   6.200   5.899  1.00 20.00    -0.396 OA
HETATM    6  C2  UNL     1     -34.445   4.977   6.495  1.00 20.00     0.201 C 
ENDBRANCH   4   5
ENDBRANCH   1   4
BRANCH   1   7
HETATM    7  C5  UNL     1     -33.044   7.934   5.293  1.00 20.00     0.121 C 
HETATM    8 CL8  UNL     1     -32.043   9.346   4.884  1.00 20.00    -0.130 Cl
ENDBRANCH   1   7
TORSDOF 4
ENDMDL
MODEL 6
REMARK VINA RESULT:      -3.2      2.685      3.925
REMARK  4 active torsions:
REMARK  status: ('A' for Active; 'I' for Inactive)
REMARK    1  A    between atoms: C3_3  and  C6_6 
REMARK    2  A    between atoms: C4_4  and  C6_6 
REMARK    3  A    between atoms: C4_4  and  O7_7 
REMARK    4  A    between atoms: C5_5  and  C6_6 
ROOT
HETATM    1  C6  UNL     1     -33.427   6.896   4.880  1.00 20.00     0.023 C 
ENDROOT
BRANCH   1   2
HETATM    2  C3  UNL     1     -34.018   5.880   3.877  1.00 20.00     0.003 C 
HETATM    3  C1  UNL     1     -33.002   5.346   2.875  1.00 20.00     0.005 C 
ENDBRANCH   1   2
BRANCH   1   4
HETATM    4  C4  UNL     1     -33.589   8.332   4.354  1.00 20.00     0.172 C 
BRANCH   4   5
HETATM    5  O7  UNL     1     -32.397   8.743   3.695  1.00 20.00    -0.396 OA
HETATM    6  C2  UNL     1     -32.627   9.003   2.317  1.00 20.00     0.201 C 
ENDBRANCH   4   5
ENDBRANCH   1   4
BRANCH   1   7
HETATM    7  C5  UNL     1     -33.981   6.765   6.309  1.00 20.00     0.121 C 
HETATM    8 CL8  UNL     1     -34.815   5.222   6.608  1.00 20.00    -0.130 Cl
ENDBRANCH   1   7
TORSDOF 4
ENDMDL
MODEL 7
REMARK VINA RESULT:      -3.2      2.141      2.370
REMARK  4 active torsions:
REMARK  status: ('A' for Active; 'I' for Inactive)
REMARK    1  A    between atoms: C3_3  and  C6_6 
REMARK    2  A    between atoms: C4_4  and  C6_6 
REMARK    3  A    between atoms: C4_4  and  O7_7 
REMARK    4  A    between atoms: C5_5  and  C6_6 
ROOT
HETATM    1  C6  UNL     1     -32.316   7.293   3.066  1.00 20.00     0.023 C 
ENDROOT
BRANCH   1   2
HETATM    2  C3  UNL     1     -33.128   8.165   4.050  1.00 20.00     0.003 C 
HETATM    3  C1  UNL     1     -32.265   8.951   5.027  1.00 20.00     0.005 C 
ENDBRANCH   1   2
BRANCH   1   4
HETATM    4  C4  UNL     1     -32.902   5.873   2.991  1.00 20.00     0.172 C 
BRANCH   4   5
HETATM    5  O7  UNL     1     -34.070   5.790   3.798  1.00 20.00    -0.396 OA
HETATM    6  C2  UNL     1     -34.119   4.567   4.519  1.00 20.00     0.201 C 
ENDBRANCH   4   5
ENDBRANCH   1   4
BRANCH   1   7
HETATM    7  C5  UNL     1     -32.163   7.903   1.662  1.00 20.00     0.121 C 
HETATM    8 CL8  UNL     1     -32.874   9.528   1.513  1.00 20.00    -0.130 Cl
ENDBRANCH   1   7
TORSDOF 4
ENDMDL
MODEL 8
REMARK VINA RESULT:      -3.2     12.886     13.505
REMARK  4 active torsions:
REMARK  status: ('A' for Active; 'I' for Inactive)
REMARK    1  A    between atoms: C3_3  and  C6_6 
REMARK    2  A    between atoms: C4_4  and  C6_6 
REMARK    3  A    between atoms: C4_4  and  O7_7 
REMARK    4  A    between atoms: C5_5  and  C6_6 
ROOT
HETATM    1  C6  UNL     1     -33.179  17.990  -0.885  1.00 20.00     0.023 C 
ENDROOT
BRANCH   1   2
HETATM    2  C3  UNL     1     -33.393  16.924  -1.983  1.00 20.00     0.003 C 
HETATM    3  C1  UNL     1     -33.280  17.472  -3.399  1.00 20.00     0.005 C 
ENDBRANCH   1   2
BRANCH   1   4
HETATM    4  C4  UNL     1     -32.026  18.934  -1.266  1.00 20.00     0.172 C 
BRANCH   4   5
HETATM    5  O7  UNL     1     -30.832  18.528  -0.609  1.00 20.00    -0.396 OA
HETATM    6  C2  UNL     1     -30.966  18.592   0.804  1.00 20.00     0.201 C 
ENDBRANCH   4   5
ENDBRANCH   1   4
BRANCH   1   7
HETATM    7  C5  UNL     1     -34.446  18.783  -0.522  1.00 20.00     0.121 C 
HETATM    8 CL8  UNL     1     -34.693  18.963   1.231  1.00 20.00    -0.130 Cl
ENDBRANCH   1   7
TORSDOF 4
ENDMDL
MODEL 9
REMARK VINA RESULT:      -3.2      3.138      4.539
REMARK  4 active torsions:
REMARK  status: ('A' for Active; 'I' for Inactive)
REMARK    1  A    between atoms: C3_3  and  C6_6 
REMARK    2  A    between atoms: C4_4  and  C6_6 
REMARK    3  A    between atoms: C4_4  and  O7_7 
REMARK    4  A    between atoms: C5_5  and  C6_6 
ROOT
HETATM    1  C6  UNL     1     -32.256   7.349   3.457  1.00 20.00     0.023 C 
ENDROOT
BRANCH   1   2
HETATM    2  C3  UNL     1     -33.251   6.169   3.540  1.00 20.00     0.003 C 
HETATM    3  C1  UNL     1     -32.954   5.047   2.555  1.00 20.00     0.005 C 
ENDBRANCH   1   2
BRANCH   1   4
HETATM    4  C4  UNL     1     -32.151   7.865   2.012  1.00 20.00     0.172 C 
BRANCH   4   5
HETATM    5  O7  UNL     1     -32.718   9.166   1.920  1.00 20.00    -0.396 OA
HETATM    6  C2  UNL     1     -32.820   9.596   0.570  1.00 20.00     0.201 C 
ENDBRANCH   4   5
ENDBRANCH   1   4
BRANCH   1   7
HETATM    7  C5  UNL     1     -32.559   8.498   4.433  1.00 20.00     0.121 C 
HETATM    8 CL8  UNL     1     -33.755   8.073   5.680  1.00 20.00    -0.130 Cl
ENDBRANCH   1   7
TORSDOF 4
ENDMDL
