MODEL 1
REMARK VINA RESULT:      -4.2      0.000      0.000
REMARK  3 active torsions:
REMARK  status: ('A' for Active; 'I' for Inactive)
REMARK    1  A    between atoms: C6_6  and  C9_9 
REMARK    2  A    between atoms: C7_7  and  C10_10 
REMARK    3  A    between atoms: C9_9  and  C11_11 
ROOT
HETATM    1  C1  UNL     1     -35.014  17.830  -5.693  1.00 20.00     0.001 C 
HETATM    2  C2  UNL     1     -34.708  17.936  -4.199  1.00 20.00     0.005 C 
HETATM    3  C3  UNL     1     -34.406  16.675  -6.481  1.00 20.00     0.005 C 
HETATM    4  C4  UNL     1     -33.499  15.794  -3.545  1.00 20.00     0.005 C 
HETATM    5  C5  UNL     1     -33.452  14.982  -4.835  1.00 20.00     0.006 C 
HETATM    6  C6  UNL     1     -33.387  17.318  -3.723  1.00 20.00    -0.014 C 
HETATM    7  C7  UNL     1     -34.530  15.268  -5.887  1.00 20.00    -0.001 C 
ENDROOT
BRANCH   6   8
HETATM    8  C9  UNL     1     -33.002  17.945  -2.374  1.00 20.00     0.004 C 
BRANCH   8   9
HETATM    9  C11 UNL     1     -33.719  17.250  -1.225  1.00 20.00    -0.004 C 
HETATM   10  C8  UNL     1     -33.721  18.119   0.022  1.00 20.00     0.005 C 
ENDBRANCH   8   9
ENDBRANCH   6   8
BRANCH   7  11
HETATM   11  C10 UNL     1     -35.939  14.924  -5.409  1.00 20.00     0.119 C 
HETATM   12 CL12 UNL     1     -35.911  13.416  -4.484  1.00 20.00    -0.130 Cl
ENDBRANCH   7  11
TORSDOF 3
ENDMDL
MODEL 2
REMARK VINA RESULT:      -4.0      1.776      2.657
REMARK  3 active torsions:
REMARK  status: ('A' for Active; 'I' for Inactive)
REMARK    1  A    between atoms: C6_6  and  C9_9 
REMARK    2  A    between atoms: C7_7  and  C10_10 
REMARK    3  A    between atoms: C9_9  and  C11_11 
ROOT
HETATM    1  C1  UNL     1     -33.741  14.414  -4.503  1.00 20.00     0.001 C 
HETATM    2  C2  UNL     1     -32.988  15.563  -3.834  1.00 20.00     0.005 C 
HETATM    3  C3  UNL     1     -35.157  14.667  -5.008  1.00 20.00     0.005 C 
HETATM    4  C4  UNL     1     -34.395  17.657  -4.173  1.00 20.00     0.005 C 
HETATM    5  C5  UNL     1     -35.590  17.176  -4.989  1.00 20.00     0.006 C 
HETATM    6  C6  UNL     1     -33.843  16.642  -3.157  1.00 20.00    -0.014 C 
HETATM    7  C7  UNL     1     -35.396  15.923  -5.851  1.00 20.00    -0.001 C 
ENDROOT
BRANCH   6   8
HETATM    8  C9  UNL     1     -32.977  17.392  -2.132  1.00 20.00     0.004 C 
BRANCH   8   9
HETATM    9  C11 UNL     1     -33.757  17.664  -0.854  1.00 20.00    -0.004 C 
HETATM   10  C8  UNL     1     -32.902  18.409   0.159  1.00 20.00     0.005 C 
ENDBRANCH   8   9
ENDBRANCH   6   8
BRANCH   7  11
HETATM   11  C10 UNL     1     -34.373  16.117  -6.969  1.00 20.00     0.119 C 
HETATM   12 CL12 UNL     1     -34.656  17.662  -7.785  1.00 20.00    -0.130 Cl
ENDBRANCH   7  11
TORSDOF 3
ENDMDL
MODEL 3
REMARK VINA RESULT:      -4.0      2.509      4.679
REMARK  3 active torsions:
REMARK  status: ('A' for Active; 'I' for Inactive)
REMARK    1  A    between atoms: C6_6  and  C9_9 
REMARK    2  A    between atoms: C7_7  and  C10_10 
REMARK    3  A    between atoms: C9_9  and  C11_11 
ROOT
HETATM    1  C1  UNL     1     -34.881  18.993  -3.910  1.00 20.00     0.001 C 
HETATM    2  C2  UNL     1     -34.229  17.973  -4.842  1.00 20.00     0.005 C 
HETATM    3  C3  UNL     1     -35.025  18.642  -2.433  1.00 20.00     0.005 C 
HETATM    4  C4  UNL     1     -33.288  16.125  -3.366  1.00 20.00     0.005 C 
HETATM    5  C5  UNL     1     -33.613  16.580  -1.946  1.00 20.00     0.006 C 
HETATM    6  C6  UNL     1     -34.335  16.499  -4.430  1.00 20.00    -0.014 C 
HETATM    7  C7  UNL     1     -33.793  18.084  -1.712  1.00 20.00    -0.001 C 
ENDROOT
BRANCH   6   8
HETATM    8  C9  UNL     1     -34.113  15.618  -5.669  1.00 20.00     0.004 C 
BRANCH   8   9
HETATM    9  C11 UNL     1     -35.412  14.955  -6.108  1.00 20.00    -0.004 C 
HETATM   10  C8  UNL     1     -35.967  14.063  -5.009  1.00 20.00     0.005 C 
ENDBRANCH   8   9
ENDBRANCH   6   8
BRANCH   7  11
HETATM   11  C10 UNL     1     -32.518  18.887  -1.963  1.00 20.00     0.119 C 
HETATM   12 CL12 UNL     1     -31.359  18.602  -0.657  1.00 20.00    -0.130 Cl
ENDBRANCH   7  11
TORSDOF 3
ENDMDL
MODEL 4
REMARK VINA RESULT:      -3.9      1.444      2.146
REMARK  3 active torsions:
REMARK  status: ('A' for Active; 'I' for Inactive)
REMARK    1  A    between atoms: C6_6  and  C9_9 
REMARK    2  A    between atoms: C7_7  and  C10_10 
REMARK    3  A    between atoms: C9_9  and  C11_11 
ROOT
HETATM    1  C1  UNL     1     -34.909  19.218  -3.603  1.00 20.00     0.001 C 
HETATM    2  C2  UNL     1     -34.964  18.617  -2.199  1.00 20.00     0.005 C 
HETATM    3  C3  UNL     1     -33.984  18.580  -4.632  1.00 20.00     0.005 C 
HETATM    4  C4  UNL     1     -33.643  16.443  -2.279  1.00 20.00     0.005 C 
HETATM    5  C5  UNL     1     -33.193  16.332  -3.732  1.00 20.00     0.006 C 
HETATM    6  C6  UNL     1     -33.709  17.875  -1.720  1.00 20.00    -0.014 C 
HETATM    7  C7  UNL     1     -34.038  17.057  -4.788  1.00 20.00    -0.001 C 
ENDROOT
BRANCH   6   8
HETATM    8  C9  UNL     1     -33.729  17.804  -0.185  1.00 20.00     0.004 C 
BRANCH   8   9
HETATM    9  C11 UNL     1     -32.632  18.672   0.416  1.00 20.00    -0.004 C 
HETATM   10  C8  UNL     1     -31.344  18.554  -0.383  1.00 20.00     0.005 C 
ENDBRANCH   8   9
ENDBRANCH   6   8
BRANCH   7  11
HETATM   11  C10 UNL     1     -35.455  16.500  -4.905  1.00 20.00     0.119 C 
HETATM   12 CL12 UNL     1     -35.396  14.771  -5.279  1.00 20.00    -0.130 Cl
ENDBRANCH   7  11
TORSDOF 3
ENDMDL
MODEL 5
REMARK VINA RESULT:      -3.9     11.365     13.622
REMARK  3 active torsions:
REMARK  status: ('A' for Active; 'I' for Inactive)
REMARK    1  A    between atoms: C6_6  and  C9_9 
REMARK    2  A    between atoms: C7_7  and  C10_10 
REMARK    3  A    between atoms: C9_9  and  C11_11 
ROOT
HETATM    1  C1  UNL     1     -40.339  15.391   8.285  1.00 20.00     0.001 C 
HETATM    2  C2  UNL     1     -40.467  13.927   7.867  1.00 20.00     0.005 C 
HETATM    3  C3  UNL     1     -40.905  16.465   7.362  1.00 20.00     0.005 C 
HETATM    4  C4  UNL     1     -41.980  13.879   5.820  1.00 20.00     0.005 C 
HETATM    5  C5  UNL     1     -42.366  15.339   5.606  1.00 20.00     0.006 C 
HETATM    6  C6  UNL     1     -40.558  13.648   6.361  1.00 20.00    -0.014 C 
HETATM    7  C7  UNL     1     -42.327  16.264   6.828  1.00 20.00    -0.001 C 
ENDROOT
BRANCH   6   8
HETATM    8  C9  UNL     1     -40.163  12.186   6.101  1.00 20.00     0.004 C 
BRANCH   8   9
HETATM    9  C11 UNL     1     -38.812  12.101   5.404  1.00 20.00    -0.004 C 
HETATM   10  C8  UNL     1     -38.970  11.653   3.960  1.00 20.00     0.005 C 
ENDBRANCH   8   9
ENDBRANCH   6   8
BRANCH   7  11
HETATM   11  C10 UNL     1     -43.339  15.877   7.904  1.00 20.00     0.119 C 
HETATM   12 CL12 UNL     1     -43.409  17.133   9.149  1.00 20.00    -0.130 Cl
ENDBRANCH   7  11
TORSDOF 3
ENDMDL
MODEL 6
REMARK VINA RESULT:      -3.7     11.496     12.725
REMARK  3 active torsions:
REMARK  status: ('A' for Active; 'I' for Inactive)
REMARK    1  A    between atoms: C6_6  and  C9_9 
REMARK    2  A    between atoms: C7_7  and  C10_10 
REMARK    3  A    between atoms: C9_9  and  C11_11 
ROOT
HETATM    1  C1  UNL     1     -33.254   8.731   5.010  1.00 20.00     0.001 C 
HETATM    2  C2  UNL     1     -34.313   7.655   4.771  1.00 20.00     0.005 C 
HETATM    3  C3  UNL     1     -31.902   8.587   4.320  1.00 20.00     0.005 C 
HETATM    4  C4  UNL     1     -33.424   6.147   2.924  1.00 20.00     0.005 C 
HETATM    5  C5  UNL     1     -32.084   6.770   2.546  1.00 20.00     0.006 C 
HETATM    6  C6  UNL     1     -33.801   6.254   4.412  1.00 20.00    -0.014 C 
HETATM    7  C7  UNL     1     -31.900   8.267   2.822  1.00 20.00    -0.001 C 
ENDROOT
BRANCH   6   8
HETATM    8  C9  UNL     1     -34.904   5.228   4.715  1.00 20.00     0.004 C 
BRANCH   8   9
HETATM    9  C11 UNL     1     -35.026   4.986   6.213  1.00 20.00    -0.004 C 
HETATM   10  C8  UNL     1     -33.699   5.230   6.916  1.00 20.00     0.005 C 
ENDBRANCH   8   9
ENDBRANCH   6   8
BRANCH   7  11
HETATM   11  C10 UNL     1     -32.842   9.147   2.003  1.00 20.00     0.119 C 
HETATM   12 CL12 UNL     1     -32.521   8.932   0.276  1.00 20.00    -0.130 Cl
ENDBRANCH   7  11
TORSDOF 3
ENDMDL
MODEL 7
REMARK VINA RESULT:      -3.7     11.969     14.449
REMARK  3 active torsions:
REMARK  status: ('A' for Active; 'I' for Inactive)
REMARK    1  A    between atoms: C6_6  and  C9_9 
REMARK    2  A    between atoms: C7_7  and  C10_10 
REMARK    3  A    between atoms: C9_9  and  C11_11 
ROOT
HETATM    1  C1  UNL     1     -43.282  13.409   8.322  1.00 20.00     0.001 C 
HETATM    2  C2  UNL     1     -42.639  13.454   6.937  1.00 20.00     0.005 C 
HETATM    3  C3  UNL     1     -42.437  13.798   9.530  1.00 20.00     0.005 C 
HETATM    4  C4  UNL     1     -40.366  14.564   7.218  1.00 20.00     0.005 C 
HETATM    5  C5  UNL     1     -40.300  14.907   8.703  1.00 20.00     0.006 C 
HETATM    6  C6  UNL     1     -41.118  13.265   6.879  1.00 20.00    -0.014 C 
HETATM    7  C7  UNL     1     -41.630  15.097   9.442  1.00 20.00    -0.001 C 
ENDROOT
BRANCH   6   8
HETATM    8  C9  UNL     1     -40.725  12.825   5.460  1.00 20.00     0.004 C 
BRANCH   8   9
HETATM    9  C11 UNL     1     -39.560  11.845   5.495  1.00 20.00    -0.004 C 
HETATM   10  C8  UNL     1     -38.954  11.668   4.111  1.00 20.00     0.005 C 
ENDBRANCH   8   9
ENDBRANCH   6   8
BRANCH   7  11
HETATM   11  C10 UNL     1     -42.435  16.289   8.930  1.00 20.00     0.119 C 
HETATM   12 CL12 UNL     1     -41.392  17.712   8.799  1.00 20.00    -0.130 Cl
ENDBRANCH   7  11
TORSDOF 3
ENDMDL
MODEL 8
REMARK VINA RESULT:      -3.6      2.107      4.499
REMARK  3 active torsions:
REMARK  status: ('A' for Active; 'I' for Inactive)
REMARK    1  A    between atoms: C6_6  and  C9_9 
REMARK    2  A    between atoms: C7_7  and  C10_10 
REMARK    3  A    between atoms: C9_9  and  C11_11 
ROOT
HETATM    1  C1  UNL     1     -32.944  17.484  -1.838  1.00 20.00     0.001 C 
HETATM    2  C2  UNL     1     -33.511  16.268  -2.570  1.00 20.00     0.005 C 
HETATM    3  C3  UNL     1     -33.014  18.844  -2.523  1.00 20.00     0.005 C 
HETATM    4  C4  UNL     1     -34.724  17.150  -4.626  1.00 20.00     0.005 C 
HETATM    5  C5  UNL     1     -34.572  18.665  -4.529  1.00 20.00     0.006 C 
HETATM    6  C6  UNL     1     -33.528  16.335  -4.103  1.00 20.00    -0.014 C 
HETATM    7  C7  UNL     1     -34.355  19.263  -3.134  1.00 20.00    -0.001 C 
ENDROOT
BRANCH   6   8
HETATM    8  C9  UNL     1     -33.623  14.907  -4.662  1.00 20.00     0.004 C 
BRANCH   8   9
HETATM    9  C11 UNL     1     -34.953  14.685  -5.369  1.00 20.00    -0.004 C 
HETATM   10  C8  UNL     1     -35.790  13.644  -4.642  1.00 20.00     0.005 C 
ENDBRANCH   8   9
ENDBRANCH   6   8
BRANCH   7  11
HETATM   11  C10 UNL     1     -35.547  19.055  -2.202  1.00 20.00     0.119 C 
HETATM   12 CL12 UNL     1     -37.058  19.199  -3.113  1.00 20.00    -0.130 Cl
ENDBRANCH   7  11
TORSDOF 3
ENDMDL
MODEL 9
REMARK VINA RESULT:      -3.5     12.103     14.453
REMARK  3 active torsions:
REMARK  status: ('A' for Active; 'I' for Inactive)
REMARK    1  A    between atoms: C6_6  and  C9_9 
REMARK    2  A    between atoms: C7_7  and  C10_10 
REMARK    3  A    between atoms: C9_9  and  C11_11 
ROOT
HETATM    1  C1  UNL     1     -40.660  15.641   7.908  1.00 20.00     0.001 C 
HETATM    2  C2  UNL     1     -40.312  14.394   7.096  1.00 20.00     0.005 C 
HETATM    3  C3  UNL     1     -42.113  15.864   8.313  1.00 20.00     0.005 C 
HETATM    4  C4  UNL     1     -42.402  12.942   7.048  1.00 20.00     0.005 C 
HETATM    5  C5  UNL     1     -43.415  13.718   7.884  1.00 20.00     0.006 C 
HETATM    6  C6  UNL     1     -41.431  13.807   6.225  1.00 20.00    -0.014 C 
HETATM    7  C7  UNL     1     -42.865  14.685   8.939  1.00 20.00    -0.001 C 
ENDROOT
BRANCH   6   8
HETATM    8  C9  UNL     1     -40.801  12.933   5.130  1.00 20.00     0.004 C 
BRANCH   8   9
HETATM    9  C11 UNL     1     -39.841  11.914   5.728  1.00 20.00    -0.004 C 
HETATM   10  C8  UNL     1     -38.559  11.828   4.915  1.00 20.00     0.005 C 
ENDBRANCH   8   9
ENDBRANCH   6   8
BRANCH   7  11
HETATM   11  C10 UNL     1     -42.088  13.981  10.050  1.00 20.00     0.119 C 
HETATM   12 CL12 UNL     1     -43.096  12.731  10.792  1.00 20.00    -0.130 Cl
ENDBRANCH   7  11
TORSDOF 3
ENDMDL
