MODEL 1
REMARK VINA RESULT:      -5.3      0.000      0.000
REMARK  2 active torsions:
REMARK  status: ('A' for Active; 'I' for Inactive)
REMARK    1  A    between atoms: C1_1  and  C7_7 
REMARK    2  A    between atoms: C8_8  and  C10_10 
ROOT
HETATM    1  C2  UNL     1     -33.095   8.646   4.983  1.00 20.00     0.001 C 
HETATM    2  C3  UNL     1     -33.286   7.248   5.569  1.00 20.00     0.011 C 
HETATM    3  C4  UNL     1     -33.615   5.640   3.581  1.00 20.00     0.012 C 
HETATM    4  C5  UNL     1     -32.252   8.715   3.714  1.00 20.00     0.004 C 
HETATM    5  C6  UNL     1     -32.498   6.348   2.813  1.00 20.00     0.005 C 
HETATM    6  C7  UNL     1     -34.254   6.398   4.745  1.00 20.00     0.047 C 
HETATM    7  C8  UNL     1     -32.737   7.841   2.544  1.00 20.00    -0.015 C 
ENDROOT
BRANCH   6   8
HETATM    8  C1  UNL     1     -34.914   5.394   5.645  1.00 20.00     0.235 C 
HETATM    9  O11 UNL     1     -34.444   5.039   6.721  1.00 20.00    -0.306 OA
ENDBRANCH   6   8
BRANCH   7  10
HETATM   10  C10 UNL     1     -31.977   8.254   1.275  1.00 20.00     0.000 C 
HETATM   11  C9  UNL     1     -32.697   9.329   0.534  1.00 20.00     0.005 C 
ENDBRANCH   7  10
TORSDOF 2
ENDMDL
MODEL 2
REMARK VINA RESULT:      -4.6      2.508      4.926
REMARK  2 active torsions:
REMARK  status: ('A' for Active; 'I' for Inactive)
REMARK    1  A    between atoms: C1_1  and  C7_7 
REMARK    2  A    between atoms: C8_8  and  C10_10 
ROOT
HETATM    1  C2  UNL     1     -33.281   5.501   2.811  1.00 20.00     0.001 C 
HETATM    2  C3  UNL     1     -32.256   6.479   2.240  1.00 20.00     0.011 C 
HETATM    3  C4  UNL     1     -32.567   8.709   3.493  1.00 20.00     0.012 C 
HETATM    4  C5  UNL     1     -33.493   5.580   4.320  1.00 20.00     0.004 C 
HETATM    5  C6  UNL     1     -32.723   7.955   4.814  1.00 20.00     0.005 C 
HETATM    6  C7  UNL     1     -32.778   7.916   2.204  1.00 20.00     0.047 C 
HETATM    7  C8  UNL     1     -33.894   6.963   4.864  1.00 20.00    -0.015 C 
ENDROOT
BRANCH   6   8
HETATM    8  C1  UNL     1     -32.101   8.655   1.087  1.00 20.00     0.235 C 
HETATM    9  O11 UNL     1     -32.627   9.575   0.468  1.00 20.00    -0.306 OA
ENDBRANCH   6   8
BRANCH   7  10
HETATM   10  C10 UNL     1     -34.358   6.801   6.319  1.00 20.00     0.000 C 
HETATM   11  C9  UNL     1     -34.680   5.379   6.634  1.00 20.00     0.005 C 
ENDBRANCH   7  10
TORSDOF 2
ENDMDL
MODEL 3
REMARK VINA RESULT:      -4.5     11.441     12.072
REMARK  2 active torsions:
REMARK  status: ('A' for Active; 'I' for Inactive)
REMARK    1  A    between atoms: C1_1  and  C7_7 
REMARK    2  A    between atoms: C8_8  and  C10_10 
ROOT
HETATM    1  C2  UNL     1     -34.273  18.587   0.879  1.00 20.00     0.001 C 
HETATM    2  C3  UNL     1     -33.068  19.263   1.530  1.00 20.00     0.011 C 
HETATM    3  C4  UNL     1     -30.987  18.536   0.192  1.00 20.00     0.012 C 
HETATM    4  C5  UNL     1     -34.247  18.528  -0.646  1.00 20.00     0.004 C 
HETATM    5  C6  UNL     1     -31.754  18.721  -1.117  1.00 20.00     0.005 C 
HETATM    6  C7  UNL     1     -31.811  18.393   1.473  1.00 20.00     0.047 C 
HETATM    7  C8  UNL     1     -33.012  17.851  -1.265  1.00 20.00    -0.015 C 
ENDROOT
BRANCH   6   8
HETATM    8  C1  UNL     1     -30.925  18.736   2.635  1.00 20.00     0.235 C 
HETATM    9  O11 UNL     1     -31.331  18.838   3.788  1.00 20.00    -0.306 OA
ENDBRANCH   6   8
BRANCH   7  10
HETATM   10  C10 UNL     1     -33.283  17.604  -2.756  1.00 20.00     0.000 C 
HETATM   11  C9  UNL     1     -33.360  16.146  -3.061  1.00 20.00     0.005 C 
ENDBRANCH   7  10
TORSDOF 2
ENDMDL
MODEL 4
REMARK VINA RESULT:      -4.2     11.626     13.169
REMARK  2 active torsions:
REMARK  status: ('A' for Active; 'I' for Inactive)
REMARK    1  A    between atoms: C1_1  and  C7_7 
REMARK    2  A    between atoms: C8_8  and  C10_10 
ROOT
HETATM    1  C2  UNL     1     -33.665  14.737  -4.258  1.00 20.00     0.001 C 
HETATM    2  C3  UNL     1     -34.007  15.008  -5.722  1.00 20.00     0.011 C 
HETATM    3  C4  UNL     1     -35.170  17.307  -5.808  1.00 20.00     0.012 C 
HETATM    4  C5  UNL     1     -33.172  15.945  -3.465  1.00 20.00     0.004 C 
HETATM    5  C6  UNL     1     -34.154  17.868  -4.814  1.00 20.00     0.005 C 
HETATM    6  C7  UNL     1     -35.314  15.786  -5.881  1.00 20.00     0.047 C 
HETATM    7  C8  UNL     1     -34.116  17.161  -3.450  1.00 20.00    -0.015 C 
ENDROOT
BRANCH   6   8
HETATM    8  C1  UNL     1     -35.932  15.441  -7.204  1.00 20.00     0.235 C 
HETATM    9  O11 UNL     1     -36.127  14.290  -7.580  1.00 20.00    -0.306 OA
ENDBRANCH   6   8
BRANCH   7  10
HETATM   10  C10 UNL     1     -33.626  18.148  -2.382  1.00 20.00     0.000 C 
HETATM   11  C9  UNL     1     -33.669  17.543  -1.019  1.00 20.00     0.005 C 
ENDBRANCH   7  10
TORSDOF 2
ENDMDL
MODEL 5
REMARK VINA RESULT:      -4.2     11.176     12.688
REMARK  2 active torsions:
REMARK  status: ('A' for Active; 'I' for Inactive)
REMARK    1  A    between atoms: C1_1  and  C7_7 
REMARK    2  A    between atoms: C8_8  and  C10_10 
ROOT
HETATM    1  C2  UNL     1     -33.877  18.624  -4.708  1.00 20.00     0.001 C 
HETATM    2  C3  UNL     1     -34.600  17.279  -4.659  1.00 20.00     0.011 C 
HETATM    3  C4  UNL     1     -33.586  15.954  -2.694  1.00 20.00     0.012 C 
HETATM    4  C5  UNL     1     -33.574  19.255  -3.352  1.00 20.00     0.004 C 
HETATM    5  C6  UNL     1     -33.590  17.215  -1.830  1.00 20.00     0.005 C 
HETATM    6  C7  UNL     1     -33.683  16.140  -4.208  1.00 20.00     0.047 C 
HETATM    7  C8  UNL     1     -32.758  18.384  -2.380  1.00 20.00    -0.015 C 
ENDROOT
BRANCH   6   8
HETATM    8  C1  UNL     1     -34.171  14.852  -4.805  1.00 20.00     0.235 C 
HETATM    9  O11 UNL     1     -34.188  13.788  -4.195  1.00 20.00    -0.306 OA
ENDBRANCH   6   8
BRANCH   7  10
HETATM   10  C10 UNL     1     -32.288  19.262  -1.212  1.00 20.00     0.000 C 
HETATM   11  C9  UNL     1     -31.350  18.523  -0.318  1.00 20.00     0.005 C 
ENDBRANCH   7  10
TORSDOF 2
ENDMDL
MODEL 6
REMARK VINA RESULT:      -4.1      2.416      4.495
REMARK  2 active torsions:
REMARK  status: ('A' for Active; 'I' for Inactive)
REMARK    1  A    between atoms: C1_1  and  C7_7 
REMARK    2  A    between atoms: C8_8  and  C10_10 
ROOT
HETATM    1  C2  UNL     1     -32.513   9.187   4.704  1.00 20.00     0.001 C 
HETATM    2  C3  UNL     1     -32.745   8.956   3.211  1.00 20.00     0.011 C 
HETATM    3  C4  UNL     1     -33.201   6.438   2.904  1.00 20.00     0.012 C 
HETATM    4  C5  UNL     1     -33.416   8.389   5.639  1.00 20.00     0.004 C 
HETATM    5  C6  UNL     1     -34.088   6.438   4.149  1.00 20.00     0.005 C 
HETATM    6  C7  UNL     1     -32.219   7.598   2.743  1.00 20.00     0.047 C 
HETATM    7  C8  UNL     1     -33.388   6.862   5.449  1.00 20.00    -0.015 C 
ENDROOT
BRANCH   6   8
HETATM    8  C1  UNL     1     -31.844   7.692   1.292  1.00 20.00     0.235 C 
HETATM    9  O11 UNL     1     -32.221   8.596   0.554  1.00 20.00    -0.306 OA
ENDBRANCH   6   8
BRANCH   7  10
HETATM   10  C10 UNL     1     -34.097   6.206   6.642  1.00 20.00     0.000 C 
HETATM   11  C9  UNL     1     -34.872   5.003   6.221  1.00 20.00     0.005 C 
ENDBRANCH   7  10
TORSDOF 2
ENDMDL
MODEL 7
REMARK VINA RESULT:      -4.1     11.677     12.997
REMARK  2 active torsions:
REMARK  status: ('A' for Active; 'I' for Inactive)
REMARK    1  A    between atoms: C1_1  and  C7_7 
REMARK    2  A    between atoms: C8_8  and  C10_10 
ROOT
HETATM    1  C2  UNL     1     -35.494  18.054  -4.610  1.00 20.00     0.001 C 
HETATM    2  C3  UNL     1     -35.799  16.710  -5.269  1.00 20.00     0.011 C 
HETATM    3  C4  UNL     1     -33.773  15.179  -4.823  1.00 20.00     0.012 C 
HETATM    4  C5  UNL     1     -34.797  17.977  -3.255  1.00 20.00     0.004 C 
HETATM    5  C6  UNL     1     -33.697  15.685  -3.383  1.00 20.00     0.005 C 
HETATM    6  C7  UNL     1     -34.544  16.037  -5.827  1.00 20.00     0.047 C 
HETATM    7  C8  UNL     1     -33.470  17.197  -3.233  1.00 20.00    -0.015 C 
ENDROOT
BRANCH   6   8
HETATM    8  C1  UNL     1     -34.931  15.162  -6.984  1.00 20.00     0.235 C 
HETATM    9  O11 UNL     1     -35.908  14.421  -6.975  1.00 20.00    -0.306 OA
ENDBRANCH   6   8
BRANCH   7  10
HETATM   10  C10 UNL     1     -32.762  17.472  -1.899  1.00 20.00     0.000 C 
HETATM   11  C9  UNL     1     -33.741  17.784  -0.817  1.00 20.00     0.005 C 
ENDBRANCH   7  10
TORSDOF 2
ENDMDL
MODEL 8
REMARK VINA RESULT:      -3.9      0.868      2.077
REMARK  2 active torsions:
REMARK  status: ('A' for Active; 'I' for Inactive)
REMARK    1  A    between atoms: C1_1  and  C7_7 
REMARK    2  A    between atoms: C8_8  and  C10_10 
ROOT
HETATM    1  C2  UNL     1     -33.248   5.220   3.161  1.00 20.00     0.001 C 
HETATM    2  C3  UNL     1     -34.194   5.743   4.240  1.00 20.00     0.011 C 
HETATM    3  C4  UNL     1     -33.493   8.173   4.739  1.00 20.00     0.012 C 
HETATM    4  C5  UNL     1     -32.885   6.219   2.066  1.00 20.00     0.004 C 
HETATM    5  C6  UNL     1     -33.306   8.435   3.245  1.00 20.00     0.005 C 
HETATM    6  C7  UNL     1     -33.505   6.715   5.199  1.00 20.00     0.047 C 
HETATM    7  C8  UNL     1     -32.266   7.542   2.551  1.00 20.00    -0.015 C 
ENDROOT
BRANCH   6   8
HETATM    8  C1  UNL     1     -34.189   6.655   6.534  1.00 20.00     0.235 C 
HETATM    9  O11 UNL     1     -35.048   5.826   6.817  1.00 20.00    -0.306 OA
ENDBRANCH   6   8
BRANCH   7  10
HETATM   10  C10 UNL     1     -31.690   8.286   1.338  1.00 20.00     0.000 C 
HETATM   11  C9  UNL     1     -32.724   9.135   0.678  1.00 20.00     0.005 C 
ENDBRANCH   7  10
TORSDOF 2
ENDMDL
MODEL 9
REMARK VINA RESULT:      -3.8     11.699     13.318
REMARK  2 active torsions:
REMARK  status: ('A' for Active; 'I' for Inactive)
REMARK    1  A    between atoms: C1_1  and  C7_7 
REMARK    2  A    between atoms: C8_8  and  C10_10 
ROOT
HETATM    1  C2  UNL     1     -33.308  15.995  -3.500  1.00 20.00     0.001 C 
HETATM    2  C3  UNL     1     -33.324  16.731  -2.161  1.00 20.00     0.011 C 
HETATM    3  C4  UNL     1     -33.645  19.235  -2.686  1.00 20.00     0.012 C 
HETATM    4  C5  UNL     1     -34.302  16.503  -4.540  1.00 20.00     0.004 C 
HETATM    5  C6  UNL     1     -34.694  18.888  -3.742  1.00 20.00     0.005 C 
HETATM    6  C7  UNL     1     -32.692  18.121  -2.252  1.00 20.00     0.047 C 
HETATM    7  C8  UNL     1     -34.194  17.998  -4.890  1.00 20.00    -0.015 C 
ENDROOT
BRANCH   6   8
HETATM    8  C1  UNL     1     -32.125  18.490  -0.912  1.00 20.00     0.235 C 
HETATM    9  O11 UNL     1     -30.941  18.749  -0.727  1.00 20.00    -0.306 OA
ENDBRANCH   6   8
BRANCH   7  10
HETATM   10  C10 UNL     1     -35.037  18.270  -6.144  1.00 20.00     0.000 C 
HETATM   11  C9  UNL     1     -36.091  17.230  -6.328  1.00 20.00     0.005 C 
ENDBRANCH   7  10
TORSDOF 2
ENDMDL
