MODEL 1
REMARK VINA RESULT:      -5.9      0.000      0.000
REMARK  2 active torsions:
REMARK  status: ('A' for Active; 'I' for Inactive)
REMARK    1  A    between atoms: C5_5  and  C7_7 
REMARK    2  A    between atoms: C6_6  and  C8_8 
ROOT
HETATM    1  C1  UNL     1     -33.059   8.631   5.555  1.00 20.00     0.001 C 
HETATM    2  C2  UNL     1     -32.167   8.616   4.316  1.00 20.00     0.005 C 
HETATM    3  C3  UNL     1     -33.521   7.226   5.932  1.00 20.00     0.013 C 
HETATM    4  C4  UNL     1     -33.317   6.512   3.516  1.00 20.00     0.019 C 
HETATM    5  C5  UNL     1     -32.857   7.926   3.132  1.00 20.00    -0.000 C 
HETATM    6  C6  UNL     1     -34.219   6.527   4.759  1.00 20.00     0.094 C 
ENDROOT
BRANCH   6   7
HETATM    7  C8  UNL     1     -34.628   5.107   5.144  1.00 20.00     0.391 C 
HETATM    8  F9  UNL     1     -35.926   4.910   4.863  1.00 20.00    -0.171 F 
HETATM    9  F10 UNL     1     -33.896   4.215   4.461  1.00 20.00    -0.171 F 
HETATM   10  F11 UNL     1     -34.434   4.913   6.457  1.00 20.00    -0.171 F 
ENDBRANCH   6   7
BRANCH   5  11
HETATM   11  C7  UNL     1     -31.928   7.879   1.920  1.00 20.00     0.119 C 
HETATM   12 CL12 UNL     1     -32.512   8.980   0.661  1.00 20.00    -0.130 Cl
ENDBRANCH   5  11
TORSDOF 2
ENDMDL
MODEL 2
REMARK VINA RESULT:      -5.5      1.248      2.136
REMARK  2 active torsions:
REMARK  status: ('A' for Active; 'I' for Inactive)
REMARK    1  A    between atoms: C5_5  and  C7_7 
REMARK    2  A    between atoms: C6_6  and  C8_8 
ROOT
HETATM    1  C1  UNL     1     -32.637   5.655   2.697  1.00 20.00     0.001 C 
HETATM    2  C2  UNL     1     -32.622   7.136   2.325  1.00 20.00     0.005 C 
HETATM    3  C3  UNL     1     -33.671   5.357   3.779  1.00 20.00     0.013 C 
HETATM    4  C4  UNL     1     -33.449   7.723   4.641  1.00 20.00     0.019 C 
HETATM    5  C5  UNL     1     -32.405   8.025   3.556  1.00 20.00    -0.000 C 
HETATM    6  C6  UNL     1     -33.460   6.235   5.019  1.00 20.00     0.094 C 
ENDROOT
BRANCH   6   7
HETATM    7  C8  UNL     1     -34.535   5.954   6.067  1.00 20.00     0.391 C 
HETATM    8  F9  UNL     1     -35.700   5.667   5.465  1.00 20.00    -0.171 F 
HETATM    9  F10 UNL     1     -34.173   4.912   6.830  1.00 20.00    -0.171 F 
HETATM   10  F11 UNL     1     -34.705   7.029   6.852  1.00 20.00    -0.171 F 
ENDBRANCH   6   7
BRANCH   5  11
HETATM   11  C7  UNL     1     -32.444   9.502   3.167  1.00 20.00     0.119 C 
HETATM   12 CL12 UNL     1     -32.903   9.672   1.464  1.00 20.00    -0.130 Cl
ENDBRANCH   5  11
TORSDOF 2
ENDMDL
MODEL 3
REMARK VINA RESULT:      -5.5      1.253      2.370
REMARK  2 active torsions:
REMARK  status: ('A' for Active; 'I' for Inactive)
REMARK    1  A    between atoms: C5_5  and  C7_7 
REMARK    2  A    between atoms: C6_6  and  C8_8 
ROOT
HETATM    1  C1  UNL     1     -32.648   5.652   2.695  1.00 20.00     0.001 C 
HETATM    2  C2  UNL     1     -32.633   7.132   2.322  1.00 20.00     0.005 C 
HETATM    3  C3  UNL     1     -33.675   5.357   3.784  1.00 20.00     0.013 C 
HETATM    4  C4  UNL     1     -33.445   7.723   4.641  1.00 20.00     0.019 C 
HETATM    5  C5  UNL     1     -32.407   8.022   3.550  1.00 20.00    -0.000 C 
HETATM    6  C6  UNL     1     -33.456   6.236   5.021  1.00 20.00     0.094 C 
ENDROOT
BRANCH   6   7
HETATM    7  C8  UNL     1     -34.526   5.957   6.076  1.00 20.00     0.391 C 
HETATM    8  F9  UNL     1     -34.150   4.927   6.850  1.00 20.00    -0.171 F 
HETATM    9  F10 UNL     1     -34.703   7.039   6.849  1.00 20.00    -0.171 F 
HETATM   10  F11 UNL     1     -35.689   5.653   5.482  1.00 20.00    -0.171 F 
ENDBRANCH   6   7
BRANCH   5  11
HETATM   11  C7  UNL     1     -32.446   9.499   3.160  1.00 20.00     0.119 C 
HETATM   12 CL12 UNL     1     -32.897   9.667   1.455  1.00 20.00    -0.130 Cl
ENDBRANCH   5  11
TORSDOF 2
ENDMDL
MODEL 4
REMARK VINA RESULT:      -4.8      2.513      3.517
REMARK  2 active torsions:
REMARK  status: ('A' for Active; 'I' for Inactive)
REMARK    1  A    between atoms: C5_5  and  C7_7 
REMARK    2  A    between atoms: C6_6  and  C8_8 
ROOT
HETATM    1  C1  UNL     1     -34.835   5.210   5.919  1.00 20.00     0.001 C 
HETATM    2  C2  UNL     1     -34.280   6.521   6.470  1.00 20.00     0.005 C 
HETATM    3  C3  UNL     1     -34.004   4.695   4.747  1.00 20.00     0.013 C 
HETATM    4  C4  UNL     1     -33.312   7.064   4.199  1.00 20.00     0.019 C 
HETATM    5  C5  UNL     1     -34.153   7.586   5.374  1.00 20.00    -0.000 C 
HETATM    6  C6  UNL     1     -33.875   5.749   3.640  1.00 20.00     0.094 C 
ENDROOT
BRANCH   6   7
HETATM    7  C8  UNL     1     -32.998   5.229   2.502  1.00 20.00     0.391 C 
HETATM    8  F9  UNL     1     -32.190   6.206   2.061  1.00 20.00    -0.171 F 
HETATM    9  F10 UNL     1     -32.246   4.205   2.931  1.00 20.00    -0.171 F 
HETATM   10  F11 UNL     1     -33.766   4.809   1.486  1.00 20.00    -0.171 F 
ENDBRANCH   6   7
BRANCH   5  11
HETATM   11  C7  UNL     1     -33.549   8.871   5.939  1.00 20.00     0.119 C 
HETATM   12 CL12 UNL     1     -32.110   9.327   5.011  1.00 20.00    -0.130 Cl
ENDBRANCH   5  11
TORSDOF 2
ENDMDL
MODEL 5
REMARK VINA RESULT:      -4.7      3.556      4.670
REMARK  2 active torsions:
REMARK  status: ('A' for Active; 'I' for Inactive)
REMARK    1  A    between atoms: C5_5  and  C7_7 
REMARK    2  A    between atoms: C6_6  and  C8_8 
ROOT
HETATM    1  C1  UNL     1     -32.678   6.112   2.222  1.00 20.00     0.001 C 
HETATM    2  C2  UNL     1     -33.309   5.112   3.188  1.00 20.00     0.005 C 
HETATM    3  C3  UNL     1     -32.053   7.292   2.963  1.00 20.00     0.013 C 
HETATM    4  C4  UNL     1     -33.696   6.971   4.857  1.00 20.00     0.019 C 
HETATM    5  C5  UNL     1     -34.330   5.787   4.112  1.00 20.00    -0.000 C 
HETATM    6  C6  UNL     1     -33.067   7.980   3.886  1.00 20.00     0.094 C 
ENDROOT
BRANCH   6   7
HETATM    7  C8  UNL     1     -32.406   9.125   4.652  1.00 20.00     0.391 C 
HETATM    8  F9  UNL     1     -32.208  10.171   3.835  1.00 20.00    -0.171 F 
HETATM    9  F10 UNL     1     -33.190   9.511   5.670  1.00 20.00    -0.171 F 
HETATM   10  F11 UNL     1     -31.222   8.727   5.143  1.00 20.00    -0.171 F 
ENDBRANCH   6   7
BRANCH   5  11
HETATM   11  C7  UNL     1     -34.910   4.777   5.102  1.00 20.00     0.119 C 
HETATM   12 CL12 UNL     1     -34.762   5.392   6.757  1.00 20.00    -0.130 Cl
ENDBRANCH   5  11
TORSDOF 2
ENDMDL
MODEL 6
REMARK VINA RESULT:      -4.7     11.786     12.857
REMARK  2 active torsions:
REMARK  status: ('A' for Active; 'I' for Inactive)
REMARK    1  A    between atoms: C5_5  and  C7_7 
REMARK    2  A    between atoms: C6_6  and  C8_8 
ROOT
HETATM    1  C1  UNL     1     -35.015  18.583  -3.810  1.00 20.00     0.001 C 
HETATM    2  C2  UNL     1     -34.995  18.620  -2.284  1.00 20.00     0.005 C 
HETATM    3  C3  UNL     1     -34.791  17.170  -4.342  1.00 20.00     0.013 C 
HETATM    4  C4  UNL     1     -33.484  16.594  -2.257  1.00 20.00     0.019 C 
HETATM    5  C5  UNL     1     -33.702  18.017  -1.722  1.00 20.00    -0.000 C 
HETATM    6  C6  UNL     1     -33.497  16.558  -3.792  1.00 20.00     0.094 C 
ENDROOT
BRANCH   6   7
HETATM    7  C8  UNL     1     -33.322  15.127  -4.298  1.00 20.00     0.391 C 
HETATM    8  F9  UNL     1     -32.056  14.724  -4.107  1.00 20.00    -0.171 F 
HETATM    9  F10 UNL     1     -34.145  14.300  -3.637  1.00 20.00    -0.171 F 
HETATM   10  F11 UNL     1     -33.604  15.065  -5.608  1.00 20.00    -0.171 F 
ENDBRANCH   6   7
BRANCH   5  11
HETATM   11  C7  UNL     1     -33.727  18.019  -0.194  1.00 20.00     0.119 C 
HETATM   12 CL12 UNL     1     -32.129  18.447   0.441  1.00 20.00    -0.130 Cl
ENDBRANCH   5  11
TORSDOF 2
ENDMDL
MODEL 7
REMARK VINA RESULT:      -4.7     11.785     12.814
REMARK  2 active torsions:
REMARK  status: ('A' for Active; 'I' for Inactive)
REMARK    1  A    between atoms: C5_5  and  C7_7 
REMARK    2  A    between atoms: C6_6  and  C8_8 
ROOT
HETATM    1  C1  UNL     1     -35.012  18.575  -3.829  1.00 20.00     0.001 C 
HETATM    2  C2  UNL     1     -35.000  18.617  -2.303  1.00 20.00     0.005 C 
HETATM    3  C3  UNL     1     -34.787  17.161  -4.356  1.00 20.00     0.013 C 
HETATM    4  C4  UNL     1     -33.491  16.589  -2.262  1.00 20.00     0.019 C 
HETATM    5  C5  UNL     1     -33.710  18.014  -1.732  1.00 20.00    -0.000 C 
HETATM    6  C6  UNL     1     -33.497  16.549  -3.797  1.00 20.00     0.094 C 
ENDROOT
BRANCH   6   7
HETATM    7  C8  UNL     1     -33.319  15.116  -4.298  1.00 20.00     0.391 C 
HETATM    8  F9  UNL     1     -33.600  15.050  -5.609  1.00 20.00    -0.171 F 
HETATM    9  F10 UNL     1     -32.054  14.714  -4.105  1.00 20.00    -0.171 F 
HETATM   10  F11 UNL     1     -34.143  14.292  -3.635  1.00 20.00    -0.171 F 
ENDBRANCH   6   7
BRANCH   5  11
HETATM   11  C7  UNL     1     -33.743  18.021  -0.204  1.00 20.00     0.119 C 
HETATM   12 CL12 UNL     1     -32.149  18.452   0.437  1.00 20.00    -0.130 Cl
ENDBRANCH   5  11
TORSDOF 2
ENDMDL
MODEL 8
REMARK VINA RESULT:      -4.7      3.435      4.752
REMARK  2 active torsions:
REMARK  status: ('A' for Active; 'I' for Inactive)
REMARK    1  A    between atoms: C5_5  and  C7_7 
REMARK    2  A    between atoms: C6_6  and  C8_8 
ROOT
HETATM    1  C1  UNL     1     -33.626   4.346   3.009  1.00 20.00     0.001 C 
HETATM    2  C2  UNL     1     -34.003   4.395   4.488  1.00 20.00     0.005 C 
HETATM    3  C3  UNL     1     -32.659   5.467   2.638  1.00 20.00     0.013 C 
HETATM    4  C4  UNL     1     -33.590   6.889   4.509  1.00 20.00     0.019 C 
HETATM    5  C5  UNL     1     -34.568   5.765   4.882  1.00 20.00    -0.000 C 
HETATM    6  C6  UNL     1     -33.216   6.844   3.020  1.00 20.00     0.094 C 
ENDROOT
BRANCH   6   7
HETATM    7  C8  UNL     1     -32.210   7.944   2.685  1.00 20.00     0.391 C 
HETATM    8  F9  UNL     1     -31.153   7.866   3.507  1.00 20.00    -0.171 F 
HETATM    9  F10 UNL     1     -31.786   7.809   1.419  1.00 20.00    -0.171 F 
HETATM   10  F11 UNL     1     -32.782   9.149   2.825  1.00 20.00    -0.171 F 
ENDBRANCH   6   7
BRANCH   5  11
HETATM   11  C7  UNL     1     -34.890   5.805   6.375  1.00 20.00     0.119 C 
HETATM   12 CL12 UNL     1     -34.318   7.326   7.081  1.00 20.00    -0.130 Cl
ENDBRANCH   5  11
TORSDOF 2
ENDMDL
MODEL 9
REMARK VINA RESULT:      -4.5      1.527      1.676
REMARK  2 active torsions:
REMARK  status: ('A' for Active; 'I' for Inactive)
REMARK    1  A    between atoms: C5_5  and  C7_7 
REMARK    2  A    between atoms: C6_6  and  C8_8 
ROOT
HETATM    1  C1  UNL     1     -32.759   8.784   5.285  1.00 20.00     0.001 C 
HETATM    2  C2  UNL     1     -32.071   8.225   4.042  1.00 20.00     0.005 C 
HETATM    3  C3  UNL     1     -33.299   7.671   6.178  1.00 20.00     0.013 C 
HETATM    4  C4  UNL     1     -33.536   6.168   4.159  1.00 20.00     0.019 C 
HETATM    5  C5  UNL     1     -32.998   7.288   3.257  1.00 20.00    -0.000 C 
HETATM    6  C6  UNL     1     -34.234   6.731   5.406  1.00 20.00     0.094 C 
ENDROOT
BRANCH   6   7
HETATM    7  C8  UNL     1     -34.722   5.598   6.307  1.00 20.00     0.391 C 
HETATM    8  F9  UNL     1     -35.347   4.664   5.574  1.00 20.00    -0.171 F 
HETATM    9  F10 UNL     1     -33.682   5.030   6.937  1.00 20.00    -0.171 F 
HETATM   10  F11 UNL     1     -35.577   6.075   7.224  1.00 20.00    -0.171 F 
ENDBRANCH   6   7
BRANCH   5  11
HETATM   11  C7  UNL     1     -32.272   6.703   2.046  1.00 20.00     0.119 C 
HETATM   12 CL12 UNL     1     -32.684   4.990   1.859  1.00 20.00    -0.130 Cl
ENDBRANCH   5  11
TORSDOF 2
ENDMDL
