MODEL 1
REMARK VINA RESULT:      -4.9      0.000      0.000
REMARK  2 active torsions:
REMARK  status: ('A' for Active; 'I' for Inactive)
REMARK    1  A    between atoms: C1_1  and  C5_5 
REMARK    2  A    between atoms: C6_6  and  C8_8 
ROOT
HETATM    1  C2  UNL     1     -32.866   6.090   2.719  1.00 20.00     0.012 C 
HETATM    2  C3  UNL     1     -33.640   5.705   3.976  1.00 20.00     0.005 C 
HETATM    3  C4  UNL     1     -32.592   7.788   4.462  1.00 20.00     0.016 C 
HETATM    4  C5  UNL     1     -32.135   7.389   3.061  1.00 20.00     0.047 C 
HETATM    5  C6  UNL     1     -33.910   7.039   4.663  1.00 20.00    -0.014 C 
ENDROOT
BRANCH   4   6
HETATM    6  C1  UNL     1     -32.558   8.472   2.085  1.00 20.00     0.235 C 
HETATM    7  O9  UNL     1     -32.204   8.498   0.910  1.00 20.00    -0.306 OA
ENDBRANCH   4   6
BRANCH   5   8
HETATM    8  C8  UNL     1     -34.298   6.892   6.125  1.00 20.00     0.000 C 
HETATM    9  C7  UNL     1     -34.579   5.468   6.489  1.00 20.00     0.005 C 
ENDBRANCH   5   8
TORSDOF 2
ENDMDL
MODEL 2
REMARK VINA RESULT:      -4.4      2.453      4.074
REMARK  2 active torsions:
REMARK  status: ('A' for Active; 'I' for Inactive)
REMARK    1  A    between atoms: C1_1  and  C5_5 
REMARK    2  A    between atoms: C6_6  and  C8_8 
ROOT
HETATM    1  C2  UNL     1     -34.171   5.070   3.993  1.00 20.00     0.012 C 
HETATM    2  C3  UNL     1     -33.153   5.853   3.168  1.00 20.00     0.005 C 
HETATM    3  C4  UNL     1     -34.210   7.444   4.592  1.00 20.00     0.016 C 
HETATM    4  C5  UNL     1     -34.898   6.106   4.850  1.00 20.00     0.047 C 
HETATM    5  C6  UNL     1     -32.837   7.068   4.034  1.00 20.00    -0.014 C 
ENDROOT
BRANCH   4   6
HETATM    6  C1  UNL     1     -34.730   5.748   6.316  1.00 20.00     0.235 C 
HETATM    7  O9  UNL     1     -33.858   4.991   6.731  1.00 20.00    -0.306 OA
ENDBRANCH   4   6
BRANCH   5   8
HETATM    8  C8  UNL     1     -32.174   8.197   3.263  1.00 20.00     0.000 C 
HETATM    9  C7  UNL     1     -32.190   7.952   1.787  1.00 20.00     0.005 C 
ENDBRANCH   5   8
TORSDOF 2
ENDMDL
MODEL 3
REMARK VINA RESULT:      -4.0      2.179      3.969
REMARK  2 active torsions:
REMARK  status: ('A' for Active; 'I' for Inactive)
REMARK    1  A    between atoms: C1_1  and  C5_5 
REMARK    2  A    between atoms: C6_6  and  C8_8 
ROOT
HETATM    1  C2  UNL     1     -34.126   6.807   6.396  1.00 20.00     0.012 C 
HETATM    2  C3  UNL     1     -33.344   7.991   5.835  1.00 20.00     0.005 C 
HETATM    3  C4  UNL     1     -33.334   6.329   4.129  1.00 20.00     0.016 C 
HETATM    4  C5  UNL     1     -34.052   5.715   5.328  1.00 20.00     0.047 C 
HETATM    5  C6  UNL     1     -33.482   7.838   4.324  1.00 20.00    -0.014 C 
ENDROOT
BRANCH   4   6
HETATM    6  C1  UNL     1     -35.459   5.332   4.907  1.00 20.00     0.235 C 
HETATM    7  O9  UNL     1     -36.137   5.997   4.129  1.00 20.00    -0.306 OA
ENDBRANCH   4   6
BRANCH   5   8
HETATM    8  C8  UNL     1     -32.459   8.646   3.544  1.00 20.00     0.000 C 
HETATM    9  C7  UNL     1     -32.115   8.002   2.238  1.00 20.00     0.005 C 
ENDBRANCH   5   8
TORSDOF 2
ENDMDL
MODEL 4
REMARK VINA RESULT:      -3.9     11.827     12.521
REMARK  2 active torsions:
REMARK  status: ('A' for Active; 'I' for Inactive)
REMARK    1  A    between atoms: C1_1  and  C5_5 
REMARK    2  A    between atoms: C6_6  and  C8_8 
ROOT
HETATM    1  C2  UNL     1     -33.376  18.402   0.587  1.00 20.00     0.012 C 
HETATM    2  C3  UNL     1     -34.065  17.790  -0.629  1.00 20.00     0.005 C 
HETATM    3  C4  UNL     1     -32.083  18.824  -1.449  1.00 20.00     0.016 C 
HETATM    4  C5  UNL     1     -32.144  19.128   0.046  1.00 20.00     0.047 C 
HETATM    5  C6  UNL     1     -32.928  17.561  -1.618  1.00 20.00    -0.014 C 
ENDROOT
BRANCH   4   6
HETATM    6  C1  UNL     1     -30.900  18.564   0.707  1.00 20.00     0.235 C 
HETATM    7  O9  UNL     1     -30.032  19.262   1.221  1.00 20.00    -0.306 OA
ENDBRANCH   4   6
BRANCH   5   8
HETATM    8  C8  UNL     1     -33.408  17.349  -3.044  1.00 20.00     0.000 C 
HETATM    9  C7  UNL     1     -33.247  15.928  -3.484  1.00 20.00     0.005 C 
ENDBRANCH   5   8
TORSDOF 2
ENDMDL
MODEL 5
REMARK VINA RESULT:      -3.9      1.366      2.079
REMARK  2 active torsions:
REMARK  status: ('A' for Active; 'I' for Inactive)
REMARK    1  A    between atoms: C1_1  and  C5_5 
REMARK    2  A    between atoms: C6_6  and  C8_8 
ROOT
HETATM    1  C2  UNL     1     -32.254   8.979   4.452  1.00 20.00     0.012 C 
HETATM    2  C3  UNL     1     -32.832   8.577   5.806  1.00 20.00     0.005 C 
HETATM    3  C4  UNL     1     -34.033   7.319   4.179  1.00 20.00     0.016 C 
HETATM    4  C5  UNL     1     -33.077   8.226   3.408  1.00 20.00     0.047 C 
HETATM    5  C6  UNL     1     -33.398   7.182   5.563  1.00 20.00    -0.014 C 
ENDROOT
BRANCH   4   6
HETATM    6  C1  UNL     1     -32.153   7.359   2.572  1.00 20.00     0.235 C 
HETATM    7  O9  UNL     1     -32.321   6.154   2.408  1.00 20.00    -0.306 OA
ENDBRANCH   4   6
BRANCH   5   8
HETATM    8  C8  UNL     1     -34.383   6.741   6.633  1.00 20.00     0.000 C 
HETATM    9  C7  UNL     1     -34.772   5.304   6.477  1.00 20.00     0.005 C 
ENDBRANCH   5   8
TORSDOF 2
ENDMDL
MODEL 6
REMARK VINA RESULT:      -3.8      9.845     10.910
REMARK  2 active torsions:
REMARK  status: ('A' for Active; 'I' for Inactive)
REMARK    1  A    between atoms: C1_1  and  C5_5 
REMARK    2  A    between atoms: C6_6  and  C8_8 
ROOT
HETATM    1  C2  UNL     1     -42.218  14.097   5.608  1.00 20.00     0.012 C 
HETATM    2  C3  UNL     1     -41.121  13.336   4.870  1.00 20.00     0.005 C 
HETATM    3  C4  UNL     1     -40.354  13.585   7.111  1.00 20.00     0.016 C 
HETATM    4  C5  UNL     1     -41.690  14.320   7.025  1.00 20.00     0.047 C 
HETATM    5  C6  UNL     1     -40.404  12.565   5.973  1.00 20.00    -0.014 C 
ENDROOT
BRANCH   4   6
HETATM    6  C1  UNL     1     -42.651  13.698   8.021  1.00 20.00     0.235 C 
HETATM    7  O9  UNL     1     -42.287  13.085   9.020  1.00 20.00    -0.306 OA
ENDBRANCH   4   6
BRANCH   5   8
HETATM    8  C8  UNL     1     -39.031  12.064   5.559  1.00 20.00     0.000 C 
HETATM    9  C7  UNL     1     -38.992  11.668   4.116  1.00 20.00     0.005 C 
ENDBRANCH   5   8
TORSDOF 2
ENDMDL
MODEL 7
REMARK VINA RESULT:      -3.8     11.529     12.401
REMARK  2 active torsions:
REMARK  status: ('A' for Active; 'I' for Inactive)
REMARK    1  A    between atoms: C1_1  and  C5_5 
REMARK    2  A    between atoms: C6_6  and  C8_8 
ROOT
HETATM    1  C2  UNL     1     -33.219  18.255  -3.757  1.00 20.00     0.012 C 
HETATM    2  C3  UNL     1     -32.729  19.087  -2.575  1.00 20.00     0.005 C 
HETATM    3  C4  UNL     1     -33.621  17.085  -1.644  1.00 20.00     0.016 C 
HETATM    4  C5  UNL     1     -33.858  17.005  -3.150  1.00 20.00     0.047 C 
HETATM    5  C6  UNL     1     -32.448  18.054  -1.490  1.00 20.00    -0.014 C 
ENDROOT
BRANCH   4   6
HETATM    6  C1  UNL     1     -33.154  15.773  -3.687  1.00 20.00     0.235 C 
HETATM    7  O9  UNL     1     -33.736  14.728  -3.961  1.00 20.00    -0.306 OA
ENDBRANCH   4   6
BRANCH   5   8
HETATM    8  C8  UNL     1     -32.348  18.657  -0.099  1.00 20.00     0.000 C 
HETATM    9  C7  UNL     1     -30.983  18.482   0.490  1.00 20.00     0.005 C 
ENDBRANCH   5   8
TORSDOF 2
ENDMDL
MODEL 8
REMARK VINA RESULT:      -3.7      1.892      3.200
REMARK  2 active torsions:
REMARK  status: ('A' for Active; 'I' for Inactive)
REMARK    1  A    between atoms: C1_1  and  C5_5 
REMARK    2  A    between atoms: C6_6  and  C8_8 
ROOT
HETATM    1  C2  UNL     1     -34.261   7.124   6.576  1.00 20.00     0.012 C 
HETATM    2  C3  UNL     1     -34.390   5.723   5.984  1.00 20.00     0.005 C 
HETATM    3  C4  UNL     1     -33.960   7.176   4.146  1.00 20.00     0.016 C 
HETATM    4  C5  UNL     1     -34.060   8.062   5.385  1.00 20.00     0.047 C 
HETATM    5  C6  UNL     1     -33.586   5.796   4.690  1.00 20.00    -0.014 C 
ENDROOT
BRANCH   4   6
HETATM    6  C1  UNL     1     -32.751   8.810   5.554  1.00 20.00     0.235 C 
HETATM    7  O9  UNL     1     -32.068   9.198   4.611  1.00 20.00    -0.306 OA
ENDBRANCH   4   6
BRANCH   5   8
HETATM    8  C8  UNL     1     -33.901   4.667   3.724  1.00 20.00     0.000 C 
HETATM    9  C7  UNL     1     -33.098   4.766   2.465  1.00 20.00     0.005 C 
ENDBRANCH   5   8
TORSDOF 2
ENDMDL
MODEL 9
REMARK VINA RESULT:      -3.7     11.697     12.191
REMARK  2 active torsions:
REMARK  status: ('A' for Active; 'I' for Inactive)
REMARK    1  A    between atoms: C1_1  and  C5_5 
REMARK    2  A    between atoms: C6_6  and  C8_8 
ROOT
HETATM    1  C2  UNL     1     -31.520  18.622  -0.643  1.00 20.00     0.012 C 
HETATM    2  C3  UNL     1     -30.694  18.758   0.633  1.00 20.00     0.005 C 
HETATM    3  C4  UNL     1     -32.959  19.120   1.275  1.00 20.00     0.016 C 
HETATM    4  C5  UNL     1     -32.963  18.929  -0.239  1.00 20.00     0.047 C 
HETATM    5  C6  UNL     1     -31.681  18.425   1.746  1.00 20.00    -0.014 C 
ENDROOT
BRANCH   4   6
HETATM    6  C1  UNL     1     -33.840  17.738  -0.576  1.00 20.00     0.235 C 
HETATM    7  O9  UNL     1     -33.609  16.969  -1.504  1.00 20.00    -0.306 OA
ENDBRANCH   4   6
BRANCH   5   8
HETATM    8  C8  UNL     1     -31.218  18.889   3.117  1.00 20.00     0.000 C 
HETATM    9  C7  UNL     1     -29.726  18.879   3.236  1.00 20.00     0.005 C 
ENDBRANCH   5   8
TORSDOF 2
ENDMDL
