MODEL 1
REMARK VINA RESULT:      -3.9      0.000      0.000
REMARK  2 active torsions:
REMARK  status: ('A' for Active; 'I' for Inactive)
REMARK    1  A    between atoms: C4_4  and  C8_8 
REMARK    2  A    between atoms: C5_5  and  C9_9 
ROOT
HETATM    1  C1  UNL     1     -32.399   6.285   2.677  1.00 20.00     0.032 C 
HETATM    2  C2  UNL     1     -33.671   7.153   4.650  1.00 20.00     0.043 C 
HETATM    3  C3  UNL     1     -33.269   5.039   2.736  1.00 20.00     0.169 C 
HETATM    4  C4  UNL     1     -33.142   7.494   3.252  1.00 20.00     0.004 C 
HETATM    5  C5  UNL     1     -34.475   5.838   4.672  1.00 20.00     0.057 C 
HETATM    6  C6  UNL     1     -35.848   5.985   3.999  1.00 20.00     0.046 C 
HETATM    7  O10 UNL     1     -33.720   4.779   4.063  1.00 20.00    -0.381 OA
ENDROOT
BRANCH   5   8
HETATM    8  C9  UNL     1     -34.699   5.409   6.129  1.00 20.00     0.033 C 
HETATM    9  C7  UNL     1     -34.479   6.543   7.070  1.00 20.00     0.008 C 
ENDBRANCH   5   8
BRANCH   4  10
HETATM   10  C8  UNL     1     -32.235   8.723   3.295  1.00 20.00     0.119 C 
HETATM   11 CL11 UNL     1     -32.069   9.299   4.963  1.00 20.00    -0.130 Cl
ENDBRANCH   4  10
TORSDOF 2
ENDMDL
MODEL 2
REMARK VINA RESULT:      -3.9     12.346     13.172
REMARK  2 active torsions:
REMARK  status: ('A' for Active; 'I' for Inactive)
REMARK    1  A    between atoms: C4_4  and  C8_8 
REMARK    2  A    between atoms: C5_5  and  C9_9 
ROOT
HETATM    1  C1  UNL     1     -34.674  17.138  -4.237  1.00 20.00     0.032 C 
HETATM    2  C2  UNL     1     -33.333  16.648  -2.181  1.00 20.00     0.043 C 
HETATM    3  C3  UNL     1     -34.922  18.530  -3.675  1.00 20.00     0.169 C 
HETATM    4  C4  UNL     1     -33.354  16.567  -3.712  1.00 20.00     0.004 C 
HETATM    5  C5  UNL     1     -33.673  18.059  -1.661  1.00 20.00     0.057 C 
HETATM    6  C6  UNL     1     -32.531  19.057  -1.902  1.00 20.00     0.046 C 
HETATM    7  O10 UNL     1     -34.894  18.530  -2.249  1.00 20.00    -0.381 OA
ENDROOT
BRANCH   5   8
HETATM    8  C9  UNL     1     -33.936  17.989  -0.150  1.00 20.00     0.033 C 
HETATM    9  C7  UNL     1     -32.787  18.532   0.629  1.00 20.00     0.008 C 
ENDBRANCH   5   8
BRANCH   4  10
HETATM   10  C8  UNL     1     -33.153  15.129  -4.186  1.00 20.00     0.119 C 
HETATM   11 CL11 UNL     1     -34.721  14.374  -4.519  1.00 20.00    -0.130 Cl
ENDBRANCH   4  10
TORSDOF 2
ENDMDL
MODEL 3
REMARK VINA RESULT:      -3.7     10.031     11.029
REMARK  2 active torsions:
REMARK  status: ('A' for Active; 'I' for Inactive)
REMARK    1  A    between atoms: C4_4  and  C8_8 
REMARK    2  A    between atoms: C5_5  and  C9_9 
ROOT
HETATM    1  C1  UNL     1     -43.414  13.625   5.907  1.00 20.00     0.032 C 
HETATM    2  C2  UNL     1     -41.066  13.562   5.046  1.00 20.00     0.043 C 
HETATM    3  C3  UNL     1     -42.913  12.926   7.162  1.00 20.00     0.169 C 
HETATM    4  C4  UNL     1     -42.298  14.449   5.261  1.00 20.00     0.004 C 
HETATM    5  C5  UNL     1     -40.649  12.811   6.326  1.00 20.00     0.057 C 
HETATM    6  C6  UNL     1     -40.010  13.745   7.365  1.00 20.00     0.046 C 
HETATM    7  O10 UNL     1     -41.772  12.116   6.888  1.00 20.00    -0.381 OA
ENDROOT
BRANCH   5   8
HETATM    8  C9  UNL     1     -39.624  11.727   5.963  1.00 20.00     0.033 C 
HETATM    9  C7  UNL     1     -39.317  11.736   4.504  1.00 20.00     0.008 C 
ENDBRANCH   5   8
BRANCH   4  10
HETATM   10  C8  UNL     1     -42.765  15.064   3.943  1.00 20.00     0.119 C 
HETATM   11 CL11 UNL     1     -42.569  16.825   3.989  1.00 20.00    -0.130 Cl
ENDBRANCH   4  10
TORSDOF 2
ENDMDL
MODEL 4
REMARK VINA RESULT:      -3.6     12.071     13.204
REMARK  2 active torsions:
REMARK  status: ('A' for Active; 'I' for Inactive)
REMARK    1  A    between atoms: C4_4  and  C8_8 
REMARK    2  A    between atoms: C5_5  and  C9_9 
ROOT
HETATM    1  C1  UNL     1     -32.925  19.263  -1.805  1.00 20.00     0.032 C 
HETATM    2  C2  UNL     1     -33.608  16.856  -1.881  1.00 20.00     0.043 C 
HETATM    3  C3  UNL     1     -32.962  19.263  -3.326  1.00 20.00     0.169 C 
HETATM    4  C4  UNL     1     -33.890  18.219  -1.238  1.00 20.00     0.004 C 
HETATM    5  C5  UNL     1     -33.573  16.927  -3.420  1.00 20.00     0.057 C 
HETATM    6  C6  UNL     1     -34.972  17.115  -4.024  1.00 20.00     0.046 C 
HETATM    7  O10 UNL     1     -32.686  17.968  -3.855  1.00 20.00    -0.381 OA
ENDROOT
BRANCH   5   8
HETATM    8  C9  UNL     1     -32.986  15.619  -3.971  1.00 20.00     0.033 C 
HETATM    9  C7  UNL     1     -34.048  14.595  -4.187  1.00 20.00     0.008 C 
ENDBRANCH   5   8
BRANCH   4  10
HETATM   10  C8  UNL     1     -33.777  18.140   0.284  1.00 20.00     0.119 C 
HETATM   11 CL11 UNL     1     -32.097  18.399   0.784  1.00 20.00    -0.130 Cl
ENDBRANCH   4  10
TORSDOF 2
ENDMDL
MODEL 5
REMARK VINA RESULT:      -3.6     12.427     13.540
REMARK  2 active torsions:
REMARK  status: ('A' for Active; 'I' for Inactive)
REMARK    1  A    between atoms: C4_4  and  C8_8 
REMARK    2  A    between atoms: C5_5  and  C9_9 
ROOT
HETATM    1  C1  UNL     1     -33.274  19.262   1.012  1.00 20.00     0.032 C 
HETATM    2  C2  UNL     1     -31.820  18.662  -0.934  1.00 20.00     0.043 C 
HETATM    3  C3  UNL     1     -34.479  18.980   0.127  1.00 20.00     0.169 C 
HETATM    4  C4  UNL     1     -32.065  18.439   0.563  1.00 20.00     0.004 C 
HETATM    5  C5  UNL     1     -33.092  18.445  -1.778  1.00 20.00     0.057 C 
HETATM    6  C6  UNL     1     -33.471  16.960  -1.884  1.00 20.00     0.046 C 
HETATM    7  O10 UNL     1     -34.182  19.213  -1.248  1.00 20.00    -0.381 OA
ENDROOT
BRANCH   5   8
HETATM    8  C9  UNL     1     -32.851  18.981  -3.196  1.00 20.00     0.033 C 
HETATM    9  C7  UNL     1     -33.972  18.621  -4.110  1.00 20.00     0.008 C 
ENDBRANCH   5   8
BRANCH   4  10
HETATM   10  C8  UNL     1     -30.825  18.799   1.380  1.00 20.00     0.119 C 
HETATM   11 CL11 UNL     1     -31.207  18.775   3.110  1.00 20.00    -0.130 Cl
ENDBRANCH   4  10
TORSDOF 2
ENDMDL
MODEL 6
REMARK VINA RESULT:      -3.5     10.086     11.085
REMARK  2 active torsions:
REMARK  status: ('A' for Active; 'I' for Inactive)
REMARK    1  A    between atoms: C4_4  and  C8_8 
REMARK    2  A    between atoms: C5_5  and  C9_9 
ROOT
HETATM    1  C1  UNL     1     -42.279  12.475   6.735  1.00 20.00     0.032 C 
HETATM    2  C2  UNL     1     -40.123  13.603   7.323  1.00 20.00     0.043 C 
HETATM    3  C3  UNL     1     -43.000  13.598   7.464  1.00 20.00     0.169 C 
HETATM    4  C4  UNL     1     -40.931  12.957   6.191  1.00 20.00     0.004 C 
HETATM    5  C5  UNL     1     -40.928  14.675   8.084  1.00 20.00     0.057 C 
HETATM    6  C6  UNL     1     -41.118  15.955   7.256  1.00 20.00     0.046 C 
HETATM    7  O10 UNL     1     -42.194  14.147   8.505  1.00 20.00    -0.381 OA
ENDROOT
BRANCH   5   8
HETATM    8  C9  UNL     1     -40.179  15.045   9.372  1.00 20.00     0.033 C 
HETATM    9  C7  UNL     1     -40.713  14.297  10.546  1.00 20.00     0.008 C 
ENDBRANCH   5   8
BRANCH   4  10
HETATM   10  C8  UNL     1     -40.156  11.806   5.553  1.00 20.00     0.119 C 
HETATM   11 CL11 UNL     1     -38.424  12.181   5.523  1.00 20.00    -0.130 Cl
ENDBRANCH   4  10
TORSDOF 2
ENDMDL
MODEL 7
REMARK VINA RESULT:      -3.5     12.187     13.472
REMARK  2 active torsions:
REMARK  status: ('A' for Active; 'I' for Inactive)
REMARK    1  A    between atoms: C4_4  and  C8_8 
REMARK    2  A    between atoms: C5_5  and  C9_9 
ROOT
HETATM    1  C1  UNL     1     -33.316  15.801  -3.424  1.00 20.00     0.032 C 
HETATM    2  C2  UNL     1     -35.082  17.199  -4.515  1.00 20.00     0.043 C 
HETATM    3  C3  UNL     1     -33.519  14.779  -4.532  1.00 20.00     0.169 C 
HETATM    4  C4  UNL     1     -33.673  17.208  -3.910  1.00 20.00     0.004 C 
HETATM    5  C5  UNL     1     -35.262  16.091  -5.572  1.00 20.00     0.057 C 
HETATM    6  C6  UNL     1     -34.515  16.407  -6.877  1.00 20.00     0.046 C 
HETATM    7  O10 UNL     1     -34.849  14.822  -5.044  1.00 20.00    -0.381 OA
ENDROOT
BRANCH   5   8
HETATM    8  C9  UNL     1     -36.755  15.944  -5.898  1.00 20.00     0.033 C 
HETATM    9  C7  UNL     1     -37.571  16.960  -5.176  1.00 20.00     0.008 C 
ENDBRANCH   5   8
BRANCH   4  10
HETATM   10  C8  UNL     1     -33.575  18.221  -2.771  1.00 20.00     0.119 C 
HETATM   11 CL11 UNL     1     -33.626  17.387  -1.208  1.00 20.00    -0.130 Cl
ENDBRANCH   4  10
TORSDOF 2
ENDMDL
MODEL 8
REMARK VINA RESULT:      -3.5     10.432     11.413
REMARK  2 active torsions:
REMARK  status: ('A' for Active; 'I' for Inactive)
REMARK    1  A    between atoms: C4_4  and  C8_8 
REMARK    2  A    between atoms: C5_5  and  C9_9 
ROOT
HETATM    1  C1  UNL     1     -41.568  16.028   7.604  1.00 20.00     0.032 C 
HETATM    2  C2  UNL     1     -40.364  13.835   7.543  1.00 20.00     0.043 C 
HETATM    3  C3  UNL     1     -42.432  15.521   6.458  1.00 20.00     0.169 C 
HETATM    4  C4  UNL     1     -41.050  14.862   8.450  1.00 20.00     0.004 C 
HETATM    5  C5  UNL     1     -41.248  13.418   6.351  1.00 20.00     0.057 C 
HETATM    6  C6  UNL     1     -42.414  12.515   6.781  1.00 20.00     0.046 C 
HETATM    7  O10 UNL     1     -41.730  14.576   5.654  1.00 20.00    -0.381 OA
ENDROOT
BRANCH   5   8
HETATM    8  C9  UNL     1     -40.393  12.644   5.337  1.00 20.00     0.033 C 
HETATM    9  C7  UNL     1     -39.277  11.918   6.008  1.00 20.00     0.008 C 
ENDBRANCH   5   8
BRANCH   4  10
HETATM   10  C8  UNL     1     -40.096  15.357   9.536  1.00 20.00     0.119 C 
HETATM   11 CL11 UNL     1     -40.440  14.537  11.069  1.00 20.00    -0.130 Cl
ENDBRANCH   4  10
TORSDOF 2
ENDMDL
MODEL 9
REMARK VINA RESULT:      -3.4     13.197     14.020
REMARK  2 active torsions:
REMARK  status: ('A' for Active; 'I' for Inactive)
REMARK    1  A    between atoms: C4_4  and  C8_8 
REMARK    2  A    between atoms: C5_5  and  C9_9 
ROOT
HETATM    1  C1  UNL     1     -23.723  -2.040  11.421  1.00 20.00     0.032 C 
HETATM    2  C2  UNL     1     -25.527  -3.016   9.986  1.00 20.00     0.043 C 
HETATM    3  C3  UNL     1     -24.817  -1.497  12.328  1.00 20.00     0.169 C 
HETATM    4  C4  UNL     1     -24.197  -3.301  10.694  1.00 20.00     0.004 C 
HETATM    5  C5  UNL     1     -26.573  -2.389  10.929  1.00 20.00     0.057 C 
HETATM    6  C6  UNL     1     -27.128  -3.406  11.938  1.00 20.00     0.046 C 
HETATM    7  O10 UNL     1     -26.021  -1.250  11.605  1.00 20.00    -0.381 OA
ENDROOT
BRANCH   5   8
HETATM    8  C9  UNL     1     -27.746  -1.854  10.095  1.00 20.00     0.033 C 
HETATM    9  C7  UNL     1     -27.814  -0.366  10.144  1.00 20.00     0.008 C 
ENDBRANCH   5   8
BRANCH   4  10
HETATM   10  C8  UNL     1     -23.142  -3.787   9.701  1.00 20.00     0.119 C 
HETATM   11 CL11 UNL     1     -23.413  -3.046   8.114  1.00 20.00    -0.130 Cl
ENDBRANCH   4  10
TORSDOF 2
ENDMDL
