MODEL 1
REMARK VINA RESULT:      -4.0      0.000      0.000
REMARK  5 active torsions:
REMARK  status: ('A' for Active; 'I' for Inactive)
REMARK    1  A    between atoms: C3_3  and  C7_7 
REMARK    2  A    between atoms: C5_5  and  C6_6 
REMARK    3  A    between atoms: C5_5  and  C7_7 
REMARK    4  A    between atoms: C6_6  and  S9_9 
REMARK    5  A    between atoms: C7_7  and  O8_8 
ROOT
HETATM    1  C7  UNL     1     -32.720   8.534   4.321  1.00 20.00     0.122 C 
ENDROOT
BRANCH   1   2
HETATM    2  C3  UNL     1     -31.930   7.655   3.396  1.00 20.00     0.014 A 
HETATM    3  C1  UNL     1     -32.587   6.488   2.714  1.00 20.00     0.007 A 
HETATM    4  C2  UNL     1     -32.184   7.694   1.915  1.00 20.00     0.007 A 
ENDBRANCH   1   2
BRANCH   1   5
HETATM    5  C5  UNL     1     -33.952   7.837   4.918  1.00 20.00     0.042 C 
BRANCH   5   6
HETATM    6  C6  UNL     1     -33.735   7.110   6.245  1.00 20.00     0.076 C 
BRANCH   6   7
HETATM    7  S9  UNL     1     -34.525   5.475   6.300  1.00 20.00    -0.173 SA
HETATM    8  C4  UNL     1     -35.324   5.517   4.679  1.00 20.00     0.089 C 
ENDBRANCH   6   7
ENDBRANCH   5   6
ENDBRANCH   1   5
BRANCH   1   9
HETATM    9  O8  UNL     1     -31.875   8.945   5.399  1.00 20.00    -0.395 OA
HETATM   10  H23 UNL     1     -31.005   8.558   5.224  1.00 20.00     0.210 HD
ENDBRANCH   1   9
TORSDOF 5
ENDMDL
MODEL 2
REMARK VINA RESULT:      -3.7     12.136     13.264
REMARK  5 active torsions:
REMARK  status: ('A' for Active; 'I' for Inactive)
REMARK    1  A    between atoms: C3_3  and  C7_7 
REMARK    2  A    between atoms: C5_5  and  C6_6 
REMARK    3  A    between atoms: C5_5  and  C7_7 
REMARK    4  A    between atoms: C6_6  and  S9_9 
REMARK    5  A    between atoms: C7_7  and  O8_8 
ROOT
HETATM    1  C7  UNL     1     -33.927  14.730  -4.165  1.00 20.00     0.122 C 
ENDROOT
BRANCH   1   2
HETATM    2  C3  UNL     1     -33.176  15.944  -3.705  1.00 20.00     0.014 A 
HETATM    3  C1  UNL     1     -33.872  17.273  -3.602  1.00 20.00     0.007 A 
HETATM    4  C2  UNL     1     -33.459  16.543  -2.355  1.00 20.00     0.007 A 
ENDBRANCH   1   2
BRANCH   1   5
HETATM    5  C5  UNL     1     -34.835  14.998  -5.375  1.00 20.00     0.042 C 
BRANCH   5   6
HETATM    6  C6  UNL     1     -34.124  15.241  -6.706  1.00 20.00     0.076 C 
BRANCH   6   7
HETATM    7  S9  UNL     1     -34.620  16.795  -7.506  1.00 20.00    -0.173 SA
HETATM    8  C4  UNL     1     -36.145  17.089  -6.582  1.00 20.00     0.089 C 
ENDBRANCH   6   7
ENDBRANCH   5   6
ENDBRANCH   1   5
BRANCH   1   9
HETATM    9  O8  UNL     1     -32.985  13.717  -4.531  1.00 20.00    -0.395 OA
HETATM   10  H23 UNL     1     -32.396  14.119  -5.185  1.00 20.00     0.210 HD
ENDBRANCH   1   9
TORSDOF 5
ENDMDL
MODEL 3
REMARK VINA RESULT:      -3.5      2.060      3.696
REMARK  5 active torsions:
REMARK  status: ('A' for Active; 'I' for Inactive)
REMARK    1  A    between atoms: C3_3  and  C7_7 
REMARK    2  A    between atoms: C5_5  and  C6_6 
REMARK    3  A    between atoms: C5_5  and  C7_7 
REMARK    4  A    between atoms: C6_6  and  S9_9 
REMARK    5  A    between atoms: C7_7  and  O8_8 
ROOT
HETATM    1  C7  UNL     1     -33.803   6.993   5.976  1.00 20.00     0.122 C 
ENDROOT
BRANCH   1   2
HETATM    2  C3  UNL     1     -34.759   5.866   5.715  1.00 20.00     0.014 A 
HETATM    3  C1  UNL     1     -35.422   5.730   4.373  1.00 20.00     0.007 A 
HETATM    4  C2  UNL     1     -34.372   4.742   4.795  1.00 20.00     0.007 A 
ENDBRANCH   1   2
BRANCH   1   5
HETATM    5  C5  UNL     1     -33.722   8.002   4.821  1.00 20.00     0.042 C 
BRANCH   5   6
HETATM    6  C6  UNL     1     -32.361   8.133   4.138  1.00 20.00     0.076 C 
BRANCH   6   7
HETATM    7  S9  UNL     1     -32.182   7.047   2.692  1.00 20.00    -0.173 SA
HETATM    8  C4  UNL     1     -32.201   8.318   1.407  1.00 20.00     0.089 C 
ENDBRANCH   6   7
ENDBRANCH   5   6
ENDBRANCH   1   5
BRANCH   1   9
HETATM    9  O8  UNL     1     -34.225   7.692   7.150  1.00 20.00    -0.395 OA
HETATM   10  H23 UNL     1     -33.557   8.373   7.314  1.00 20.00     0.210 HD
ENDBRANCH   1   9
TORSDOF 5
ENDMDL
MODEL 4
REMARK VINA RESULT:      -3.5      9.232      9.994
REMARK  5 active torsions:
REMARK  status: ('A' for Active; 'I' for Inactive)
REMARK    1  A    between atoms: C3_3  and  C7_7 
REMARK    2  A    between atoms: C5_5  and  C6_6 
REMARK    3  A    between atoms: C5_5  and  C7_7 
REMARK    4  A    between atoms: C6_6  and  S9_9 
REMARK    5  A    between atoms: C7_7  and  O8_8 
ROOT
HETATM    1  C7  UNL     1     -40.144  13.302   6.453  1.00 20.00     0.122 C 
ENDROOT
BRANCH   1   2
HETATM    2  C3  UNL     1     -39.591  11.992   5.971  1.00 20.00     0.014 A 
HETATM    3  C1  UNL     1     -39.502  11.702   4.499  1.00 20.00     0.007 A 
HETATM    4  C2  UNL     1     -38.249  11.939   5.295  1.00 20.00     0.007 A 
ENDBRANCH   1   2
BRANCH   1   5
HETATM    5  C5  UNL     1     -41.661  13.430   6.259  1.00 20.00     0.042 C 
BRANCH   5   6
HETATM    6  C6  UNL     1     -42.519  12.378   6.961  1.00 20.00     0.076 C 
BRANCH   6   7
HETATM    7  S9  UNL     1     -43.406  13.030   8.407  1.00 20.00    -0.173 SA
HETATM    8  C4  UNL     1     -43.213  14.793   8.057  1.00 20.00     0.089 C 
ENDBRANCH   6   7
ENDBRANCH   5   6
ENDBRANCH   1   5
BRANCH   1   9
HETATM    9  O8  UNL     1     -39.859  13.436   7.848  1.00 20.00    -0.395 OA
HETATM   10  H23 UNL     1     -39.038  12.948   8.006  1.00 20.00     0.210 HD
ENDBRANCH   1   9
TORSDOF 5
ENDMDL
MODEL 5
REMARK VINA RESULT:      -3.5      2.458      4.118
REMARK  5 active torsions:
REMARK  status: ('A' for Active; 'I' for Inactive)
REMARK    1  A    between atoms: C3_3  and  C7_7 
REMARK    2  A    between atoms: C5_5  and  C6_6 
REMARK    3  A    between atoms: C5_5  and  C7_7 
REMARK    4  A    between atoms: C6_6  and  S9_9 
REMARK    5  A    between atoms: C7_7  and  O8_8 
ROOT
HETATM    1  C7  UNL     1     -33.375   7.418   5.344  1.00 20.00     0.122 C 
ENDROOT
BRANCH   1   2
HETATM    2  C3  UNL     1     -34.604   6.584   5.561  1.00 20.00     0.014 A 
HETATM    3  C1  UNL     1     -34.771   5.278   4.836  1.00 20.00     0.007 A 
HETATM    4  C2  UNL     1     -34.515   5.287   6.317  1.00 20.00     0.007 A 
ENDBRANCH   1   2
BRANCH   1   5
HETATM    5  C5  UNL     1     -32.740   7.217   3.961  1.00 20.00     0.042 C 
BRANCH   5   6
HETATM    6  C6  UNL     1     -32.573   8.475   3.110  1.00 20.00     0.076 C 
BRANCH   6   7
HETATM    7  S9  UNL     1     -32.100   8.116   1.392  1.00 20.00    -0.173 SA
HETATM    8  C4  UNL     1     -32.812   9.584   0.613  1.00 20.00     0.089 C 
ENDBRANCH   6   7
ENDBRANCH   5   6
ENDBRANCH   1   5
BRANCH   1   9
HETATM    9  O8  UNL     1     -33.727   8.798   5.477  1.00 20.00    -0.395 OA
HETATM   10  H23 UNL     1     -34.339   8.851   6.225  1.00 20.00     0.210 HD
ENDBRANCH   1   9
TORSDOF 5
ENDMDL
MODEL 6
REMARK VINA RESULT:      -3.5      9.477     10.293
REMARK  5 active torsions:
REMARK  status: ('A' for Active; 'I' for Inactive)
REMARK    1  A    between atoms: C3_3  and  C7_7 
REMARK    2  A    between atoms: C5_5  and  C6_6 
REMARK    3  A    between atoms: C5_5  and  C7_7 
REMARK    4  A    between atoms: C6_6  and  S9_9 
REMARK    5  A    between atoms: C7_7  and  O8_8 
ROOT
HETATM    1  C7  UNL     1     -40.815  12.636   6.247  1.00 20.00     0.122 C 
ENDROOT
BRANCH   1   2
HETATM    2  C3  UNL     1     -39.839  11.660   5.659  1.00 20.00     0.014 A 
HETATM    3  C1  UNL     1     -39.255  11.900   4.294  1.00 20.00     0.007 A 
HETATM    4  C2  UNL     1     -38.389  12.030   5.516  1.00 20.00     0.007 A 
ENDBRANCH   1   2
BRANCH   1   5
HETATM    5  C5  UNL     1     -41.438  13.576   5.205  1.00 20.00     0.042 C 
BRANCH   5   6
HETATM    6  C6  UNL     1     -42.106  14.837   5.753  1.00 20.00     0.076 C 
BRANCH   6   7
HETATM    7  S9  UNL     1     -41.274  15.501   7.226  1.00 20.00    -0.173 SA
HETATM    8  C4  UNL     1     -42.584  15.184   8.430  1.00 20.00     0.089 C 
ENDBRANCH   6   7
ENDBRANCH   5   6
ENDBRANCH   1   5
BRANCH   1   9
HETATM    9  O8  UNL     1     -41.871  11.908   6.879  1.00 20.00    -0.395 OA
HETATM   10  H23 UNL     1     -41.792  10.994   6.570  1.00 20.00     0.210 HD
ENDBRANCH   1   9
TORSDOF 5
ENDMDL
MODEL 7
REMARK VINA RESULT:      -3.4     11.946     12.664
REMARK  5 active torsions:
REMARK  status: ('A' for Active; 'I' for Inactive)
REMARK    1  A    between atoms: C3_3  and  C7_7 
REMARK    2  A    between atoms: C5_5  and  C6_6 
REMARK    3  A    between atoms: C5_5  and  C7_7 
REMARK    4  A    between atoms: C6_6  and  S9_9 
REMARK    5  A    between atoms: C7_7  and  O8_8 
ROOT
HETATM    1  C7  UNL     1     -33.691  14.995  -4.775  1.00 20.00     0.122 C 
ENDROOT
BRANCH   1   2
HETATM    2  C3  UNL     1     -35.106  14.713  -5.188  1.00 20.00     0.014 A 
HETATM    3  C1  UNL     1     -36.048  15.846  -5.489  1.00 20.00     0.007 A 
HETATM    4  C2  UNL     1     -35.548  14.969  -6.602  1.00 20.00     0.007 A 
ENDBRANCH   1   2
BRANCH   1   5
HETATM    5  C5  UNL     1     -33.585  15.753  -3.444  1.00 20.00     0.042 C 
BRANCH   5   6
HETATM    6  C6  UNL     1     -33.297  17.251  -3.546  1.00 20.00     0.076 C 
BRANCH   6   7
HETATM    7  S9  UNL     1     -34.388  18.258  -2.499  1.00 20.00    -0.173 SA
HETATM    8  C4  UNL     1     -33.746  17.751  -0.887  1.00 20.00     0.089 C 
ENDBRANCH   6   7
ENDBRANCH   5   6
ENDBRANCH   1   5
BRANCH   1   9
HETATM    9  O8  UNL     1     -32.996  13.752  -4.638  1.00 20.00    -0.395 OA
HETATM   10  H23 UNL     1     -33.116  13.281  -5.475  1.00 20.00     0.210 HD
ENDBRANCH   1   9
TORSDOF 5
ENDMDL
MODEL 8
REMARK VINA RESULT:      -3.4     11.994     12.519
REMARK  5 active torsions:
REMARK  status: ('A' for Active; 'I' for Inactive)
REMARK    1  A    between atoms: C3_3  and  C7_7 
REMARK    2  A    between atoms: C5_5  and  C6_6 
REMARK    3  A    between atoms: C5_5  and  C7_7 
REMARK    4  A    between atoms: C6_6  and  S9_9 
REMARK    5  A    between atoms: C7_7  and  O8_8 
ROOT
HETATM    1  C7  UNL     1     -31.215  18.369   0.729  1.00 20.00     0.122 C 
ENDROOT
BRANCH   1   2
HETATM    2  C3  UNL     1     -30.659  19.248   1.811  1.00 20.00     0.014 A 
HETATM    3  C1  UNL     1     -31.109  19.074   3.235  1.00 20.00     0.007 A 
HETATM    4  C2  UNL     1     -29.715  18.682   2.835  1.00 20.00     0.007 A 
ENDBRANCH   1   2
BRANCH   1   5
HETATM    5  C5  UNL     1     -32.731  18.524   0.539  1.00 20.00     0.042 C 
BRANCH   5   6
HETATM    6  C6  UNL     1     -33.177  19.258  -0.726  1.00 20.00     0.076 C 
BRANCH   6   7
HETATM    7  S9  UNL     1     -34.385  18.320  -1.706  1.00 20.00    -0.173 SA
HETATM    8  C4  UNL     1     -33.346  16.895  -2.106  1.00 20.00     0.089 C 
ENDBRANCH   6   7
ENDBRANCH   5   6
ENDBRANCH   1   5
BRANCH   1   9
HETATM    9  O8  UNL     1     -30.574  18.700  -0.506  1.00 20.00    -0.395 OA
HETATM   10  H23 UNL     1     -30.806  19.621  -0.693  1.00 20.00     0.210 HD
ENDBRANCH   1   9
TORSDOF 5
ENDMDL
MODEL 9
REMARK VINA RESULT:      -3.3      2.681      4.349
REMARK  5 active torsions:
REMARK  status: ('A' for Active; 'I' for Inactive)
REMARK    1  A    between atoms: C3_3  and  C7_7 
REMARK    2  A    between atoms: C5_5  and  C6_6 
REMARK    3  A    between atoms: C5_5  and  C7_7 
REMARK    4  A    between atoms: C6_6  and  S9_9 
REMARK    5  A    between atoms: C7_7  and  O8_8 
ROOT
HETATM    1  C7  UNL     1     -34.933   6.056   4.455  1.00 20.00     0.122 C 
ENDROOT
BRANCH   1   2
HETATM    2  C3  UNL     1     -34.883   5.987   5.953  1.00 20.00     0.014 A 
HETATM    3  C1  UNL     1     -33.644   5.497   6.648  1.00 20.00     0.007 A 
HETATM    4  C2  UNL     1     -34.025   6.949   6.727  1.00 20.00     0.007 A 
ENDBRANCH   1   2
BRANCH   1   5
HETATM    5  C5  UNL     1     -33.997   5.052   3.768  1.00 20.00     0.042 C 
BRANCH   5   6
HETATM    6  C6  UNL     1     -32.965   5.645   2.808  1.00 20.00     0.076 C 
BRANCH   6   7
HETATM    7  S9  UNL     1     -32.390   7.294   3.310  1.00 20.00    -0.173 SA
HETATM    8  C4  UNL     1     -32.254   8.034   1.666  1.00 20.00     0.089 C 
ENDBRANCH   6   7
ENDBRANCH   5   6
ENDBRANCH   1   5
BRANCH   1   9
HETATM    9  O8  UNL     1     -36.271   5.783   4.027  1.00 20.00    -0.395 OA
HETATM   10  H23 UNL     1     -36.341   4.821   3.952  1.00 20.00     0.210 HD
ENDBRANCH   1   9
TORSDOF 5
ENDMDL
