MODEL 1
REMARK VINA RESULT:      -5.0      0.000      0.000
REMARK  2 active torsions:
REMARK  status: ('A' for Active; 'I' for Inactive)
REMARK    1  A    between atoms: C5_5  and  C8_8 
REMARK    2  A    between atoms: C6_6  and  C9_9 
ROOT
HETATM    1  C1  UNL     1     -33.190   6.008   2.658  1.00 20.00     0.001 C 
HETATM    2  C2  UNL     1     -33.661   5.786   4.092  1.00 20.00     0.005 C 
HETATM    3  C3  UNL     1     -31.952   6.900   2.603  1.00 20.00     0.005 C 
HETATM    4  C4  UNL     1     -32.650   8.003   4.769  1.00 20.00     0.010 C 
HETATM    5  C5  UNL     1     -33.900   7.111   4.827  1.00 20.00    -0.014 C 
HETATM    6  C6  UNL     1     -32.138   8.234   3.339  1.00 20.00    -0.000 C 
ENDROOT
BRANCH   5   7
HETATM    7  C8  UNL     1     -34.308   6.854   6.278  1.00 20.00     0.000 C 
HETATM    8  C7  UNL     1     -34.624   5.413   6.513  1.00 20.00     0.005 C 
ENDBRANCH   5   7
BRANCH   6   9
HETATM    9  C9  UNL     1     -33.046   9.189   2.559  1.00 20.00     0.119 C 
HETATM   10 CL10 UNL     1     -32.588   9.198   0.849  1.00 20.00    -0.130 Cl
ENDBRANCH   6   9
TORSDOF 2
ENDMDL
MODEL 2
REMARK VINA RESULT:      -4.1      2.571      4.167
REMARK  2 active torsions:
REMARK  status: ('A' for Active; 'I' for Inactive)
REMARK    1  A    between atoms: C5_5  and  C8_8 
REMARK    2  A    between atoms: C6_6  and  C9_9 
ROOT
HETATM    1  C1  UNL     1     -33.730   5.088   3.660  1.00 20.00     0.001 C 
HETATM    2  C2  UNL     1     -32.929   6.056   2.796  1.00 20.00     0.005 C 
HETATM    3  C3  UNL     1     -34.936   5.772   4.302  1.00 20.00     0.005 C 
HETATM    4  C4  UNL     1     -33.724   7.989   4.218  1.00 20.00     0.010 C 
HETATM    5  C5  UNL     1     -32.506   7.306   3.576  1.00 20.00    -0.014 C 
HETATM    6  C6  UNL     1     -34.565   7.038   5.084  1.00 20.00    -0.000 C 
ENDROOT
BRANCH   5   7
HETATM    7  C8  UNL     1     -31.762   8.282   2.666  1.00 20.00     0.000 C 
HETATM    8  C7  UNL     1     -32.174   8.127   1.239  1.00 20.00     0.005 C 
ENDBRANCH   5   7
BRANCH   6   9
HETATM    9  C9  UNL     1     -33.862   6.704   6.403  1.00 20.00     0.119 C 
HETATM   10 CL10 UNL     1     -34.232   5.039   6.880  1.00 20.00    -0.130 Cl
ENDBRANCH   6   9
TORSDOF 2
ENDMDL
MODEL 3
REMARK VINA RESULT:      -3.8      1.677      2.561
REMARK  2 active torsions:
REMARK  status: ('A' for Active; 'I' for Inactive)
REMARK    1  A    between atoms: C5_5  and  C8_8 
REMARK    2  A    between atoms: C6_6  and  C9_9 
ROOT
HETATM    1  C1  UNL     1     -32.078   9.059   4.773  1.00 20.00     0.001 C 
HETATM    2  C2  UNL     1     -32.989   8.496   5.859  1.00 20.00     0.005 C 
HETATM    3  C3  UNL     1     -32.748   9.027   3.401  1.00 20.00     0.005 C 
HETATM    4  C4  UNL     1     -34.158   7.061   4.136  1.00 20.00     0.010 C 
HETATM    5  C5  UNL     1     -33.483   7.085   5.517  1.00 20.00    -0.014 C 
HETATM    6  C6  UNL     1     -33.273   7.636   3.020  1.00 20.00    -0.000 C 
ENDROOT
BRANCH   5   7
HETATM    7  C8  UNL     1     -34.444   6.578   6.592  1.00 20.00     0.000 C 
HETATM    8  C7  UNL     1     -34.834   5.156   6.354  1.00 20.00     0.005 C 
ENDBRANCH   5   7
BRANCH   6   9
HETATM    9  C9  UNL     1     -32.134   6.682   2.652  1.00 20.00     0.119 C 
HETATM   10 CL10 UNL     1     -32.738   5.020   2.571  1.00 20.00    -0.130 Cl
ENDBRANCH   6   9
TORSDOF 2
ENDMDL
MODEL 4
REMARK VINA RESULT:      -3.7      2.350      4.013
REMARK  2 active torsions:
REMARK  status: ('A' for Active; 'I' for Inactive)
REMARK    1  A    between atoms: C5_5  and  C8_8 
REMARK    2  A    between atoms: C6_6  and  C9_9 
ROOT
HETATM    1  C1  UNL     1     -32.861   5.047   3.272  1.00 20.00     0.001 C 
HETATM    2  C2  UNL     1     -32.462   6.475   2.916  1.00 20.00     0.005 C 
HETATM    3  C3  UNL     1     -34.354   4.937   3.575  1.00 20.00     0.005 C 
HETATM    4  C4  UNL     1     -34.384   7.359   4.301  1.00 20.00     0.010 C 
HETATM    5  C5  UNL     1     -32.881   7.474   4.001  1.00 20.00    -0.014 C 
HETATM    6  C6  UNL     1     -34.824   5.929   4.648  1.00 20.00    -0.000 C 
ENDROOT
BRANCH   5   7
HETATM    7  C8  UNL     1     -32.525   8.901   3.585  1.00 20.00     0.000 C 
HETATM    8  C7  UNL     1     -32.698   9.104   2.116  1.00 20.00     0.005 C 
ENDBRANCH   5   7
BRANCH   6   9
HETATM    9  C9  UNL     1     -34.356   5.515   6.046  1.00 20.00     0.119 C 
HETATM   10 CL10 UNL     1     -34.313   6.927   7.113  1.00 20.00    -0.130 Cl
ENDBRANCH   6   9
TORSDOF 2
ENDMDL
MODEL 5
REMARK VINA RESULT:      -3.6     11.461     12.507
REMARK  2 active torsions:
REMARK  status: ('A' for Active; 'I' for Inactive)
REMARK    1  A    between atoms: C5_5  and  C8_8 
REMARK    2  A    between atoms: C6_6  and  C9_9 
ROOT
HETATM    1  C1  UNL     1     -33.246  18.814  -4.122  1.00 20.00     0.001 C 
HETATM    2  C2  UNL     1     -32.782  19.262  -2.741  1.00 20.00     0.005 C 
HETATM    3  C3  UNL     1     -34.371  17.785  -4.033  1.00 20.00     0.005 C 
HETATM    4  C4  UNL     1     -33.514  17.044  -1.773  1.00 20.00     0.010 C 
HETATM    5  C5  UNL     1     -32.377  18.075  -1.860  1.00 20.00    -0.014 C 
HETATM    6  C6  UNL     1     -34.017  16.581  -3.149  1.00 20.00    -0.000 C 
ENDROOT
BRANCH   5   7
HETATM    7  C8  UNL     1     -31.979  18.552  -0.463  1.00 20.00     0.000 C 
HETATM    8  C7  UNL     1     -33.114  18.438   0.501  1.00 20.00     0.005 C 
ENDBRANCH   5   7
BRANCH   6   9
HETATM    9  C9  UNL     1     -33.015  15.649  -3.836  1.00 20.00     0.119 C 
HETATM   10 CL10 UNL     1     -33.770  14.877  -5.238  1.00 20.00    -0.130 Cl
ENDBRANCH   6   9
TORSDOF 2
ENDMDL
MODEL 6
REMARK VINA RESULT:      -3.6     10.176     11.176
REMARK  2 active torsions:
REMARK  status: ('A' for Active; 'I' for Inactive)
REMARK    1  A    between atoms: C5_5  and  C8_8 
REMARK    2  A    between atoms: C6_6  and  C9_9 
ROOT
HETATM    1  C1  UNL     1     -42.350  14.291   5.178  1.00 20.00     0.001 C 
HETATM    2  C2  UNL     1     -41.167  13.364   4.915  1.00 20.00     0.005 C 
HETATM    3  C3  UNL     1     -42.053  15.280   6.302  1.00 20.00     0.005 C 
HETATM    4  C4  UNL     1     -40.418  13.638   7.314  1.00 20.00     0.010 C 
HETATM    5  C5  UNL     1     -40.717  12.637   6.188  1.00 20.00    -0.014 C 
HETATM    6  C6  UNL     1     -41.583  14.599   7.595  1.00 20.00    -0.000 C 
ENDROOT
BRANCH   5   7
HETATM    7  C8  UNL     1     -39.491  11.768   5.904  1.00 20.00     0.000 C 
HETATM    8  C7  UNL     1     -39.145  11.763   4.452  1.00 20.00     0.005 C 
ENDBRANCH   5   7
BRANCH   6   9
HETATM    9  C9  UNL     1     -42.737  13.895   8.315  1.00 20.00     0.119 C 
HETATM   10 CL10 UNL     1     -42.336  13.670  10.025  1.00 20.00    -0.130 Cl
ENDBRANCH   6   9
TORSDOF 2
ENDMDL
MODEL 7
REMARK VINA RESULT:      -3.6     11.658     12.654
REMARK  2 active torsions:
REMARK  status: ('A' for Active; 'I' for Inactive)
REMARK    1  A    between atoms: C5_5  and  C8_8 
REMARK    2  A    between atoms: C6_6  and  C9_9 
ROOT
HETATM    1  C1  UNL     1     -34.089  14.740  -5.150  1.00 20.00     0.001 C 
HETATM    2  C2  UNL     1     -33.248  15.276  -3.997  1.00 20.00     0.005 C 
HETATM    3  C3  UNL     1     -34.344  15.812  -6.208  1.00 20.00     0.005 C 
HETATM    4  C4  UNL     1     -34.118  17.608  -4.442  1.00 20.00     0.010 C 
HETATM    5  C5  UNL     1     -33.866  16.533  -3.373  1.00 20.00    -0.014 C 
HETATM    6  C6  UNL     1     -34.950  17.097  -5.628  1.00 20.00    -0.000 C 
ENDROOT
BRANCH   5   7
HETATM    7  C8  UNL     1     -32.966  17.080  -2.264  1.00 20.00     0.000 C 
HETATM    8  C7  UNL     1     -33.764  17.575  -1.103  1.00 20.00     0.005 C 
ENDBRANCH   5   7
BRANCH   6   9
HETATM    9  C9  UNL     1     -36.422  16.908  -5.249  1.00 20.00     0.119 C 
HETATM   10 CL10 UNL     1     -36.933  18.197  -4.148  1.00 20.00    -0.130 Cl
ENDBRANCH   6   9
TORSDOF 2
ENDMDL
MODEL 8
REMARK VINA RESULT:      -3.3     10.113     11.135
REMARK  2 active torsions:
REMARK  status: ('A' for Active; 'I' for Inactive)
REMARK    1  A    between atoms: C5_5  and  C8_8 
REMARK    2  A    between atoms: C6_6  and  C9_9 
ROOT
HETATM    1  C1  UNL     1     -43.131  13.746   6.529  1.00 20.00     0.001 C 
HETATM    2  C2  UNL     1     -42.575  14.865   7.403  1.00 20.00     0.005 C 
HETATM    3  C3  UNL     1     -42.333  12.454   6.692  1.00 20.00     0.005 C 
HETATM    4  C4  UNL     1     -40.284  13.799   7.317  1.00 20.00     0.010 C 
HETATM    5  C5  UNL     1     -41.082  15.102   7.150  1.00 20.00    -0.014 C 
HETATM    6  C6  UNL     1     -40.827  12.643   6.461  1.00 20.00    -0.000 C 
ENDROOT
BRANCH   5   7
HETATM    7  C8  UNL     1     -40.543  16.183   8.086  1.00 20.00     0.000 C 
HETATM    8  C7  UNL     1     -40.364  15.668   9.476  1.00 20.00     0.005 C 
ENDBRANCH   5   7
BRANCH   6   9
HETATM    9  C9  UNL     1     -40.501  12.835   4.978  1.00 20.00     0.119 C 
HETATM   10 CL10 UNL     1     -39.151  11.788   4.514  1.00 20.00    -0.130 Cl
ENDBRANCH   6   9
TORSDOF 2
ENDMDL
MODEL 9
REMARK VINA RESULT:      -3.3     11.676     12.773
REMARK  2 active torsions:
REMARK  status: ('A' for Active; 'I' for Inactive)
REMARK    1  A    between atoms: C5_5  and  C8_8 
REMARK    2  A    between atoms: C6_6  and  C9_9 
ROOT
HETATM    1  C1  UNL     1     -35.489  17.647  -5.150  1.00 20.00     0.001 C 
HETATM    2  C2  UNL     1     -34.719  17.822  -3.845  1.00 20.00     0.005 C 
HETATM    3  C3  UNL     1     -35.956  16.205  -5.340  1.00 20.00     0.005 C 
HETATM    4  C4  UNL     1     -34.023  15.392  -3.927  1.00 20.00     0.010 C 
HETATM    5  C5  UNL     1     -33.545  16.841  -3.737  1.00 20.00    -0.014 C 
HETATM    6  C6  UNL     1     -34.817  15.183  -5.226  1.00 20.00    -0.000 C 
ENDROOT
BRANCH   5   7
HETATM    7  C8  UNL     1     -32.836  16.998  -2.392  1.00 20.00     0.000 C 
HETATM    8  C7  UNL     1     -33.788  17.390  -1.310  1.00 20.00     0.005 C 
ENDBRANCH   5   7
BRANCH   6   9
HETATM    9  C9  UNL     1     -33.907  15.210  -6.458  1.00 20.00     0.119 C 
HETATM   10 CL10 UNL     1     -34.862  15.556  -7.908  1.00 20.00    -0.130 Cl
ENDBRANCH   6   9
TORSDOF 2
ENDMDL
