MODEL 1
REMARK VINA RESULT:      -4.1      0.000      0.000
REMARK  2 active torsions:
REMARK  status: ('A' for Active; 'I' for Inactive)
REMARK    1  A    between atoms: C1_1  and  C7_7 
REMARK    2  A    between atoms: C8_8  and  C12_12 
ROOT
HETATM    1  C2  UNL     1     -35.136  19.005  -3.623  1.00 20.00     0.001 C 
HETATM    2  C3  UNL     1     -35.070  18.781  -2.113  1.00 20.00     0.011 C 
HETATM    3  C4  UNL     1     -33.577  16.681  -2.276  1.00 20.00     0.012 C 
HETATM    4  C5  UNL     1     -35.435  17.722  -4.395  1.00 20.00     0.005 C 
HETATM    5  C6  UNL     1     -33.095  16.805  -3.722  1.00 20.00     0.006 C 
HETATM    6  C7  UNL     1     -33.825  18.042  -1.620  1.00 20.00     0.047 C 
HETATM    7  C8  UNL     1     -34.202  16.893  -4.783  1.00 20.00    -0.007 C 
ENDROOT
BRANCH   7   8
HETATM    8  C12 UNL     1     -34.648  15.493  -5.222  1.00 20.00    -0.048 C 
HETATM    9  C9  UNL     1     -34.139  14.452  -4.214  1.00 20.00     0.015 C 
HETATM   10  C10 UNL     1     -34.072  15.183  -6.611  1.00 20.00     0.015 C 
HETATM   11  C11 UNL     1     -36.182  15.439  -5.282  1.00 20.00     0.015 C 
ENDBRANCH   7   8
BRANCH   6  12
HETATM   12  C1  UNL     1     -33.950  17.834  -0.139  1.00 20.00     0.235 C 
HETATM   13  O13 UNL     1     -33.129  18.246   0.674  1.00 20.00    -0.306 OA
ENDBRANCH   6  12
TORSDOF 2
ENDMDL
MODEL 2
REMARK VINA RESULT:      -3.9     11.137     13.244
REMARK  2 active torsions:
REMARK  status: ('A' for Active; 'I' for Inactive)
REMARK    1  A    between atoms: C1_1  and  C7_7 
REMARK    2  A    between atoms: C8_8  and  C12_12 
ROOT
HETATM    1  C2  UNL     1     -42.734  14.481   5.291  1.00 20.00     0.001 C 
HETATM    2  C3  UNL     1     -41.543  13.745   4.677  1.00 20.00     0.011 C 
HETATM    3  C4  UNL     1     -40.285  13.474   6.916  1.00 20.00     0.012 C 
HETATM    4  C5  UNL     1     -42.308  15.592   6.248  1.00 20.00     0.005 C 
HETATM    5  C6  UNL     1     -41.413  13.791   7.898  1.00 20.00     0.006 C 
HETATM    6  C7  UNL     1     -40.794  12.813   5.630  1.00 20.00     0.047 C 
HETATM    7  C8  UNL     1     -42.096  15.153   7.704  1.00 20.00    -0.007 C 
ENDROOT
BRANCH   7   8
HETATM    8  C12 UNL     1     -41.344  16.252   8.463  1.00 20.00    -0.048 C 
HETATM    9  C9  UNL     1     -40.592  17.144   7.464  1.00 20.00     0.015 C 
HETATM   10  C10 UNL     1     -40.340  15.612   9.432  1.00 20.00     0.015 C 
HETATM   11  C11 UNL     1     -42.346  17.106   9.256  1.00 20.00     0.015 C 
ENDBRANCH   7   8
BRANCH   6  12
HETATM   12  C1  UNL     1     -39.616  12.235   4.902  1.00 20.00     0.235 C 
HETATM   13  O13 UNL     1     -38.466  12.289   5.324  1.00 20.00    -0.306 OA
ENDBRANCH   6  12
TORSDOF 2
ENDMDL
MODEL 3
REMARK VINA RESULT:      -3.9     11.136     13.242
REMARK  2 active torsions:
REMARK  status: ('A' for Active; 'I' for Inactive)
REMARK    1  A    between atoms: C1_1  and  C7_7 
REMARK    2  A    between atoms: C8_8  and  C12_12 
ROOT
HETATM    1  C2  UNL     1     -42.738  14.477   5.289  1.00 20.00     0.001 C 
HETATM    2  C3  UNL     1     -41.548  13.741   4.675  1.00 20.00     0.011 C 
HETATM    3  C4  UNL     1     -40.285  13.475   6.911  1.00 20.00     0.012 C 
HETATM    4  C5  UNL     1     -42.311  15.590   6.243  1.00 20.00     0.005 C 
HETATM    5  C6  UNL     1     -41.411  13.792   7.895  1.00 20.00     0.006 C 
HETATM    6  C7  UNL     1     -40.795  12.812   5.628  1.00 20.00     0.047 C 
HETATM    7  C8  UNL     1     -42.096  15.153   7.700  1.00 20.00    -0.007 C 
ENDROOT
BRANCH   7   8
HETATM    8  C12 UNL     1     -41.343  16.255   8.455  1.00 20.00    -0.048 C 
HETATM    9  C9  UNL     1     -40.331  15.617   9.419  1.00 20.00     0.015 C 
HETATM   10  C10 UNL     1     -42.342  17.105   9.254  1.00 20.00     0.015 C 
HETATM   11  C11 UNL     1     -40.600  17.149   7.451  1.00 20.00     0.015 C 
ENDBRANCH   7   8
BRANCH   6  12
HETATM   12  C1  UNL     1     -39.619  12.233   4.898  1.00 20.00     0.235 C 
HETATM   13  O13 UNL     1     -38.467  12.290   5.317  1.00 20.00    -0.306 OA
ENDBRANCH   6  12
TORSDOF 2
ENDMDL
MODEL 4
REMARK VINA RESULT:      -3.9      1.703      2.982
REMARK  2 active torsions:
REMARK  status: ('A' for Active; 'I' for Inactive)
REMARK    1  A    between atoms: C1_1  and  C7_7 
REMARK    2  A    between atoms: C8_8  and  C12_12 
ROOT
HETATM    1  C2  UNL     1     -33.765  15.117  -3.827  1.00 20.00     0.001 C 
HETATM    2  C3  UNL     1     -32.985  16.346  -3.362  1.00 20.00     0.011 C 
HETATM    3  C4  UNL     1     -34.485  18.036  -4.610  1.00 20.00     0.012 C 
HETATM    4  C5  UNL     1     -34.070  15.147  -5.323  1.00 20.00     0.005 C 
HETATM    5  C6  UNL     1     -35.688  17.146  -4.926  1.00 20.00     0.006 C 
HETATM    6  C7  UNL     1     -33.791  17.644  -3.303  1.00 20.00     0.047 C 
HETATM    7  C8  UNL     1     -35.374  15.862  -5.708  1.00 20.00    -0.007 C 
ENDROOT
BRANCH   7   8
HETATM    8  C12 UNL     1     -35.380  16.130  -7.218  1.00 20.00    -0.048 C 
HETATM    9  C9  UNL     1     -33.950  16.019  -7.766  1.00 20.00     0.015 C 
HETATM   10  C10 UNL     1     -35.922  17.541  -7.487  1.00 20.00     0.015 C 
HETATM   11  C11 UNL     1     -36.277  15.097  -7.918  1.00 20.00     0.015 C 
ENDBRANCH   7   8
BRANCH   6  12
HETATM   12  C1  UNL     1     -32.867  18.760  -2.909  1.00 20.00     0.235 C 
HETATM   13  O13 UNL     1     -32.106  18.700  -1.949  1.00 20.00    -0.306 OA
ENDBRANCH   6  12
TORSDOF 2
ENDMDL
MODEL 5
REMARK VINA RESULT:      -3.9     11.207     13.287
REMARK  2 active torsions:
REMARK  status: ('A' for Active; 'I' for Inactive)
REMARK    1  A    between atoms: C1_1  and  C7_7 
REMARK    2  A    between atoms: C8_8  and  C12_12 
ROOT
HETATM    1  C2  UNL     1     -42.810  14.556   5.312  1.00 20.00     0.001 C 
HETATM    2  C3  UNL     1     -41.627  13.803   4.704  1.00 20.00     0.011 C 
HETATM    3  C4  UNL     1     -40.361  13.554   6.940  1.00 20.00     0.012 C 
HETATM    4  C5  UNL     1     -42.372  15.677   6.252  1.00 20.00     0.005 C 
HETATM    5  C6  UNL     1     -41.482  13.893   7.923  1.00 20.00     0.006 C 
HETATM    6  C7  UNL     1     -40.880  12.880   5.666  1.00 20.00     0.047 C 
HETATM    7  C8  UNL     1     -42.157  15.256   7.713  1.00 20.00    -0.007 C 
ENDROOT
BRANCH   7   8
HETATM    8  C12 UNL     1     -41.393  16.361   8.453  1.00 20.00    -0.048 C 
HETATM    9  C9  UNL     1     -42.390  17.279   9.177  1.00 20.00     0.015 C 
HETATM   10  C10 UNL     1     -40.578  17.186   7.446  1.00 20.00     0.015 C 
HETATM   11  C11 UNL     1     -40.443  15.727   9.481  1.00 20.00     0.015 C 
ENDBRANCH   7   8
BRANCH   6  12
HETATM   12  C1  UNL     1     -39.710  12.283   4.941  1.00 20.00     0.235 C 
HETATM   13  O13 UNL     1     -38.622  12.075   5.467  1.00 20.00    -0.306 OA
ENDBRANCH   6  12
TORSDOF 2
ENDMDL
MODEL 6
REMARK VINA RESULT:      -3.7     11.448     13.513
REMARK  2 active torsions:
REMARK  status: ('A' for Active; 'I' for Inactive)
REMARK    1  A    between atoms: C1_1  and  C7_7 
REMARK    2  A    between atoms: C8_8  and  C12_12 
ROOT
HETATM    1  C2  UNL     1     -42.742  12.807   7.434  1.00 20.00     0.001 C 
HETATM    2  C3  UNL     1     -41.791  12.316   6.344  1.00 20.00     0.011 C 
HETATM    3  C4  UNL     1     -40.048  14.181   6.729  1.00 20.00     0.012 C 
HETATM    4  C5  UNL     1     -42.979  14.314   7.373  1.00 20.00     0.005 C 
HETATM    5  C6  UNL     1     -40.509  14.703   8.090  1.00 20.00     0.006 C 
HETATM    6  C7  UNL     1     -40.321  12.685   6.550  1.00 20.00     0.047 C 
HETATM    7  C8  UNL     1     -41.972  15.164   8.161  1.00 20.00    -0.007 C 
ENDROOT
BRANCH   7   8
HETATM    8  C12 UNL     1     -42.102  16.631   7.735  1.00 20.00    -0.048 C 
HETATM    9  C9  UNL     1     -42.426  16.705   6.236  1.00 20.00     0.015 C 
HETATM   10  C10 UNL     1     -40.780  17.364   8.008  1.00 20.00     0.015 C 
HETATM   11  C11 UNL     1     -43.230  17.300   8.536  1.00 20.00     0.015 C 
ENDBRANCH   7   8
BRANCH   6  12
HETATM   12  C1  UNL     1     -39.539  12.204   5.363  1.00 20.00     0.235 C 
HETATM   13  O13 UNL     1     -38.314  12.225   5.305  1.00 20.00    -0.306 OA
ENDBRANCH   6  12
TORSDOF 2
ENDMDL
MODEL 7
REMARK VINA RESULT:      -3.6      1.614      2.934
REMARK  2 active torsions:
REMARK  status: ('A' for Active; 'I' for Inactive)
REMARK    1  A    between atoms: C1_1  and  C7_7 
REMARK    2  A    between atoms: C8_8  and  C12_12 
ROOT
HETATM    1  C2  UNL     1     -33.481  16.102  -2.972  1.00 20.00     0.001 C 
HETATM    2  C3  UNL     1     -32.563  17.105  -2.274  1.00 20.00     0.011 C 
HETATM    3  C4  UNL     1     -34.075  19.143  -2.753  1.00 20.00     0.012 C 
HETATM    4  C5  UNL     1     -33.958  16.593  -4.337  1.00 20.00     0.005 C 
HETATM    5  C6  UNL     1     -35.368  18.430  -3.152  1.00 20.00     0.006 C 
HETATM    6  C7  UNL     1     -33.261  18.351  -1.726  1.00 20.00     0.047 C 
HETATM    7  C8  UNL     1     -35.242  17.434  -4.314  1.00 20.00    -0.007 C 
ENDROOT
BRANCH   7   8
HETATM    8  C12 UNL     1     -35.408  18.146  -5.662  1.00 20.00    -0.048 C 
HETATM    9  C9  UNL     1     -34.065  18.755  -6.090  1.00 20.00     0.015 C 
HETATM   10  C10 UNL     1     -36.456  19.261  -5.529  1.00 20.00     0.015 C 
HETATM   11  C11 UNL     1     -35.872  17.134  -6.722  1.00 20.00     0.015 C 
ENDBRANCH   7   8
BRANCH   6  12
HETATM   12  C1  UNL     1     -32.219  19.263  -1.147  1.00 20.00     0.235 C 
HETATM   13  O13 UNL     1     -31.109  18.882  -0.790  1.00 20.00    -0.306 OA
ENDBRANCH   6  12
TORSDOF 2
ENDMDL
MODEL 8
REMARK VINA RESULT:      -3.6     11.700     13.588
REMARK  2 active torsions:
REMARK  status: ('A' for Active; 'I' for Inactive)
REMARK    1  A    between atoms: C1_1  and  C7_7 
REMARK    2  A    between atoms: C8_8  and  C12_12 
ROOT
HETATM    1  C2  UNL     1     -42.887  12.956   7.741  1.00 20.00     0.001 C 
HETATM    2  C3  UNL     1     -42.092  12.342   6.589  1.00 20.00     0.011 C 
HETATM    3  C4  UNL     1     -40.259  14.160   6.604  1.00 20.00     0.012 C 
HETATM    4  C5  UNL     1     -43.083  14.462   7.581  1.00 20.00     0.005 C 
HETATM    5  C6  UNL     1     -40.533  14.807   7.961  1.00 20.00     0.006 C 
HETATM    6  C7  UNL     1     -40.598  12.666   6.585  1.00 20.00     0.047 C 
HETATM    7  C8  UNL     1     -41.961  15.331   8.168  1.00 20.00    -0.007 C 
ENDROOT
BRANCH   7   8
HETATM    8  C12 UNL     1     -42.098  16.764   7.639  1.00 20.00    -0.048 C 
HETATM    9  C9  UNL     1     -40.738  17.474   7.722  1.00 20.00     0.015 C 
HETATM   10  C10 UNL     1     -43.126  17.528   8.486  1.00 20.00     0.015 C 
HETATM   11  C11 UNL     1     -42.567  16.727   6.176  1.00 20.00     0.015 C 
ENDBRANCH   7   8
BRANCH   6  12
HETATM   12  C1  UNL     1     -39.983  12.060   5.358  1.00 20.00     0.235 C 
HETATM   13  O13 UNL     1     -38.775  12.038   5.147  1.00 20.00    -0.306 OA
ENDBRANCH   6  12
TORSDOF 2
ENDMDL
MODEL 9
REMARK VINA RESULT:      -3.4      2.883      5.030
REMARK  2 active torsions:
REMARK  status: ('A' for Active; 'I' for Inactive)
REMARK    1  A    between atoms: C1_1  and  C7_7 
REMARK    2  A    between atoms: C8_8  and  C12_12 
ROOT
HETATM    1  C2  UNL     1     -34.570  15.894  -5.646  1.00 20.00     0.001 C 
HETATM    2  C3  UNL     1     -36.076  15.636  -5.601  1.00 20.00     0.011 C 
HETATM    3  C4  UNL     1     -36.636  17.856  -4.407  1.00 20.00     0.012 C 
HETATM    4  C5  UNL     1     -34.018  16.384  -4.309  1.00 20.00     0.005 C 
HETATM    5  C6  UNL     1     -35.324  18.613  -4.618  1.00 20.00     0.006 C 
HETATM    6  C7  UNL     1     -36.949  16.891  -5.554  1.00 20.00     0.047 C 
HETATM    7  C8  UNL     1     -34.062  17.905  -4.105  1.00 20.00    -0.007 C 
ENDROOT
BRANCH   7   8
HETATM    8  C12 UNL     1     -33.821  18.227  -2.625  1.00 20.00    -0.048 C 
HETATM    9  C9  UNL     1     -35.071  18.897  -2.034  1.00 20.00     0.015 C 
HETATM   10  C10 UNL     1     -32.622  19.178  -2.494  1.00 20.00     0.015 C 
HETATM   11  C11 UNL     1     -33.528  16.927  -1.859  1.00 20.00     0.015 C 
ENDBRANCH   7   8
BRANCH   6  12
HETATM   12  C1  UNL     1     -38.383  16.467  -5.434  1.00 20.00     0.235 C 
HETATM   13  O13 UNL     1     -39.129  16.322  -6.397  1.00 20.00    -0.306 OA
ENDBRANCH   6  12
TORSDOF 2
ENDMDL
