MODEL 1
REMARK VINA RESULT:      -4.1      0.000      0.000
REMARK  2 active torsions:
REMARK  status: ('A' for Active; 'I' for Inactive)
REMARK    1  A    between atoms: C5_5  and  C6_6 
REMARK    2  A    between atoms: C6_6  and  S8_8 
ROOT
HETATM    1  C1  UNL     1     -34.878   5.253   4.759  1.00 20.00     0.027 C 
HETATM    2  C2  UNL     1     -33.835   6.094   4.028  1.00 20.00     0.009 C 
HETATM    3  C3  UNL     1     -34.609   5.244   6.257  1.00 20.00     0.167 C 
HETATM    4  C4  UNL     1     -33.506   7.340   6.183  1.00 20.00     0.172 C 
HETATM    5  C5  UNL     1     -33.712   7.480   4.673  1.00 20.00     0.019 C 
HETATM    6  O7  UNL     1     -34.560   6.575   6.770  1.00 20.00    -0.391 OA
ENDROOT
BRANCH   5   7
HETATM    7  C6  UNL     1     -32.585   8.285   4.035  1.00 20.00     0.077 C 
BRANCH   7   8
HETATM    8  S8  UNL     1     -32.140   7.580   2.428  1.00 20.00    -0.182 SA
HETATM    9  H20 UNL     1     -30.815   7.575   2.632  1.00 20.00     0.101 HD
ENDBRANCH   7   8
ENDBRANCH   5   7
TORSDOF 2
ENDMDL
MODEL 2
REMARK VINA RESULT:      -3.8      1.352      1.943
REMARK  2 active torsions:
REMARK  status: ('A' for Active; 'I' for Inactive)
REMARK    1  A    between atoms: C5_5  and  C6_6 
REMARK    2  A    between atoms: C6_6  and  S8_8 
ROOT
HETATM    1  C1  UNL     1     -34.614   5.661   6.404  1.00 20.00     0.027 C 
HETATM    2  C2  UNL     1     -34.114   7.096   6.263  1.00 20.00     0.009 C 
HETATM    3  C3  UNL     1     -35.035   5.103   5.052  1.00 20.00     0.167 C 
HETATM    4  C4  UNL     1     -33.567   6.543   3.876  1.00 20.00     0.172 C 
HETATM    5  C5  UNL     1     -33.050   7.191   5.163  1.00 20.00     0.019 C 
HETATM    6  O7  UNL     1     -33.965   5.192   4.113  1.00 20.00    -0.391 OA
ENDROOT
BRANCH   5   7
HETATM    7  C6  UNL     1     -32.633   8.638   4.924  1.00 20.00     0.077 C 
BRANCH   7   8
HETATM    8  S8  UNL     1     -32.492   8.966   3.149  1.00 20.00    -0.182 SA
HETATM    9  H20 UNL     1     -31.161   8.823   3.079  1.00 20.00     0.101 HD
ENDBRANCH   7   8
ENDBRANCH   5   7
TORSDOF 2
ENDMDL
MODEL 3
REMARK VINA RESULT:      -3.7      2.611      3.836
REMARK  2 active torsions:
REMARK  status: ('A' for Active; 'I' for Inactive)
REMARK    1  A    between atoms: C5_5  and  C6_6 
REMARK    2  A    between atoms: C6_6  and  S8_8 
ROOT
HETATM    1  C1  UNL     1     -32.640   8.603   4.690  1.00 20.00     0.027 C 
HETATM    2  C2  UNL     1     -33.551   7.529   5.278  1.00 20.00     0.009 C 
HETATM    3  C3  UNL     1     -31.618   7.984   3.747  1.00 20.00     0.167 C 
HETATM    4  C4  UNL     1     -33.026   6.144   3.250  1.00 20.00     0.172 C 
HETATM    5  C5  UNL     1     -34.142   6.656   4.165  1.00 20.00     0.019 C 
HETATM    6  O7  UNL     1     -32.266   7.232   2.722  1.00 20.00    -0.391 OA
ENDROOT
BRANCH   5   7
HETATM    7  C6  UNL     1     -34.953   5.501   4.744  1.00 20.00     0.077 C 
BRANCH   7   8
HETATM    8  S8  UNL     1     -34.548   5.263   6.493  1.00 20.00    -0.182 SA
HETATM    9  H20 UNL     1     -33.234   5.496   6.372  1.00 20.00     0.101 HD
ENDBRANCH   7   8
ENDBRANCH   5   7
TORSDOF 2
ENDMDL
MODEL 4
REMARK VINA RESULT:      -3.5      1.675      2.074
REMARK  2 active torsions:
REMARK  status: ('A' for Active; 'I' for Inactive)
REMARK    1  A    between atoms: C5_5  and  C6_6 
REMARK    2  A    between atoms: C6_6  and  S8_8 
ROOT
HETATM    1  C1  UNL     1     -33.400   5.187   3.053  1.00 20.00     0.027 C 
HETATM    2  C2  UNL     1     -33.032   6.508   3.722  1.00 20.00     0.009 C 
HETATM    3  C3  UNL     1     -33.798   4.150   4.093  1.00 20.00     0.167 C 
HETATM    4  C4  UNL     1     -34.493   5.805   5.640  1.00 20.00     0.172 C 
HETATM    5  C5  UNL     1     -34.139   6.950   4.688  1.00 20.00     0.019 C 
HETATM    6  O7  UNL     1     -34.863   4.635   4.909  1.00 20.00    -0.391 OA
ENDROOT
BRANCH   5   7
HETATM    7  C6  UNL     1     -33.730   8.202   5.458  1.00 20.00     0.077 C 
BRANCH   7   8
HETATM    8  S8  UNL     1     -32.249   8.937   4.721  1.00 20.00    -0.182 SA
HETATM    9  H20 UNL     1     -31.664   7.780   4.382  1.00 20.00     0.101 HD
ENDBRANCH   7   8
ENDBRANCH   5   7
TORSDOF 2
ENDMDL
MODEL 5
REMARK VINA RESULT:      -3.4      2.629      3.534
REMARK  2 active torsions:
REMARK  status: ('A' for Active; 'I' for Inactive)
REMARK    1  A    between atoms: C5_5  and  C6_6 
REMARK    2  A    between atoms: C6_6  and  S8_8 
ROOT
HETATM    1  C1  UNL     1     -32.345   7.206   3.040  1.00 20.00     0.027 C 
HETATM    2  C2  UNL     1     -33.320   6.625   4.061  1.00 20.00     0.009 C 
HETATM    3  C3  UNL     1     -32.461   8.722   2.988  1.00 20.00     0.167 C 
HETATM    4  C4  UNL     1     -33.242   8.850   5.222  1.00 20.00     0.172 C 
HETATM    5  C5  UNL     1     -33.170   7.333   5.413  1.00 20.00     0.019 C 
HETATM    6  O7  UNL     1     -32.260   9.289   4.282  1.00 20.00    -0.391 OA
ENDROOT
BRANCH   5   7
HETATM    7  C6  UNL     1     -34.223   6.852   6.406  1.00 20.00     0.077 C 
BRANCH   7   8
HETATM    8  S8  UNL     1     -34.720   5.153   6.021  1.00 20.00    -0.182 SA
HETATM    9  H20 UNL     1     -35.174   4.853   7.246  1.00 20.00     0.101 HD
ENDBRANCH   7   8
ENDBRANCH   5   7
TORSDOF 2
ENDMDL
MODEL 6
REMARK VINA RESULT:      -3.3     12.850     13.230
REMARK  2 active torsions:
REMARK  status: ('A' for Active; 'I' for Inactive)
REMARK    1  A    between atoms: C5_5  and  C6_6 
REMARK    2  A    between atoms: C6_6  and  S8_8 
ROOT
HETATM    1  C1  UNL     1     -33.209  18.090  -0.526  1.00 20.00     0.027 C 
HETATM    2  C2  UNL     1     -33.288  18.642   0.894  1.00 20.00     0.009 C 
HETATM    3  C3  UNL     1     -32.090  18.766  -1.305  1.00 20.00     0.167 C 
HETATM    4  C4  UNL     1     -30.863  19.251   0.663  1.00 20.00     0.172 C 
HETATM    5  C5  UNL     1     -31.911  18.597   1.567  1.00 20.00     0.019 C 
HETATM    6  O7  UNL     1     -30.844  18.629  -0.623  1.00 20.00    -0.391 OA
ENDROOT
BRANCH   5   7
HETATM    7  C6  UNL     1     -31.947  19.262   2.939  1.00 20.00     0.077 C 
BRANCH   7   8
HETATM    8  S8  UNL     1     -30.321  19.161   3.730  1.00 20.00    -0.182 SA
HETATM    9  H20 UNL     1     -30.081  20.480   3.740  1.00 20.00     0.101 HD
ENDBRANCH   7   8
ENDBRANCH   5   7
TORSDOF 2
ENDMDL
MODEL 7
REMARK VINA RESULT:      -3.2     12.710     13.114
REMARK  2 active torsions:
REMARK  status: ('A' for Active; 'I' for Inactive)
REMARK    1  A    between atoms: C5_5  and  C6_6 
REMARK    2  A    between atoms: C6_6  and  S8_8 
ROOT
HETATM    1  C1  UNL     1     -32.211  19.022   1.636  1.00 20.00     0.027 C 
HETATM    2  C2  UNL     1     -33.344  18.451   0.788  1.00 20.00     0.009 C 
HETATM    3  C3  UNL     1     -30.860  18.552   1.115  1.00 20.00     0.167 C 
HETATM    4  C4  UNL     1     -31.685  18.265  -1.087  1.00 20.00     0.172 C 
HETATM    5  C5  UNL     1     -33.093  18.724  -0.700  1.00 20.00     0.019 C 
HETATM    6  O7  UNL     1     -30.703  18.893  -0.261  1.00 20.00    -0.391 OA
ENDROOT
BRANCH   5   7
HETATM    7  C6  UNL     1     -34.151  18.050  -1.569  1.00 20.00     0.077 C 
BRANCH   7   8
HETATM    8  S8  UNL     1     -33.388  16.792  -2.625  1.00 20.00    -0.182 SA
HETATM    9  H20 UNL     1     -32.367  16.511  -1.804  1.00 20.00     0.101 HD
ENDBRANCH   7   8
ENDBRANCH   5   7
TORSDOF 2
ENDMDL
MODEL 8
REMARK VINA RESULT:      -3.1     15.685     16.047
REMARK  2 active torsions:
REMARK  status: ('A' for Active; 'I' for Inactive)
REMARK    1  A    between atoms: C5_5  and  C6_6 
REMARK    2  A    between atoms: C6_6  and  S8_8 
ROOT
HETATM    1  C1  UNL     1     -25.242  16.985  12.292  1.00 20.00     0.027 C 
HETATM    2  C2  UNL     1     -23.946  16.712  11.534  1.00 20.00     0.009 C 
HETATM    3  C3  UNL     1     -25.537  18.478  12.332  1.00 20.00     0.167 C 
HETATM    4  C4  UNL     1     -24.332  18.883  10.332  1.00 20.00     0.172 C 
HETATM    5  C5  UNL     1     -23.964  17.406  10.167  1.00 20.00     0.019 C 
HETATM    6  O7  UNL     1     -25.580  19.020  11.013  1.00 20.00    -0.391 OA
ENDROOT
BRANCH   5   7
HETATM    7  C6  UNL     1     -22.626  17.248   9.452  1.00 20.00     0.077 C 
BRANCH   7   8
HETATM    8  S8  UNL     1     -21.484  18.559   9.958  1.00 20.00    -0.182 SA
HETATM    9  H20 UNL     1     -20.611  17.758  10.585  1.00 20.00     0.101 HD
ENDBRANCH   7   8
ENDBRANCH   5   7
TORSDOF 2
ENDMDL
MODEL 9
REMARK VINA RESULT:      -3.1     12.872     13.693
REMARK  2 active torsions:
REMARK  status: ('A' for Active; 'I' for Inactive)
REMARK    1  A    between atoms: C5_5  and  C6_6 
REMARK    2  A    between atoms: C6_6  and  S8_8 
ROOT
HETATM    1  C1  UNL     1     -33.454  16.561  -3.343  1.00 20.00     0.027 C 
HETATM    2  C2  UNL     1     -33.494  16.897  -1.855  1.00 20.00     0.009 C 
HETATM    3  C3  UNL     1     -33.736  17.799  -4.182  1.00 20.00     0.167 C 
HETATM    4  C4  UNL     1     -32.935  19.260  -2.497  1.00 20.00     0.172 C 
HETATM    5  C5  UNL     1     -32.598  18.105  -1.551  1.00 20.00     0.019 C 
HETATM    6  O7  UNL     1     -32.823  18.847  -3.860  1.00 20.00    -0.391 OA
ENDROOT
BRANCH   5   7
HETATM    7  C6  UNL     1     -32.727  18.531  -0.092  1.00 20.00     0.077 C 
BRANCH   7   8
HETATM    8  S8  UNL     1     -31.092  18.631   0.680  1.00 20.00    -0.182 SA
HETATM    9  H20 UNL     1     -30.554  19.461  -0.224  1.00 20.00     0.101 HD
ENDBRANCH   7   8
ENDBRANCH   5   7
TORSDOF 2
ENDMDL
