MODEL 1
REMARK VINA RESULT:      -4.7      0.000      0.000
REMARK  2 active torsions:
REMARK  status: ('A' for Active; 'I' for Inactive)
REMARK    1  A    between atoms: C1_1  and  C7_7 
REMARK    2  A    between atoms: C8_8  and  C10_10 
ROOT
HETATM    1  C2  UNL     1     -32.632   8.371   4.859  1.00 20.00     0.001 C 
HETATM    2  C3  UNL     1     -32.422   8.932   3.454  1.00 20.00     0.011 C 
HETATM    3  C4  UNL     1     -32.317   6.556   2.469  1.00 20.00     0.012 C 
HETATM    4  C5  UNL     1     -33.846   7.463   5.028  1.00 20.00     0.004 C 
HETATM    5  C6  UNL     1     -33.371   5.713   3.191  1.00 20.00     0.005 C 
HETATM    6  C7  UNL     1     -32.755   8.014   2.269  1.00 20.00     0.047 C 
HETATM    7  C8  UNL     1     -33.536   6.003   4.683  1.00 20.00    -0.015 C 
ENDROOT
BRANCH   6   8
HETATM    8  C1  UNL     1     -32.117   8.589   0.998  1.00 20.00     0.235 C 
HETATM    9  O11 UNL     1     -32.611   9.506   0.349  1.00 20.00    -0.306 OA
ENDBRANCH   6   8
BRANCH   7  10
HETATM   10  C10 UNL     1     -34.649   5.140   5.201  1.00 20.00     0.000 C 
HETATM   11  C9  UNL     1     -34.875   5.358   6.658  1.00 20.00     0.005 C 
ENDBRANCH   7  10
TORSDOF 2
ENDMDL
MODEL 2
REMARK VINA RESULT:      -4.5      2.509      4.858
REMARK  2 active torsions:
REMARK  status: ('A' for Active; 'I' for Inactive)
REMARK    1  A    between atoms: C1_1  and  C7_7 
REMARK    2  A    between atoms: C8_8  and  C10_10 
ROOT
HETATM    1  C2  UNL     1     -32.863   5.241   2.874  1.00 20.00     0.001 C 
HETATM    2  C3  UNL     1     -33.750   5.310   4.116  1.00 20.00     0.011 C 
HETATM    3  C4  UNL     1     -32.784   7.614   4.736  1.00 20.00     0.012 C 
HETATM    4  C5  UNL     1     -33.032   6.388   1.883  1.00 20.00     0.004 C 
HETATM    5  C6  UNL     1     -32.615   8.405   3.438  1.00 20.00     0.005 C 
HETATM    6  C7  UNL     1     -34.016   6.697   4.719  1.00 20.00     0.047 C 
HETATM    7  C8  UNL     1     -32.152   7.593   2.228  1.00 20.00    -0.015 C 
ENDROOT
BRANCH   6   8
HETATM    8  C1  UNL     1     -34.568   6.525   6.139  1.00 20.00     0.235 C 
HETATM    9  O11 UNL     1     -34.869   5.438   6.621  1.00 20.00    -0.306 OA
ENDBRANCH   6   8
BRANCH   7  10
HETATM   10  C10 UNL     1     -32.109   8.512   1.043  1.00 20.00     0.000 C 
HETATM   11  C9  UNL     1     -32.953   9.722   1.261  1.00 20.00     0.005 C 
ENDBRANCH   7  10
TORSDOF 2
ENDMDL
MODEL 3
REMARK VINA RESULT:      -4.2     11.345     12.648
REMARK  2 active torsions:
REMARK  status: ('A' for Active; 'I' for Inactive)
REMARK    1  A    between atoms: C1_1  and  C7_7 
REMARK    2  A    between atoms: C8_8  and  C10_10 
ROOT
HETATM    1  C2  UNL     1     -34.143  18.402  -5.044  1.00 20.00     0.001 C 
HETATM    2  C3  UNL     1     -34.790  17.405  -6.004  1.00 20.00     0.011 C 
HETATM    3  C4  UNL     1     -33.587  15.442  -4.852  1.00 20.00     0.012 C 
HETATM    4  C5  UNL     1     -34.413  18.156  -3.563  1.00 20.00     0.004 C 
HETATM    5  C6  UNL     1     -33.601  15.716  -3.347  1.00 20.00     0.005 C 
HETATM    6  C7  UNL     1     -34.857  15.936  -5.559  1.00 20.00     0.047 C 
HETATM    7  C8  UNL     1     -33.411  17.178  -2.942  1.00 20.00    -0.015 C 
ENDROOT
BRANCH   6   8
HETATM    8  C1  UNL     1     -35.159  15.059  -6.780  1.00 20.00     0.235 C 
HETATM    9  O11 UNL     1     -36.048  14.214  -6.803  1.00 20.00    -0.306 OA
ENDBRANCH   6   8
BRANCH   7  10
HETATM   10  C10 UNL     1     -33.522  17.261  -1.447  1.00 20.00     0.000 C 
HETATM   11  C9  UNL     1     -32.462  18.138  -0.871  1.00 20.00     0.005 C 
ENDBRANCH   7  10
TORSDOF 2
ENDMDL
MODEL 4
REMARK VINA RESULT:      -4.1     11.450     12.798
REMARK  2 active torsions:
REMARK  status: ('A' for Active; 'I' for Inactive)
REMARK    1  A    between atoms: C1_1  and  C7_7 
REMARK    2  A    between atoms: C8_8  and  C10_10 
ROOT
HETATM    1  C2  UNL     1     -35.009  18.638  -3.787  1.00 20.00     0.001 C 
HETATM    2  C3  UNL     1     -33.995  19.130  -2.757  1.00 20.00     0.011 C 
HETATM    3  C4  UNL     1     -33.354  16.709  -2.160  1.00 20.00     0.012 C 
HETATM    4  C5  UNL     1     -34.445  17.746  -4.888  1.00 20.00     0.004 C 
HETATM    5  C6  UNL     1     -33.325  15.908  -3.463  1.00 20.00     0.005 C 
HETATM    6  C7  UNL     1     -32.880  18.159  -2.341  1.00 20.00     0.047 C 
HETATM    7  C8  UNL     1     -34.407  16.269  -4.481  1.00 20.00    -0.015 C 
ENDROOT
BRANCH   6   8
HETATM    8  C1  UNL     1     -32.230  18.670  -1.049  1.00 20.00     0.235 C 
HETATM    9  O11 UNL     1     -31.018  18.778  -0.899  1.00 20.00    -0.306 OA
ENDBRANCH   6   8
BRANCH   7  10
HETATM   10  C10 UNL     1     -34.180  15.438  -5.710  1.00 20.00     0.000 C 
HETATM   11  C9  UNL     1     -35.460  14.878  -6.233  1.00 20.00     0.005 C 
ENDBRANCH   7  10
TORSDOF 2
ENDMDL
MODEL 5
REMARK VINA RESULT:      -4.1     11.107     12.704
REMARK  2 active torsions:
REMARK  status: ('A' for Active; 'I' for Inactive)
REMARK    1  A    between atoms: C1_1  and  C7_7 
REMARK    2  A    between atoms: C8_8  and  C10_10 
ROOT
HETATM    1  C2  UNL     1     -33.866  14.777  -3.872  1.00 20.00     0.001 C 
HETATM    2  C3  UNL     1     -34.362  14.625  -5.309  1.00 20.00     0.011 C 
HETATM    3  C4  UNL     1     -35.596  16.880  -5.172  1.00 20.00     0.012 C 
HETATM    4  C5  UNL     1     -33.050  16.033  -3.589  1.00 20.00     0.004 C 
HETATM    5  C6  UNL     1     -34.701  17.846  -4.394  1.00 20.00     0.005 C 
HETATM    6  C7  UNL     1     -34.798  15.900  -6.045  1.00 20.00     0.047 C 
HETATM    7  C8  UNL     1     -33.931  17.233  -3.225  1.00 20.00    -0.015 C 
ENDROOT
BRANCH   6   8
HETATM    8  C1  UNL     1     -35.614  15.506  -7.282  1.00 20.00     0.235 C 
HETATM    9  O11 UNL     1     -36.098  14.390  -7.447  1.00 20.00    -0.306 OA
ENDBRANCH   6   8
BRANCH   7  10
HETATM   10  C10 UNL     1     -33.063  18.303  -2.631  1.00 20.00     0.000 C 
HETATM   11  C9  UNL     1     -32.595  17.930  -1.265  1.00 20.00     0.005 C 
ENDBRANCH   7  10
TORSDOF 2
ENDMDL
MODEL 6
REMARK VINA RESULT:      -3.7     11.420     12.564
REMARK  2 active torsions:
REMARK  status: ('A' for Active; 'I' for Inactive)
REMARK    1  A    between atoms: C1_1  and  C7_7 
REMARK    2  A    between atoms: C8_8  and  C10_10 
ROOT
HETATM    1  C2  UNL     1     -31.809  18.744  -0.657  1.00 20.00     0.001 C 
HETATM    2  C3  UNL     1     -32.610  18.841   0.641  1.00 20.00     0.011 C 
HETATM    3  C4  UNL     1     -34.782  19.263  -0.676  1.00 20.00     0.012 C 
HETATM    4  C5  UNL     1     -32.279  17.677  -1.639  1.00 20.00     0.004 C 
HETATM    5  C6  UNL     1     -34.754  18.357  -1.908  1.00 20.00     0.005 C 
HETATM    6  C7  UNL     1     -34.127  18.617   0.553  1.00 20.00     0.047 C 
HETATM    7  C8  UNL     1     -33.386  18.185  -2.568  1.00 20.00    -0.015 C 
ENDROOT
BRANCH   6   8
HETATM    8  C1  UNL     1     -34.783  19.138   1.839  1.00 20.00     0.235 C 
HETATM    9  O11 UNL     1     -35.941  18.889   2.156  1.00 20.00    -0.306 OA
ENDBRANCH   6   8
BRANCH   7  10
HETATM   10  C10 UNL     1     -33.540  17.219  -3.706  1.00 20.00     0.000 C 
HETATM   11  C9  UNL     1     -33.514  15.806  -3.229  1.00 20.00     0.005 C 
ENDBRANCH   7  10
TORSDOF 2
ENDMDL
MODEL 7
REMARK VINA RESULT:      -3.7     10.531     11.588
REMARK  2 active torsions:
REMARK  status: ('A' for Active; 'I' for Inactive)
REMARK    1  A    between atoms: C1_1  and  C7_7 
REMARK    2  A    between atoms: C8_8  and  C10_10 
ROOT
HETATM    1  C2  UNL     1     -42.534  14.166   5.303  1.00 20.00     0.001 C 
HETATM    2  C3  UNL     1     -42.455  15.551   5.944  1.00 20.00     0.011 C 
HETATM    3  C4  UNL     1     -41.223  14.587   7.988  1.00 20.00     0.012 C 
HETATM    4  C5  UNL     1     -41.196  13.470   5.080  1.00 20.00     0.004 C 
HETATM    5  C6  UNL     1     -40.238  13.535   7.476  1.00 20.00     0.005 C 
HETATM    6  C7  UNL     1     -41.386  15.771   7.024  1.00 20.00     0.047 C 
HETATM    7  C8  UNL     1     -40.736  12.681   6.309  1.00 20.00    -0.015 C 
ENDROOT
BRANCH   6   8
HETATM    8  C1  UNL     1     -41.721  17.048   7.804  1.00 20.00     0.235 C 
HETATM    9  O11 UNL     1     -40.890  17.691   8.438  1.00 20.00    -0.306 OA
ENDBRANCH   6   8
BRANCH   7  10
HETATM   10  C10 UNL     1     -39.621  11.762   5.902  1.00 20.00     0.000 C 
HETATM   11  C9  UNL     1     -39.367  11.831   4.434  1.00 20.00     0.005 C 
ENDBRANCH   7  10
TORSDOF 2
ENDMDL
MODEL 8
REMARK VINA RESULT:      -3.6      2.634      4.692
REMARK  2 active torsions:
REMARK  status: ('A' for Active; 'I' for Inactive)
REMARK    1  A    between atoms: C1_1  and  C7_7 
REMARK    2  A    between atoms: C8_8  and  C10_10 
ROOT
HETATM    1  C2  UNL     1     -33.466   8.585   5.095  1.00 20.00     0.001 C 
HETATM    2  C3  UNL     1     -33.730   7.383   6.000  1.00 20.00     0.011 C 
HETATM    3  C4  UNL     1     -34.158   5.878   3.956  1.00 20.00     0.012 C 
HETATM    4  C5  UNL     1     -32.342   8.406   4.079  1.00 20.00     0.004 C 
HETATM    5  C6  UNL     1     -33.142   6.265   2.880  1.00 20.00     0.005 C 
HETATM    6  C7  UNL     1     -33.591   5.985   5.378  1.00 20.00     0.047 C 
HETATM    7  C8  UNL     1     -32.828   7.758   2.779  1.00 20.00    -0.015 C 
ENDROOT
BRANCH   6   8
HETATM    8  C1  UNL     1     -34.267   4.961   6.298  1.00 20.00     0.235 C 
HETATM    9  O11 UNL     1     -35.241   5.220   6.997  1.00 20.00    -0.306 OA
ENDBRANCH   6   8
BRANCH   7  10
HETATM   10  C10 UNL     1     -31.771   7.938   1.729  1.00 20.00     0.000 C 
HETATM   11  C9  UNL     1     -32.300   8.673   0.544  1.00 20.00     0.005 C 
ENDBRANCH   7  10
TORSDOF 2
ENDMDL
MODEL 9
REMARK VINA RESULT:      -3.6     11.351     11.990
REMARK  2 active torsions:
REMARK  status: ('A' for Active; 'I' for Inactive)
REMARK    1  A    between atoms: C1_1  and  C7_7 
REMARK    2  A    between atoms: C8_8  and  C10_10 
ROOT
HETATM    1  C2  UNL     1     -33.643  18.695   1.393  1.00 20.00     0.001 C 
HETATM    2  C3  UNL     1     -33.974  17.985   0.081  1.00 20.00     0.011 C 
HETATM    3  C4  UNL     1     -31.823  18.889  -1.006  1.00 20.00     0.012 C 
HETATM    4  C5  UNL     1     -32.304  18.325   2.019  1.00 20.00     0.004 C 
HETATM    5  C6  UNL     1     -30.717  18.832   0.049  1.00 20.00     0.005 C 
HETATM    6  C7  UNL     1     -32.816  17.723  -0.893  1.00 20.00     0.047 C 
HETATM    7  C8  UNL     1     -31.150  19.171   1.475  1.00 20.00    -0.015 C 
ENDROOT
BRANCH   6   8
HETATM    8  C1  UNL     1     -33.392  17.382  -2.273  1.00 20.00     0.235 C 
HETATM    9  O11 UNL     1     -33.730  16.250  -2.603  1.00 20.00    -0.306 OA
ENDBRANCH   6   8
BRANCH   7  10
HETATM   10  C10 UNL     1     -29.960  18.996   2.373  1.00 20.00     0.000 C 
HETATM   11  C9  UNL     1     -30.309  19.261   3.798  1.00 20.00     0.005 C 
ENDBRANCH   7  10
TORSDOF 2
ENDMDL
