MODEL 1
REMARK VINA RESULT:      -5.3      0.000      0.000
REMARK  2 active torsions:
REMARK  status: ('A' for Active; 'I' for Inactive)
REMARK    1  A    between atoms: C4_4  and  C7_7 
REMARK    2  A    between atoms: C5_5  and  C8_8 
ROOT
HETATM    1  C1  UNL     1     -33.685   6.144   3.899  1.00 20.00     0.005 C 
HETATM    2  C2  UNL     1     -32.560   6.512   2.926  1.00 20.00     0.006 C 
HETATM    3  C3  UNL     1     -32.503   8.064   4.759  1.00 20.00     0.010 C 
HETATM    4  C4  UNL     1     -33.839   7.331   4.852  1.00 20.00    -0.014 C 
HETATM    5  C5  UNL     1     -32.117   7.932   3.285  1.00 20.00    -0.000 C 
ENDROOT
BRANCH   4   6
HETATM    6  C7  UNL     1     -34.191   6.916   6.272  1.00 20.00     0.000 C 
HETATM    7  C6  UNL     1     -34.596   5.477   6.351  1.00 20.00     0.005 C 
ENDBRANCH   4   6
BRANCH   5   8
HETATM    8  C8  UNL     1     -32.799   8.980   2.406  1.00 20.00     0.119 C 
HETATM    9 CL9  UNL     1     -32.383   8.719   0.701  1.00 20.00    -0.130 Cl
ENDBRANCH   5   8
TORSDOF 2
ENDMDL
MODEL 2
REMARK VINA RESULT:      -4.1      2.624      4.026
REMARK  2 active torsions:
REMARK  status: ('A' for Active; 'I' for Inactive)
REMARK    1  A    between atoms: C4_4  and  C7_7 
REMARK    2  A    between atoms: C5_5  and  C8_8 
ROOT
HETATM    1  C1  UNL     1     -32.383   6.466   3.031  1.00 20.00     0.005 C 
HETATM    2  C2  UNL     1     -33.422   5.350   2.886  1.00 20.00     0.006 C 
HETATM    3  C3  UNL     1     -34.328   7.033   4.341  1.00 20.00     0.010 C 
HETATM    4  C4  UNL     1     -32.837   7.332   4.208  1.00 20.00    -0.014 C 
HETATM    5  C5  UNL     1     -34.433   5.542   4.020  1.00 20.00    -0.000 C 
ENDROOT
BRANCH   4   6
HETATM    6  C7  UNL     1     -32.541   8.810   4.013  1.00 20.00     0.000 C 
HETATM    7  C6  UNL     1     -32.674   9.223   2.581  1.00 20.00     0.005 C 
ENDBRANCH   4   6
BRANCH   5   8
HETATM    8  C8  UNL     1     -34.109   4.660   5.225  1.00 20.00     0.119 C 
HETATM    9 CL9  UNL     1     -34.618   5.456   6.726  1.00 20.00    -0.130 Cl
ENDBRANCH   5   8
TORSDOF 2
ENDMDL
MODEL 3
REMARK VINA RESULT:      -4.1      1.499      2.120
REMARK  2 active torsions:
REMARK  status: ('A' for Active; 'I' for Inactive)
REMARK    1  A    between atoms: C4_4  and  C7_7 
REMARK    2  A    between atoms: C5_5  and  C8_8 
ROOT
HETATM    1  C1  UNL     1     -32.525   8.438   5.588  1.00 20.00     0.005 C 
HETATM    2  C2  UNL     1     -32.401   9.046   4.187  1.00 20.00     0.006 C 
HETATM    3  C3  UNL     1     -34.073   7.323   4.109  1.00 20.00     0.010 C 
HETATM    4  C4  UNL     1     -33.325   7.143   5.428  1.00 20.00    -0.014 C 
HETATM    5  C5  UNL     1     -33.074   8.067   3.222  1.00 20.00    -0.000 C 
ENDROOT
BRANCH   4   6
HETATM    6  C7  UNL     1     -34.250   6.863   6.602  1.00 20.00     0.000 C 
HETATM    7  C6  UNL     1     -34.807   5.475   6.557  1.00 20.00     0.005 C 
ENDBRANCH   4   6
BRANCH   5   8
HETATM    8  C8  UNL     1     -32.062   7.129   2.566  1.00 20.00     0.119 C 
HETATM    9 CL9  UNL     1     -32.716   5.482   2.475  1.00 20.00    -0.130 Cl
ENDBRANCH   5   8
TORSDOF 2
ENDMDL
MODEL 4
REMARK VINA RESULT:      -4.0      2.594      4.131
REMARK  2 active torsions:
REMARK  status: ('A' for Active; 'I' for Inactive)
REMARK    1  A    between atoms: C4_4  and  C7_7 
REMARK    2  A    between atoms: C5_5  and  C8_8 
ROOT
HETATM    1  C1  UNL     1     -33.363   5.854   3.264  1.00 20.00     0.005 C 
HETATM    2  C2  UNL     1     -34.601   5.819   4.165  1.00 20.00     0.006 C 
HETATM    3  C3  UNL     1     -33.684   8.038   4.238  1.00 20.00     0.010 C 
HETATM    4  C4  UNL     1     -32.620   7.150   3.598  1.00 20.00    -0.014 C 
HETATM    5  C5  UNL     1     -34.531   7.062   5.055  1.00 20.00    -0.000 C 
ENDROOT
BRANCH   4   6
HETATM    6  C7  UNL     1     -31.962   7.791   2.386  1.00 20.00     0.000 C 
HETATM    7  C6  UNL     1     -32.697   9.011   1.930  1.00 20.00     0.005 C 
ENDBRANCH   4   6
BRANCH   5   8
HETATM    8  C8  UNL     1     -33.914   6.751   6.418  1.00 20.00     0.119 C 
HETATM    9 CL9  UNL     1     -34.071   5.023   6.787  1.00 20.00    -0.130 Cl
ENDBRANCH   5   8
TORSDOF 2
ENDMDL
MODEL 5
REMARK VINA RESULT:      -3.9     11.425     11.967
REMARK  2 active torsions:
REMARK  status: ('A' for Active; 'I' for Inactive)
REMARK    1  A    between atoms: C4_4  and  C7_7 
REMARK    2  A    between atoms: C5_5  and  C8_8 
ROOT
HETATM    1  C1  UNL     1     -30.832  18.543   0.451  1.00 20.00     0.005 C 
HETATM    2  C2  UNL     1     -31.722  18.951  -0.728  1.00 20.00     0.006 C 
HETATM    3  C3  UNL     1     -32.974  19.263   1.298  1.00 20.00     0.010 C 
HETATM    4  C4  UNL     1     -31.752  18.425   1.668  1.00 20.00    -0.014 C 
HETATM    5  C5  UNL     1     -33.157  19.002  -0.197  1.00 20.00    -0.000 C 
ENDROOT
BRANCH   4   6
HETATM    6  C7  UNL     1     -31.093  18.874   2.962  1.00 20.00     0.000 C 
HETATM    7  C6  UNL     1     -29.609  18.686   2.929  1.00 20.00     0.005 C 
ENDBRANCH   4   6
BRANCH   5   8
HETATM    8  C8  UNL     1     -33.913  17.705  -0.477  1.00 20.00     0.119 C 
HETATM    9 CL9  UNL     1     -33.275  16.920  -1.934  1.00 20.00    -0.130 Cl
ENDBRANCH   5   8
TORSDOF 2
ENDMDL
MODEL 6
REMARK VINA RESULT:      -3.8     11.416     12.222
REMARK  2 active torsions:
REMARK  status: ('A' for Active; 'I' for Inactive)
REMARK    1  A    between atoms: C4_4  and  C7_7 
REMARK    2  A    between atoms: C5_5  and  C8_8 
ROOT
HETATM    1  C1  UNL     1     -33.941  17.672  -0.384  1.00 20.00     0.005 C 
HETATM    2  C2  UNL     1     -33.362  18.788   0.492  1.00 20.00     0.006 C 
HETATM    3  C3  UNL     1     -32.296  18.895  -1.658  1.00 20.00     0.010 C 
HETATM    4  C4  UNL     1     -33.016  17.550  -1.597  1.00 20.00    -0.014 C 
HETATM    5  C5  UNL     1     -32.074  19.257  -0.190  1.00 20.00    -0.000 C 
ENDROOT
BRANCH   4   6
HETATM    6  C7  UNL     1     -33.756  17.213  -2.882  1.00 20.00     0.000 C 
HETATM    7  C6  UNL     1     -33.368  15.870  -3.416  1.00 20.00     0.005 C 
ENDBRANCH   4   6
BRANCH   5   8
HETATM    8  C8  UNL     1     -30.839  18.578   0.400  1.00 20.00     0.119 C 
HETATM    9 CL9  UNL     1     -31.065  18.283   2.134  1.00 20.00    -0.130 Cl
ENDBRANCH   5   8
TORSDOF 2
ENDMDL
MODEL 7
REMARK VINA RESULT:      -3.8      2.507      4.449
REMARK  2 active torsions:
REMARK  status: ('A' for Active; 'I' for Inactive)
REMARK    1  A    between atoms: C4_4  and  C7_7 
REMARK    2  A    between atoms: C5_5  and  C8_8 
ROOT
HETATM    1  C1  UNL     1     -32.582   9.150   3.568  1.00 20.00     0.005 C 
HETATM    2  C2  UNL     1     -32.626   8.442   4.925  1.00 20.00     0.006 C 
HETATM    3  C3  UNL     1     -32.458   6.766   3.211  1.00 20.00     0.010 C 
HETATM    4  C4  UNL     1     -32.821   8.072   2.508  1.00 20.00    -0.014 C 
HETATM    5  C5  UNL     1     -32.953   6.973   4.643  1.00 20.00    -0.000 C 
ENDROOT
BRANCH   4   6
HETATM    6  C7  UNL     1     -32.026   8.301   1.232  1.00 20.00     0.000 C 
HETATM    7  C6  UNL     1     -32.704   9.271   0.317  1.00 20.00     0.005 C 
ENDBRANCH   4   6
BRANCH   5   8
HETATM    8  C8  UNL     1     -34.446   6.684   4.793  1.00 20.00     0.119 C 
HETATM    9 CL9  UNL     1     -34.742   5.698   6.237  1.00 20.00    -0.130 Cl
ENDBRANCH   5   8
TORSDOF 2
ENDMDL
MODEL 8
REMARK VINA RESULT:      -3.7     11.370     12.216
REMARK  2 active torsions:
REMARK  status: ('A' for Active; 'I' for Inactive)
REMARK    1  A    between atoms: C4_4  and  C7_7 
REMARK    2  A    between atoms: C5_5  and  C8_8 
ROOT
HETATM    1  C1  UNL     1     -32.585  19.060  -2.553  1.00 20.00     0.005 C 
HETATM    2  C2  UNL     1     -33.549  18.417  -3.556  1.00 20.00     0.006 C 
HETATM    3  C3  UNL     1     -33.685  17.192  -1.493  1.00 20.00     0.010 C 
HETATM    4  C4  UNL     1     -32.441  18.072  -1.394  1.00 20.00    -0.014 C 
HETATM    5  C5  UNL     1     -33.903  17.035  -2.998  1.00 20.00    -0.000 C 
ENDROOT
BRANCH   4   6
HETATM    6  C7  UNL     1     -32.300  18.752  -0.042  1.00 20.00     0.000 C 
HETATM    7  C6  UNL     1     -30.964  18.489   0.580  1.00 20.00     0.005 C 
ENDBRANCH   4   6
BRANCH   5   8
HETATM    8  C8  UNL     1     -33.031  15.937  -3.604  1.00 20.00     0.119 C 
HETATM    9 CL9  UNL     1     -34.023  14.537  -4.052  1.00 20.00    -0.130 Cl
ENDBRANCH   5   8
TORSDOF 2
ENDMDL
MODEL 9
REMARK VINA RESULT:      -3.7      0.945      1.737
REMARK  2 active torsions:
REMARK  status: ('A' for Active; 'I' for Inactive)
REMARK    1  A    between atoms: C4_4  and  C7_7 
REMARK    2  A    between atoms: C5_5  and  C8_8 
ROOT
HETATM    1  C1  UNL     1     -32.547   8.256   5.779  1.00 20.00     0.005 C 
HETATM    2  C2  UNL     1     -32.384   9.116   4.522  1.00 20.00     0.006 C 
HETATM    3  C3  UNL     1     -34.097   7.486   4.097  1.00 20.00     0.010 C 
HETATM    4  C4  UNL     1     -33.376   7.038   5.366  1.00 20.00    -0.014 C 
HETATM    5  C5  UNL     1     -33.066   8.358   3.380  1.00 20.00    -0.000 C 
ENDROOT
BRANCH   4   6
HETATM    6  C7  UNL     1     -34.327   6.565   6.455  1.00 20.00     0.000 C 
HETATM    7  C6  UNL     1     -34.829   5.179   6.195  1.00 20.00     0.005 C 
ENDBRANCH   4   6
BRANCH   5   8
HETATM    8  C8  UNL     1     -32.067   7.534   2.569  1.00 20.00     0.119 C 
HETATM    9 CL9  UNL     1     -31.976   8.140   0.904  1.00 20.00    -0.130 Cl
ENDBRANCH   5   8
TORSDOF 2
ENDMDL
