MODEL 1
REMARK VINA RESULT:      -4.0      0.000      0.000
REMARK  2 active torsions:
REMARK  status: ('A' for Active; 'I' for Inactive)
REMARK    1  A    between atoms: C5_5  and  C6_6 
REMARK    2  A    between atoms: C6_6  and  S8_8 
ROOT
HETATM    1  C1  UNL     1     -34.620   6.268   6.594  1.00 20.00     0.027 C 
HETATM    2  C2  UNL     1     -33.561   7.246   6.094  1.00 20.00     0.009 C 
HETATM    3  C3  UNL     1     -34.582   4.975   5.790  1.00 20.00     0.167 C 
HETATM    4  C4  UNL     1     -33.680   6.058   3.885  1.00 20.00     0.172 C 
HETATM    5  C5  UNL     1     -33.666   7.425   4.575  1.00 20.00     0.019 C 
HETATM    6  O7  UNL     1     -34.735   5.243   4.397  1.00 20.00    -0.391 OA
ENDROOT
BRANCH   5   7
HETATM    7  C6  UNL     1     -32.537   8.300   4.044  1.00 20.00     0.077 C 
BRANCH   7   8
HETATM    8  S8  UNL     1     -32.149   7.856   2.332  1.00 20.00    -0.182 SA
HETATM    9  H20 UNL     1     -31.203   8.788   2.150  1.00 20.00     0.101 HD
ENDBRANCH   7   8
ENDBRANCH   5   7
TORSDOF 2
ENDMDL
MODEL 2
REMARK VINA RESULT:      -3.5      2.574      3.821
REMARK  2 active torsions:
REMARK  status: ('A' for Active; 'I' for Inactive)
REMARK    1  A    between atoms: C5_5  and  C6_6 
REMARK    2  A    between atoms: C6_6  and  S8_8 
ROOT
HETATM    1  C1  UNL     1     -32.219   7.530   2.920  1.00 20.00     0.027 C 
HETATM    2  C2  UNL     1     -32.975   6.265   3.317  1.00 20.00     0.009 C 
HETATM    3  C3  UNL     1     -31.867   8.355   4.151  1.00 20.00     0.167 C 
HETATM    4  C4  UNL     1     -33.691   7.488   5.390  1.00 20.00     0.172 C 
HETATM    5  C5  UNL     1     -34.160   6.608   4.227  1.00 20.00     0.019 C 
HETATM    6  O7  UNL     1     -33.038   8.662   4.905  1.00 20.00    -0.391 OA
ENDROOT
BRANCH   5   7
HETATM    7  C6  UNL     1     -34.849   5.346   4.733  1.00 20.00     0.077 C 
BRANCH   7   8
HETATM    8  S8  UNL     1     -34.578   5.152   6.513  1.00 20.00    -0.182 SA
HETATM    9  H20 UNL     1     -33.404   5.796   6.553  1.00 20.00     0.101 HD
ENDBRANCH   7   8
ENDBRANCH   5   7
TORSDOF 2
ENDMDL
MODEL 3
REMARK VINA RESULT:      -3.4      1.161      1.872
REMARK  2 active torsions:
REMARK  status: ('A' for Active; 'I' for Inactive)
REMARK    1  A    between atoms: C5_5  and  C6_6 
REMARK    2  A    between atoms: C6_6  and  S8_8 
ROOT
HETATM    1  C1  UNL     1     -34.178   5.085   4.345  1.00 20.00     0.027 C 
HETATM    2  C2  UNL     1     -33.638   6.459   3.962  1.00 20.00     0.009 C 
HETATM    3  C3  UNL     1     -35.136   5.192   5.525  1.00 20.00     0.167 C 
HETATM    4  C4  UNL     1     -34.101   7.168   6.326  1.00 20.00     0.172 C 
HETATM    5  C5  UNL     1     -33.072   7.179   5.192  1.00 20.00     0.019 C 
HETATM    6  O7  UNL     1     -34.503   5.832   6.632  1.00 20.00    -0.391 OA
ENDROOT
BRANCH   5   7
HETATM    7  C6  UNL     1     -32.643   8.601   4.849  1.00 20.00     0.077 C 
BRANCH   7   8
HETATM    8  S8  UNL     1     -32.458   8.787   3.058  1.00 20.00    -0.182 SA
HETATM    9  H20 UNL     1     -33.724   9.156   2.818  1.00 20.00     0.101 HD
ENDBRANCH   7   8
ENDBRANCH   5   7
TORSDOF 2
ENDMDL
MODEL 4
REMARK VINA RESULT:      -3.2     12.772     13.225
REMARK  2 active torsions:
REMARK  status: ('A' for Active; 'I' for Inactive)
REMARK    1  A    between atoms: C5_5  and  C6_6 
REMARK    2  A    between atoms: C6_6  and  S8_8 
ROOT
HETATM    1  C1  UNL     1     -32.034  18.529   1.526  1.00 20.00     0.027 C 
HETATM    2  C2  UNL     1     -33.323  18.525   0.709  1.00 20.00     0.009 C 
HETATM    3  C3  UNL     1     -30.926  19.263   0.780  1.00 20.00     0.167 C 
HETATM    4  C4  UNL     1     -31.887  18.792  -1.334  1.00 20.00     0.172 C 
HETATM    5  C5  UNL     1     -33.057  18.022  -0.715  1.00 20.00     0.019 C 
HETATM    6  O7  UNL     1     -30.724  18.693  -0.511  1.00 20.00    -0.391 OA
ENDROOT
BRANCH   5   7
HETATM    7  C6  UNL     1     -34.308  18.130  -1.579  1.00 20.00     0.077 C 
BRANCH   7   8
HETATM    8  S8  UNL     1     -33.922  17.715  -3.299  1.00 20.00    -0.182 SA
HETATM    9  H20 UNL     1     -32.789  17.049  -3.038  1.00 20.00     0.101 HD
ENDBRANCH   7   8
ENDBRANCH   5   7
TORSDOF 2
ENDMDL
MODEL 5
REMARK VINA RESULT:      -3.2      2.389      3.514
REMARK  2 active torsions:
REMARK  status: ('A' for Active; 'I' for Inactive)
REMARK    1  A    between atoms: C5_5  and  C6_6 
REMARK    2  A    between atoms: C6_6  and  S8_8 
ROOT
HETATM    1  C1  UNL     1     -32.233   9.191   4.152  1.00 20.00     0.027 C 
HETATM    2  C2  UNL     1     -33.211   8.765   5.243  1.00 20.00     0.009 C 
HETATM    3  C3  UNL     1     -32.468   8.392   2.876  1.00 20.00     0.167 C 
HETATM    4  C4  UNL     1     -33.378   6.555   4.063  1.00 20.00     0.172 C 
HETATM    5  C5  UNL     1     -33.193   7.242   5.419  1.00 20.00     0.019 C 
HETATM    6  O7  UNL     1     -32.385   6.992   3.135  1.00 20.00    -0.391 OA
ENDROOT
BRANCH   5   7
HETATM    7  C6  UNL     1     -34.255   6.791   6.416  1.00 20.00     0.077 C 
BRANCH   7   8
HETATM    8  S8  UNL     1     -34.767   5.090   6.062  1.00 20.00    -0.182 SA
HETATM    9  H20 UNL     1     -36.079   5.349   5.970  1.00 20.00     0.101 HD
ENDBRANCH   7   8
ENDBRANCH   5   7
TORSDOF 2
ENDMDL
MODEL 6
REMARK VINA RESULT:      -3.1     12.689     13.171
REMARK  2 active torsions:
REMARK  status: ('A' for Active; 'I' for Inactive)
REMARK    1  A    between atoms: C5_5  and  C6_6 
REMARK    2  A    between atoms: C6_6  and  S8_8 
ROOT
HETATM    1  C1  UNL     1     -33.959  18.124  -0.966  1.00 20.00     0.027 C 
HETATM    2  C2  UNL     1     -33.621  18.190   0.521  1.00 20.00     0.009 C 
HETATM    3  C3  UNL     1     -32.707  17.859  -1.791  1.00 20.00     0.167 C 
HETATM    4  C4  UNL     1     -31.292  18.833  -0.160  1.00 20.00     0.172 C 
HETATM    5  C5  UNL     1     -32.464  19.164   0.769  1.00 20.00     0.019 C 
HETATM    6  O7  UNL     1     -31.709  18.843  -1.525  1.00 20.00    -0.391 OA
ENDROOT
BRANCH   5   7
HETATM    7  C6  UNL     1     -32.032  19.146   2.231  1.00 20.00     0.077 C 
BRANCH   7   8
HETATM    8  S8  UNL     1     -30.268  18.763   2.361  1.00 20.00    -0.182 SA
HETATM    9  H20 UNL     1     -30.371  17.955   3.425  1.00 20.00     0.101 HD
ENDBRANCH   7   8
ENDBRANCH   5   7
TORSDOF 2
ENDMDL
MODEL 7
REMARK VINA RESULT:      -3.1     12.798     13.637
REMARK  2 active torsions:
REMARK  status: ('A' for Active; 'I' for Inactive)
REMARK    1  A    between atoms: C5_5  and  C6_6 
REMARK    2  A    between atoms: C6_6  and  S8_8 
ROOT
HETATM    1  C1  UNL     1     -32.684  17.772  -1.075  1.00 20.00     0.027 C 
HETATM    2  C2  UNL     1     -33.661  16.999  -1.957  1.00 20.00     0.009 C 
HETATM    3  C3  UNL     1     -32.558  19.215  -1.549  1.00 20.00     0.167 C 
HETATM    4  C4  UNL     1     -33.140  18.650  -3.775  1.00 20.00     0.172 C 
HETATM    5  C5  UNL     1     -33.299  17.165  -3.438  1.00 20.00     0.019 C 
HETATM    6  O7  UNL     1     -32.173  19.263  -2.922  1.00 20.00    -0.391 OA
ENDROOT
BRANCH   5   7
HETATM    7  C6  UNL     1     -34.337  16.502  -4.336  1.00 20.00     0.077 C 
BRANCH   7   8
HETATM    8  S8  UNL     1     -33.960  14.743  -4.541  1.00 20.00    -0.182 SA
HETATM    9  H20 UNL     1     -32.782  14.771  -3.903  1.00 20.00     0.101 HD
ENDBRANCH   7   8
ENDBRANCH   5   7
TORSDOF 2
ENDMDL
MODEL 8
REMARK VINA RESULT:      -3.0     12.702     13.098
REMARK  2 active torsions:
REMARK  status: ('A' for Active; 'I' for Inactive)
REMARK    1  A    between atoms: C5_5  and  C6_6 
REMARK    2  A    between atoms: C6_6  and  S8_8 
ROOT
HETATM    1  C1  UNL     1     -32.475  18.059  -1.182  1.00 20.00     0.027 C 
HETATM    2  C2  UNL     1     -31.288  18.553  -0.361  1.00 20.00     0.009 C 
HETATM    3  C3  UNL     1     -33.762  18.738  -0.731  1.00 20.00     0.167 C 
HETATM    4  C4  UNL     1     -32.929  19.108   1.456  1.00 20.00     0.172 C 
HETATM    5  C5  UNL     1     -31.586  18.444   1.139  1.00 20.00     0.019 C 
HETATM    6  O7  UNL     1     -33.974  18.540   0.666  1.00 20.00    -0.391 OA
ENDROOT
BRANCH   5   7
HETATM    7  C6  UNL     1     -30.461  19.050   1.970  1.00 20.00     0.077 C 
BRANCH   7   8
HETATM    8  S8  UNL     1     -30.956  19.167   3.708  1.00 20.00    -0.182 SA
HETATM    9  H20 UNL     1     -31.651  20.306   3.586  1.00 20.00     0.101 HD
ENDBRANCH   7   8
ENDBRANCH   5   7
TORSDOF 2
ENDMDL
MODEL 9
REMARK VINA RESULT:      -3.0     12.730     13.574
REMARK  2 active torsions:
REMARK  status: ('A' for Active; 'I' for Inactive)
REMARK    1  A    between atoms: C5_5  and  C6_6 
REMARK    2  A    between atoms: C6_6  and  S8_8 
ROOT
HETATM    1  C1  UNL     1     -32.918  18.034  -1.661  1.00 20.00     0.027 C 
HETATM    2  C2  UNL     1     -33.469  16.665  -2.050  1.00 20.00     0.009 C 
HETATM    3  C3  UNL     1     -33.432  19.110  -2.609  1.00 20.00     0.167 C 
HETATM    4  C4  UNL     1     -33.728  17.564  -4.380  1.00 20.00     0.172 C 
HETATM    5  C5  UNL     1     -33.225  16.387  -3.538  1.00 20.00     0.019 C 
HETATM    6  O7  UNL     1     -33.116  18.784  -3.961  1.00 20.00    -0.391 OA
ENDROOT
BRANCH   5   7
HETATM    7  C6  UNL     1     -33.880  15.080  -3.969  1.00 20.00     0.077 C 
BRANCH   7   8
HETATM    8  S8  UNL     1     -34.372  15.168  -5.710  1.00 20.00    -0.182 SA
HETATM    9  H20 UNL     1     -33.142  15.382  -6.198  1.00 20.00     0.101 HD
ENDBRANCH   7   8
ENDBRANCH   5   7
TORSDOF 2
ENDMDL
