MODEL 1
REMARK VINA RESULT:      -4.5      0.000      0.000
REMARK  2 active torsions:
REMARK  status: ('A' for Active; 'I' for Inactive)
REMARK    1  A    between atoms: C1_1  and  C7_7 
REMARK    2  A    between atoms: C8_8  and  C11_11 
ROOT
HETATM    1  C2  UNL     1     -34.130  14.525  -4.469  1.00 20.00     0.001 C 
HETATM    2  C3  UNL     1     -33.909  14.997  -5.905  1.00 20.00     0.011 C 
HETATM    3  C4  UNL     1     -35.641  16.846  -5.277  1.00 20.00     0.012 C 
HETATM    4  C5  UNL     1     -33.643  15.489  -3.381  1.00 20.00     0.005 C 
HETATM    5  C6  UNL     1     -34.831  17.612  -4.232  1.00 20.00     0.005 C 
HETATM    6  C7  UNL     1     -34.813  16.156  -6.367  1.00 20.00     0.047 C 
HETATM    7  C8  UNL     1     -33.517  16.969  -3.770  1.00 20.00    -0.011 C 
ENDROOT
BRANCH   7   8
HETATM    8  C11 UNL     1     -32.944  17.768  -2.593  1.00 20.00    -0.019 C 
HETATM    9  C9  UNL     1     -33.011  19.262  -2.884  1.00 20.00     0.010 C 
HETATM   10  C10 UNL     1     -33.692  17.430  -1.308  1.00 20.00     0.010 C 
ENDBRANCH   7   8
BRANCH   6  11
HETATM   11  C1  UNL     1     -35.764  15.632  -7.404  1.00 20.00     0.235 C 
HETATM   12  O12 UNL     1     -36.117  14.459  -7.465  1.00 20.00    -0.306 OA
ENDBRANCH   6  11
TORSDOF 2
ENDMDL
MODEL 2
REMARK VINA RESULT:      -4.5     11.444     13.009
REMARK  2 active torsions:
REMARK  status: ('A' for Active; 'I' for Inactive)
REMARK    1  A    between atoms: C1_1  and  C7_7 
REMARK    2  A    between atoms: C8_8  and  C11_11 
ROOT
HETATM    1  C2  UNL     1     -33.044   5.379   3.407  1.00 20.00     0.001 C 
HETATM    2  C3  UNL     1     -34.373   5.783   4.042  1.00 20.00     0.011 C 
HETATM    3  C4  UNL     1     -32.931   7.577   5.272  1.00 20.00     0.012 C 
HETATM    4  C5  UNL     1     -32.421   6.423   2.472  1.00 20.00     0.005 C 
HETATM    5  C6  UNL     1     -32.518   8.437   4.078  1.00 20.00     0.005 C 
HETATM    6  C7  UNL     1     -34.283   6.870   5.130  1.00 20.00     0.047 C 
HETATM    7  C8  UNL     1     -32.843   7.884   2.685  1.00 20.00    -0.011 C 
ENDROOT
BRANCH   7   8
HETATM    8  C11 UNL     1     -32.190   8.773   1.618  1.00 20.00    -0.019 C 
HETATM    9  C9  UNL     1     -31.919   7.969   0.352  1.00 20.00     0.010 C 
HETATM   10  C10 UNL     1     -33.074   9.978   1.318  1.00 20.00     0.010 C 
ENDBRANCH   7   8
BRANCH   6  11
HETATM   11  C1  UNL     1     -34.617   6.245   6.454  1.00 20.00     0.235 C 
HETATM   12  O12 UNL     1     -34.351   5.081   6.737  1.00 20.00    -0.306 OA
ENDBRANCH   6  11
TORSDOF 2
ENDMDL
MODEL 3
REMARK VINA RESULT:      -4.3      1.001      2.019
REMARK  2 active torsions:
REMARK  status: ('A' for Active; 'I' for Inactive)
REMARK    1  A    between atoms: C1_1  and  C7_7 
REMARK    2  A    between atoms: C8_8  and  C11_11 
ROOT
HETATM    1  C2  UNL     1     -34.524  17.953  -5.483  1.00 20.00     0.001 C 
HETATM    2  C3  UNL     1     -35.685  16.975  -5.307  1.00 20.00     0.011 C 
HETATM    3  C4  UNL     1     -33.794  15.232  -4.861  1.00 20.00     0.012 C 
HETATM    4  C5  UNL     1     -33.707  18.233  -4.216  1.00 20.00     0.005 C 
HETATM    5  C6  UNL     1     -33.237  15.788  -3.552  1.00 20.00     0.005 C 
HETATM    6  C7  UNL     1     -35.283  15.502  -5.103  1.00 20.00     0.047 C 
HETATM    7  C8  UNL     1     -33.748  17.165  -3.113  1.00 20.00    -0.011 C 
ENDROOT
BRANCH   7   8
HETATM    8  C11 UNL     1     -32.946  17.645  -1.896  1.00 20.00    -0.019 C 
HETATM    9  C9  UNL     1     -32.436  19.063  -2.124  1.00 20.00     0.010 C 
HETATM   10  C10 UNL     1     -33.799  17.569  -0.635  1.00 20.00     0.010 C 
ENDBRANCH   7   8
BRANCH   6  11
HETATM   11  C1  UNL     1     -35.700  14.724  -6.318  1.00 20.00     0.235 C 
HETATM   12  O12 UNL     1     -35.132  14.808  -7.402  1.00 20.00    -0.306 OA
ENDBRANCH   6  11
TORSDOF 2
ENDMDL
MODEL 4
REMARK VINA RESULT:      -4.3      2.838      5.148
REMARK  2 active torsions:
REMARK  status: ('A' for Active; 'I' for Inactive)
REMARK    1  A    between atoms: C1_1  and  C7_7 
REMARK    2  A    between atoms: C8_8  and  C11_11 
ROOT
HETATM    1  C2  UNL     1     -35.303  18.328  -3.875  1.00 20.00     0.001 C 
HETATM    2  C3  UNL     1     -33.903  18.924  -3.744  1.00 20.00     0.011 C 
HETATM    3  C4  UNL     1     -33.378  16.719  -2.452  1.00 20.00     0.012 C 
HETATM    4  C5  UNL     1     -35.398  17.064  -4.738  1.00 20.00     0.005 C 
HETATM    5  C6  UNL     1     -33.528  15.712  -3.592  1.00 20.00     0.005 C 
HETATM    6  C7  UNL     1     -32.920  18.118  -2.874  1.00 20.00     0.047 C 
HETATM    7  C8  UNL     1     -34.113  16.241  -4.907  1.00 20.00    -0.011 C 
ENDROOT
BRANCH   7   8
HETATM    8  C11 UNL     1     -34.371  15.066  -5.860  1.00 20.00    -0.019 C 
HETATM    9  C9  UNL     1     -35.813  14.589  -5.735  1.00 20.00     0.010 C 
HETATM   10  C10 UNL     1     -34.054  15.469  -7.296  1.00 20.00     0.010 C 
ENDBRANCH   7   8
BRANCH   6  11
HETATM   11  C1  UNL     1     -32.635  18.905  -1.627  1.00 20.00     0.235 C 
HETATM   12  O12 UNL     1     -31.504  19.093  -1.190  1.00 20.00    -0.306 OA
ENDBRANCH   6  11
TORSDOF 2
ENDMDL
MODEL 5
REMARK VINA RESULT:      -4.2     11.256     12.792
REMARK  2 active torsions:
REMARK  status: ('A' for Active; 'I' for Inactive)
REMARK    1  A    between atoms: C1_1  and  C7_7 
REMARK    2  A    between atoms: C8_8  and  C11_11 
ROOT
HETATM    1  C2  UNL     1     -32.197   8.819   4.401  1.00 20.00     0.001 C 
HETATM    2  C3  UNL     1     -32.812   9.155   3.044  1.00 20.00     0.011 C 
HETATM    3  C4  UNL     1     -32.356   6.640   2.518  1.00 20.00     0.012 C 
HETATM    4  C5  UNL     1     -33.010   7.847   5.265  1.00 20.00     0.005 C 
HETATM    5  C6  UNL     1     -33.327   5.992   3.504  1.00 20.00     0.005 C 
HETATM    6  C7  UNL     1     -32.775   8.021   2.003  1.00 20.00     0.047 C 
HETATM    7  C8  UNL     1     -33.988   6.919   4.531  1.00 20.00    -0.011 C 
ENDROOT
BRANCH   7   8
HETATM    8  C11 UNL     1     -34.769   6.078   5.550  1.00 20.00    -0.019 C 
HETATM    9  C9  UNL     1     -34.428   4.601   5.390  1.00 20.00     0.010 C 
HETATM   10  C10 UNL     1     -34.473   6.554   6.968  1.00 20.00     0.010 C 
ENDBRANCH   7   8
BRANCH   6  11
HETATM   11  C1  UNL     1     -31.823   8.411   0.909  1.00 20.00     0.235 C 
HETATM   12  O12 UNL     1     -32.186   8.806  -0.194  1.00 20.00    -0.306 OA
ENDBRANCH   6  11
TORSDOF 2
ENDMDL
MODEL 6
REMARK VINA RESULT:      -4.0      3.119      5.072
REMARK  2 active torsions:
REMARK  status: ('A' for Active; 'I' for Inactive)
REMARK    1  A    between atoms: C1_1  and  C7_7 
REMARK    2  A    between atoms: C8_8  and  C11_11 
ROOT
HETATM    1  C2  UNL     1     -33.258  16.329  -2.846  1.00 20.00     0.001 C 
HETATM    2  C3  UNL     1     -33.606  17.088  -1.567  1.00 20.00     0.011 C 
HETATM    3  C4  UNL     1     -32.673  19.153  -2.860  1.00 20.00     0.012 C 
HETATM    4  C5  UNL     1     -34.082  16.713  -4.081  1.00 20.00     0.005 C 
HETATM    5  C6  UNL     1     -33.725  19.263  -3.962  1.00 20.00     0.005 C 
HETATM    6  C7  UNL     1     -33.173  18.565  -1.536  1.00 20.00     0.047 C 
HETATM    7  C8  UNL     1     -34.726  18.107  -4.078  1.00 20.00    -0.011 C 
ENDROOT
BRANCH   7   8
HETATM    8  C11 UNL     1     -35.573  18.290  -5.344  1.00 20.00    -0.019 C 
HETATM    9  C9  UNL     1     -34.674  18.466  -6.562  1.00 20.00     0.010 C 
HETATM   10  C10 UNL     1     -36.513  17.104  -5.529  1.00 20.00     0.010 C 
ENDBRANCH   7   8
BRANCH   6  11
HETATM   11  C1  UNL     1     -32.077  18.717  -0.522  1.00 20.00     0.235 C 
HETATM   12  O12 UNL     1     -30.884  18.719  -0.810  1.00 20.00    -0.306 OA
ENDBRANCH   6  11
TORSDOF 2
ENDMDL
MODEL 7
REMARK VINA RESULT:      -3.7     24.756     26.239
REMARK  2 active torsions:
REMARK  status: ('A' for Active; 'I' for Inactive)
REMARK    1  A    between atoms: C1_1  and  C7_7 
REMARK    2  A    between atoms: C8_8  and  C11_11 
ROOT
HETATM    1  C2  UNL     1     -26.639  -3.563  10.924  1.00 20.00     0.001 C 
HETATM    2  C3  UNL     1     -27.155  -2.187  10.508  1.00 20.00     0.011 C 
HETATM    3  C4  UNL     1     -25.504  -1.316  12.332  1.00 20.00     0.012 C 
HETATM    4  C5  UNL     1     -25.163  -3.833  10.607  1.00 20.00     0.005 C 
HETATM    5  C6  UNL     1     -24.177  -1.711  11.686  1.00 20.00     0.005 C 
HETATM    6  C7  UNL     1     -26.640  -1.005  11.351  1.00 20.00     0.047 C 
HETATM    7  C8  UNL     1     -24.253  -2.607  10.444  1.00 20.00    -0.011 C 
ENDROOT
BRANCH   7   8
HETATM    8  C11 UNL     1     -22.840  -3.057  10.052  1.00 20.00    -0.019 C 
HETATM    9  C9  UNL     1     -22.472  -4.343  10.783  1.00 20.00     0.010 C 
HETATM   10  C10 UNL     1     -22.743  -3.244   8.542  1.00 20.00     0.010 C 
ENDBRANCH   7   8
BRANCH   6  11
HETATM   11  C1  UNL     1     -27.790  -0.448  12.140  1.00 20.00     0.235 C 
HETATM   12  O12 UNL     1     -28.954  -0.797  11.975  1.00 20.00    -0.306 OA
ENDBRANCH   6  11
TORSDOF 2
ENDMDL
MODEL 8
REMARK VINA RESULT:      -3.7      2.017      2.899
REMARK  2 active torsions:
REMARK  status: ('A' for Active; 'I' for Inactive)
REMARK    1  A    between atoms: C1_1  and  C7_7 
REMARK    2  A    between atoms: C8_8  and  C11_11 
ROOT
HETATM    1  C2  UNL     1     -33.726  16.439  -3.227  1.00 20.00     0.001 C 
HETATM    2  C3  UNL     1     -33.849  17.425  -4.387  1.00 20.00     0.011 C 
HETATM    3  C4  UNL     1     -35.692  18.524  -2.903  1.00 20.00     0.012 C 
HETATM    4  C5  UNL     1     -33.196  17.032  -1.916  1.00 20.00     0.005 C 
HETATM    5  C6  UNL     1     -34.828  19.020  -1.745  1.00 20.00     0.005 C 
HETATM    6  C7  UNL     1     -34.987  18.455  -4.261  1.00 20.00     0.047 C 
HETATM    7  C8  UNL     1     -33.370  18.546  -1.720  1.00 20.00    -0.011 C 
ENDROOT
BRANCH   7   8
HETATM    8  C11 UNL     1     -32.714  18.976  -0.401  1.00 20.00    -0.019 C 
HETATM    9  C9  UNL     1     -33.509  18.441   0.784  1.00 20.00     0.010 C 
HETATM   10  C10 UNL     1     -31.268  18.498  -0.347  1.00 20.00     0.010 C 
ENDBRANCH   7   8
BRANCH   6  11
HETATM   11  C1  UNL     1     -36.024  18.146  -5.303  1.00 20.00     0.235 C 
HETATM   12  O12 UNL     1     -36.360  17.006  -5.604  1.00 20.00    -0.306 OA
ENDBRANCH   6  11
TORSDOF 2
ENDMDL
MODEL 9
REMARK VINA RESULT:      -3.6     12.222     13.939
REMARK  2 active torsions:
REMARK  status: ('A' for Active; 'I' for Inactive)
REMARK    1  A    between atoms: C1_1  and  C7_7 
REMARK    2  A    between atoms: C8_8  and  C11_11 
ROOT
HETATM    1  C2  UNL     1     -43.315  13.140   6.893  1.00 20.00     0.001 C 
HETATM    2  C3  UNL     1     -43.417  14.347   5.963  1.00 20.00     0.011 C 
HETATM    3  C4  UNL     1     -41.255  15.138   7.191  1.00 20.00     0.012 C 
HETATM    4  C5  UNL     1     -42.100  12.234   6.659  1.00 20.00     0.005 C 
HETATM    5  C6  UNL     1     -40.282  14.059   6.717  1.00 20.00     0.005 C 
HETATM    6  C7  UNL     1     -42.390  15.467   6.216  1.00 20.00     0.047 C 
HETATM    7  C8  UNL     1     -40.886  12.868   5.964  1.00 20.00    -0.011 C 
ENDROOT
BRANCH   7   8
HETATM    8  C11 UNL     1     -39.803  11.803   5.740  1.00 20.00    -0.019 C 
HETATM    9  C9  UNL     1     -39.347  11.811   4.286  1.00 20.00     0.010 C 
HETATM   10  C10 UNL     1     -38.627  12.037   6.681  1.00 20.00     0.010 C 
ENDBRANCH   7   8
BRANCH   6  11
HETATM   11  C1  UNL     1     -43.118  16.668   6.746  1.00 20.00     0.235 C 
HETATM   12  O12 UNL     1     -43.381  16.830   7.933  1.00 20.00    -0.306 OA
ENDBRANCH   6  11
TORSDOF 2
ENDMDL
