MODEL 1
REMARK VINA RESULT:      -4.8      0.000      0.000
REMARK  1 active torsions:
REMARK  status: ('A' for Active; 'I' for Inactive)
REMARK    1  A    between atoms: C1_1  and  C7_7 
ROOT
HETATM    1  C2  UNL     1     -33.478   8.444   4.975  1.00 20.00     0.001 C 
HETATM    2  C3  UNL     1     -32.547   8.627   3.783  1.00 20.00     0.011 C 
HETATM    3  C4  UNL     1     -32.409   6.238   2.944  1.00 20.00     0.012 C 
HETATM    4  C5  UNL     1     -33.497   7.043   5.590  1.00 20.00     0.008 C 
HETATM    5  C6  UNL     1     -33.518   5.391   3.572  1.00 20.00     0.009 C 
HETATM    6  C7  UNL     1     -32.804   7.675   2.617  1.00 20.00     0.047 C 
HETATM    7  C8  UNL     1     -34.264   5.941   4.818  1.00 20.00    -0.048 C 
HETATM    8  C9  UNL     1     -35.673   6.420   4.410  1.00 20.00     0.015 C 
HETATM    9  C10 UNL     1     -34.468   4.753   5.795  1.00 20.00     0.015 C 
ENDROOT
BRANCH   6  10
HETATM   10  C1  UNL     1     -31.979   8.149   1.455  1.00 20.00     0.235 C 
HETATM   11  O11 UNL     1     -32.426   8.845   0.549  1.00 20.00    -0.306 OA
ENDBRANCH   6  10
TORSDOF 1
ENDMDL
MODEL 2
REMARK VINA RESULT:      -4.1     11.647     13.019
REMARK  1 active torsions:
REMARK  status: ('A' for Active; 'I' for Inactive)
REMARK    1  A    between atoms: C1_1  and  C7_7 
ROOT
HETATM    1  C2  UNL     1     -34.200  18.750  -4.892  1.00 20.00     0.001 C 
HETATM    2  C3  UNL     1     -34.380  17.435  -5.640  1.00 20.00     0.011 C 
HETATM    3  C4  UNL     1     -33.460  15.809  -3.925  1.00 20.00     0.012 C 
HETATM    4  C5  UNL     1     -33.105  18.758  -3.822  1.00 20.00     0.008 C 
HETATM    5  C6  UNL     1     -33.344  16.488  -2.559  1.00 20.00     0.009 C 
HETATM    6  C7  UNL     1     -34.673  16.228  -4.752  1.00 20.00     0.047 C 
HETATM    7  C8  UNL     1     -33.416  18.037  -2.486  1.00 20.00    -0.048 C 
HETATM    8  C9  UNL     1     -34.788  18.467  -1.923  1.00 20.00     0.015 C 
HETATM    9  C10 UNL     1     -32.353  18.501  -1.456  1.00 20.00     0.015 C 
ENDROOT
BRANCH   6  10
HETATM   10  C1  UNL     1     -35.061  15.089  -5.649  1.00 20.00     0.235 C 
HETATM   11  O11 UNL     1     -34.482  14.828  -6.699  1.00 20.00    -0.306 OA
ENDBRANCH   6  10
TORSDOF 1
ENDMDL
MODEL 3
REMARK VINA RESULT:      -3.9     11.705     13.037
REMARK  1 active torsions:
REMARK  status: ('A' for Active; 'I' for Inactive)
REMARK    1  A    between atoms: C1_1  and  C7_7 
ROOT
HETATM    1  C2  UNL     1     -32.981  15.574  -3.891  1.00 20.00     0.001 C 
HETATM    2  C3  UNL     1     -33.800  14.989  -5.034  1.00 20.00     0.011 C 
HETATM    3  C4  UNL     1     -35.762  16.596  -5.054  1.00 20.00     0.012 C 
HETATM    4  C5  UNL     1     -33.769  16.384  -2.859  1.00 20.00     0.008 C 
HETATM    5  C6  UNL     1     -35.431  17.847  -4.238  1.00 20.00     0.009 C 
HETATM    6  C7  UNL     1     -34.593  16.013  -5.843  1.00 20.00     0.047 C 
HETATM    7  C8  UNL     1     -34.217  17.809  -3.270  1.00 20.00    -0.048 C 
HETATM    8  C9  UNL     1     -33.046  18.613  -3.875  1.00 20.00     0.015 C 
HETATM    9  C10 UNL     1     -34.637  18.551  -1.974  1.00 20.00     0.015 C 
ENDROOT
BRANCH   6  10
HETATM   10  C1  UNL     1     -35.133  15.312  -7.057  1.00 20.00     0.235 C 
HETATM   11  O11 UNL     1     -35.935  14.387  -7.001  1.00 20.00    -0.306 OA
ENDBRANCH   6  10
TORSDOF 1
ENDMDL
MODEL 4
REMARK VINA RESULT:      -3.8     11.507     13.033
REMARK  1 active torsions:
REMARK  status: ('A' for Active; 'I' for Inactive)
REMARK    1  A    between atoms: C1_1  and  C7_7 
ROOT
HETATM    1  C2  UNL     1     -33.619  14.537  -4.787  1.00 20.00     0.001 C 
HETATM    2  C3  UNL     1     -33.016  15.466  -3.740  1.00 20.00     0.011 C 
HETATM    3  C4  UNL     1     -33.966  17.689  -4.506  1.00 20.00     0.012 C 
HETATM    4  C5  UNL     1     -33.987  15.193  -6.120  1.00 20.00     0.008 C 
HETATM    5  C6  UNL     1     -35.110  17.464  -5.497  1.00 20.00     0.009 C 
HETATM    6  C7  UNL     1     -33.884  16.668  -3.375  1.00 20.00     0.047 C 
HETATM    7  C8  UNL     1     -35.268  16.064  -6.151  1.00 20.00    -0.048 C 
HETATM    8  C9  UNL     1     -36.464  15.325  -5.512  1.00 20.00     0.015 C 
HETATM    9  C10 UNL     1     -35.635  16.289  -7.641  1.00 20.00     0.015 C 
ENDROOT
BRANCH   6  10
HETATM   10  C1  UNL     1     -33.264  17.326  -2.176  1.00 20.00     0.235 C 
HETATM   11  O11 UNL     1     -33.733  17.248  -1.045  1.00 20.00    -0.306 OA
ENDBRANCH   6  10
TORSDOF 1
ENDMDL
MODEL 5
REMARK VINA RESULT:      -3.8     11.790     13.185
REMARK  1 active torsions:
REMARK  status: ('A' for Active; 'I' for Inactive)
REMARK    1  A    between atoms: C1_1  and  C7_7 
ROOT
HETATM    1  C2  UNL     1     -35.255  19.263  -2.771  1.00 20.00     0.001 C 
HETATM    2  C3  UNL     1     -34.321  19.006  -1.595  1.00 20.00     0.011 C 
HETATM    3  C4  UNL     1     -33.292  16.800  -2.307  1.00 20.00     0.012 C 
HETATM    4  C5  UNL     1     -35.704  18.020  -3.542  1.00 20.00     0.008 C 
HETATM    5  C6  UNL     1     -33.571  16.538  -3.787  1.00 20.00     0.009 C 
HETATM    6  C7  UNL     1     -33.036  18.262  -1.948  1.00 20.00     0.047 C 
HETATM    7  C8  UNL     1     -34.674  17.369  -4.499  1.00 20.00    -0.048 C 
HETATM    8  C9  UNL     1     -34.018  18.422  -5.417  1.00 20.00     0.015 C 
HETATM    9  C10 UNL     1     -35.455  16.402  -5.427  1.00 20.00     0.015 C 
ENDROOT
BRANCH   6  10
HETATM   10  C1  UNL     1     -32.138  18.313  -0.746  1.00 20.00     0.235 C 
HETATM   11  O11 UNL     1     -30.967  18.676  -0.793  1.00 20.00    -0.306 OA
ENDBRANCH   6  10
TORSDOF 1
ENDMDL
MODEL 6
REMARK VINA RESULT:      -3.6     11.665     13.178
REMARK  1 active torsions:
REMARK  status: ('A' for Active; 'I' for Inactive)
REMARK    1  A    between atoms: C1_1  and  C7_7 
ROOT
HETATM    1  C2  UNL     1     -33.171  16.491  -3.371  1.00 20.00     0.001 C 
HETATM    2  C3  UNL     1     -34.205  16.860  -4.428  1.00 20.00     0.011 C 
HETATM    3  C4  UNL     1     -35.609  18.525  -3.128  1.00 20.00     0.012 C 
HETATM    4  C5  UNL     1     -33.613  16.684  -1.919  1.00 20.00     0.008 C 
HETATM    5  C6  UNL     1     -34.870  18.969  -1.865  1.00 20.00     0.009 C 
HETATM    6  C7  UNL     1     -34.720  18.295  -4.348  1.00 20.00     0.047 C 
HETATM    7  C8  UNL     1     -33.654  18.135  -1.377  1.00 20.00    -0.048 C 
HETATM    8  C9  UNL     1     -32.345  18.889  -1.695  1.00 20.00     0.015 C 
HETATM    9  C10 UNL     1     -33.745  18.046   0.169  1.00 20.00     0.015 C 
ENDROOT
BRANCH   6  10
HETATM   10  C1  UNL     1     -35.525  18.558  -5.587  1.00 20.00     0.235 C 
HETATM   11  O11 UNL     1     -35.666  17.737  -6.488  1.00 20.00    -0.306 OA
ENDBRANCH   6  10
TORSDOF 1
ENDMDL
MODEL 7
REMARK VINA RESULT:      -3.3     13.405     14.949
REMARK  1 active torsions:
REMARK  status: ('A' for Active; 'I' for Inactive)
REMARK    1  A    between atoms: C1_1  and  C7_7 
ROOT
HETATM    1  C2  UNL     1     -26.406  -4.065  10.934  1.00 20.00     0.001 C 
HETATM    2  C3  UNL     1     -27.142  -2.872  11.532  1.00 20.00     0.011 C 
HETATM    3  C4  UNL     1     -25.178  -1.397  12.162  1.00 20.00     0.012 C 
HETATM    4  C5  UNL     1     -24.970  -4.268  11.422  1.00 20.00     0.008 C 
HETATM    5  C6  UNL     1     -23.904  -1.888  11.473  1.00 20.00     0.009 C 
HETATM    6  C7  UNL     1     -26.451  -1.526  11.329  1.00 20.00     0.047 C 
HETATM    7  C8  UNL     1     -23.888  -3.314  10.857  1.00 20.00    -0.048 C 
HETATM    8  C9  UNL     1     -23.976  -3.216   9.319  1.00 20.00     0.015 C 
HETATM    9  C10 UNL     1     -22.508  -3.942  11.180  1.00 20.00     0.015 C 
ENDROOT
BRANCH   6  10
HETATM   10  C1  UNL     1     -27.414  -0.454  11.752  1.00 20.00     0.235 C 
HETATM   11  O11 UNL     1     -28.625  -0.523  11.570  1.00 20.00    -0.306 OA
ENDBRANCH   6  10
TORSDOF 1
ENDMDL
MODEL 8
REMARK VINA RESULT:      -3.3      9.859     11.159
REMARK  1 active torsions:
REMARK  status: ('A' for Active; 'I' for Inactive)
REMARK    1  A    between atoms: C1_1  and  C7_7 
ROOT
HETATM    1  C2  UNL     1     -42.472  14.254   5.141  1.00 20.00     0.001 C 
HETATM    2  C3  UNL     1     -41.205  13.475   4.810  1.00 20.00     0.011 C 
HETATM    3  C4  UNL     1     -39.969  13.664   7.017  1.00 20.00     0.012 C 
HETATM    4  C5  UNL     1     -42.339  15.289   6.260  1.00 20.00     0.008 C 
HETATM    5  C6  UNL     1     -40.919  14.134   8.118  1.00 20.00     0.009 C 
HETATM    6  C7  UNL     1     -40.590  12.723   5.988  1.00 20.00     0.047 C 
HETATM    7  C8  UNL     1     -42.283  14.758   7.714  1.00 20.00    -0.048 C 
HETATM    8  C9  UNL     1     -43.417  13.746   7.985  1.00 20.00     0.015 C 
HETATM    9  C10 UNL     1     -42.537  15.965   8.654  1.00 20.00     0.015 C 
ENDROOT
BRANCH   6  10
HETATM   10  C1  UNL     1     -39.515  11.828   5.443  1.00 20.00     0.235 C 
HETATM   11  O11 UNL     1     -38.361  12.198   5.251  1.00 20.00    -0.306 OA
ENDBRANCH   6  10
TORSDOF 1
ENDMDL
MODEL 9
REMARK VINA RESULT:      -3.3     13.307     14.781
REMARK  1 active torsions:
REMARK  status: ('A' for Active; 'I' for Inactive)
REMARK    1  A    between atoms: C1_1  and  C7_7 
ROOT
HETATM    1  C2  UNL     1     -24.370  -1.370  12.332  1.00 20.00     0.001 C 
HETATM    2  C3  UNL     1     -25.778  -0.856  12.060  1.00 20.00     0.011 C 
HETATM    3  C4  UNL     1     -26.540  -2.525  10.310  1.00 20.00     0.012 C 
HETATM    4  C5  UNL     1     -23.725  -2.166  11.195  1.00 20.00     0.008 C 
HETATM    5  C6  UNL     1     -25.602  -3.733  10.285  1.00 20.00     0.009 C 
HETATM    6  C7  UNL     1     -26.794  -1.935  11.694  1.00 20.00     0.047 C 
HETATM    7  C8  UNL     1     -24.218  -3.619  10.980  1.00 20.00    -0.048 C 
HETATM    8  C9  UNL     1     -24.237  -4.406  12.308  1.00 20.00     0.015 C 
HETATM    9  C10 UNL     1     -23.182  -4.325  10.066  1.00 20.00     0.015 C 
ENDROOT
BRANCH   6  10
HETATM   10  C1  UNL     1     -28.154  -1.298  11.704  1.00 20.00     0.235 C 
HETATM   11  O11 UNL     1     -28.579  -0.598  10.791  1.00 20.00    -0.306 OA
ENDBRANCH   6  10
TORSDOF 1
ENDMDL
