MODEL 1
REMARK VINA RESULT:      -5.1      0.000      0.000
REMARK  2 active torsions:
REMARK  status: ('A' for Active; 'I' for Inactive)
REMARK    1  A    between atoms: C1_1  and  C5_5 
REMARK    2  A    between atoms: C6_6  and  C8_8 
ROOT
HETATM    1  C2  UNL     1     -34.144   6.846   6.558  1.00 20.00     0.012 C 
HETATM    2  C3  UNL     1     -34.684   5.490   6.110  1.00 20.00     0.005 C 
HETATM    3  C4  UNL     1     -34.197   6.916   4.178  1.00 20.00     0.016 C 
HETATM    4  C5  UNL     1     -33.326   7.327   5.365  1.00 20.00     0.047 C 
HETATM    5  C6  UNL     1     -34.789   5.568   4.587  1.00 20.00    -0.014 C 
ENDROOT
BRANCH   4   6
HETATM    6  C1  UNL     1     -33.032   8.817   5.403  1.00 20.00     0.235 C 
HETATM    7  O9  UNL     1     -32.139   9.346   4.751  1.00 20.00    -0.306 OA
ENDBRANCH   4   6
BRANCH   5   8
HETATM    8  C8  UNL     1     -33.951   4.462   3.972  1.00 20.00     0.000 C 
HETATM    9  C7  UNL     1     -33.143   4.951   2.810  1.00 20.00     0.005 C 
ENDBRANCH   5   8
TORSDOF 2
ENDMDL
MODEL 2
REMARK VINA RESULT:      -5.0      2.578      3.558
REMARK  2 active torsions:
REMARK  status: ('A' for Active; 'I' for Inactive)
REMARK    1  A    between atoms: C1_1  and  C5_5 
REMARK    2  A    between atoms: C6_6  and  C8_8 
ROOT
HETATM    1  C2  UNL     1     -33.618   7.448   5.725  1.00 20.00     0.012 C 
HETATM    2  C3  UNL     1     -32.710   8.485   5.070  1.00 20.00     0.005 C 
HETATM    3  C4  UNL     1     -33.004   6.538   3.613  1.00 20.00     0.016 C 
HETATM    4  C5  UNL     1     -34.205   6.678   4.548  1.00 20.00     0.047 C 
HETATM    5  C6  UNL     1     -32.256   7.863   3.749  1.00 20.00    -0.014 C 
ENDROOT
BRANCH   4   6
HETATM    6  C1  UNL     1     -34.810   5.343   4.948  1.00 20.00     0.235 C 
HETATM    7  O9  UNL     1     -34.330   4.261   4.627  1.00 20.00    -0.306 OA
ENDBRANCH   4   6
BRANCH   5   8
HETATM    8  C8  UNL     1     -32.663   8.772   2.604  1.00 20.00     0.000 C 
HETATM    9  C7  UNL     1     -32.168   8.267   1.285  1.00 20.00     0.005 C 
ENDBRANCH   5   8
TORSDOF 2
ENDMDL
MODEL 3
REMARK VINA RESULT:      -4.7      1.743      3.012
REMARK  2 active torsions:
REMARK  status: ('A' for Active; 'I' for Inactive)
REMARK    1  A    between atoms: C1_1  and  C5_5 
REMARK    2  A    between atoms: C6_6  and  C8_8 
ROOT
HETATM    1  C2  UNL     1     -32.387   8.660   4.256  1.00 20.00     0.012 C 
HETATM    2  C3  UNL     1     -33.164   8.618   5.569  1.00 20.00     0.005 C 
HETATM    3  C4  UNL     1     -33.937   6.866   4.041  1.00 20.00     0.016 C 
HETATM    4  C5  UNL     1     -32.488   7.235   3.725  1.00 20.00     0.047 C 
HETATM    5  C6  UNL     1     -34.210   7.516   5.396  1.00 20.00    -0.014 C 
ENDROOT
BRANCH   4   6
HETATM    6  C1  UNL     1     -32.152   7.123   2.247  1.00 20.00     0.235 C 
HETATM    7  O9  UNL     1     -32.138   8.081   1.483  1.00 20.00    -0.306 OA
ENDBRANCH   4   6
BRANCH   5   8
HETATM    8  C8  UNL     1     -34.021   6.474   6.483  1.00 20.00     0.000 C 
HETATM    9  C7  UNL     1     -34.616   5.154   6.104  1.00 20.00     0.005 C 
ENDBRANCH   5   8
TORSDOF 2
ENDMDL
MODEL 4
REMARK VINA RESULT:      -4.5      2.098      3.554
REMARK  2 active torsions:
REMARK  status: ('A' for Active; 'I' for Inactive)
REMARK    1  A    between atoms: C1_1  and  C5_5 
REMARK    2  A    between atoms: C6_6  and  C8_8 
ROOT
HETATM    1  C2  UNL     1     -32.322   7.825   3.706  1.00 20.00     0.012 C 
HETATM    2  C3  UNL     1     -32.908   8.395   4.995  1.00 20.00     0.005 C 
HETATM    3  C4  UNL     1     -34.266   6.531   4.170  1.00 20.00     0.016 C 
HETATM    4  C5  UNL     1     -32.826   6.386   3.680  1.00 20.00     0.047 C 
HETATM    5  C6  UNL     1     -34.197   7.613   5.246  1.00 20.00    -0.014 C 
ENDROOT
BRANCH   4   6
HETATM    6  C1  UNL     1     -32.724   5.741   2.308  1.00 20.00     0.235 C 
HETATM    7  O9  UNL     1     -32.808   4.532   2.122  1.00 20.00    -0.306 OA
ENDBRANCH   4   6
BRANCH   5   8
HETATM    8  C8  UNL     1     -34.118   6.943   6.606  1.00 20.00     0.000 C 
HETATM    9  C7  UNL     1     -34.606   5.529   6.564  1.00 20.00     0.005 C 
ENDBRANCH   5   8
TORSDOF 2
ENDMDL
MODEL 5
REMARK VINA RESULT:      -3.8     12.336     12.853
REMARK  2 active torsions:
REMARK  status: ('A' for Active; 'I' for Inactive)
REMARK    1  A    between atoms: C1_1  and  C5_5 
REMARK    2  A    between atoms: C6_6  and  C8_8 
ROOT
HETATM    1  C2  UNL     1     -33.088  19.216   1.115  1.00 20.00     0.012 C 
HETATM    2  C3  UNL     1     -34.090  18.812   0.038  1.00 20.00     0.005 C 
HETATM    3  C4  UNL     1     -31.792  18.505  -0.752  1.00 20.00     0.016 C 
HETATM    4  C5  UNL     1     -31.839  18.412   0.774  1.00 20.00     0.047 C 
HETATM    5  C6  UNL     1     -33.255  18.430  -1.184  1.00 20.00    -0.014 C 
ENDROOT
BRANCH   4   6
HETATM    6  C1  UNL     1     -30.583  18.943   1.444  1.00 20.00     0.235 C 
HETATM    7  O9  UNL     1     -30.063  18.415   2.421  1.00 20.00    -0.306 OA
ENDBRANCH   4   6
BRANCH   5   8
HETATM    8  C8  UNL     1     -33.573  17.000  -1.580  1.00 20.00     0.000 C 
HETATM    9  C7  UNL     1     -33.215  16.719  -3.005  1.00 20.00     0.005 C 
ENDBRANCH   5   8
TORSDOF 2
ENDMDL
MODEL 6
REMARK VINA RESULT:      -3.8     12.269     13.537
REMARK  2 active torsions:
REMARK  status: ('A' for Active; 'I' for Inactive)
REMARK    1  A    between atoms: C1_1  and  C5_5 
REMARK    2  A    between atoms: C6_6  and  C8_8 
ROOT
HETATM    1  C2  UNL     1     -34.597  17.009  -4.393  1.00 20.00     0.012 C 
HETATM    2  C3  UNL     1     -34.612  18.276  -3.543  1.00 20.00     0.005 C 
HETATM    3  C4  UNL     1     -33.445  16.462  -2.382  1.00 20.00     0.016 C 
HETATM    4  C5  UNL     1     -33.374  16.247  -3.894  1.00 20.00     0.047 C 
HETATM    5  C6  UNL     1     -33.940  17.899  -2.223  1.00 20.00    -0.014 C 
ENDROOT
BRANCH   4   6
HETATM    6  C1  UNL     1     -33.380  14.780  -4.290  1.00 20.00     0.235 C 
HETATM    7  O9  UNL     1     -34.292  14.010  -4.012  1.00 20.00    -0.306 OA
ENDBRANCH   4   6
BRANCH   5   8
HETATM    8  C8  UNL     1     -32.743  18.804  -1.995  1.00 20.00     0.000 C 
HETATM    9  C7  UNL     1     -31.911  18.351  -0.837  1.00 20.00     0.005 C 
ENDBRANCH   5   8
TORSDOF 2
ENDMDL
MODEL 7
REMARK VINA RESULT:      -3.8     12.707     13.879
REMARK  2 active torsions:
REMARK  status: ('A' for Active; 'I' for Inactive)
REMARK    1  A    between atoms: C1_1  and  C5_5 
REMARK    2  A    between atoms: C6_6  and  C8_8 
ROOT
HETATM    1  C2  UNL     1     -34.064  14.786  -4.797  1.00 20.00     0.012 C 
HETATM    2  C3  UNL     1     -33.333  15.541  -3.690  1.00 20.00     0.005 C 
HETATM    3  C4  UNL     1     -34.501  17.096  -5.179  1.00 20.00     0.016 C 
HETATM    4  C5  UNL     1     -35.190  15.731  -5.202  1.00 20.00     0.047 C 
HETATM    5  C6  UNL     1     -33.552  17.025  -3.985  1.00 20.00    -0.014 C 
ENDROOT
BRANCH   4   6
HETATM    6  C1  UNL     1     -35.799  15.391  -6.552  1.00 20.00     0.235 C 
HETATM    7  O9  UNL     1     -35.991  14.243  -6.937  1.00 20.00    -0.306 OA
ENDBRANCH   4   6
BRANCH   5   8
HETATM    8  C8  UNL     1     -34.224  17.677  -2.790  1.00 20.00     0.000 C 
HETATM    9  C7  UNL     1     -33.615  17.238  -1.495  1.00 20.00     0.005 C 
ENDBRANCH   5   8
TORSDOF 2
ENDMDL
MODEL 8
REMARK VINA RESULT:      -3.6      2.156      3.833
REMARK  2 active torsions:
REMARK  status: ('A' for Active; 'I' for Inactive)
REMARK    1  A    between atoms: C1_1  and  C5_5 
REMARK    2  A    between atoms: C6_6  and  C8_8 
ROOT
HETATM    1  C2  UNL     1     -33.430   5.164   3.284  1.00 20.00     0.012 C 
HETATM    2  C3  UNL     1     -32.589   6.234   2.593  1.00 20.00     0.005 C 
HETATM    3  C4  UNL     1     -33.962   7.216   4.369  1.00 20.00     0.016 C 
HETATM    4  C5  UNL     1     -33.691   5.742   4.670  1.00 20.00     0.047 C 
HETATM    5  C6  UNL     1     -32.991   7.560   3.240  1.00 20.00    -0.014 C 
ENDROOT
BRANCH   4   6
HETATM    6  C1  UNL     1     -34.840   5.060   5.395  1.00 20.00     0.235 C 
HETATM    7  O9  UNL     1     -35.073   5.218   6.588  1.00 20.00    -0.306 OA
ENDBRANCH   4   6
BRANCH   5   8
HETATM    8  C8  UNL     1     -31.761   8.216   3.839  1.00 20.00     0.000 C 
HETATM    9  C7  UNL     1     -32.108   9.127   4.975  1.00 20.00     0.005 C 
ENDBRANCH   5   8
TORSDOF 2
ENDMDL
MODEL 9
REMARK VINA RESULT:      -3.5      2.711      3.935
REMARK  2 active torsions:
REMARK  status: ('A' for Active; 'I' for Inactive)
REMARK    1  A    between atoms: C1_1  and  C5_5 
REMARK    2  A    between atoms: C6_6  and  C8_8 
ROOT
HETATM    1  C2  UNL     1     -32.387   7.343   2.259  1.00 20.00     0.012 C 
HETATM    2  C3  UNL     1     -32.528   6.817   3.685  1.00 20.00     0.005 C 
HETATM    3  C4  UNL     1     -32.487   9.266   3.660  1.00 20.00     0.016 C 
HETATM    4  C5  UNL     1     -33.000   8.738   2.320  1.00 20.00     0.047 C 
HETATM    5  C6  UNL     1     -32.514   8.052   4.586  1.00 20.00    -0.014 C 
ENDROOT
BRANCH   4   6
HETATM    6  C1  UNL     1     -32.610   9.615   1.143  1.00 20.00     0.235 C 
HETATM    7  O9  UNL     1     -32.968   9.397  -0.009  1.00 20.00    -0.306 OA
ENDBRANCH   4   6
BRANCH   5   8
HETATM    8  C8  UNL     1     -33.794   8.090   5.401  1.00 20.00     0.000 C 
HETATM    9  C7  UNL     1     -33.944   6.878   6.267  1.00 20.00     0.005 C 
ENDBRANCH   5   8
TORSDOF 2
ENDMDL
