MODEL 1
REMARK VINA RESULT:      -4.3      0.000      0.000
REMARK  4 active torsions:
REMARK  status: ('A' for Active; 'I' for Inactive)
REMARK    1  A    between atoms: C2_2  and  C8_8 
REMARK    2  A    between atoms: C5_5  and  C9_9 
REMARK    3  A    between atoms: C8_8  and  N10_10 
REMARK    4  A    between atoms: C9_9  and  N10_10 
ROOT
HETATM    1  C1  UNL     1     -32.609   6.052   2.629  1.00 20.00    -0.109 C 
HETATM    2  C2  UNL     1     -32.348   7.090   3.172  1.00 20.00    -0.077 C 
HETATM    3  C7  UNL     1     -32.927   4.786   1.969  1.00 20.00     0.112 C 
ENDROOT
BRANCH   2   4
HETATM    4  C8  UNL     1     -32.032   8.356   3.841  1.00 20.00     0.362 C 
BRANCH   4   5
HETATM    5  N10 UNL     1     -32.335   8.280   5.275  1.00 20.00     0.094 N 
HETATM    6  H25 UNL     1     -32.063   7.344   5.606  1.00 20.00     0.317 HD
BRANCH   5   7
HETATM    7  C9  UNL     1     -33.716   8.530   5.543  1.00 20.00     0.275 C 
BRANCH   7   8
HETATM    8  C5  UNL     1     -34.378   7.282   6.089  1.00 20.00     0.018 C 
HETATM    9  C3  UNL     1     -35.110   6.374   5.064  1.00 20.00     0.041 C 
HETATM   10  C6  UNL     1     -34.618   5.168   5.900  1.00 20.00     0.161 C 
HETATM   11  C4  UNL     1     -33.451   6.069   6.373  1.00 20.00     0.041 C 
HETATM   12  O11 UNL     1     -34.203   4.082   5.119  1.00 20.00    -0.235 OA
ENDBRANCH   7   8
ENDBRANCH   5   7
ENDBRANCH   4   5
ENDBRANCH   2   4
TORSDOF 4
ENDMDL
MODEL 2
REMARK VINA RESULT:      -4.1      1.657      1.900
REMARK  4 active torsions:
REMARK  status: ('A' for Active; 'I' for Inactive)
REMARK    1  A    between atoms: C2_2  and  C8_8 
REMARK    2  A    between atoms: C5_5  and  C9_9 
REMARK    3  A    between atoms: C8_8  and  N10_10 
REMARK    4  A    between atoms: C9_9  and  N10_10 
ROOT
HETATM    1  C1  UNL     1     -32.547   8.914   1.909  1.00 20.00    -0.109 C 
HETATM    2  C2  UNL     1     -32.453   8.728   3.091  1.00 20.00    -0.077 C 
HETATM    3  C7  UNL     1     -32.660   9.139   0.468  1.00 20.00     0.112 C 
ENDROOT
BRANCH   2   4
HETATM    4  C8  UNL     1     -32.340   8.494   4.534  1.00 20.00     0.362 C 
BRANCH   4   5
HETATM    5  N10 UNL     1     -33.651   8.592   5.185  1.00 20.00     0.094 N 
HETATM    6  H25 UNL     1     -33.832   9.586   5.383  1.00 20.00     0.317 HD
BRANCH   5   7
HETATM    7  C9  UNL     1     -33.711   7.819   6.385  1.00 20.00     0.275 C 
BRANCH   7   8
HETATM    8  C5  UNL     1     -34.539   6.571   6.165  1.00 20.00     0.018 C 
HETATM    9  C3  UNL     1     -34.848   6.189   4.691  1.00 20.00     0.041 C 
HETATM   10  C6  UNL     1     -34.712   4.710   5.129  1.00 20.00     0.161 C 
HETATM   11  C4  UNL     1     -33.793   5.212   6.270  1.00 20.00     0.041 C 
HETATM   12  O11 UNL     1     -34.047   3.912   4.190  1.00 20.00    -0.235 OA
ENDBRANCH   7   8
ENDBRANCH   5   7
ENDBRANCH   4   5
ENDBRANCH   2   4
TORSDOF 4
ENDMDL
MODEL 3
REMARK VINA RESULT:      -4.1     12.696     13.708
REMARK  4 active torsions:
REMARK  status: ('A' for Active; 'I' for Inactive)
REMARK    1  A    between atoms: C2_2  and  C8_8 
REMARK    2  A    between atoms: C5_5  and  C9_9 
REMARK    3  A    between atoms: C8_8  and  N10_10 
REMARK    4  A    between atoms: C9_9  and  N10_10 
ROOT
HETATM    1  C1  UNL     1     -32.167  18.207  -0.915  1.00 20.00    -0.109 C 
HETATM    2  C2  UNL     1     -32.779  17.803  -1.865  1.00 20.00    -0.077 C 
HETATM    3  C7  UNL     1     -31.422  18.700   0.243  1.00 20.00     0.112 C 
ENDROOT
BRANCH   2   4
HETATM    4  C8  UNL     1     -33.528  17.316  -3.027  1.00 20.00     0.362 C 
BRANCH   4   5
HETATM    5  N10 UNL     1     -33.786  15.875  -2.918  1.00 20.00     0.094 N 
HETATM    6  H25 UNL     1     -33.170  15.499  -2.184  1.00 20.00     0.317 HD
BRANCH   5   7
HETATM    7  C9  UNL     1     -33.570  15.197  -4.157  1.00 20.00     0.275 C 
BRANCH   7   8
HETATM    8  C5  UNL     1     -34.536  15.704  -5.207  1.00 20.00     0.018 C 
HETATM    9  C3  UNL     1     -34.240  15.305  -6.679  1.00 20.00     0.041 C 
HETATM   10  C6  UNL     1     -35.772  15.204  -6.876  1.00 20.00     0.161 C 
HETATM   11  C4  UNL     1     -35.873  14.928  -5.356  1.00 20.00     0.041 C 
HETATM   12  O11 UNL     1     -36.160  14.115  -7.666  1.00 20.00    -0.235 OA
ENDBRANCH   7   8
ENDBRANCH   5   7
ENDBRANCH   4   5
ENDBRANCH   2   4
TORSDOF 4
ENDMDL
MODEL 4
REMARK VINA RESULT:      -4.0     12.257     13.311
REMARK  4 active torsions:
REMARK  status: ('A' for Active; 'I' for Inactive)
REMARK    1  A    between atoms: C2_2  and  C8_8 
REMARK    2  A    between atoms: C5_5  and  C9_9 
REMARK    3  A    between atoms: C8_8  and  N10_10 
REMARK    4  A    between atoms: C9_9  and  N10_10 
ROOT
HETATM    1  C1  UNL     1     -31.403  18.515   0.187  1.00 20.00    -0.109 C 
HETATM    2  C2  UNL     1     -31.929  18.655  -0.883  1.00 20.00    -0.077 C 
HETATM    3  C7  UNL     1     -30.764  18.344   1.491  1.00 20.00     0.112 C 
ENDROOT
BRANCH   2   4
HETATM    4  C8  UNL     1     -32.576  18.822  -2.188  1.00 20.00     0.362 C 
BRANCH   4   5
HETATM    5  N10 UNL     1     -33.787  17.998  -2.281  1.00 20.00     0.094 N 
HETATM    6  H25 UNL     1     -34.396  18.240  -1.487  1.00 20.00     0.317 HD
BRANCH   5   7
HETATM    7  C9  UNL     1     -33.485  16.602  -2.278  1.00 20.00     0.275 C 
BRANCH   7   8
HETATM    8  C5  UNL     1     -33.294  16.104  -3.695  1.00 20.00     0.018 C 
HETATM    9  C3  UNL     1     -33.754  14.650  -3.993  1.00 20.00     0.041 C 
HETATM   10  C6  UNL     1     -34.197  15.160  -5.386  1.00 20.00     0.161 C 
HETATM   11  C4  UNL     1     -34.347  16.560  -4.742  1.00 20.00     0.041 C 
HETATM   12  O11 UNL     1     -35.411  14.612  -5.818  1.00 20.00    -0.235 OA
ENDBRANCH   7   8
ENDBRANCH   5   7
ENDBRANCH   4   5
ENDBRANCH   2   4
TORSDOF 4
ENDMDL
MODEL 5
REMARK VINA RESULT:      -3.9     12.723     13.922
REMARK  4 active torsions:
REMARK  status: ('A' for Active; 'I' for Inactive)
REMARK    1  A    between atoms: C2_2  and  C8_8 
REMARK    2  A    between atoms: C5_5  and  C9_9 
REMARK    3  A    between atoms: C8_8  and  N10_10 
REMARK    4  A    between atoms: C9_9  and  N10_10 
ROOT
HETATM    1  C1  UNL     1     -33.308  16.672  -2.376  1.00 20.00    -0.109 C 
HETATM    2  C2  UNL     1     -33.421  15.854  -3.247  1.00 20.00    -0.077 C 
HETATM    3  C7  UNL     1     -33.171  17.669  -1.314  1.00 20.00     0.112 C 
ENDROOT
BRANCH   2   4
HETATM    4  C8  UNL     1     -33.553  14.851  -4.308  1.00 20.00     0.362 C 
BRANCH   4   5
HETATM    5  N10 UNL     1     -34.625  13.898  -3.997  1.00 20.00     0.094 N 
HETATM    6  H25 UNL     1     -34.197  12.970  -3.872  1.00 20.00     0.317 HD
BRANCH   5   7
HETATM    7  C9  UNL     1     -35.620  13.861  -5.021  1.00 20.00     0.275 C 
BRANCH   7   8
HETATM    8  C5  UNL     1     -35.755  15.222  -5.671  1.00 20.00     0.018 C 
HETATM    9  C3  UNL     1     -35.937  15.245  -7.214  1.00 20.00     0.041 C 
HETATM   10  C6  UNL     1     -36.882  16.453  -7.005  1.00 20.00     0.161 C 
HETATM   11  C4  UNL     1     -37.149  15.902  -5.583  1.00 20.00     0.041 C 
HETATM   12  O11 UNL     1     -38.010  16.426  -7.834  1.00 20.00    -0.235 OA
ENDBRANCH   7   8
ENDBRANCH   5   7
ENDBRANCH   4   5
ENDBRANCH   2   4
TORSDOF 4
ENDMDL
MODEL 6
REMARK VINA RESULT:      -3.8     12.968     14.412
REMARK  4 active torsions:
REMARK  status: ('A' for Active; 'I' for Inactive)
REMARK    1  A    between atoms: C2_2  and  C8_8 
REMARK    2  A    between atoms: C5_5  and  C9_9 
REMARK    3  A    between atoms: C8_8  and  N10_10 
REMARK    4  A    between atoms: C9_9  and  N10_10 
ROOT
HETATM    1  C1  UNL     1     -33.423  16.504  -2.623  1.00 20.00    -0.109 C 
HETATM    2  C2  UNL     1     -33.414  15.663  -3.480  1.00 20.00    -0.077 C 
HETATM    3  C7  UNL     1     -33.435  17.529  -1.580  1.00 20.00     0.112 C 
ENDROOT
BRANCH   2   4
HETATM    4  C8  UNL     1     -33.405  14.631  -4.521  1.00 20.00     0.362 C 
BRANCH   4   5
HETATM    5  N10 UNL     1     -33.450  15.236  -5.858  1.00 20.00     0.094 N 
HETATM    6  H25 UNL     1     -33.199  16.229  -5.764  1.00 20.00     0.317 HD
BRANCH   5   7
HETATM    7  C9  UNL     1     -34.736  15.095  -6.465  1.00 20.00     0.275 C 
BRANCH   7   8
HETATM    8  C5  UNL     1     -35.429  16.439  -6.545  1.00 20.00     0.018 C 
HETATM    9  C3  UNL     1     -36.289  16.856  -5.320  1.00 20.00     0.041 C 
HETATM   10  C6  UNL     1     -35.808  18.305  -5.576  1.00 20.00     0.161 C 
HETATM   11  C4  UNL     1     -34.557  17.690  -6.250  1.00 20.00     0.041 C 
HETATM   12  O11 UNL     1     -35.519  19.010  -4.402  1.00 20.00    -0.235 OA
ENDBRANCH   7   8
ENDBRANCH   5   7
ENDBRANCH   4   5
ENDBRANCH   2   4
TORSDOF 4
ENDMDL
MODEL 7
REMARK VINA RESULT:      -3.7      1.931      3.250
REMARK  4 active torsions:
REMARK  status: ('A' for Active; 'I' for Inactive)
REMARK    1  A    between atoms: C2_2  and  C8_8 
REMARK    2  A    between atoms: C5_5  and  C9_9 
REMARK    3  A    between atoms: C8_8  and  N10_10 
REMARK    4  A    between atoms: C9_9  and  N10_10 
ROOT
HETATM    1  C1  UNL     1     -32.266   8.152   4.107  1.00 20.00    -0.109 C 
HETATM    2  C2  UNL     1     -32.348   7.185   3.401  1.00 20.00    -0.077 C 
HETATM    3  C7  UNL     1     -32.167   9.331   4.968  1.00 20.00     0.112 C 
ENDROOT
BRANCH   2   4
HETATM    4  C8  UNL     1     -32.455   6.002   2.541  1.00 20.00     0.362 C 
BRANCH   4   5
HETATM    5  N10 UNL     1     -33.753   5.341   2.719  1.00 20.00     0.094 N 
HETATM    6  H25 UNL     1     -34.438   6.058   2.995  1.00 20.00     0.317 HD
BRANCH   5   7
HETATM    7  C9  UNL     1     -33.692   4.299   3.695  1.00 20.00     0.275 C 
BRANCH   7   8
HETATM    8  C5  UNL     1     -34.509   4.673   4.914  1.00 20.00     0.018 C 
HETATM    9  C3  UNL     1     -33.719   5.130   6.171  1.00 20.00     0.041 C 
HETATM   10  C6  UNL     1     -34.870   6.130   6.434  1.00 20.00     0.161 C 
HETATM   11  C4  UNL     1     -35.155   6.086   4.913  1.00 20.00     0.041 C 
HETATM   12  O11 UNL     1     -34.428   7.381   6.882  1.00 20.00    -0.235 OA
ENDBRANCH   7   8
ENDBRANCH   5   7
ENDBRANCH   4   5
ENDBRANCH   2   4
TORSDOF 4
ENDMDL
MODEL 8
REMARK VINA RESULT:      -3.6     12.617     13.585
REMARK  4 active torsions:
REMARK  status: ('A' for Active; 'I' for Inactive)
REMARK    1  A    between atoms: C2_2  and  C8_8 
REMARK    2  A    between atoms: C5_5  and  C9_9 
REMARK    3  A    between atoms: C8_8  and  N10_10 
REMARK    4  A    between atoms: C9_9  and  N10_10 
ROOT
HETATM    1  C1  UNL     1     -32.663  18.547  -0.921  1.00 20.00    -0.109 C 
HETATM    2  C2  UNL     1     -33.777  18.699  -1.342  1.00 20.00    -0.077 C 
HETATM    3  C7  UNL     1     -31.306  18.364  -0.407  1.00 20.00     0.112 C 
ENDROOT
BRANCH   2   4
HETATM    4  C8  UNL     1     -35.136  18.891  -1.859  1.00 20.00     0.362 C 
BRANCH   4   5
HETATM    5  N10 UNL     1     -35.408  17.972  -2.970  1.00 20.00     0.094 N 
HETATM    6  H25 UNL     1     -35.200  17.016  -2.648  1.00 20.00     0.317 HD
BRANCH   5   7
HETATM    7  C9  UNL     1     -34.638  18.292  -4.130  1.00 20.00     0.275 C 
BRANCH   7   8
HETATM    8  C5  UNL     1     -33.984  17.045  -4.687  1.00 20.00     0.018 C 
HETATM    9  C3  UNL     1     -33.388  16.048  -3.656  1.00 20.00     0.041 C 
HETATM   10  C6  UNL     1     -33.854  14.915  -4.600  1.00 20.00     0.161 C 
HETATM   11  C4  UNL     1     -34.934  15.895  -5.120  1.00 20.00     0.041 C 
HETATM   12  O11 UNL     1     -34.385  13.810  -3.923  1.00 20.00    -0.235 OA
ENDBRANCH   7   8
ENDBRANCH   5   7
ENDBRANCH   4   5
ENDBRANCH   2   4
TORSDOF 4
ENDMDL
MODEL 9
REMARK VINA RESULT:      -3.5      2.155      3.390
REMARK  4 active torsions:
REMARK  status: ('A' for Active; 'I' for Inactive)
REMARK    1  A    between atoms: C2_2  and  C8_8 
REMARK    2  A    between atoms: C5_5  and  C9_9 
REMARK    3  A    between atoms: C8_8  and  N10_10 
REMARK    4  A    between atoms: C9_9  and  N10_10 
ROOT
HETATM    1  C1  UNL     1     -33.564   4.905   3.388  1.00 20.00    -0.109 C 
HETATM    2  C2  UNL     1     -34.095   5.006   4.460  1.00 20.00    -0.077 C 
HETATM    3  C7  UNL     1     -32.918   4.782   2.082  1.00 20.00     0.112 C 
ENDROOT
BRANCH   2   4
HETATM    4  C8  UNL     1     -34.743   5.137   5.768  1.00 20.00     0.362 C 
BRANCH   4   5
HETATM    5  N10 UNL     1     -34.754   6.537   6.210  1.00 20.00     0.094 N 
HETATM    6  H25 UNL     1     -35.250   7.089   5.497  1.00 20.00     0.317 HD
BRANCH   5   7
HETATM    7  C9  UNL     1     -33.433   7.044   6.412  1.00 20.00     0.275 C 
BRANCH   7   8
HETATM    8  C5  UNL     1     -33.196   8.254   5.534  1.00 20.00     0.018 C 
HETATM    9  C3  UNL     1     -31.937   8.222   4.624  1.00 20.00     0.041 C 
HETATM   10  C6  UNL     1     -32.782   8.970   3.564  1.00 20.00     0.161 C 
HETATM   11  C4  UNL     1     -34.032   8.343   4.228  1.00 20.00     0.041 C 
HETATM   12  O11 UNL     1     -32.560   8.518   2.257  1.00 20.00    -0.235 OA
ENDBRANCH   7   8
ENDBRANCH   5   7
ENDBRANCH   4   5
ENDBRANCH   2   4
TORSDOF 4
ENDMDL
