MODEL 1
REMARK VINA RESULT:      -3.7      0.000      0.000
REMARK  3 active torsions:
REMARK  status: ('A' for Active; 'I' for Inactive)
REMARK    1  A    between atoms: C6_6  and  C8_8 
REMARK    2  A    between atoms: C6_6  and  C9_9 
REMARK    3  A    between atoms: C7_7  and  C9_9 
ROOT
HETATM    1  C4  UNL     1     -32.625  19.063  -2.604  1.00 20.00     0.015 C 
HETATM    2  C5  UNL     1     -34.816  18.881  -1.454  1.00 20.00     0.015 C 
HETATM    3  C9  UNL     1     -33.430  18.213  -1.588  1.00 20.00    -0.043 C 
ENDROOT
BRANCH   3   4
HETATM    4  C6  UNL     1     -33.572  16.785  -2.223  1.00 20.00     0.029 C 
BRANCH   4   5
HETATM    5  C8  UNL     1     -33.354  16.620  -3.740  1.00 20.00     0.079 C 
HETATM    6  C3  UNL     1     -34.668  16.824  -4.493  1.00 20.00     0.026 C 
HETATM    7 CL10 UNL     1     -32.729  14.998  -4.156  1.00 20.00    -0.125 Cl
ENDBRANCH   4   5
ENDBRANCH   3   4
BRANCH   3   8
HETATM    8  C7  UNL     1     -32.718  18.176  -0.184  1.00 20.00    -0.015 C 
HETATM    9  C1  UNL     1     -31.249  18.624  -0.217  1.00 20.00     0.010 C 
HETATM   10  C2  UNL     1     -33.441  18.984   0.908  1.00 20.00     0.010 C 
ENDBRANCH   3   8
TORSDOF 3
ENDMDL
MODEL 2
REMARK VINA RESULT:      -3.6     12.350     13.231
REMARK  3 active torsions:
REMARK  status: ('A' for Active; 'I' for Inactive)
REMARK    1  A    between atoms: C6_6  and  C8_8 
REMARK    2  A    between atoms: C6_6  and  C9_9 
REMARK    3  A    between atoms: C7_7  and  C9_9 
ROOT
HETATM    1  C4  UNL     1     -36.114   6.118   3.989  1.00 20.00     0.015 C 
HETATM    2  C5  UNL     1     -33.894   5.021   3.834  1.00 20.00     0.015 C 
HETATM    3  C9  UNL     1     -34.666   6.157   4.541  1.00 20.00    -0.043 C 
ENDROOT
BRANCH   3   4
HETATM    4  C6  UNL     1     -34.076   7.553   4.132  1.00 20.00     0.029 C 
BRANCH   4   5
HETATM    5  C8  UNL     1     -32.557   7.681   3.907  1.00 20.00     0.079 C 
HETATM    6  C3  UNL     1     -32.017   8.929   4.602  1.00 20.00     0.026 C 
HETATM    7 CL10 UNL     1     -32.144   7.797   2.171  1.00 20.00    -0.125 Cl
ENDBRANCH   4   5
ENDBRANCH   3   4
BRANCH   3   8
HETATM    8  C7  UNL     1     -34.642   5.929   6.099  1.00 20.00    -0.015 C 
HETATM    9  C1  UNL     1     -33.728   4.778   6.546  1.00 20.00     0.010 C 
HETATM   10  C2  UNL     1     -34.267   7.182   6.910  1.00 20.00     0.010 C 
ENDBRANCH   3   8
TORSDOF 3
ENDMDL
MODEL 3
REMARK VINA RESULT:      -3.6     11.547     12.897
REMARK  3 active torsions:
REMARK  status: ('A' for Active; 'I' for Inactive)
REMARK    1  A    between atoms: C6_6  and  C8_8 
REMARK    2  A    between atoms: C6_6  and  C9_9 
REMARK    3  A    between atoms: C7_7  and  C9_9 
ROOT
HETATM    1  C4  UNL     1     -42.300  12.512   6.755  1.00 20.00     0.015 C 
HETATM    2  C5  UNL     1     -41.530  13.738   4.740  1.00 20.00     0.015 C 
HETATM    3  C9  UNL     1     -41.047  13.107   6.065  1.00 20.00    -0.043 C 
ENDROOT
BRANCH   3   4
HETATM    4  C6  UNL     1     -40.498  14.218   7.029  1.00 20.00     0.029 C 
BRANCH   4   5
HETATM    5  C8  UNL     1     -41.326  14.598   8.273  1.00 20.00     0.079 C 
HETATM    6  C3  UNL     1     -41.711  16.075   8.227  1.00 20.00     0.026 C 
HETATM    7 CL10 UNL     1     -40.426  14.311   9.791  1.00 20.00    -0.125 Cl
ENDBRANCH   4   5
ENDBRANCH   3   4
BRANCH   3   8
HETATM    8  C7  UNL     1     -39.976  11.992   5.766  1.00 20.00    -0.015 C 
HETATM    9  C1  UNL     1     -39.520  11.943   4.300  1.00 20.00     0.010 C 
HETATM   10  C2  UNL     1     -38.723  12.071   6.655  1.00 20.00     0.010 C 
ENDBRANCH   3   8
TORSDOF 3
ENDMDL
MODEL 4
REMARK VINA RESULT:      -3.5      2.118      4.358
REMARK  3 active torsions:
REMARK  status: ('A' for Active; 'I' for Inactive)
REMARK    1  A    between atoms: C6_6  and  C8_8 
REMARK    2  A    between atoms: C6_6  and  C9_9 
REMARK    3  A    between atoms: C7_7  and  C9_9 
ROOT
HETATM    1  C4  UNL     1     -35.180  18.431  -2.938  1.00 20.00     0.015 C 
HETATM    2  C5  UNL     1     -32.987  19.051  -3.920  1.00 20.00     0.015 C 
HETATM    3  C9  UNL     1     -33.785  17.873  -3.317  1.00 20.00    -0.043 C 
ENDROOT
BRANCH   3   4
HETATM    4  C6  UNL     1     -33.122  17.395  -1.978  1.00 20.00     0.029 C 
BRANCH   4   5
HETATM    5  C8  UNL     1     -32.892  18.423  -0.853  1.00 20.00     0.079 C 
HETATM    6  C3  UNL     1     -31.422  18.442  -0.439  1.00 20.00     0.026 C 
HETATM    7 CL10 UNL     1     -33.867  18.057   0.600  1.00 20.00    -0.125 Cl
ENDBRANCH   4   5
ENDBRANCH   3   4
BRANCH   3   8
HETATM    8  C7  UNL     1     -33.902  16.712  -4.375  1.00 20.00    -0.015 C 
HETATM    9  C1  UNL     1     -33.566  15.322  -3.815  1.00 20.00     0.010 C 
HETATM   10  C2  UNL     1     -35.273  16.631  -5.068  1.00 20.00     0.010 C 
ENDBRANCH   3   8
TORSDOF 3
ENDMDL
MODEL 5
REMARK VINA RESULT:      -3.5     12.142     13.201
REMARK  3 active torsions:
REMARK  status: ('A' for Active; 'I' for Inactive)
REMARK    1  A    between atoms: C6_6  and  C8_8 
REMARK    2  A    between atoms: C6_6  and  C9_9 
REMARK    3  A    between atoms: C7_7  and  C9_9 
ROOT
HETATM    1  C4  UNL     1     -34.411   6.215   6.337  1.00 20.00     0.015 C 
HETATM    2  C5  UNL     1     -35.824   5.991   4.309  1.00 20.00     0.015 C 
HETATM    3  C9  UNL     1     -34.397   6.333   4.791  1.00 20.00    -0.043 C 
ENDROOT
BRANCH   3   4
HETATM    4  C6  UNL     1     -34.055   7.829   4.466  1.00 20.00     0.029 C 
BRANCH   4   5
HETATM    5  C8  UNL     1     -32.614   8.191   4.056  1.00 20.00     0.079 C 
HETATM    6  C3  UNL     1     -31.999   9.160   5.065  1.00 20.00     0.026 C 
HETATM    7 CL10 UNL     1     -32.548   8.962   2.445  1.00 20.00    -0.125 Cl
ENDBRANCH   4   5
ENDBRANCH   3   4
BRANCH   3   8
HETATM    8  C7  UNL     1     -33.364   5.330   4.152  1.00 20.00    -0.015 C 
HETATM    9  C1  UNL     1     -33.620   3.859   4.510  1.00 20.00     0.010 C 
HETATM   10  C2  UNL     1     -33.250   5.438   2.621  1.00 20.00     0.010 C 
ENDBRANCH   3   8
TORSDOF 3
ENDMDL
MODEL 6
REMARK VINA RESULT:      -3.5     11.515     12.554
REMARK  3 active torsions:
REMARK  status: ('A' for Active; 'I' for Inactive)
REMARK    1  A    between atoms: C6_6  and  C8_8 
REMARK    2  A    between atoms: C6_6  and  C9_9 
REMARK    3  A    between atoms: C7_7  and  C9_9 
ROOT
HETATM    1  C4  UNL     1     -43.195  14.237   5.388  1.00 20.00     0.015 C 
HETATM    2  C5  UNL     1     -42.650  12.336   6.887  1.00 20.00     0.015 C 
HETATM    3  C9  UNL     1     -42.112  13.679   6.346  1.00 20.00    -0.043 C 
ENDROOT
BRANCH   3   4
HETATM    4  C6  UNL     1     -40.831  13.441   5.471  1.00 20.00     0.029 C 
BRANCH   4   5
HETATM    5  C8  UNL     1     -40.121  12.075   5.550  1.00 20.00     0.079 C 
HETATM    6  C3  UNL     1     -39.080  12.077   6.667  1.00 20.00     0.026 C 
HETATM    7 CL10 UNL     1     -39.287  11.664   4.023  1.00 20.00    -0.125 Cl
ENDBRANCH   4   5
ENDBRANCH   3   4
BRANCH   3   8
HETATM    8  C7  UNL     1     -41.844  14.667   7.543  1.00 20.00    -0.015 C 
HETATM    9  C1  UNL     1     -41.987  14.021   8.929  1.00 20.00     0.010 C 
HETATM   10  C2  UNL     1     -40.478  15.372   7.481  1.00 20.00     0.010 C 
ENDBRANCH   3   8
TORSDOF 3
ENDMDL
MODEL 7
REMARK VINA RESULT:      -3.4     11.599     12.644
REMARK  3 active torsions:
REMARK  status: ('A' for Active; 'I' for Inactive)
REMARK    1  A    between atoms: C6_6  and  C8_8 
REMARK    2  A    between atoms: C6_6  and  C9_9 
REMARK    3  A    between atoms: C7_7  and  C9_9 
ROOT
HETATM    1  C4  UNL     1     -40.675  14.593   7.037  1.00 20.00     0.015 C 
HETATM    2  C5  UNL     1     -42.051  14.255   5.000  1.00 20.00     0.015 C 
HETATM    3  C9  UNL     1     -41.623  13.593   6.329  1.00 20.00    -0.043 C 
ENDROOT
BRANCH   3   4
HETATM    4  C6  UNL     1     -40.774  12.304   6.047  1.00 20.00     0.029 C 
BRANCH   4   5
HETATM    5  C8  UNL     1     -39.403  12.453   5.357  1.00 20.00     0.079 C 
HETATM    6  C3  UNL     1     -39.310  11.523   4.149  1.00 20.00     0.026 C 
HETATM    7 CL10 UNL     1     -38.051  12.060   6.458  1.00 20.00    -0.125 Cl
ENDBRANCH   4   5
ENDBRANCH   3   4
BRANCH   3   8
HETATM    8  C7  UNL     1     -42.895  13.291   7.207  1.00 20.00    -0.015 C 
HETATM    9  C1  UNL     1     -43.291  11.807   7.243  1.00 20.00     0.010 C 
HETATM   10  C2  UNL     1     -42.789  13.794   8.658  1.00 20.00     0.010 C 
ENDBRANCH   3   8
TORSDOF 3
ENDMDL
MODEL 8
REMARK VINA RESULT:      -3.2      2.250      3.500
REMARK  3 active torsions:
REMARK  status: ('A' for Active; 'I' for Inactive)
REMARK    1  A    between atoms: C6_6  and  C8_8 
REMARK    2  A    between atoms: C6_6  and  C9_9 
REMARK    3  A    between atoms: C7_7  and  C9_9 
ROOT
HETATM    1  C4  UNL     1     -33.685  18.909  -4.935  1.00 20.00     0.015 C 
HETATM    2  C5  UNL     1     -35.393  18.448  -3.194  1.00 20.00     0.015 C 
HETATM    3  C9  UNL     1     -34.415  17.769  -4.179  1.00 20.00    -0.043 C 
ENDROOT
BRANCH   3   4
HETATM    4  C6  UNL     1     -35.208  16.958  -5.264  1.00 20.00     0.029 C 
BRANCH   4   5
HETATM    5  C8  UNL     1     -34.779  17.073  -6.740  1.00 20.00     0.079 C 
HETATM    6  C3  UNL     1     -35.984  17.388  -7.623  1.00 20.00     0.026 C 
HETATM    7 CL10 UNL     1     -34.037  15.562  -7.342  1.00 20.00    -0.125 Cl
ENDBRANCH   4   5
ENDBRANCH   3   4
BRANCH   3   8
HETATM    8  C7  UNL     1     -33.397  16.868  -3.384  1.00 20.00    -0.015 C 
HETATM    9  C1  UNL     1     -33.494  17.016  -1.858  1.00 20.00     0.010 C 
HETATM   10  C2  UNL     1     -33.484  15.371  -3.727  1.00 20.00     0.010 C 
ENDBRANCH   3   8
TORSDOF 3
ENDMDL
MODEL 9
REMARK VINA RESULT:      -3.2      2.795      5.256
REMARK  3 active torsions:
REMARK  status: ('A' for Active; 'I' for Inactive)
REMARK    1  A    between atoms: C6_6  and  C8_8 
REMARK    2  A    between atoms: C6_6  and  C9_9 
REMARK    3  A    between atoms: C7_7  and  C9_9 
ROOT
HETATM    1  C4  UNL     1     -33.977  15.156  -6.466  1.00 20.00     0.015 C 
HETATM    2  C5  UNL     1     -35.395  14.163  -4.687  1.00 20.00     0.015 C 
HETATM    3  C9  UNL     1     -34.751  15.485  -5.163  1.00 20.00    -0.043 C 
ENDROOT
BRANCH   3   4
HETATM    4  C6  UNL     1     -33.679  15.974  -4.126  1.00 20.00     0.029 C 
BRANCH   4   5
HETATM    5  C8  UNL     1     -33.975  17.235  -3.290  1.00 20.00     0.079 C 
HETATM    6  C3  UNL     1     -33.153  18.418  -3.799  1.00 20.00     0.026 C 
HETATM    7 CL10 UNL     1     -33.586  17.000  -1.561  1.00 20.00    -0.125 Cl
ENDBRANCH   4   5
ENDBRANCH   3   4
BRANCH   3   8
HETATM    8  C7  UNL     1     -35.870  16.561  -5.420  1.00 20.00    -0.015 C 
HETATM    9  C1  UNL     1     -35.642  17.411  -6.680  1.00 20.00     0.010 C 
HETATM   10  C2  UNL     1     -37.294  15.982  -5.485  1.00 20.00     0.010 C 
ENDBRANCH   3   8
TORSDOF 3
ENDMDL
