MODEL 1
REMARK VINA RESULT:      -4.0      0.000      0.000
REMARK  2 active torsions:
REMARK  status: ('A' for Active; 'I' for Inactive)
REMARK    1  A    between atoms: C5_5  and  C6_6 
REMARK    2  A    between atoms: C6_6  and  C7_7 
ROOT
HETATM    1  C1  UNL     1     -32.460   8.868   0.682  1.00 20.00     0.012 C 
HETATM    2  C2  UNL     1     -32.310   8.203   1.671  1.00 20.00    -0.117 C 
HETATM    3  C5  UNL     1     -32.121   7.387   2.883  1.00 20.00     0.098 C 
ENDROOT
BRANCH   3   4
HETATM    4  C6  UNL     1     -33.270   6.379   3.089  1.00 20.00     0.006 C 
HETATM    5  C3  UNL     1     -32.851   4.981   2.604  1.00 20.00     0.012 C 
BRANCH   4   6
HETATM    6  C7  UNL     1     -33.762   6.297   4.552  1.00 20.00     0.058 C 
HETATM    7  C4  UNL     1     -35.199   5.833   4.743  1.00 20.00     0.022 C 
HETATM    8 BR8  UNL     1     -33.556   8.051   5.421  1.00 20.00    -0.091 Br
ENDBRANCH   4   6
ENDBRANCH   3   4
TORSDOF 2
ENDMDL
MODEL 2
REMARK VINA RESULT:      -4.0      1.770      2.316
REMARK  2 active torsions:
REMARK  status: ('A' for Active; 'I' for Inactive)
REMARK    1  A    between atoms: C5_5  and  C6_6 
REMARK    2  A    between atoms: C6_6  and  C7_7 
ROOT
HETATM    1  C1  UNL     1     -32.881   9.490   1.446  1.00 20.00     0.012 C 
HETATM    2  C2  UNL     1     -32.592   8.533   2.112  1.00 20.00    -0.117 C 
HETATM    3  C5  UNL     1     -32.239   7.356   2.925  1.00 20.00     0.098 C 
ENDROOT
BRANCH   3   4
HETATM    4  C6  UNL     1     -32.505   7.588   4.427  1.00 20.00     0.006 C 
HETATM    5  C3  UNL     1     -32.328   9.075   4.780  1.00 20.00     0.012 C 
BRANCH   4   6
HETATM    6  C7  UNL     1     -33.902   7.108   4.885  1.00 20.00     0.058 C 
HETATM    7  C4  UNL     1     -34.126   7.064   6.390  1.00 20.00     0.022 C 
HETATM    8 BR8  UNL     1     -34.261   5.317   4.152  1.00 20.00    -0.091 Br
ENDBRANCH   4   6
ENDBRANCH   3   4
TORSDOF 2
ENDMDL
MODEL 3
REMARK VINA RESULT:      -4.0      1.999      3.941
REMARK  2 active torsions:
REMARK  status: ('A' for Active; 'I' for Inactive)
REMARK    1  A    between atoms: C5_5  and  C6_6 
REMARK    2  A    between atoms: C6_6  and  C7_7 
ROOT
HETATM    1  C1  UNL     1     -34.762   5.412   6.631  1.00 20.00     0.012 C 
HETATM    2  C2  UNL     1     -34.566   5.920   5.561  1.00 20.00    -0.117 C 
HETATM    3  C5  UNL     1     -34.331   6.542   4.247  1.00 20.00     0.098 C 
ENDROOT
BRANCH   3   4
HETATM    4  C6  UNL     1     -32.898   6.289   3.733  1.00 20.00     0.006 C 
HETATM    5  C3  UNL     1     -32.930   5.440   2.451  1.00 20.00     0.012 C 
BRANCH   4   6
HETATM    6  C7  UNL     1     -32.097   7.586   3.478  1.00 20.00     0.058 C 
HETATM    7  C4  UNL     1     -32.422   8.756   4.396  1.00 20.00     0.022 C 
HETATM    8 BR8  UNL     1     -32.355   8.170   1.616  1.00 20.00    -0.091 Br
ENDBRANCH   4   6
ENDBRANCH   3   4
TORSDOF 2
ENDMDL
MODEL 4
REMARK VINA RESULT:      -4.0      1.934      2.615
REMARK  2 active torsions:
REMARK  status: ('A' for Active; 'I' for Inactive)
REMARK    1  A    between atoms: C5_5  and  C6_6 
REMARK    2  A    between atoms: C6_6  and  C7_7 
ROOT
HETATM    1  C1  UNL     1     -32.504   8.972   2.451  1.00 20.00     0.012 C 
HETATM    2  C2  UNL     1     -32.696   8.742   3.614  1.00 20.00    -0.117 C 
HETATM    3  C5  UNL     1     -32.927   8.464   5.042  1.00 20.00     0.098 C 
ENDROOT
BRANCH   3   4
HETATM    4  C6  UNL     1     -33.337   6.997   5.288  1.00 20.00     0.006 C 
HETATM    5  C3  UNL     1     -34.094   6.868   6.621  1.00 20.00     0.012 C 
BRANCH   4   6
HETATM    6  C7  UNL     1     -34.189   6.397   4.146  1.00 20.00     0.058 C 
HETATM    7  C4  UNL     1     -35.416   5.606   4.580  1.00 20.00     0.022 C 
HETATM    8 BR8  UNL     1     -33.068   5.233   3.023  1.00 20.00    -0.091 Br
ENDBRANCH   4   6
ENDBRANCH   3   4
TORSDOF 2
ENDMDL
MODEL 5
REMARK VINA RESULT:      -3.9      1.926      4.383
REMARK  2 active torsions:
REMARK  status: ('A' for Active; 'I' for Inactive)
REMARK    1  A    between atoms: C5_5  and  C6_6 
REMARK    2  A    between atoms: C6_6  and  C7_7 
ROOT
HETATM    1  C1  UNL     1     -34.463   5.094   6.707  1.00 20.00     0.012 C 
HETATM    2  C2  UNL     1     -34.631   5.715   5.693  1.00 20.00    -0.117 C 
HETATM    3  C5  UNL     1     -34.842   6.472   4.447  1.00 20.00     0.098 C 
ENDROOT
BRANCH   3   4
HETATM    4  C6  UNL     1     -33.753   7.544   4.229  1.00 20.00     0.006 C 
HETATM    5  C3  UNL     1     -33.251   8.080   5.581  1.00 20.00     0.012 C 
BRANCH   4   6
HETATM    6  C7  UNL     1     -32.555   7.042   3.391  1.00 20.00     0.058 C 
HETATM    7  C4  UNL     1     -32.139   7.934   2.230  1.00 20.00     0.022 C 
HETATM    8 BR8  UNL     1     -32.944   5.246   2.685  1.00 20.00    -0.091 Br
ENDBRANCH   4   6
ENDBRANCH   3   4
TORSDOF 2
ENDMDL
MODEL 6
REMARK VINA RESULT:      -3.7      2.487      4.049
REMARK  2 active torsions:
REMARK  status: ('A' for Active; 'I' for Inactive)
REMARK    1  A    between atoms: C5_5  and  C6_6 
REMARK    2  A    between atoms: C6_6  and  C7_7 
ROOT
HETATM    1  C1  UNL     1     -33.769   3.920   4.515  1.00 20.00     0.012 C 
HETATM    2  C2  UNL     1     -34.240   5.015   4.369  1.00 20.00    -0.117 C 
HETATM    3  C5  UNL     1     -34.820   6.356   4.185  1.00 20.00     0.098 C 
ENDROOT
BRANCH   3   4
HETATM    4  C6  UNL     1     -34.135   7.411   5.079  1.00 20.00     0.006 C 
HETATM    5  C3  UNL     1     -34.160   6.966   6.551  1.00 20.00     0.012 C 
BRANCH   4   6
HETATM    6  C7  UNL     1     -32.682   7.726   4.655  1.00 20.00     0.058 C 
HETATM    7  C4  UNL     1     -32.185   9.128   4.981  1.00 20.00     0.022 C 
HETATM    8 BR8  UNL     1     -32.476   7.430   2.720  1.00 20.00    -0.091 Br
ENDBRANCH   4   6
ENDBRANCH   3   4
TORSDOF 2
ENDMDL
MODEL 7
REMARK VINA RESULT:      -3.6     11.745     12.408
REMARK  2 active torsions:
REMARK  status: ('A' for Active; 'I' for Inactive)
REMARK    1  A    between atoms: C5_5  and  C6_6 
REMARK    2  A    between atoms: C6_6  and  C7_7 
ROOT
HETATM    1  C1  UNL     1     -30.576  18.497   1.691  1.00 20.00     0.012 C 
HETATM    2  C2  UNL     1     -31.088  18.530   0.605  1.00 20.00    -0.117 C 
HETATM    3  C5  UNL     1     -31.713  18.576  -0.728  1.00 20.00     0.098 C 
ENDROOT
BRANCH   3   4
HETATM    4  C6  UNL     1     -33.068  17.839  -0.759  1.00 20.00     0.006 C 
HETATM    5  C3  UNL     1     -34.081  18.540   0.161  1.00 20.00     0.012 C 
BRANCH   4   6
HETATM    6  C7  UNL     1     -33.663  17.703  -2.180  1.00 20.00     0.058 C 
HETATM    7  C4  UNL     1     -33.371  16.393  -2.898  1.00 20.00     0.022 C 
HETATM    8 BR8  UNL     1     -33.027  19.184  -3.310  1.00 20.00    -0.091 Br
ENDBRANCH   4   6
ENDBRANCH   3   4
TORSDOF 2
ENDMDL
MODEL 8
REMARK VINA RESULT:      -3.6      9.435     10.443
REMARK  2 active torsions:
REMARK  status: ('A' for Active; 'I' for Inactive)
REMARK    1  A    between atoms: C5_5  and  C6_6 
REMARK    2  A    between atoms: C6_6  and  C7_7 
ROOT
HETATM    1  C1  UNL     1     -38.914  11.613   3.806  1.00 20.00     0.012 C 
HETATM    2  C2  UNL     1     -39.298  11.881   4.912  1.00 20.00    -0.117 C 
HETATM    3  C5  UNL     1     -39.768  12.204   6.270  1.00 20.00     0.098 C 
ENDROOT
BRANCH   3   4
HETATM    4  C6  UNL     1     -40.923  13.227   6.256  1.00 20.00     0.006 C 
HETATM    5  C3  UNL     1     -42.211  12.590   6.802  1.00 20.00     0.012 C 
BRANCH   4   6
HETATM    6  C7  UNL     1     -40.608  14.521   7.043  1.00 20.00     0.058 C 
HETATM    7  C4  UNL     1     -40.348  14.343   8.532  1.00 20.00     0.022 C 
HETATM    8 BR8  UNL     1     -42.080  15.808   6.819  1.00 20.00    -0.091 Br
ENDBRANCH   4   6
ENDBRANCH   3   4
TORSDOF 2
ENDMDL
MODEL 9
REMARK VINA RESULT:      -3.6     11.218     12.212
REMARK  2 active torsions:
REMARK  status: ('A' for Active; 'I' for Inactive)
REMARK    1  A    between atoms: C5_5  and  C6_6 
REMARK    2  A    between atoms: C6_6  and  C7_7 
ROOT
HETATM    1  C1  UNL     1     -33.222  15.296  -4.165  1.00 20.00     0.012 C 
HETATM    2  C2  UNL     1     -33.331  16.002  -3.199  1.00 20.00    -0.117 C 
HETATM    3  C5  UNL     1     -33.469  16.865  -2.013  1.00 20.00     0.098 C 
ENDROOT
BRANCH   3   4
HETATM    4  C6  UNL     1     -32.666  18.175  -2.153  1.00 20.00     0.006 C 
HETATM    5  C3  UNL     1     -33.364  19.130  -3.137  1.00 20.00     0.012 C 
BRANCH   4   6
HETATM    6  C7  UNL     1     -32.428  18.897  -0.807  1.00 20.00     0.058 C 
HETATM    7  C4  UNL     1     -31.122  18.565  -0.098  1.00 20.00     0.022 C 
HETATM    8 BR8  UNL     1     -33.916  18.515   0.423  1.00 20.00    -0.091 Br
ENDBRANCH   4   6
ENDBRANCH   3   4
TORSDOF 2
ENDMDL
