MODEL 1
REMARK VINA RESULT:      -4.9      0.000      0.000
REMARK  3 active torsions:
REMARK  status: ('A' for Active; 'I' for Inactive)
REMARK    1  A    between atoms: C3_3  and  N7_7 
REMARK    2  A    between atoms: C5_5  and  C6_6 
REMARK    3  A    between atoms: C5_5  and  N7_7 
ROOT
HETATM    1  N7  UNL     1     -33.164   7.212   5.879  1.00 20.00     0.093 N 
HETATM    2  H20 UNL     1     -32.749   7.499   6.765  1.00 20.00     0.316 HD
ENDROOT
BRANCH   1   3
HETATM    3  C3  UNL     1     -34.382   6.445   6.143  1.00 20.00     0.223 C 
HETATM    4  C1  UNL     1     -35.214   6.349   4.852  1.00 20.00     0.055 C 
HETATM    5  C4  UNL     1     -34.539   4.992   4.541  1.00 20.00     0.086 C 
HETATM    6  C2  UNL     1     -34.071   4.943   6.015  1.00 20.00     0.055 C 
HETATM    7 CL10 UNL     1     -33.276   4.957   3.257  1.00 20.00    -0.125 Cl
ENDBRANCH   1   3
BRANCH   1   8
HETATM    8  C5  UNL     1     -33.458   8.396   5.083  1.00 20.00     0.340 C 
BRANCH   8   9
HETATM    9  C6  UNL     1     -32.322   8.687   4.124  1.00 20.00     0.381 C 
HETATM   10  F8  UNL     1     -32.818   9.093   2.928  1.00 20.00    -0.213 F 
HETATM   11  F9  UNL     1     -31.635   7.542   3.887  1.00 20.00    -0.213 F 
ENDBRANCH   8   9
ENDBRANCH   1   8
TORSDOF 3
ENDMDL
MODEL 2
REMARK VINA RESULT:      -4.6      1.126      1.151
REMARK  3 active torsions:
REMARK  status: ('A' for Active; 'I' for Inactive)
REMARK    1  A    between atoms: C3_3  and  N7_7 
REMARK    2  A    between atoms: C5_5  and  C6_6 
REMARK    3  A    between atoms: C5_5  and  N7_7 
ROOT
HETATM    1  N7  UNL     1     -32.891   7.268   5.345  1.00 20.00     0.093 N 
HETATM    2  H20 UNL     1     -32.299   7.704   6.052  1.00 20.00     0.316 HD
ENDROOT
BRANCH   1   3
HETATM    3  C3  UNL     1     -34.229   7.060   5.901  1.00 20.00     0.223 C 
HETATM    4  C1  UNL     1     -35.164   6.535   4.797  1.00 20.00     0.055 C 
HETATM    5  C4  UNL     1     -34.853   5.088   5.248  1.00 20.00     0.086 C 
HETATM    6  C2  UNL     1     -34.290   5.673   6.565  1.00 20.00     0.055 C 
HETATM    7 CL10 UNL     1     -33.744   4.108   4.222  1.00 20.00    -0.125 Cl
ENDBRANCH   1   3
BRANCH   1   8
HETATM    8  C5  UNL     1     -32.945   8.127   4.170  1.00 20.00     0.340 C 
BRANCH   8   9
HETATM    9  C6  UNL     1     -32.073   7.568   3.064  1.00 20.00     0.381 C 
HETATM   10  F8  UNL     1     -32.265   8.275   1.922  1.00 20.00    -0.213 F 
HETATM   11  F9  UNL     1     -32.454   6.294   2.797  1.00 20.00    -0.213 F 
ENDBRANCH   8   9
ENDBRANCH   1   8
TORSDOF 3
ENDMDL
MODEL 3
REMARK VINA RESULT:      -4.3      2.292      3.573
REMARK  3 active torsions:
REMARK  status: ('A' for Active; 'I' for Inactive)
REMARK    1  A    between atoms: C3_3  and  N7_7 
REMARK    2  A    between atoms: C5_5  and  C6_6 
REMARK    3  A    between atoms: C5_5  and  N7_7 
ROOT
HETATM    1  N7  UNL     1     -32.990   7.166   5.992  1.00 20.00     0.093 N 
HETATM    2  H20 UNL     1     -32.679   6.325   5.506  1.00 20.00     0.316 HD
ENDROOT
BRANCH   1   3
HETATM    3  C3  UNL     1     -32.836   8.319   5.104  1.00 20.00     0.223 C 
HETATM    4  C1  UNL     1     -31.678   8.057   4.124  1.00 20.00     0.055 C 
HETATM    5  C4  UNL     1     -32.698   7.517   3.094  1.00 20.00     0.086 C 
HETATM    6  C2  UNL     1     -33.818   8.184   3.926  1.00 20.00     0.055 C 
HETATM    7 CL10 UNL     1     -32.780   5.734   2.849  1.00 20.00    -0.125 Cl
ENDBRANCH   1   3
BRANCH   1   8
HETATM    8  C5  UNL     1     -34.380   7.001   6.394  1.00 20.00     0.340 C 
BRANCH   8   9
HETATM    9  C6  UNL     1     -34.797   5.549   6.281  1.00 20.00     0.381 C 
HETATM   10  F8  UNL     1     -33.752   4.742   6.589  1.00 20.00    -0.213 F 
HETATM   11  F9  UNL     1     -35.126   5.280   4.992  1.00 20.00    -0.213 F 
ENDBRANCH   8   9
ENDBRANCH   1   8
TORSDOF 3
ENDMDL
MODEL 4
REMARK VINA RESULT:      -3.9      1.938      2.408
REMARK  3 active torsions:
REMARK  status: ('A' for Active; 'I' for Inactive)
REMARK    1  A    between atoms: C3_3  and  N7_7 
REMARK    2  A    between atoms: C5_5  and  C6_6 
REMARK    3  A    between atoms: C5_5  and  N7_7 
ROOT
HETATM    1  N7  UNL     1     -32.662   6.358   3.695  1.00 20.00     0.093 N 
HETATM    2  H20 UNL     1     -32.383   6.152   4.654  1.00 20.00     0.316 HD
ENDROOT
BRANCH   1   3
HETATM    3  C3  UNL     1     -33.836   5.554   3.353  1.00 20.00     0.223 C 
HETATM    4  C1  UNL     1     -33.908   4.333   4.288  1.00 20.00     0.055 C 
HETATM    5  C4  UNL     1     -34.843   5.130   5.227  1.00 20.00     0.086 C 
HETATM    6  C2  UNL     1     -35.071   6.131   4.070  1.00 20.00     0.055 C 
HETATM    7 CL10 UNL     1     -34.148   5.765   6.763  1.00 20.00    -0.125 Cl
ENDBRANCH   1   3
BRANCH   1   8
HETATM    8  C5  UNL     1     -32.953   7.780   3.577  1.00 20.00     0.340 C 
BRANCH   8   9
HETATM    9  C6  UNL     1     -32.612   8.502   4.864  1.00 20.00     0.381 C 
HETATM   10  F8  UNL     1     -33.746   8.768   5.560  1.00 20.00    -0.213 F 
HETATM   11  F9  UNL     1     -32.052   9.701   4.567  1.00 20.00    -0.213 F 
ENDBRANCH   8   9
ENDBRANCH   1   8
TORSDOF 3
ENDMDL
MODEL 5
REMARK VINA RESULT:      -3.9      2.698      3.939
REMARK  3 active torsions:
REMARK  status: ('A' for Active; 'I' for Inactive)
REMARK    1  A    between atoms: C3_3  and  N7_7 
REMARK    2  A    between atoms: C5_5  and  C6_6 
REMARK    3  A    between atoms: C5_5  and  N7_7 
ROOT
HETATM    1  N7  UNL     1     -34.294   7.290   4.393  1.00 20.00     0.093 N 
HETATM    2  H20 UNL     1     -34.665   8.025   4.995  1.00 20.00     0.316 HD
ENDROOT
BRANCH   1   3
HETATM    3  C3  UNL     1     -32.836   7.259   4.516  1.00 20.00     0.223 C 
HETATM    4  C1  UNL     1     -32.208   7.142   3.115  1.00 20.00     0.055 C 
HETATM    5  C4  UNL     1     -32.077   8.683   3.066  1.00 20.00     0.086 C 
HETATM    6  C2  UNL     1     -32.304   8.701   4.596  1.00 20.00     0.055 C 
HETATM    7 CL10 UNL     1     -33.240   9.592   2.034  1.00 20.00    -0.125 Cl
ENDBRANCH   1   3
BRANCH   1   8
HETATM    8  C5  UNL     1     -34.876   6.013   4.782  1.00 20.00     0.340 C 
BRANCH   8   9
HETATM    9  C6  UNL     1     -34.896   5.876   6.290  1.00 20.00     0.381 C 
HETATM   10  F8  UNL     1     -34.603   7.068   6.868  1.00 20.00    -0.213 F 
HETATM   11  F9  UNL     1     -33.921   5.013   6.671  1.00 20.00    -0.213 F 
ENDBRANCH   8   9
ENDBRANCH   1   8
TORSDOF 3
ENDMDL
MODEL 6
REMARK VINA RESULT:      -3.9      2.028      2.562
REMARK  3 active torsions:
REMARK  status: ('A' for Active; 'I' for Inactive)
REMARK    1  A    between atoms: C3_3  and  N7_7 
REMARK    2  A    between atoms: C5_5  and  C6_6 
REMARK    3  A    between atoms: C5_5  and  N7_7 
ROOT
HETATM    1  N7  UNL     1     -33.072   5.123   3.921  1.00 20.00     0.093 N 
HETATM    2  H20 UNL     1     -32.534   5.614   4.634  1.00 20.00     0.316 HD
ENDROOT
BRANCH   1   3
HETATM    3  C3  UNL     1     -34.396   4.800   4.456  1.00 20.00     0.223 C 
HETATM    4  C1  UNL     1     -34.321   4.725   5.992  1.00 20.00     0.055 C 
HETATM    5  C4  UNL     1     -34.755   6.208   6.066  1.00 20.00     0.086 C 
HETATM    6  C2  UNL     1     -35.215   6.096   4.594  1.00 20.00     0.055 C 
HETATM    7 CL10 UNL     1     -33.495   7.433   6.463  1.00 20.00    -0.125 Cl
ENDBRANCH   1   3
BRANCH   1   8
HETATM    8  C5  UNL     1     -33.181   5.965   2.738  1.00 20.00     0.340 C 
BRANCH   8   9
HETATM    9  C6  UNL     1     -32.236   7.144   2.836  1.00 20.00     0.381 C 
HETATM   10  F8  UNL     1     -32.823   8.151   3.531  1.00 20.00    -0.213 F 
HETATM   11  F9  UNL     1     -31.993   7.625   1.591  1.00 20.00    -0.213 F 
ENDBRANCH   8   9
ENDBRANCH   1   8
TORSDOF 3
ENDMDL
MODEL 7
REMARK VINA RESULT:      -3.7     12.269     13.174
REMARK  3 active torsions:
REMARK  status: ('A' for Active; 'I' for Inactive)
REMARK    1  A    between atoms: C3_3  and  N7_7 
REMARK    2  A    between atoms: C5_5  and  C6_6 
REMARK    3  A    between atoms: C5_5  and  N7_7 
ROOT
HETATM    1  N7  UNL     1     -35.242  16.932  -4.173  1.00 20.00     0.093 N 
HETATM    2  H20 UNL     1     -35.954  17.592  -3.859  1.00 20.00     0.316 HD
ENDROOT
BRANCH   1   3
HETATM    3  C3  UNL     1     -35.331  16.786  -5.626  1.00 20.00     0.223 C 
HETATM    4  C1  UNL     1     -34.487  15.576  -6.069  1.00 20.00     0.055 C 
HETATM    5  C4  UNL     1     -35.754  14.691  -5.997  1.00 20.00     0.086 C 
HETATM    6  C2  UNL     1     -36.599  15.986  -5.978  1.00 20.00     0.055 C 
HETATM    7 CL10 UNL     1     -35.912  13.564  -4.600  1.00 20.00    -0.125 Cl
ENDBRANCH   1   3
BRANCH   1   8
HETATM    8  C5  UNL     1     -33.928  17.420  -3.778  1.00 20.00     0.340 C 
BRANCH   8   9
HETATM    9  C6  UNL     1     -33.316  16.513  -2.731  1.00 20.00     0.381 C 
HETATM   10  F8  UNL     1     -33.720  15.234  -2.933  1.00 20.00    -0.213 F 
HETATM   11  F9  UNL     1     -33.777  16.873  -1.507  1.00 20.00    -0.213 F 
ENDBRANCH   8   9
ENDBRANCH   1   8
TORSDOF 3
ENDMDL
MODEL 8
REMARK VINA RESULT:      -3.6      9.202      9.880
REMARK  3 active torsions:
REMARK  status: ('A' for Active; 'I' for Inactive)
REMARK    1  A    between atoms: C3_3  and  N7_7 
REMARK    2  A    between atoms: C5_5  and  C6_6 
REMARK    3  A    between atoms: C5_5  and  N7_7 
ROOT
HETATM    1  N7  UNL     1     -39.693  13.261   6.280  1.00 20.00     0.093 N 
HETATM    2  H20 UNL     1     -39.806  13.791   5.416  1.00 20.00     0.316 HD
ENDROOT
BRANCH   1   3
HETATM    3  C3  UNL     1     -40.764  13.624   7.210  1.00 20.00     0.223 C 
HETATM    4  C1  UNL     1     -41.296  15.025   6.853  1.00 20.00     0.055 C 
HETATM    5  C4  UNL     1     -42.397  14.365   5.988  1.00 20.00     0.086 C 
HETATM    6  C2  UNL     1     -42.093  13.030   6.708  1.00 20.00     0.055 C 
HETATM    7 CL10 UNL     1     -42.203  14.419   4.198  1.00 20.00    -0.125 Cl
ENDBRANCH   1   3
BRANCH   1   8
HETATM    8  C5  UNL     1     -39.730  11.837   5.976  1.00 20.00     0.340 C 
BRANCH   8   9
HETATM    9  C6  UNL     1     -39.243  11.582   4.565  1.00 20.00     0.381 C 
HETATM   10  F8  UNL     1     -37.900  11.759   4.499  1.00 20.00    -0.213 F 
HETATM   11  F9  UNL     1     -39.794  12.500   3.731  1.00 20.00    -0.213 F 
ENDBRANCH   8   9
ENDBRANCH   1   8
TORSDOF 3
ENDMDL
MODEL 9
REMARK VINA RESULT:      -3.6     12.375     12.927
REMARK  3 active torsions:
REMARK  status: ('A' for Active; 'I' for Inactive)
REMARK    1  A    between atoms: C3_3  and  N7_7 
REMARK    2  A    between atoms: C5_5  and  C6_6 
REMARK    3  A    between atoms: C5_5  and  N7_7 
ROOT
HETATM    1  N7  UNL     1     -33.783  16.326  -2.387  1.00 20.00     0.093 N 
HETATM    2  H20 UNL     1     -33.506  15.402  -2.056  1.00 20.00     0.316 HD
ENDROOT
BRANCH   1   3
HETATM    3  C3  UNL     1     -32.956  17.339  -1.730  1.00 20.00     0.223 C 
HETATM    4  C1  UNL     1     -33.087  18.674  -2.488  1.00 20.00     0.055 C 
HETATM    5  C4  UNL     1     -34.213  19.094  -1.513  1.00 20.00     0.086 C 
HETATM    6  C2  UNL     1     -33.749  17.962  -0.567  1.00 20.00     0.055 C 
HETATM    7 CL10 UNL     1     -35.909  19.043  -2.117  1.00 20.00    -0.125 Cl
ENDBRANCH   1   3
BRANCH   1   8
HETATM    8  C5  UNL     1     -33.624  16.383  -3.834  1.00 20.00     0.340 C 
BRANCH   8   9
HETATM    9  C6  UNL     1     -33.371  15.000  -4.396  1.00 20.00     0.381 C 
HETATM   10  F8  UNL     1     -34.149  14.091  -3.756  1.00 20.00    -0.213 F 
HETATM   11  F9  UNL     1     -32.085  14.647  -4.150  1.00 20.00    -0.213 F 
ENDBRANCH   8   9
ENDBRANCH   1   8
TORSDOF 3
ENDMDL
