MODEL 1
REMARK VINA RESULT:      -5.8      0.000      0.000
REMARK  0 active torsions:
REMARK  status: ('A' for Active; 'I' for Inactive)
ROOT
HETATM    1  C1  UNL     1     -33.268   6.950   4.122  1.00 20.00    -0.085 C 
HETATM    2  C2  UNL     1     -32.299   7.267   3.256  1.00 20.00     0.014 C 
HETATM    3  C3  UNL     1     -33.546   7.695   5.402  1.00 20.00     0.034 C 
HETATM    4  C4  UNL     1     -34.100   6.755   6.489  1.00 20.00     0.009 C 
HETATM    5  C5  UNL     1     -33.883   4.665   5.001  1.00 20.00     0.013 C 
HETATM    6  C6  UNL     1     -35.546   5.868   4.517  1.00 20.00     0.013 C 
HETATM    7  C7  UNL     1     -34.117   5.737   3.889  1.00 20.00     0.014 C 
HETATM    8  C8  UNL     1     -34.831   5.552   5.867  1.00 20.00    -0.013 C 
ENDROOT
TORSDOF 0
ENDMDL
MODEL 2
REMARK VINA RESULT:      -5.7      0.957      1.215
REMARK  0 active torsions:
REMARK  status: ('A' for Active; 'I' for Inactive)
ROOT
HETATM    1  C1  UNL     1     -33.556   7.406   5.096  1.00 20.00    -0.085 C 
HETATM    2  C2  UNL     1     -32.678   8.385   4.850  1.00 20.00     0.014 C 
HETATM    3  C3  UNL     1     -33.966   6.953   6.473  1.00 20.00     0.034 C 
HETATM    4  C4  UNL     1     -34.310   5.451   6.491  1.00 20.00     0.009 C 
HETATM    5  C5  UNL     1     -33.693   5.129   4.012  1.00 20.00     0.013 C 
HETATM    6  C6  UNL     1     -35.568   6.053   4.295  1.00 20.00     0.013 C 
HETATM    7  C7  UNL     1     -34.147   6.624   3.962  1.00 20.00     0.014 C 
HETATM    8  C8  UNL     1     -34.791   4.973   5.110  1.00 20.00    -0.013 C 
ENDROOT
TORSDOF 0
ENDMDL
MODEL 3
REMARK VINA RESULT:      -4.9      0.820      2.256
REMARK  0 active torsions:
REMARK  status: ('A' for Active; 'I' for Inactive)
ROOT
HETATM    1  C1  UNL     1     -33.525   7.371   4.873  1.00 20.00    -0.085 C 
HETATM    2  C2  UNL     1     -33.523   8.687   5.114  1.00 20.00     0.014 C 
HETATM    3  C3  UNL     1     -32.696   6.697   3.811  1.00 20.00     0.034 C 
HETATM    4  C4  UNL     1     -33.407   5.450   3.252  1.00 20.00     0.009 C 
HETATM    5  C5  UNL     1     -35.513   5.827   4.685  1.00 20.00     0.013 C 
HETATM    6  C6  UNL     1     -33.898   5.010   5.768  1.00 20.00     0.013 C 
HETATM    7  C7  UNL     1     -34.450   6.470   5.633  1.00 20.00     0.014 C 
HETATM    8  C8  UNL     1     -34.367   4.843   4.290  1.00 20.00    -0.013 C 
ENDROOT
TORSDOF 0
ENDMDL
MODEL 4
REMARK VINA RESULT:      -4.6      1.202      2.311
REMARK  0 active torsions:
REMARK  status: ('A' for Active; 'I' for Inactive)
ROOT
HETATM    1  C1  UNL     1     -33.116   6.334   3.478  1.00 20.00    -0.085 C 
HETATM    2  C2  UNL     1     -32.948   5.173   2.834  1.00 20.00     0.014 C 
HETATM    3  C3  UNL     1     -32.276   7.564   3.253  1.00 20.00     0.034 C 
HETATM    4  C4  UNL     1     -32.148   8.400   4.541  1.00 20.00     0.009 C 
HETATM    5  C5  UNL     1     -33.480   6.705   5.948  1.00 20.00     0.013 C 
HETATM    6  C6  UNL     1     -34.697   7.910   4.716  1.00 20.00     0.013 C 
HETATM    7  C7  UNL     1     -34.148   6.452   4.558  1.00 20.00     0.014 C 
HETATM    8  C8  UNL     1     -33.357   8.185   5.467  1.00 20.00    -0.013 C 
ENDROOT
TORSDOF 0
ENDMDL
MODEL 5
REMARK VINA RESULT:      -4.6      1.097      3.323
REMARK  0 active torsions:
REMARK  status: ('A' for Active; 'I' for Inactive)
ROOT
HETATM    1  C1  UNL     1     -34.061   6.596   5.248  1.00 20.00    -0.085 C 
HETATM    2  C2  UNL     1     -34.507   6.025   6.373  1.00 20.00     0.014 C 
HETATM    3  C3  UNL     1     -33.800   5.856   3.961  1.00 20.00     0.034 C 
HETATM    4  C4  UNL     1     -32.650   6.503   3.166  1.00 20.00     0.009 C 
HETATM    5  C5  UNL     1     -32.182   8.261   4.987  1.00 20.00     0.013 C 
HETATM    6  C6  UNL     1     -33.879   8.701   3.816  1.00 20.00     0.013 C 
HETATM    7  C7  UNL     1     -33.711   8.053   5.232  1.00 20.00     0.014 C 
HETATM    8  C8  UNL     1     -32.524   8.002   3.487  1.00 20.00    -0.013 C 
ENDROOT
TORSDOF 0
ENDMDL
MODEL 6
REMARK VINA RESULT:      -4.5      0.842      2.285
REMARK  0 active torsions:
REMARK  status: ('A' for Active; 'I' for Inactive)
ROOT
HETATM    1  C1  UNL     1     -32.910   6.863   3.822  1.00 20.00    -0.085 C 
HETATM    2  C2  UNL     1     -32.185   7.364   2.815  1.00 20.00     0.014 C 
HETATM    3  C3  UNL     1     -33.737   5.607   3.735  1.00 20.00     0.034 C 
HETATM    4  C4  UNL     1     -34.975   5.685   4.648  1.00 20.00     0.009 C 
HETATM    5  C5  UNL     1     -34.456   8.095   5.391  1.00 20.00     0.013 C 
HETATM    6  C6  UNL     1     -33.252   6.649   6.342  1.00 20.00     0.013 C 
HETATM    7  C7  UNL     1     -32.999   7.600   5.124  1.00 20.00     0.014 C 
HETATM    8  C8  UNL     1     -34.729   6.626   5.840  1.00 20.00    -0.013 C 
ENDROOT
TORSDOF 0
ENDMDL
MODEL 7
REMARK VINA RESULT:      -3.9      8.146      9.622
REMARK  0 active torsions:
REMARK  status: ('A' for Active; 'I' for Inactive)
ROOT
HETATM    1  C1  UNL     1     -42.755   6.068   1.198  1.00 20.00    -0.085 C 
HETATM    2  C2  UNL     1     -43.417   5.642   2.279  1.00 20.00     0.014 C 
HETATM    3  C3  UNL     1     -42.247   5.171   0.100  1.00 20.00     0.034 C 
HETATM    4  C4  UNL     1     -40.960   5.733  -0.534  1.00 20.00     0.009 C 
HETATM    5  C5  UNL     1     -40.855   7.727   1.090  1.00 20.00     0.013 C 
HETATM    6  C6  UNL     1     -42.285   7.969  -0.441  1.00 20.00     0.013 C 
HETATM    7  C7  UNL     1     -42.403   7.518   1.055  1.00 20.00     0.014 C 
HETATM    8  C8  UNL     1     -40.894   7.264  -0.400  1.00 20.00    -0.013 C 
ENDROOT
TORSDOF 0
ENDMDL
MODEL 8
REMARK VINA RESULT:      -3.9     15.921     16.979
REMARK  0 active torsions:
REMARK  status: ('A' for Active; 'I' for Inactive)
ROOT
HETATM    1  C1  UNL     1     -22.597  17.858   9.906  1.00 20.00    -0.085 C 
HETATM    2  C2  UNL     1     -22.044  17.372   8.788  1.00 20.00     0.014 C 
HETATM    3  C3  UNL     1     -21.881  18.735  10.900  1.00 20.00     0.034 C 
HETATM    4  C4  UNL     1     -22.406  18.506  12.331  1.00 20.00     0.009 C 
HETATM    5  C5  UNL     1     -24.017  16.636  11.598  1.00 20.00     0.013 C 
HETATM    6  C6  UNL     1     -24.716  18.571  11.137  1.00 20.00     0.013 C 
HETATM    7  C7  UNL     1     -23.997  17.475  10.280  1.00 20.00     0.014 C 
HETATM    8  C8  UNL     1     -23.863  18.012  12.317  1.00 20.00    -0.013 C 
ENDROOT
TORSDOF 0
ENDMDL
MODEL 9
REMARK VINA RESULT:      -3.8      1.362      3.074
REMARK  0 active torsions:
REMARK  status: ('A' for Active; 'I' for Inactive)
ROOT
HETATM    1  C1  UNL     1     -32.993   6.201   3.388  1.00 20.00    -0.085 C 
HETATM    2  C2  UNL     1     -32.964   5.182   2.521  1.00 20.00     0.014 C 
HETATM    3  C3  UNL     1     -33.898   6.272   4.591  1.00 20.00     0.034 C 
HETATM    4  C4  UNL     1     -34.282   7.728   4.918  1.00 20.00     0.009 C 
HETATM    5  C5  UNL     1     -33.020   8.674   2.883  1.00 20.00     0.013 C 
HETATM    6  C6  UNL     1     -31.752   8.144   4.483  1.00 20.00     0.013 C 
HETATM    7  C7  UNL     1     -32.141   7.411   3.154  1.00 20.00     0.014 C 
HETATM    8  C8  UNL     1     -33.204   8.712   4.433  1.00 20.00    -0.013 C 
ENDROOT
TORSDOF 0
ENDMDL
