MODEL 1
REMARK VINA RESULT:      -4.3      0.000      0.000
REMARK  4 active torsions:
REMARK  status: ('A' for Active; 'I' for Inactive)
REMARK    1  A    between atoms: C5_5  and  C7_7 
REMARK    2  A    between atoms: C5_5  and  C8_8 
REMARK    3  A    between atoms: C6_6  and  C8_8 
REMARK    4  A    between atoms: C6_6  and  C9_9 
ROOT
HETATM    1  C3  UNL     1     -33.035   4.958   2.475  1.00 20.00     0.010 C 
HETATM    2  C8  UNL     1     -32.974   5.992   3.602  1.00 20.00    -0.017 C 
ENDROOT
BRANCH   2   3
HETATM    3  C5  UNL     1     -34.389   6.420   4.060  1.00 20.00     0.008 C 
BRANCH   3   4
HETATM    4  C7  UNL     1     -34.753   6.125   5.530  1.00 20.00    -0.023 C 
HETATM    5  C1  UNL     1     -34.099   7.106   6.504  1.00 20.00     0.009 C 
HETATM    6  C2  UNL     1     -34.341   4.693   5.886  1.00 20.00     0.009 C 
ENDBRANCH   3   4
ENDBRANCH   2   3
BRANCH   2   7
HETATM    7  C6  UNL     1     -32.193   7.260   3.174  1.00 20.00     0.024 C 
BRANCH   7   8
HETATM    8  C9  UNL     1     -32.856   8.609   3.496  1.00 20.00     0.078 C 
HETATM    9  C4  UNL     1     -32.131   9.312   4.638  1.00 20.00     0.026 C 
HETATM   10 CL10 UNL     1     -32.858   9.685   2.066  1.00 20.00    -0.125 Cl
ENDBRANCH   7   8
ENDBRANCH   2   7
TORSDOF 4
ENDMDL
MODEL 2
REMARK VINA RESULT:      -4.1      1.876      3.671
REMARK  4 active torsions:
REMARK  status: ('A' for Active; 'I' for Inactive)
REMARK    1  A    between atoms: C5_5  and  C7_7 
REMARK    2  A    between atoms: C5_5  and  C8_8 
REMARK    3  A    between atoms: C6_6  and  C8_8 
REMARK    4  A    between atoms: C6_6  and  C9_9 
ROOT
HETATM    1  C3  UNL     1     -32.917   4.677   1.882  1.00 20.00     0.010 C 
HETATM    2  C8  UNL     1     -33.406   5.566   3.028  1.00 20.00    -0.017 C 
ENDROOT
BRANCH   2   3
HETATM    3  C5  UNL     1     -32.385   6.681   3.362  1.00 20.00     0.008 C 
BRANCH   3   4
HETATM    4  C7  UNL     1     -32.961   8.095   3.580  1.00 20.00    -0.023 C 
HETATM    5  C1  UNL     1     -32.660   9.037   2.414  1.00 20.00     0.009 C 
HETATM    6  C2  UNL     1     -32.399   8.686   4.878  1.00 20.00     0.009 C 
ENDBRANCH   3   4
ENDBRANCH   2   3
BRANCH   2   7
HETATM    7  C6  UNL     1     -33.672   4.745   4.315  1.00 20.00     0.024 C 
BRANCH   7   8
HETATM    8  C9  UNL     1     -34.885   5.171   5.156  1.00 20.00     0.078 C 
HETATM    9  C4  UNL     1     -34.442   5.952   6.390  1.00 20.00     0.026 C 
HETATM   10 CL10 UNL     1     -36.006   6.189   4.204  1.00 20.00    -0.125 Cl
ENDBRANCH   7   8
ENDBRANCH   2   7
TORSDOF 4
ENDMDL
MODEL 3
REMARK VINA RESULT:      -3.8      1.217      2.716
REMARK  4 active torsions:
REMARK  status: ('A' for Active; 'I' for Inactive)
REMARK    1  A    between atoms: C5_5  and  C7_7 
REMARK    2  A    between atoms: C5_5  and  C8_8 
REMARK    3  A    between atoms: C6_6  and  C8_8 
REMARK    4  A    between atoms: C6_6  and  C9_9 
ROOT
HETATM    1  C3  UNL     1     -34.092   9.076   5.905  1.00 20.00     0.010 C 
HETATM    2  C8  UNL     1     -33.664   7.829   5.127  1.00 20.00    -0.017 C 
ENDROOT
BRANCH   2   3
HETATM    3  C5  UNL     1     -33.772   6.551   5.993  1.00 20.00     0.008 C 
BRANCH   3   4
HETATM    4  C7  UNL     1     -34.697   5.437   5.460  1.00 20.00    -0.023 C 
HETATM    5  C1  UNL     1     -33.919   4.256   4.881  1.00 20.00     0.009 C 
HETATM    6  C2  UNL     1     -35.633   6.012   4.392  1.00 20.00     0.009 C 
ENDBRANCH   3   4
ENDBRANCH   2   3
BRANCH   2   7
HETATM    7  C6  UNL     1     -32.207   7.949   4.611  1.00 20.00     0.024 C 
BRANCH   7   8
HETATM    8  C9  UNL     1     -32.011   7.828   3.092  1.00 20.00     0.078 C 
HETATM    9  C4  UNL     1     -32.550   6.497   2.579  1.00 20.00     0.026 C 
HETATM   10 CL10 UNL     1     -32.841   9.156   2.226  1.00 20.00    -0.125 Cl
ENDBRANCH   7   8
ENDBRANCH   2   7
TORSDOF 4
ENDMDL
MODEL 4
REMARK VINA RESULT:      -3.8      1.977      4.305
REMARK  4 active torsions:
REMARK  status: ('A' for Active; 'I' for Inactive)
REMARK    1  A    between atoms: C5_5  and  C7_7 
REMARK    2  A    between atoms: C5_5  and  C8_8 
REMARK    3  A    between atoms: C6_6  and  C8_8 
REMARK    4  A    between atoms: C6_6  and  C9_9 
ROOT
HETATM    1  C3  UNL     1     -32.156   9.420   5.491  1.00 20.00     0.010 C 
HETATM    2  C8  UNL     1     -32.636   8.105   4.872  1.00 20.00    -0.017 C 
ENDROOT
BRANCH   2   3
HETATM    3  C5  UNL     1     -32.949   8.264   3.364  1.00 20.00     0.008 C 
BRANCH   3   4
HETATM    4  C7  UNL     1     -32.095   7.422   2.393  1.00 20.00    -0.023 C 
HETATM    5  C1  UNL     1     -32.093   7.987   0.973  1.00 20.00     0.009 C 
HETATM    6  C2  UNL     1     -32.612   5.979   2.373  1.00 20.00     0.009 C 
ENDBRANCH   3   4
ENDBRANCH   2   3
BRANCH   2   7
HETATM    7  C6  UNL     1     -33.905   7.568   5.581  1.00 20.00     0.024 C 
BRANCH   7   8
HETATM    8  C9  UNL     1     -34.279   6.106   5.293  1.00 20.00     0.078 C 
HETATM    9  C4  UNL     1     -34.522   5.342   6.590  1.00 20.00     0.026 C 
HETATM   10 CL10 UNL     1     -35.752   6.003   4.281  1.00 20.00    -0.125 Cl
ENDBRANCH   7   8
ENDBRANCH   2   7
TORSDOF 4
ENDMDL
MODEL 5
REMARK VINA RESULT:      -3.7     11.746     12.648
REMARK  4 active torsions:
REMARK  status: ('A' for Active; 'I' for Inactive)
REMARK    1  A    between atoms: C5_5  and  C7_7 
REMARK    2  A    between atoms: C5_5  and  C8_8 
REMARK    3  A    between atoms: C6_6  and  C8_8 
REMARK    4  A    between atoms: C6_6  and  C9_9 
ROOT
HETATM    1  C3  UNL     1     -33.325  18.285  -3.937  1.00 20.00     0.010 C 
HETATM    2  C8  UNL     1     -33.889  17.062  -3.210  1.00 20.00    -0.017 C 
ENDROOT
BRANCH   2   3
HETATM    3  C5  UNL     1     -33.289  16.913  -1.791  1.00 20.00     0.008 C 
BRANCH   3   4
HETATM    4  C7  UNL     1     -33.081  18.217  -0.994  1.00 20.00    -0.023 C 
HETATM    5  C1  UNL     1     -31.612  18.464  -0.647  1.00 20.00     0.009 C 
HETATM    6  C2  UNL     1     -33.913  18.173   0.292  1.00 20.00     0.009 C 
ENDBRANCH   3   4
ENDBRANCH   2   3
BRANCH   2   7
HETATM    7  C6  UNL     1     -33.618  15.754  -3.996  1.00 20.00     0.024 C 
BRANCH   7   8
HETATM    8  C9  UNL     1     -34.685  15.343  -5.023  1.00 20.00     0.078 C 
HETATM    9  C4  UNL     1     -34.067  15.164  -6.406  1.00 20.00     0.026 C 
HETATM   10 CL10 UNL     1     -35.483  13.814  -4.548  1.00 20.00    -0.125 Cl
ENDBRANCH   7   8
ENDBRANCH   2   7
TORSDOF 4
ENDMDL
MODEL 6
REMARK VINA RESULT:      -3.7     11.708     12.564
REMARK  4 active torsions:
REMARK  status: ('A' for Active; 'I' for Inactive)
REMARK    1  A    between atoms: C5_5  and  C7_7 
REMARK    2  A    between atoms: C5_5  and  C8_8 
REMARK    3  A    between atoms: C6_6  and  C8_8 
REMARK    4  A    between atoms: C6_6  and  C9_9 
ROOT
HETATM    1  C3  UNL     1     -34.611  17.813  -3.887  1.00 20.00     0.010 C 
HETATM    2  C8  UNL     1     -33.512  16.862  -3.407  1.00 20.00    -0.017 C 
ENDROOT
BRANCH   2   3
HETATM    3  C5  UNL     1     -33.744  15.419  -3.915  1.00 20.00     0.008 C 
BRANCH   3   4
HETATM    4  C7  UNL     1     -34.738  15.253  -5.082  1.00 20.00    -0.023 C 
HETATM    5  C1  UNL     1     -35.673  14.059  -4.892  1.00 20.00     0.009 C 
HETATM    6  C2  UNL     1     -33.967  15.099  -6.398  1.00 20.00     0.009 C 
ENDBRANCH   3   4
ENDBRANCH   2   3
BRANCH   2   7
HETATM    7  C6  UNL     1     -33.420  16.828  -1.860  1.00 20.00     0.024 C 
BRANCH   7   8
HETATM    8  C9  UNL     1     -33.173  18.175  -1.163  1.00 20.00     0.078 C 
HETATM    9  C4  UNL     1     -34.011  18.292   0.106  1.00 20.00     0.026 C 
HETATM   10 CL10 UNL     1     -31.448  18.373  -0.732  1.00 20.00    -0.125 Cl
ENDBRANCH   7   8
ENDBRANCH   2   7
TORSDOF 4
ENDMDL
MODEL 7
REMARK VINA RESULT:      -3.6      1.792      2.918
REMARK  4 active torsions:
REMARK  status: ('A' for Active; 'I' for Inactive)
REMARK    1  A    between atoms: C5_5  and  C7_7 
REMARK    2  A    between atoms: C5_5  and  C8_8 
REMARK    3  A    between atoms: C6_6  and  C8_8 
REMARK    4  A    between atoms: C6_6  and  C9_9 
ROOT
HETATM    1  C3  UNL     1     -32.215   9.455   5.226  1.00 20.00     0.010 C 
HETATM    2  C8  UNL     1     -33.055   8.324   4.627  1.00 20.00    -0.017 C 
ENDROOT
BRANCH   2   3
HETATM    3  C5  UNL     1     -33.737   7.475   5.727  1.00 20.00     0.008 C 
BRANCH   3   4
HETATM    4  C7  UNL     1     -34.226   6.073   5.307  1.00 20.00    -0.023 C 
HETATM    5  C1  UNL     1     -35.525   6.122   4.503  1.00 20.00     0.009 C 
HETATM    6  C2  UNL     1     -34.424   5.202   6.553  1.00 20.00     0.009 C 
ENDBRANCH   3   4
ENDBRANCH   2   3
BRANCH   2   7
HETATM    7  C6  UNL     1     -32.199   7.383   3.742  1.00 20.00     0.024 C 
BRANCH   7   8
HETATM    8  C9  UNL     1     -32.782   7.026   2.366  1.00 20.00     0.078 C 
HETATM    9  C4  UNL     1     -31.993   7.702   1.249  1.00 20.00     0.026 C 
HETATM   10 CL10 UNL     1     -32.761   5.257   2.094  1.00 20.00    -0.125 Cl
ENDBRANCH   7   8
ENDBRANCH   2   7
TORSDOF 4
ENDMDL
MODEL 8
REMARK VINA RESULT:      -3.6      9.704     10.656
REMARK  4 active torsions:
REMARK  status: ('A' for Active; 'I' for Inactive)
REMARK    1  A    between atoms: C5_5  and  C7_7 
REMARK    2  A    between atoms: C5_5  and  C8_8 
REMARK    3  A    between atoms: C6_6  and  C8_8 
REMARK    4  A    between atoms: C6_6  and  C9_9 
ROOT
HETATM    1  C3  UNL     1     -42.460  12.245   6.868  1.00 20.00     0.010 C 
HETATM    2  C8  UNL     1     -42.110  13.504   6.071  1.00 20.00    -0.017 C 
ENDROOT
BRANCH   2   3
HETATM    3  C5  UNL     1     -40.737  13.372   5.369  1.00 20.00     0.008 C 
BRANCH   3   4
HETATM    4  C7  UNL     1     -40.011  12.020   5.531  1.00 20.00    -0.023 C 
HETATM    5  C1  UNL     1     -38.951  12.052   6.633  1.00 20.00     0.009 C 
HETATM    6  C2  UNL     1     -39.360  11.622   4.202  1.00 20.00     0.009 C 
ENDBRANCH   3   4
ENDBRANCH   2   3
BRANCH   2   7
HETATM    7  C6  UNL     1     -42.078  14.763   6.974  1.00 20.00     0.024 C 
BRANCH   7   8
HETATM    8  C9  UNL     1     -40.688  15.259   7.403  1.00 20.00     0.078 C 
HETATM    9  C4  UNL     1     -40.669  16.778   7.534  1.00 20.00     0.026 C 
HETATM   10 CL10 UNL     1     -40.202  14.542   8.969  1.00 20.00    -0.125 Cl
ENDBRANCH   7   8
ENDBRANCH   2   7
TORSDOF 4
ENDMDL
MODEL 9
REMARK VINA RESULT:      -3.6      9.604     10.741
REMARK  4 active torsions:
REMARK  status: ('A' for Active; 'I' for Inactive)
REMARK    1  A    between atoms: C5_5  and  C7_7 
REMARK    2  A    between atoms: C5_5  and  C8_8 
REMARK    3  A    between atoms: C6_6  and  C8_8 
REMARK    4  A    between atoms: C6_6  and  C9_9 
ROOT
HETATM    1  C3  UNL     1     -42.880  12.857   6.804  1.00 20.00     0.010 C 
HETATM    2  C8  UNL     1     -41.452  13.380   6.625  1.00 20.00    -0.017 C 
ENDROOT
BRANCH   2   3
HETATM    3  C5  UNL     1     -41.398  14.926   6.694  1.00 20.00     0.008 C 
BRANCH   3   4
HETATM    4  C7  UNL     1     -40.407  15.533   7.708  1.00 20.00    -0.023 C 
HETATM    5  C1  UNL     1     -40.252  14.674   8.964  1.00 20.00     0.009 C 
HETATM    6  C2  UNL     1     -40.870  16.940   8.101  1.00 20.00     0.009 C 
ENDBRANCH   3   4
ENDBRANCH   2   3
BRANCH   2   7
HETATM    7  C6  UNL     1     -40.842  12.929   5.274  1.00 20.00     0.024 C 
BRANCH   7   8
HETATM    8  C9  UNL     1     -39.818  11.785   5.338  1.00 20.00     0.078 C 
HETATM    9  C4  UNL     1     -38.995  11.721   4.055  1.00 20.00     0.026 C 
HETATM   10 CL10 UNL     1     -38.705  11.991   6.724  1.00 20.00    -0.125 Cl
ENDBRANCH   7   8
ENDBRANCH   2   7
TORSDOF 4
ENDMDL
