MODEL 1
REMARK VINA RESULT:      -4.3      0.000      0.000
REMARK  2 active torsions:
REMARK  status: ('A' for Active; 'I' for Inactive)
REMARK    1  A    between atoms: C8_8  and  C9_9 
REMARK    2  A    between atoms: C9_9  and  O11_11 
ROOT
HETATM    1  C1  UNL     1     -34.504   4.736   5.104  1.00 20.00     0.003 C 
HETATM    2  C2  UNL     1     -34.173   5.284   6.494  1.00 20.00     0.003 C 
HETATM    3  C3  UNL     1     -34.823   5.950   4.236  1.00 20.00     0.038 C 
HETATM    4  C4  UNL     1     -34.298   6.801   6.393  1.00 20.00     0.038 C 
HETATM    5  C9  UNL     1     -34.096   7.113   4.912  1.00 20.00     0.063 C 
ENDROOT
BRANCH   5   6
HETATM    6  C8  UNL     1     -32.620   7.192   4.526  1.00 20.00     0.046 C 
HETATM    7  C5  UNL     1     -32.098   8.614   4.572  1.00 20.00     0.036 C 
HETATM    8  C6  UNL     1     -32.488   9.165   3.216  1.00 20.00     0.168 C 
HETATM    9  O10 UNL     1     -32.552   8.055   2.312  1.00 20.00    -0.391 OA
HETATM   10  C7  UNL     1     -32.399   6.842   3.063  1.00 20.00     0.175 C 
ENDBRANCH   5   6
BRANCH   5  11
HETATM   11  O11 UNL     1     -34.721   8.347   4.590  1.00 20.00    -0.389 OA
HETATM   12  H27 UNL     1     -34.054   9.037   4.727  1.00 20.00     0.210 HD
ENDBRANCH   5  11
TORSDOF 2
ENDMDL
MODEL 2
REMARK VINA RESULT:      -3.9     11.734     14.032
REMARK  2 active torsions:
REMARK  status: ('A' for Active; 'I' for Inactive)
REMARK    1  A    between atoms: C8_8  and  C9_9 
REMARK    2  A    between atoms: C9_9  and  O11_11 
ROOT
HETATM    1  C1  UNL     1     -36.632  16.446  -7.842  1.00 20.00     0.003 C 
HETATM    2  C2  UNL     1     -35.730  17.639  -7.518  1.00 20.00     0.003 C 
HETATM    3  C3  UNL     1     -35.766  15.202  -7.667  1.00 20.00     0.038 C 
HETATM    4  C4  UNL     1     -34.369  17.055  -7.152  1.00 20.00     0.038 C 
HETATM    5  C9  UNL     1     -34.665  15.627  -6.696  1.00 20.00     0.063 C 
ENDROOT
BRANCH   5   6
HETATM    6  C8  UNL     1     -35.105  15.559  -5.235  1.00 20.00     0.046 C 
HETATM    7  C5  UNL     1     -34.204  16.377  -4.332  1.00 20.00     0.036 C 
HETATM    8  C6  UNL     1     -33.061  15.427  -4.039  1.00 20.00     0.168 C 
HETATM    9  O10 UNL     1     -33.581  14.095  -4.145  1.00 20.00    -0.391 OA
HETATM   10  C7  UNL     1     -34.921  14.166  -4.655  1.00 20.00     0.175 C 
ENDBRANCH   5   6
BRANCH   5  11
HETATM   11  O11 UNL     1     -33.510  14.818  -6.866  1.00 20.00    -0.389 OA
HETATM   12  H27 UNL     1     -32.994  15.222  -7.582  1.00 20.00     0.210 HD
ENDBRANCH   5  11
TORSDOF 2
ENDMDL
MODEL 3
REMARK VINA RESULT:      -3.7     11.885     13.244
REMARK  2 active torsions:
REMARK  status: ('A' for Active; 'I' for Inactive)
REMARK    1  A    between atoms: C8_8  and  C9_9 
REMARK    2  A    between atoms: C9_9  and  O11_11 
ROOT
HETATM    1  C1  UNL     1     -31.918  19.076   0.450  1.00 20.00     0.003 C 
HETATM    2  C2  UNL     1     -33.370  18.764   0.820  1.00 20.00     0.003 C 
HETATM    3  C3  UNL     1     -31.614  18.256  -0.800  1.00 20.00     0.038 C 
HETATM    4  C4  UNL     1     -33.873  17.780  -0.232  1.00 20.00     0.038 C 
HETATM    5  C9  UNL     1     -32.977  18.013  -1.447  1.00 20.00     0.063 C 
ENDROOT
BRANCH   5   6
HETATM    6  C8  UNL     1     -33.444  19.190  -2.301  1.00 20.00     0.046 C 
HETATM    7  C5  UNL     1     -34.950  19.204  -2.471  1.00 20.00     0.036 C 
HETATM    8  C6  UNL     1     -35.172  18.262  -3.637  1.00 20.00     0.168 C 
HETATM    9  O10 UNL     1     -33.982  18.294  -4.437  1.00 20.00    -0.391 OA
HETATM   10  C7  UNL     1     -32.984  19.057  -3.744  1.00 20.00     0.175 C 
ENDBRANCH   5   6
BRANCH   5  11
HETATM   11  O11 UNL     1     -32.946  16.844  -2.254  1.00 20.00    -0.389 OA
HETATM   12  H27 UNL     1     -32.637  16.123  -1.682  1.00 20.00     0.210 HD
ENDBRANCH   5  11
TORSDOF 2
ENDMDL
MODEL 4
REMARK VINA RESULT:      -3.7     12.476     13.654
REMARK  2 active torsions:
REMARK  status: ('A' for Active; 'I' for Inactive)
REMARK    1  A    between atoms: C8_8  and  C9_9 
REMARK    2  A    between atoms: C9_9  and  O11_11 
ROOT
HETATM    1  C1  UNL     1     -34.535  18.136  -1.920  1.00 20.00     0.003 C 
HETATM    2  C2  UNL     1     -33.546  16.969  -1.943  1.00 20.00     0.003 C 
HETATM    3  C3  UNL     1     -34.505  18.743  -3.319  1.00 20.00     0.038 C 
HETATM    4  C4  UNL     1     -32.978  16.923  -3.357  1.00 20.00     0.038 C 
HETATM    5  C9  UNL     1     -34.031  17.608  -4.226  1.00 20.00     0.063 C 
ENDROOT
BRANCH   5   6
HETATM    6  C8  UNL     1     -35.161  16.663  -4.631  1.00 20.00     0.046 C 
HETATM    7  C5  UNL     1     -34.670  15.242  -4.821  1.00 20.00     0.036 C 
HETATM    8  C6  UNL     1     -34.154  15.246  -6.246  1.00 20.00     0.168 C 
HETATM    9  O10 UNL     1     -34.887  16.253  -6.957  1.00 20.00    -0.391 OA
HETATM   10  C7  UNL     1     -35.692  16.982  -6.019  1.00 20.00     0.175 C 
ENDBRANCH   5   6
BRANCH   5  11
HETATM   11  O11 UNL     1     -33.423  18.128  -5.400  1.00 20.00    -0.389 OA
HETATM   12  H27 UNL     1     -34.059  17.993  -6.120  1.00 20.00     0.210 HD
ENDBRANCH   5  11
TORSDOF 2
ENDMDL
MODEL 5
REMARK VINA RESULT:      -3.7     11.622     13.211
REMARK  2 active torsions:
REMARK  status: ('A' for Active; 'I' for Inactive)
REMARK    1  A    between atoms: C8_8  and  C9_9 
REMARK    2  A    between atoms: C9_9  and  O11_11 
ROOT
HETATM    1  C1  UNL     1     -35.768  13.977  -4.911  1.00 20.00     0.003 C 
HETATM    2  C2  UNL     1     -35.627  14.760  -6.218  1.00 20.00     0.003 C 
HETATM    3  C3  UNL     1     -34.495  14.250  -4.116  1.00 20.00     0.038 C 
HETATM    4  C4  UNL     1     -34.281  15.474  -6.141  1.00 20.00     0.038 C 
HETATM    5  C9  UNL     1     -33.982  15.587  -4.648  1.00 20.00     0.063 C 
ENDROOT
BRANCH   5   6
HETATM    6  C8  UNL     1     -34.674  16.786  -4.002  1.00 20.00     0.046 C 
HETATM    7  C5  UNL     1     -34.855  17.930  -4.978  1.00 20.00     0.036 C 
HETATM    8  C6  UNL     1     -33.525  18.653  -4.910  1.00 20.00     0.168 C 
HETATM    9  O10 UNL     1     -32.977  18.405  -3.608  1.00 20.00    -0.391 OA
HETATM   10  C7  UNL     1     -33.800  17.437  -2.941  1.00 20.00     0.175 C 
ENDBRANCH   5   6
BRANCH   5  11
HETATM   11  O11 UNL     1     -32.581  15.701  -4.445  1.00 20.00    -0.389 OA
HETATM   12  H27 UNL     1     -32.206  14.823  -4.617  1.00 20.00     0.210 HD
ENDBRANCH   5  11
TORSDOF 2
ENDMDL
MODEL 6
REMARK VINA RESULT:      -3.6      8.771     10.230
REMARK  2 active torsions:
REMARK  status: ('A' for Active; 'I' for Inactive)
REMARK    1  A    between atoms: C8_8  and  C9_9 
REMARK    2  A    between atoms: C9_9  and  O11_11 
ROOT
HETATM    1  C1  UNL     1     -40.679   8.627   0.069  1.00 20.00     0.003 C 
HETATM    2  C2  UNL     1     -41.896   8.452  -0.842  1.00 20.00     0.003 C 
HETATM    3  C3  UNL     1     -41.048   7.974   1.397  1.00 20.00     0.038 C 
HETATM    4  C4  UNL     1     -42.934   7.691  -0.022  1.00 20.00     0.038 C 
HETATM    5  C9  UNL     1     -42.126   6.951   1.042  1.00 20.00     0.063 C 
ENDROOT
BRANCH   5   6
HETATM    6  C8  UNL     1     -41.546   5.635   0.526  1.00 20.00     0.046 C 
HETATM    7  C5  UNL     1     -42.131   5.245  -0.817  1.00 20.00     0.036 C 
HETATM    8  C6  UNL     1     -43.416   4.538  -0.437  1.00 20.00     0.168 C 
HETATM    9  O10 UNL     1     -43.222   3.984   0.871  1.00 20.00    -0.391 OA
HETATM   10  C7  UNL     1     -41.969   4.456   1.388  1.00 20.00     0.175 C 
ENDBRANCH   5   6
BRANCH   5  11
HETATM   11  O11 UNL     1     -42.948   6.680   2.168  1.00 20.00    -0.389 OA
HETATM   12  H27 UNL     1     -43.336   5.803   2.020  1.00 20.00     0.210 HD
ENDBRANCH   5  11
TORSDOF 2
ENDMDL
MODEL 7
REMARK VINA RESULT:      -3.6     11.785     13.920
REMARK  2 active torsions:
REMARK  status: ('A' for Active; 'I' for Inactive)
REMARK    1  A    between atoms: C8_8  and  C9_9 
REMARK    2  A    between atoms: C9_9  and  O11_11 
ROOT
HETATM    1  C1  UNL     1     -34.752  18.674  -6.569  1.00 20.00     0.003 C 
HETATM    2  C2  UNL     1     -36.183  18.131  -6.536  1.00 20.00     0.003 C 
HETATM    3  C3  UNL     1     -34.082  18.177  -5.292  1.00 20.00     0.038 C 
HETATM    4  C4  UNL     1     -36.300  17.325  -5.247  1.00 20.00     0.038 C 
HETATM    5  C9  UNL     1     -34.867  16.925  -4.902  1.00 20.00     0.063 C 
ENDROOT
BRANCH   5   6
HETATM    6  C8  UNL     1     -34.409  15.680  -5.659  1.00 20.00     0.046 C 
HETATM    7  C5  UNL     1     -35.569  14.773  -6.015  1.00 20.00     0.036 C 
HETATM    8  C6  UNL     1     -35.757  13.948  -4.758  1.00 20.00     0.168 C 
HETATM    9  O10 UNL     1     -34.484  13.885  -4.101  1.00 20.00    -0.391 OA
HETATM   10  C7  UNL     1     -33.573  14.762  -4.780  1.00 20.00     0.175 C 
ENDBRANCH   5   6
BRANCH   5  11
HETATM   11  O11 UNL     1     -34.757  16.681  -3.507  1.00 20.00    -0.389 OA
HETATM   12  H27 UNL     1     -33.962  17.150  -3.208  1.00 20.00     0.210 HD
ENDBRANCH   5  11
TORSDOF 2
ENDMDL
MODEL 8
REMARK VINA RESULT:      -3.6     12.163     13.581
REMARK  2 active torsions:
REMARK  status: ('A' for Active; 'I' for Inactive)
REMARK    1  A    between atoms: C8_8  and  C9_9 
REMARK    2  A    between atoms: C9_9  and  O11_11 
ROOT
HETATM    1  C1  UNL     1     -34.413  16.459  -7.051  1.00 20.00     0.003 C 
HETATM    2  C2  UNL     1     -34.354  15.138  -6.279  1.00 20.00     0.003 C 
HETATM    3  C3  UNL     1     -35.084  17.463  -6.119  1.00 20.00     0.038 C 
HETATM    4  C4  UNL     1     -34.982  15.415  -4.917  1.00 20.00     0.038 C 
HETATM    5  C9  UNL     1     -34.829  16.921  -4.713  1.00 20.00     0.063 C 
ENDROOT
BRANCH   5   6
HETATM    6  C8  UNL     1     -33.451  17.301  -4.174  1.00 20.00     0.046 C 
HETATM    7  C5  UNL     1     -33.013  16.390  -3.045  1.00 20.00     0.036 C 
HETATM    8  C6  UNL     1     -33.668  17.013  -1.829  1.00 20.00     0.168 C 
HETATM    9  O10 UNL     1     -33.825  18.411  -2.105  1.00 20.00    -0.391 OA
HETATM   10  C7  UNL     1     -33.471  18.651  -3.475  1.00 20.00     0.175 C 
ENDBRANCH   5   6
BRANCH   5  11
HETATM   11  O11 UNL     1     -35.820  17.388  -3.810  1.00 20.00    -0.389 OA
HETATM   12  H27 UNL     1     -36.657  17.396  -4.300  1.00 20.00     0.210 HD
ENDBRANCH   5  11
TORSDOF 2
ENDMDL
MODEL 9
REMARK VINA RESULT:      -3.6      8.809      9.801
REMARK  2 active torsions:
REMARK  status: ('A' for Active; 'I' for Inactive)
REMARK    1  A    between atoms: C8_8  and  C9_9 
REMARK    2  A    between atoms: C9_9  and  O11_11 
ROOT
HETATM    1  C1  UNL     1     -38.595  11.902   4.558  1.00 20.00     0.003 C 
HETATM    2  C2  UNL     1     -38.013  12.211   5.940  1.00 20.00     0.003 C 
HETATM    3  C3  UNL     1     -40.077  11.615   4.779  1.00 20.00     0.038 C 
HETATM    4  C4  UNL     1     -39.175  12.107   6.922  1.00 20.00     0.038 C 
HETATM    5  C9  UNL     1     -40.425  12.342   6.078  1.00 20.00     0.063 C 
ENDROOT
BRANCH   5   6
HETATM    6  C8  UNL     1     -40.717  13.826   5.865  1.00 20.00     0.046 C 
HETATM    7  C5  UNL     1     -40.530  14.629   7.137  1.00 20.00     0.036 C 
HETATM    8  C6  UNL     1     -41.859  14.462   7.845  1.00 20.00     0.168 C 
HETATM    9  O10 UNL     1     -42.850  14.234   6.833  1.00 20.00    -0.391 OA
HETATM   10  C7  UNL     1     -42.187  14.076   5.570  1.00 20.00     0.175 C 
ENDBRANCH   5   6
BRANCH   5  11
HETATM   11  O11 UNL     1     -41.549  11.738   6.702  1.00 20.00    -0.389 OA
HETATM   12  H27 UNL     1     -41.437  10.780   6.602  1.00 20.00     0.210 HD
ENDBRANCH   5  11
TORSDOF 2
ENDMDL
