MODEL 1
REMARK VINA RESULT:      -3.9      0.000      0.000
REMARK  3 active torsions:
REMARK  status: ('A' for Active; 'I' for Inactive)
REMARK    1  A    between atoms: C5_5  and  S11_11 
REMARK    2  A    between atoms: C7_7  and  C8_8 
REMARK    3  A    between atoms: C8_8  and  S11_11 
ROOT
HETATM    1  C1  UNL     1     -34.488  17.600  -5.618  1.00 20.00     0.080 C 
HETATM    2  C2  UNL     1     -34.214  15.388  -6.856  1.00 20.00     0.071 C 
HETATM    3  C3  UNL     1     -35.990  15.539  -5.661  1.00 20.00     0.071 C 
HETATM    4  C4  UNL     1     -35.730  15.354  -7.177  1.00 20.00     0.165 C 
HETATM    5  C5  UNL     1     -34.571  16.158  -5.556  1.00 20.00     0.101 C 
HETATM    6  N9  UNL     1     -34.420  18.757  -5.667  1.00 20.00    -0.196 NA
HETATM    7  O10 UNL     1     -36.167  14.116  -7.669  1.00 20.00    -0.235 OA
ENDROOT
BRANCH   5   8
HETATM    8  S11 UNL     1     -33.648  15.528  -4.108  1.00 20.00    -0.144 SA
BRANCH   8   9
HETATM    9  C8  UNL     1     -33.296  17.117  -3.325  1.00 20.00     0.075 C 
BRANCH   9  10
HETATM   10  C7  UNL     1     -33.504  17.027  -1.818  1.00 20.00     0.006 C 
HETATM   11  C6  UNL     1     -32.620  18.024  -1.083  1.00 20.00     0.006 C 
ENDBRANCH   9  10
ENDBRANCH   8   9
ENDBRANCH   5   8
TORSDOF 3
ENDMDL
MODEL 2
REMARK VINA RESULT:      -3.8      1.853      2.173
REMARK  3 active torsions:
REMARK  status: ('A' for Active; 'I' for Inactive)
REMARK    1  A    between atoms: C5_5  and  S11_11 
REMARK    2  A    between atoms: C7_7  and  C8_8 
REMARK    3  A    between atoms: C8_8  and  S11_11 
ROOT
HETATM    1  C1  UNL     1     -33.952  14.799  -4.692  1.00 20.00     0.080 C 
HETATM    2  C2  UNL     1     -36.284  15.427  -5.511  1.00 20.00     0.071 C 
HETATM    3  C3  UNL     1     -34.681  16.029  -6.805  1.00 20.00     0.071 C 
HETATM    4  C4  UNL     1     -35.892  15.076  -6.969  1.00 20.00     0.165 C 
HETATM    5  C5  UNL     1     -34.800  15.816  -5.272  1.00 20.00     0.101 C 
HETATM    6  N9  UNL     1     -33.273  13.983  -4.226  1.00 20.00    -0.196 NA
HETATM    7  O10 UNL     1     -36.823  15.519  -7.918  1.00 20.00    -0.235 OA
ENDROOT
BRANCH   5   8
HETATM    8  S11 UNL     1     -34.641  17.384  -4.342  1.00 20.00    -0.144 SA
BRANCH   8   9
HETATM    9  C8  UNL     1     -33.226  16.924  -3.319  1.00 20.00     0.075 C 
BRANCH   9  10
HETATM   10  C7  UNL     1     -33.543  17.137  -1.843  1.00 20.00     0.006 C 
HETATM   11  C6  UNL     1     -32.514  18.044  -1.186  1.00 20.00     0.006 C 
ENDBRANCH   9  10
ENDBRANCH   8   9
ENDBRANCH   5   8
TORSDOF 3
ENDMDL
MODEL 3
REMARK VINA RESULT:      -3.8     12.968     14.415
REMARK  3 active torsions:
REMARK  status: ('A' for Active; 'I' for Inactive)
REMARK    1  A    between atoms: C5_5  and  S11_11 
REMARK    2  A    between atoms: C7_7  and  C8_8 
REMARK    3  A    between atoms: C8_8  and  S11_11 
ROOT
HETATM    1  C1  UNL     1     -42.274  13.525   7.919  1.00 20.00     0.080 C 
HETATM    2  C2  UNL     1     -40.329  15.138   7.575  1.00 20.00     0.071 C 
HETATM    3  C3  UNL     1     -42.230  15.859   6.891  1.00 20.00     0.071 C 
HETATM    4  C4  UNL     1     -41.226  16.339   7.968  1.00 20.00     0.165 C 
HETATM    5  C5  UNL     1     -41.606  14.444   7.027  1.00 20.00     0.101 C 
HETATM    6  N9  UNL     1     -42.810  12.787   8.636  1.00 20.00    -0.196 NA
HETATM    7  O10 UNL     1     -40.649  17.583   7.675  1.00 20.00    -0.235 OA
ENDROOT
BRANCH   5   8
HETATM    8  S11 UNL     1     -41.317  13.658   5.401  1.00 20.00    -0.144 SA
BRANCH   8   9
HETATM    9  C8  UNL     1     -40.524  12.147   5.993  1.00 20.00     0.075 C 
BRANCH   9  10
HETATM   10  C7  UNL     1     -39.076  12.084   5.521  1.00 20.00     0.006 C 
HETATM   11  C6  UNL     1     -38.993  11.667   4.061  1.00 20.00     0.006 C 
ENDBRANCH   9  10
ENDBRANCH   8   9
ENDBRANCH   5   8
TORSDOF 3
ENDMDL
MODEL 4
REMARK VINA RESULT:      -3.8     12.955     14.103
REMARK  3 active torsions:
REMARK  status: ('A' for Active; 'I' for Inactive)
REMARK    1  A    between atoms: C5_5  and  S11_11 
REMARK    2  A    between atoms: C7_7  and  C8_8 
REMARK    3  A    between atoms: C8_8  and  S11_11 
ROOT
HETATM    1  C1  UNL     1     -42.007  12.419   6.860  1.00 20.00     0.080 C 
HETATM    2  C2  UNL     1     -40.617  13.033   4.813  1.00 20.00     0.071 C 
HETATM    3  C3  UNL     1     -39.494  12.241   6.460  1.00 20.00     0.071 C 
HETATM    4  C4  UNL     1     -39.736  11.772   5.004  1.00 20.00     0.165 C 
HETATM    5  C5  UNL     1     -40.812  13.054   6.353  1.00 20.00     0.101 C 
HETATM    6  N9  UNL     1     -42.967  11.909   7.266  1.00 20.00    -0.196 NA
HETATM    7  O10 UNL     1     -38.576  11.779   4.218  1.00 20.00    -0.235 OA
ENDROOT
BRANCH   5   8
HETATM    8  S11 UNL     1     -40.643  14.739   7.044  1.00 20.00    -0.144 SA
BRANCH   8   9
HETATM    9  C8  UNL     1     -41.020  14.340   8.765  1.00 20.00     0.075 C 
BRANCH   9  10
HETATM   10  C7  UNL     1     -40.143  15.159   9.707  1.00 20.00     0.006 C 
HETATM   11  C6  UNL     1     -40.388  14.773  11.158  1.00 20.00     0.006 C 
ENDBRANCH   9  10
ENDBRANCH   8   9
ENDBRANCH   5   8
TORSDOF 3
ENDMDL
MODEL 5
REMARK VINA RESULT:      -3.7      3.361      4.210
REMARK  3 active torsions:
REMARK  status: ('A' for Active; 'I' for Inactive)
REMARK    1  A    between atoms: C5_5  and  S11_11 
REMARK    2  A    between atoms: C7_7  and  C8_8 
REMARK    3  A    between atoms: C8_8  and  S11_11 
ROOT
HETATM    1  C1  UNL     1     -35.000  18.795  -2.081  1.00 20.00     0.080 C 
HETATM    2  C2  UNL     1     -33.218  17.935  -3.689  1.00 20.00     0.071 C 
HETATM    3  C3  UNL     1     -33.509  16.730  -1.938  1.00 20.00     0.071 C 
HETATM    4  C4  UNL     1     -33.680  16.474  -3.457  1.00 20.00     0.165 C 
HETATM    5  C5  UNL     1     -33.673  18.245  -2.237  1.00 20.00     0.101 C 
HETATM    6  N9  UNL     1     -36.065  19.237  -1.956  1.00 20.00    -0.196 NA
HETATM    7  O10 UNL     1     -32.786  15.521  -3.964  1.00 20.00    -0.235 OA
ENDROOT
BRANCH   5   8
HETATM    8  S11 UNL     1     -32.450  19.263  -1.336  1.00 20.00    -0.144 SA
BRANCH   8   9
HETATM    9  C8  UNL     1     -33.266  19.263   0.276  1.00 20.00     0.075 C 
BRANCH   9  10
HETATM   10  C7  UNL     1     -32.269  18.927   1.379  1.00 20.00     0.006 C 
HETATM   11  C6  UNL     1     -30.949  18.444   0.796  1.00 20.00     0.006 C 
ENDBRANCH   9  10
ENDBRANCH   8   9
ENDBRANCH   5   8
TORSDOF 3
ENDMDL
MODEL 6
REMARK VINA RESULT:      -3.6      2.921      4.457
REMARK  3 active torsions:
REMARK  status: ('A' for Active; 'I' for Inactive)
REMARK    1  A    between atoms: C5_5  and  S11_11 
REMARK    2  A    between atoms: C7_7  and  C8_8 
REMARK    3  A    between atoms: C8_8  and  S11_11 
ROOT
HETATM    1  C1  UNL     1     -34.059  15.249  -6.635  1.00 20.00     0.080 C 
HETATM    2  C2  UNL     1     -34.388  16.776  -4.621  1.00 20.00     0.071 C 
HETATM    3  C3  UNL     1     -34.104  14.704  -4.144  1.00 20.00     0.071 C 
HETATM    4  C4  UNL     1     -33.312  15.996  -3.824  1.00 20.00     0.165 C 
HETATM    5  C5  UNL     1     -34.711  15.451  -5.362  1.00 20.00     0.101 C 
HETATM    6  N9  UNL     1     -33.536  15.088  -7.658  1.00 20.00    -0.196 NA
HETATM    7  O10 UNL     1     -33.291  16.312  -2.459  1.00 20.00    -0.235 OA
ENDROOT
BRANCH   5   8
HETATM    8  S11 UNL     1     -36.512  15.171  -5.516  1.00 20.00    -0.144 SA
BRANCH   8   9
HETATM    9  C8  UNL     1     -36.816  16.270  -6.917  1.00 20.00     0.075 C 
BRANCH   9  10
HETATM   10  C7  UNL     1     -37.653  17.468  -6.483  1.00 20.00     0.006 C 
HETATM   11  C6  UNL     1     -38.110  17.324  -5.040  1.00 20.00     0.006 C 
ENDBRANCH   9  10
ENDBRANCH   8   9
ENDBRANCH   5   8
TORSDOF 3
ENDMDL
MODEL 7
REMARK VINA RESULT:      -3.5     12.759     13.676
REMARK  3 active torsions:
REMARK  status: ('A' for Active; 'I' for Inactive)
REMARK    1  A    between atoms: C5_5  and  S11_11 
REMARK    2  A    between atoms: C7_7  and  C8_8 
REMARK    3  A    between atoms: C8_8  and  S11_11 
ROOT
HETATM    1  C1  UNL     1     -41.971  12.373   6.831  1.00 20.00     0.080 C 
HETATM    2  C2  UNL     1     -40.563  13.036   4.811  1.00 20.00     0.071 C 
HETATM    3  C3  UNL     1     -39.463  12.145   6.424  1.00 20.00     0.071 C 
HETATM    4  C4  UNL     1     -39.716  11.745   4.949  1.00 20.00     0.165 C 
HETATM    5  C5  UNL     1     -40.759  12.997   6.351  1.00 20.00     0.101 C 
HETATM    6  N9  UNL     1     -42.945  11.873   7.216  1.00 20.00    -0.196 NA
HETATM    7  O10 UNL     1     -38.556  11.754   4.163  1.00 20.00    -0.235 OA
ENDROOT
BRANCH   5   8
HETATM    8  S11 UNL     1     -40.546  14.646   7.114  1.00 20.00    -0.144 SA
BRANCH   8   9
HETATM    9  C8  UNL     1     -42.279  15.151   7.105  1.00 20.00     0.075 C 
BRANCH   9  10
HETATM   10  C7  UNL     1     -42.520  16.216   6.042  1.00 20.00     0.006 C 
HETATM   11  C6  UNL     1     -43.208  15.627   4.820  1.00 20.00     0.006 C 
ENDBRANCH   9  10
ENDBRANCH   8   9
ENDBRANCH   5   8
TORSDOF 3
ENDMDL
MODEL 8
REMARK VINA RESULT:      -3.5      3.359      5.441
REMARK  3 active torsions:
REMARK  status: ('A' for Active; 'I' for Inactive)
REMARK    1  A    between atoms: C5_5  and  S11_11 
REMARK    2  A    between atoms: C7_7  and  C8_8 
REMARK    3  A    between atoms: C8_8  and  S11_11 
ROOT
HETATM    1  C1  UNL     1     -35.104  18.520  -2.495  1.00 20.00     0.080 C 
HETATM    2  C2  UNL     1     -33.104  17.594  -1.214  1.00 20.00     0.071 C 
HETATM    3  C3  UNL     1     -32.611  18.979  -2.776  1.00 20.00     0.071 C 
HETATM    4  C4  UNL     1     -32.416  18.982  -1.239  1.00 20.00     0.165 C 
HETATM    5  C5  UNL     1     -33.770  17.969  -2.565  1.00 20.00     0.101 C 
HETATM    6  N9  UNL     1     -36.175  18.962  -2.439  1.00 20.00    -0.196 NA
HETATM    7  O10 UNL     1     -31.070  18.943  -0.850  1.00 20.00    -0.235 OA
ENDROOT
BRANCH   5   8
HETATM    8  S11 UNL     1     -33.712  16.590  -3.766  1.00 20.00    -0.144 SA
BRANCH   8   9
HETATM    9  C8  UNL     1     -34.626  17.387  -5.105  1.00 20.00     0.075 C 
BRANCH   9  10
HETATM   10  C7  UNL     1     -34.988  16.372  -6.183  1.00 20.00     0.006 C 
HETATM   11  C6  UNL     1     -34.102  15.139  -6.094  1.00 20.00     0.006 C 
ENDBRANCH   9  10
ENDBRANCH   8   9
ENDBRANCH   5   8
TORSDOF 3
ENDMDL
MODEL 9
REMARK VINA RESULT:      -3.5      1.777      1.950
REMARK  3 active torsions:
REMARK  status: ('A' for Active; 'I' for Inactive)
REMARK    1  A    between atoms: C5_5  and  S11_11 
REMARK    2  A    between atoms: C7_7  and  C8_8 
REMARK    3  A    between atoms: C8_8  and  S11_11 
ROOT
HETATM    1  C1  UNL     1     -36.244  17.522  -4.792  1.00 20.00     0.080 C 
HETATM    2  C2  UNL     1     -34.527  17.232  -6.654  1.00 20.00     0.071 C 
HETATM    3  C3  UNL     1     -34.419  15.765  -5.091  1.00 20.00     0.071 C 
HETATM    4  C4  UNL     1     -34.707  15.693  -6.612  1.00 20.00     0.165 C 
HETATM    5  C5  UNL     1     -34.868  17.250  -5.139  1.00 20.00     0.101 C 
HETATM    6  N9  UNL     1     -37.349  17.740  -4.513  1.00 20.00    -0.196 NA
HETATM    7  O10 UNL     1     -33.726  14.998  -7.331  1.00 20.00    -0.235 OA
ENDROOT
BRANCH   5   8
HETATM    8  S11 UNL     1     -33.745  18.342  -4.194  1.00 20.00    -0.144 SA
BRANCH   8   9
HETATM    9  C8  UNL     1     -34.469  18.090  -2.559  1.00 20.00     0.075 C 
BRANCH   9  10
HETATM   10  C7  UNL     1     -33.549  17.237  -1.693  1.00 20.00     0.006 C 
HETATM   11  C6  UNL     1     -32.411  18.068  -1.120  1.00 20.00     0.006 C 
ENDBRANCH   9  10
ENDBRANCH   8   9
ENDBRANCH   5   8
TORSDOF 3
ENDMDL
