MODEL 1
REMARK VINA RESULT:      -3.5      0.000      0.000
REMARK  2 active torsions:
REMARK  status: ('A' for Active; 'I' for Inactive)
REMARK    1  A    between atoms: C5_5  and  C6_6 
REMARK    2  A    between atoms: C6_6  and  O8_8 
ROOT
HETATM    1  C1  UNL     1     -22.346  17.383   9.349  1.00 20.00     0.097 C 
HETATM    2  C3  UNL     1     -22.399  18.331  11.616  1.00 20.00     0.062 C 
HETATM    3  C6  UNL     1     -23.213  18.026  10.355  1.00 20.00     0.144 C 
HETATM    4  N7  UNL     1     -21.664  16.880   8.557  1.00 20.00    -0.194 NA
ENDROOT
BRANCH   3   5
HETATM    5  C5  UNL     1     -24.413  17.129  10.711  1.00 20.00     0.049 C 
HETATM    6  C2  UNL     1     -24.189  16.234  11.927  1.00 20.00     0.009 C 
ENDBRANCH   3   5
BRANCH   3   7
HETATM    7  O8  UNL     1     -23.707  19.263   9.839  1.00 20.00    -0.371 OA
HETATM    8  C4  UNL     1     -24.635  19.049   8.788  1.00 20.00     0.204 C 
ENDBRANCH   3   7
TORSDOF 2
ENDMDL
MODEL 2
REMARK VINA RESULT:      -3.5     15.866     16.635
REMARK  2 active torsions:
REMARK  status: ('A' for Active; 'I' for Inactive)
REMARK    1  A    between atoms: C5_5  and  C6_6 
REMARK    2  A    between atoms: C6_6  and  O8_8 
ROOT
HETATM    1  C1  UNL     1     -33.316   5.748   3.511  1.00 20.00     0.097 C 
HETATM    2  C3  UNL     1     -35.529   6.184   4.489  1.00 20.00     0.062 C 
HETATM    3  C6  UNL     1     -34.029   6.482   4.574  1.00 20.00     0.144 C 
HETATM    4  N7  UNL     1     -32.755   5.170   2.676  1.00 20.00    -0.194 NA
ENDROOT
BRANCH   3   5
HETATM    5  C5  UNL     1     -33.789   7.999   4.462  1.00 20.00     0.049 C 
HETATM    6  C2  UNL     1     -32.317   8.403   4.468  1.00 20.00     0.009 C 
ENDBRANCH   3   5
BRANCH   3   7
HETATM    7  O8  UNL     1     -33.565   6.042   5.852  1.00 20.00    -0.371 OA
HETATM    8  C4  UNL     1     -34.539   5.247   6.508  1.00 20.00     0.204 C 
ENDBRANCH   3   7
TORSDOF 2
ENDMDL
MODEL 3
REMARK VINA RESULT:      -3.5     18.196     18.952
REMARK  2 active torsions:
REMARK  status: ('A' for Active; 'I' for Inactive)
REMARK    1  A    between atoms: C5_5  and  C6_6 
REMARK    2  A    between atoms: C6_6  and  O8_8 
ROOT
HETATM    1  C1  UNL     1     -41.310  13.631   4.918  1.00 20.00     0.097 C 
HETATM    2  C3  UNL     1     -40.550  14.069   7.215  1.00 20.00     0.062 C 
HETATM    3  C6  UNL     1     -40.705  13.015   6.115  1.00 20.00     0.144 C 
HETATM    4  N7  UNL     1     -41.787  14.115   3.978  1.00 20.00    -0.194 NA
ENDROOT
BRANCH   3   5
HETATM    5  C5  UNL     1     -39.335  12.392   5.789  1.00 20.00     0.049 C 
HETATM    6  C2  UNL     1     -39.273  11.684   4.438  1.00 20.00     0.009 C 
ENDBRANCH   3   5
BRANCH   3   7
HETATM    7  O8  UNL     1     -41.565  11.986   6.608  1.00 20.00    -0.371 OA
HETATM    8  C4  UNL     1     -42.778  12.525   7.110  1.00 20.00     0.204 C 
ENDBRANCH   3   7
TORSDOF 2
ENDMDL
MODEL 4
REMARK VINA RESULT:      -3.3     17.807     19.134
REMARK  2 active torsions:
REMARK  status: ('A' for Active; 'I' for Inactive)
REMARK    1  A    between atoms: C5_5  and  C6_6 
REMARK    2  A    between atoms: C6_6  and  O8_8 
ROOT
HETATM    1  C1  UNL     1     -35.371  14.129  -4.724  1.00 20.00     0.097 C 
HETATM    2  C3  UNL     1     -33.989  15.158  -6.478  1.00 20.00     0.062 C 
HETATM    3  C6  UNL     1     -34.470  15.258  -5.027  1.00 20.00     0.144 C 
HETATM    4  N7  UNL     1     -36.080  13.243  -4.486  1.00 20.00    -0.194 NA
ENDROOT
BRANCH   3   5
HETATM    5  C5  UNL     1     -33.260  15.277  -4.075  1.00 20.00     0.049 C 
HETATM    6  C2  UNL     1     -33.344  16.332  -2.975  1.00 20.00     0.009 C 
ENDBRANCH   3   5
BRANCH   3   7
HETATM    7  O8  UNL     1     -35.181  16.488  -4.882  1.00 20.00    -0.371 OA
HETATM    8  C4  UNL     1     -36.188  16.622  -5.872  1.00 20.00     0.204 C 
ENDBRANCH   3   7
TORSDOF 2
ENDMDL
MODEL 5
REMARK VINA RESULT:      -3.2     18.037     18.707
REMARK  2 active torsions:
REMARK  status: ('A' for Active; 'I' for Inactive)
REMARK    1  A    between atoms: C5_5  and  C6_6 
REMARK    2  A    between atoms: C6_6  and  O8_8 
ROOT
HETATM    1  C1  UNL     1     -40.552  14.294   6.962  1.00 20.00     0.097 C 
HETATM    2  C3  UNL     1     -42.156  12.454   6.674  1.00 20.00     0.062 C 
HETATM    3  C6  UNL     1     -40.902  13.135   6.119  1.00 20.00     0.144 C 
HETATM    4  N7  UNL     1     -40.277  15.207   7.624  1.00 20.00    -0.194 NA
ENDROOT
BRANCH   3   5
HETATM    5  C5  UNL     1     -39.743  12.123   6.053  1.00 20.00     0.049 C 
HETATM    6  C2  UNL     1     -39.299  11.769   4.636  1.00 20.00     0.009 C 
ENDBRANCH   3   5
BRANCH   3   7
HETATM    7  O8  UNL     1     -41.192  13.580   4.793  1.00 20.00    -0.371 OA
HETATM    8  C4  UNL     1     -42.357  14.388   4.763  1.00 20.00     0.204 C 
ENDBRANCH   3   7
TORSDOF 2
ENDMDL
MODEL 6
REMARK VINA RESULT:      -3.2     18.427     18.948
REMARK  2 active torsions:
REMARK  status: ('A' for Active; 'I' for Inactive)
REMARK    1  A    between atoms: C5_5  and  C6_6 
REMARK    2  A    between atoms: C6_6  and  O8_8 
ROOT
HETATM    1  C1  UNL     1     -42.061  12.383   6.853  1.00 20.00     0.097 C 
HETATM    2  C3  UNL     1     -41.284  13.569   4.845  1.00 20.00     0.062 C 
HETATM    3  C6  UNL     1     -40.866  12.896   6.156  1.00 20.00     0.144 C 
HETATM    4  N7  UNL     1     -43.000  11.981   7.402  1.00 20.00    -0.194 NA
ENDROOT
BRANCH   3   5
HETATM    5  C5  UNL     1     -39.861  11.766   5.867  1.00 20.00     0.049 C 
HETATM    6  C2  UNL     1     -39.263  11.801   4.463  1.00 20.00     0.009 C 
ENDBRANCH   3   5
BRANCH   3   7
HETATM    7  O8  UNL     1     -40.223  13.878   6.970  1.00 20.00    -0.371 OA
HETATM    8  C4  UNL     1     -41.028  15.037   7.112  1.00 20.00     0.204 C 
ENDBRANCH   3   7
TORSDOF 2
ENDMDL
MODEL 7
REMARK VINA RESULT:      -3.2     16.199     16.898
REMARK  2 active torsions:
REMARK  status: ('A' for Active; 'I' for Inactive)
REMARK    1  A    between atoms: C5_5  and  C6_6 
REMARK    2  A    between atoms: C6_6  and  O8_8 
ROOT
HETATM    1  C1  UNL     1     -33.462   7.071   4.275  1.00 20.00     0.097 C 
HETATM    2  C3  UNL     1     -35.715   6.118   4.030  1.00 20.00     0.062 C 
HETATM    3  C6  UNL     1     -34.299   5.892   4.570  1.00 20.00     0.144 C 
HETATM    4  N7  UNL     1     -32.803   7.997   4.042  1.00 20.00    -0.194 NA
ENDROOT
BRANCH   3   5
HETATM    5  C5  UNL     1     -34.355   5.612   6.083  1.00 20.00     0.049 C 
HETATM    6  C2  UNL     1     -34.332   6.865   6.954  1.00 20.00     0.009 C 
ENDBRANCH   3   5
BRANCH   3   7
HETATM    7  O8  UNL     1     -33.755   4.745   3.915  1.00 20.00    -0.371 OA
HETATM    8  C4  UNL     1     -33.083   5.104   2.719  1.00 20.00     0.204 C 
ENDBRANCH   3   7
TORSDOF 2
ENDMDL
MODEL 8
REMARK VINA RESULT:      -3.2     23.901     24.626
REMARK  2 active torsions:
REMARK  status: ('A' for Active; 'I' for Inactive)
REMARK    1  A    between atoms: C5_5  and  C6_6 
REMARK    2  A    between atoms: C6_6  and  O8_8 
ROOT
HETATM    1  C1  UNL     1     -42.772   5.274  -0.902  1.00 20.00     0.097 C 
HETATM    2  C3  UNL     1     -43.317   7.270   0.427  1.00 20.00     0.062 C 
HETATM    3  C6  UNL     1     -42.295   6.156   0.181  1.00 20.00     0.144 C 
HETATM    4  N7  UNL     1     -43.148   4.581  -1.752  1.00 20.00    -0.194 NA
ENDROOT
BRANCH   3   5
HETATM    5  C5  UNL     1     -40.925   6.769  -0.163  1.00 20.00     0.049 C 
HETATM    6  C2  UNL     1     -40.852   8.283   0.018  1.00 20.00     0.009 C 
ENDBRANCH   3   5
BRANCH   3   7
HETATM    7  O8  UNL     1     -42.165   5.402   1.387  1.00 20.00    -0.371 OA
HETATM    8  C4  UNL     1     -43.396   5.340   2.091  1.00 20.00     0.204 C 
ENDBRANCH   3   7
TORSDOF 2
ENDMDL
MODEL 9
REMARK VINA RESULT:      -3.2     18.035     19.354
REMARK  2 active torsions:
REMARK  status: ('A' for Active; 'I' for Inactive)
REMARK    1  A    between atoms: C5_5  and  C6_6 
REMARK    2  A    between atoms: C6_6  and  O8_8 
ROOT
HETATM    1  C1  UNL     1     -34.047  15.363  -6.732  1.00 20.00     0.097 C 
HETATM    2  C3  UNL     1     -34.599  17.280  -5.295  1.00 20.00     0.062 C 
HETATM    3  C6  UNL     1     -34.584  15.753  -5.414  1.00 20.00     0.144 C 
HETATM    4  N7  UNL     1     -33.626  15.057  -7.769  1.00 20.00    -0.194 NA
ENDROOT
BRANCH   3   5
HETATM    5  C5  UNL     1     -33.750  15.147  -4.271  1.00 20.00     0.049 C 
HETATM    6  C2  UNL     1     -33.360  16.143  -3.182  1.00 20.00     0.009 C 
ENDBRANCH   3   5
BRANCH   3   7
HETATM    7  O8  UNL     1     -35.929  15.288  -5.291  1.00 20.00    -0.371 OA
HETATM    8  C4  UNL     1     -35.969  13.915  -4.934  1.00 20.00     0.204 C 
ENDBRANCH   3   7
TORSDOF 2
ENDMDL
