MODEL 1
REMARK VINA RESULT:      -4.6      0.000      0.000
REMARK  5 active torsions:
REMARK  status: ('A' for Active; 'I' for Inactive)
REMARK    1  A    between atoms: C2_2  and  C5_5 
REMARK    2  A    between atoms: C2_2  and  C6_6 
REMARK    3  A    between atoms: C6_6  and  C7_7 
REMARK    4  A    between atoms: C7_7  and  C9_9 
REMARK    5  A    between atoms: C8_8  and  C9_9 
ROOT
HETATM    1  C6  UNL     1     -33.910   8.091   4.836  1.00 20.00     0.033 C 
ENDROOT
BRANCH   1   2
HETATM    2  C2  UNL     1     -34.333   6.808   5.529  1.00 20.00    -0.090 C 
HETATM    3  C1  UNL     1     -34.088   6.520   6.819  1.00 20.00     0.014 C 
BRANCH   2   4
HETATM    4  C5  UNL     1     -35.054   5.800   4.658  1.00 20.00     0.029 C 
HETATM    5  C3  UNL     1     -34.275   4.503   4.487  1.00 20.00     0.010 C 
ENDBRANCH   2   4
ENDBRANCH   1   2
BRANCH   1   6
HETATM    6  C7  UNL     1     -32.407   8.271   4.564  1.00 20.00     0.009 C 
BRANCH   6   7
HETATM    7  C9  UNL     1     -32.040   8.146   3.068  1.00 20.00    -0.004 C 
HETATM    8  C4  UNL     1     -32.251   6.725   2.535  1.00 20.00     0.011 C 
BRANCH   7   9
HETATM    9  C8  UNL     1     -32.788   9.183   2.214  1.00 20.00     0.119 C 
HETATM   10 CL10 UNL     1     -32.548   8.975   0.462  1.00 20.00    -0.130 Cl
ENDBRANCH   7   9
ENDBRANCH   6   7
ENDBRANCH   1   6
TORSDOF 5
ENDMDL
MODEL 2
REMARK VINA RESULT:      -4.3      1.746      3.941
REMARK  5 active torsions:
REMARK  status: ('A' for Active; 'I' for Inactive)
REMARK    1  A    between atoms: C2_2  and  C5_5 
REMARK    2  A    between atoms: C2_2  and  C6_6 
REMARK    3  A    between atoms: C6_6  and  C7_7 
REMARK    4  A    between atoms: C7_7  and  C9_9 
REMARK    5  A    between atoms: C8_8  and  C9_9 
ROOT
HETATM    1  C6  UNL     1     -33.930   7.888   5.329  1.00 20.00     0.033 C 
ENDROOT
BRANCH   1   2
HETATM    2  C2  UNL     1     -32.641   8.376   4.692  1.00 20.00    -0.090 C 
HETATM    3  C1  UNL     1     -31.952   9.457   5.095  1.00 20.00     0.014 C 
BRANCH   2   4
HETATM    4  C5  UNL     1     -32.153   7.572   3.504  1.00 20.00     0.029 C 
HETATM    5  C3  UNL     1     -32.453   8.245   2.172  1.00 20.00     0.010 C 
ENDBRANCH   2   4
ENDBRANCH   1   2
BRANCH   1   6
HETATM    6  C7  UNL     1     -33.892   6.511   6.011  1.00 20.00     0.009 C 
BRANCH   6   7
HETATM    7  C9  UNL     1     -34.747   5.448   5.285  1.00 20.00    -0.004 C 
HETATM    8  C4  UNL     1     -35.718   6.073   4.277  1.00 20.00     0.011 C 
BRANCH   7   9
HETATM    9  C8  UNL     1     -33.871   4.369   4.626  1.00 20.00     0.119 C 
HETATM   10 CL10 UNL     1     -33.384   4.760   2.960  1.00 20.00    -0.130 Cl
ENDBRANCH   7   9
ENDBRANCH   6   7
ENDBRANCH   1   6
TORSDOF 5
ENDMDL
MODEL 3
REMARK VINA RESULT:      -4.2      2.052      4.495
REMARK  5 active torsions:
REMARK  status: ('A' for Active; 'I' for Inactive)
REMARK    1  A    between atoms: C2_2  and  C5_5 
REMARK    2  A    between atoms: C2_2  and  C6_6 
REMARK    3  A    between atoms: C6_6  and  C7_7 
REMARK    4  A    between atoms: C7_7  and  C9_9 
REMARK    5  A    between atoms: C8_8  and  C9_9 
ROOT
HETATM    1  C6  UNL     1     -32.499   8.620   4.278  1.00 20.00     0.033 C 
ENDROOT
BRANCH   1   2
HETATM    2  C2  UNL     1     -32.443   8.327   2.789  1.00 20.00    -0.090 C 
HETATM    3  C1  UNL     1     -32.078   7.149   2.256  1.00 20.00     0.014 C 
BRANCH   2   4
HETATM    4  C5  UNL     1     -32.806   9.484   1.881  1.00 20.00     0.029 C 
HETATM    5  C3  UNL     1     -32.666   9.142   0.405  1.00 20.00     0.010 C 
ENDBRANCH   2   4
ENDBRANCH   1   2
BRANCH   1   6
HETATM    6  C7  UNL     1     -33.815   8.292   5.003  1.00 20.00     0.009 C 
BRANCH   6   7
HETATM    7  C9  UNL     1     -33.900   6.823   5.473  1.00 20.00    -0.004 C 
HETATM    8  C4  UNL     1     -34.396   6.702   6.918  1.00 20.00     0.011 C 
BRANCH   7   9
HETATM    9  C8  UNL     1     -34.748   5.970   4.515  1.00 20.00     0.119 C 
HETATM   10 CL10 UNL     1     -34.053   4.368   4.175  1.00 20.00    -0.130 Cl
ENDBRANCH   7   9
ENDBRANCH   6   7
ENDBRANCH   1   6
TORSDOF 5
ENDMDL
MODEL 4
REMARK VINA RESULT:      -4.2      1.054      2.280
REMARK  5 active torsions:
REMARK  status: ('A' for Active; 'I' for Inactive)
REMARK    1  A    between atoms: C2_2  and  C5_5 
REMARK    2  A    between atoms: C2_2  and  C6_6 
REMARK    3  A    between atoms: C6_6  and  C7_7 
REMARK    4  A    between atoms: C7_7  and  C9_9 
REMARK    5  A    between atoms: C8_8  and  C9_9 
ROOT
HETATM    1  C6  UNL     1     -33.717   5.177   3.347  1.00 20.00     0.033 C 
ENDROOT
BRANCH   1   2
HETATM    2  C2  UNL     1     -34.726   5.587   4.405  1.00 20.00    -0.090 C 
HETATM    3  C1  UNL     1     -35.918   6.151   4.146  1.00 20.00     0.014 C 
BRANCH   2   4
HETATM    4  C5  UNL     1     -34.301   5.352   5.840  1.00 20.00     0.029 C 
HETATM    5  C3  UNL     1     -34.235   6.636   6.655  1.00 20.00     0.010 C 
ENDBRANCH   2   4
ENDBRANCH   1   2
BRANCH   1   6
HETATM    6  C7  UNL     1     -32.443   6.030   3.232  1.00 20.00     0.009 C 
BRANCH   6   7
HETATM    7  C9  UNL     1     -32.735   7.539   3.070  1.00 20.00    -0.004 C 
HETATM    8  C4  UNL     1     -32.237   8.359   4.264  1.00 20.00     0.011 C 
BRANCH   7   9
HETATM    9  C8  UNL     1     -32.179   8.083   1.743  1.00 20.00     0.119 C 
HETATM   10 CL10 UNL     1     -32.907   9.629   1.242  1.00 20.00    -0.130 Cl
ENDBRANCH   7   9
ENDBRANCH   6   7
ENDBRANCH   1   6
TORSDOF 5
ENDMDL
MODEL 5
REMARK VINA RESULT:      -4.2      2.389      4.598
REMARK  5 active torsions:
REMARK  status: ('A' for Active; 'I' for Inactive)
REMARK    1  A    between atoms: C2_2  and  C5_5 
REMARK    2  A    between atoms: C2_2  and  C6_6 
REMARK    3  A    between atoms: C6_6  and  C7_7 
REMARK    4  A    between atoms: C7_7  and  C9_9 
REMARK    5  A    between atoms: C8_8  and  C9_9 
ROOT
HETATM    1  C6  UNL     1     -33.050   6.403   3.365  1.00 20.00     0.033 C 
ENDROOT
BRANCH   1   2
HETATM    2  C2  UNL     1     -32.434   7.775   3.156  1.00 20.00    -0.090 C 
HETATM    3  C1  UNL     1     -32.200   8.664   4.137  1.00 20.00     0.014 C 
BRANCH   2   4
HETATM    4  C5  UNL     1     -32.105   8.133   1.722  1.00 20.00     0.029 C 
HETATM    5  C3  UNL     1     -32.803   9.402   1.254  1.00 20.00     0.010 C 
ENDBRANCH   2   4
ENDBRANCH   1   2
BRANCH   1   6
HETATM    6  C7  UNL     1     -34.460   6.359   3.979  1.00 20.00     0.009 C 
BRANCH   6   7
HETATM    7  C9  UNL     1     -34.700   5.114   4.862  1.00 20.00    -0.004 C 
HETATM    8  C4  UNL     1     -33.801   3.938   4.465  1.00 20.00     0.011 C 
BRANCH   7   9
HETATM    9  C8  UNL     1     -34.564   5.446   6.357  1.00 20.00     0.119 C 
HETATM   10 CL10 UNL     1     -34.257   7.168   6.684  1.00 20.00    -0.130 Cl
ENDBRANCH   7   9
ENDBRANCH   6   7
ENDBRANCH   1   6
TORSDOF 5
ENDMDL
MODEL 6
REMARK VINA RESULT:      -4.1      1.017      1.667
REMARK  5 active torsions:
REMARK  status: ('A' for Active; 'I' for Inactive)
REMARK    1  A    between atoms: C2_2  and  C5_5 
REMARK    2  A    between atoms: C2_2  and  C6_6 
REMARK    3  A    between atoms: C6_6  and  C7_7 
REMARK    4  A    between atoms: C7_7  and  C9_9 
REMARK    5  A    between atoms: C8_8  and  C9_9 
ROOT
HETATM    1  C6  UNL     1     -34.016   7.433   5.846  1.00 20.00     0.033 C 
ENDROOT
BRANCH   1   2
HETATM    2  C2  UNL     1     -34.493   5.992   5.808  1.00 20.00    -0.090 C 
HETATM    3  C1  UNL     1     -34.524   5.170   6.871  1.00 20.00     0.014 C 
BRANCH   2   4
HETATM    4  C5  UNL     1     -34.927   5.481   4.449  1.00 20.00     0.029 C 
HETATM    5  C3  UNL     1     -33.931   4.505   3.839  1.00 20.00     0.010 C 
ENDBRANCH   2   4
ENDBRANCH   1   2
BRANCH   1   6
HETATM    6  C7  UNL     1     -34.130   8.238   4.540  1.00 20.00     0.009 C 
BRANCH   6   7
HETATM    7  C9  UNL     1     -32.760   8.668   3.970  1.00 20.00    -0.004 C 
HETATM    8  C4  UNL     1     -31.793   9.128   5.066  1.00 20.00     0.011 C 
BRANCH   7   9
HETATM    9  C8  UNL     1     -32.138   7.565   3.098  1.00 20.00     0.119 C 
HETATM   10 CL10 UNL     1     -32.091   7.963   1.364  1.00 20.00    -0.130 Cl
ENDBRANCH   7   9
ENDBRANCH   6   7
ENDBRANCH   1   6
TORSDOF 5
ENDMDL
MODEL 7
REMARK VINA RESULT:      -3.9      1.794      2.572
REMARK  5 active torsions:
REMARK  status: ('A' for Active; 'I' for Inactive)
REMARK    1  A    between atoms: C2_2  and  C5_5 
REMARK    2  A    between atoms: C2_2  and  C6_6 
REMARK    3  A    between atoms: C6_6  and  C7_7 
REMARK    4  A    between atoms: C7_7  and  C9_9 
REMARK    5  A    between atoms: C8_8  and  C9_9 
ROOT
HETATM    1  C6  UNL     1     -33.958   6.370   3.786  1.00 20.00     0.033 C 
ENDROOT
BRANCH   1   2
HETATM    2  C2  UNL     1     -34.163   5.189   4.718  1.00 20.00    -0.090 C 
HETATM    3  C1  UNL     1     -33.888   3.912   4.403  1.00 20.00     0.014 C 
BRANCH   2   4
HETATM    4  C5  UNL     1     -34.746   5.520   6.076  1.00 20.00     0.029 C 
HETATM    5  C3  UNL     1     -34.272   6.864   6.610  1.00 20.00     0.010 C 
ENDBRANCH   2   4
ENDBRANCH   1   2
BRANCH   1   6
HETATM    6  C7  UNL     1     -32.712   6.338   2.885  1.00 20.00     0.009 C 
BRANCH   6   7
HETATM    7  C9  UNL     1     -32.106   7.738   2.636  1.00 20.00    -0.004 C 
HETATM    8  C4  UNL     1     -32.063   8.097   1.148  1.00 20.00     0.011 C 
BRANCH   7   9
HETATM    9  C8  UNL     1     -32.828   8.821   3.455  1.00 20.00     0.119 C 
HETATM   10 CL10 UNL     1     -32.101   9.116   5.052  1.00 20.00    -0.130 Cl
ENDBRANCH   7   9
ENDBRANCH   6   7
ENDBRANCH   1   6
TORSDOF 5
ENDMDL
MODEL 8
REMARK VINA RESULT:      -3.8     11.419     12.155
REMARK  5 active torsions:
REMARK  status: ('A' for Active; 'I' for Inactive)
REMARK    1  A    between atoms: C2_2  and  C5_5 
REMARK    2  A    between atoms: C2_2  and  C6_6 
REMARK    3  A    between atoms: C6_6  and  C7_7 
REMARK    4  A    between atoms: C7_7  and  C9_9 
REMARK    5  A    between atoms: C8_8  and  C9_9 
ROOT
HETATM    1  C6  UNL     1     -32.845  17.894  -2.028  1.00 20.00     0.033 C 
ENDROOT
BRANCH   1   2
HETATM    2  C2  UNL     1     -32.643  18.241  -0.563  1.00 20.00    -0.090 C 
HETATM    3  C1  UNL     1     -33.621  18.254   0.359  1.00 20.00     0.014 C 
BRANCH   2   4
HETATM    4  C5  UNL     1     -31.231  18.620  -0.168  1.00 20.00     0.029 C 
HETATM    5  C3  UNL     1     -30.932  18.339   1.297  1.00 20.00     0.010 C 
ENDBRANCH   2   4
ENDBRANCH   1   2
BRANCH   1   6
HETATM    6  C7  UNL     1     -33.470  16.524  -2.339  1.00 20.00     0.009 C 
BRANCH   6   7
HETATM    7  C9  UNL     1     -33.517  16.207  -3.850  1.00 20.00    -0.004 C 
HETATM    8  C4  UNL     1     -33.824  14.731  -4.125  1.00 20.00     0.011 C 
BRANCH   7   9
HETATM    9  C8  UNL     1     -34.494  17.132  -4.594  1.00 20.00     0.119 C 
HETATM   10 CL10 UNL     1     -34.560  16.845  -6.349  1.00 20.00    -0.130 Cl
ENDBRANCH   7   9
ENDBRANCH   6   7
ENDBRANCH   1   6
TORSDOF 5
ENDMDL
MODEL 9
REMARK VINA RESULT:      -3.7     11.240     12.200
REMARK  5 active torsions:
REMARK  status: ('A' for Active; 'I' for Inactive)
REMARK    1  A    between atoms: C2_2  and  C5_5 
REMARK    2  A    between atoms: C2_2  and  C6_6 
REMARK    3  A    between atoms: C6_6  and  C7_7 
REMARK    4  A    between atoms: C7_7  and  C9_9 
REMARK    5  A    between atoms: C8_8  and  C9_9 
ROOT
HETATM    1  C6  UNL     1     -33.295  17.094  -1.983  1.00 20.00     0.033 C 
ENDROOT
BRANCH   1   2
HETATM    2  C2  UNL     1     -33.681  16.715  -3.402  1.00 20.00    -0.090 C 
HETATM    3  C1  UNL     1     -34.505  17.431  -4.186  1.00 20.00     0.014 C 
BRANCH   2   4
HETATM    4  C5  UNL     1     -33.093  15.416  -3.916  1.00 20.00     0.029 C 
HETATM    5  C3  UNL     1     -34.156  14.381  -4.255  1.00 20.00     0.010 C 
ENDBRANCH   2   4
ENDBRANCH   1   2
BRANCH   1   6
HETATM    6  C7  UNL     1     -32.496  18.396  -1.804  1.00 20.00     0.009 C 
BRANCH   6   7
HETATM    7  C9  UNL     1     -32.505  18.918  -0.349  1.00 20.00    -0.004 C 
HETATM    8  C4  UNL     1     -33.583  18.244   0.505  1.00 20.00     0.011 C 
BRANCH   7   9
HETATM    9  C8  UNL     1     -31.117  18.801   0.302  1.00 20.00     0.119 C 
HETATM   10 CL10 UNL     1     -31.160  18.212   1.981  1.00 20.00    -0.130 Cl
ENDBRANCH   7   9
ENDBRANCH   6   7
ENDBRANCH   1   6
TORSDOF 5
ENDMDL
