MODEL 1
REMARK VINA RESULT:      -3.9      0.000      0.000
REMARK  4 active torsions:
REMARK  status: ('A' for Active; 'I' for Inactive)
REMARK    1  A    between atoms: C3_3  and  C6_6 
REMARK    2  A    between atoms: C3_3  and  C7_7 
REMARK    3  A    between atoms: C6_6  and  C9_9 
REMARK    4  A    between atoms: C8_8  and  C9_9 
ROOT
HETATM    1  C1  UNL     1     -34.565  18.840  -0.799  1.00 20.00     0.011 A 
HETATM    2  C2  UNL     1     -33.903  18.028   0.277  1.00 20.00     0.011 A 
HETATM    3  C3  UNL     1     -33.386  17.959  -1.141  1.00 20.00    -0.027 A 
ENDROOT
BRANCH   3   4
HETATM    4  C6  UNL     1     -33.651  16.690  -1.937  1.00 20.00     0.015 C 
BRANCH   4   5
HETATM    5  C9  UNL     1     -33.272  16.797  -3.429  1.00 20.00    -0.018 C 
HETATM    6  C5  UNL     1     -34.388  17.450  -4.250  1.00 20.00     0.010 C 
BRANCH   5   7
HETATM    7  C8  UNL     1     -32.927  15.389  -3.959  1.00 20.00    -0.000 C 
HETATM    8  C4  UNL     1     -34.144  14.514  -4.223  1.00 20.00     0.005 C 
ENDBRANCH   5   7
ENDBRANCH   4   5
ENDBRANCH   3   4
BRANCH   3   9
HETATM    9  C7  UNL     1     -32.072  18.626  -1.445  1.00 20.00     0.124 C 
HETATM   10 CL10 UNL     1     -30.950  18.469  -0.073  1.00 20.00    -0.130 Cl
ENDBRANCH   3   9
TORSDOF 4
ENDMDL
MODEL 2
REMARK VINA RESULT:      -3.8     11.248     12.089
REMARK  4 active torsions:
REMARK  status: ('A' for Active; 'I' for Inactive)
REMARK    1  A    between atoms: C3_3  and  C6_6 
REMARK    2  A    between atoms: C3_3  and  C7_7 
REMARK    3  A    between atoms: C6_6  and  C9_9 
REMARK    4  A    between atoms: C8_8  and  C9_9 
ROOT
HETATM    1  C1  UNL     1     -32.252   9.017   4.797  1.00 20.00     0.011 A 
HETATM    2  C2  UNL     1     -31.467   7.954   4.084  1.00 20.00     0.011 A 
HETATM    3  C3  UNL     1     -32.865   8.291   3.623  1.00 20.00    -0.027 A 
ENDROOT
BRANCH   3   4
HETATM    4  C6  UNL     1     -33.972   7.285   3.904  1.00 20.00     0.015 C 
BRANCH   4   5
HETATM    5  C9  UNL     1     -33.478   5.828   4.022  1.00 20.00    -0.018 C 
HETATM    6  C5  UNL     1     -33.203   5.212   2.647  1.00 20.00     0.010 C 
BRANCH   5   7
HETATM    7  C8  UNL     1     -34.520   5.009   4.813  1.00 20.00    -0.000 C 
HETATM    8  C4  UNL     1     -34.683   5.454   6.260  1.00 20.00     0.005 C 
ENDBRANCH   5   7
ENDBRANCH   4   5
ENDBRANCH   3   4
BRANCH   3   9
HETATM    9  C7  UNL     1     -33.019   9.045   2.329  1.00 20.00     0.124 C 
HETATM   10 CL10 UNL     1     -32.058   8.287   1.037  1.00 20.00    -0.130 Cl
ENDBRANCH   3   9
TORSDOF 4
ENDMDL
MODEL 3
REMARK VINA RESULT:      -3.7     11.622     12.535
REMARK  4 active torsions:
REMARK  status: ('A' for Active; 'I' for Inactive)
REMARK    1  A    between atoms: C3_3  and  C6_6 
REMARK    2  A    between atoms: C3_3  and  C7_7 
REMARK    3  A    between atoms: C6_6  and  C9_9 
REMARK    4  A    between atoms: C8_8  and  C9_9 
ROOT
HETATM    1  C1  UNL     1     -35.582   5.417   4.469  1.00 20.00     0.011 A 
HETATM    2  C2  UNL     1     -34.192   4.909   4.213  1.00 20.00     0.011 A 
HETATM    3  C3  UNL     1     -34.393   6.185   4.997  1.00 20.00    -0.027 A 
ENDROOT
BRANCH   3   4
HETATM    4  C6  UNL     1     -34.038   7.502   4.322  1.00 20.00     0.015 C 
BRANCH   4   5
HETATM    5  C9  UNL     1     -32.521   7.731   4.158  1.00 20.00    -0.018 C 
HETATM    6  C5  UNL     1     -32.091   9.089   4.723  1.00 20.00     0.010 C 
BRANCH   5   7
HETATM    7  C8  UNL     1     -32.154   7.594   2.666  1.00 20.00    -0.000 C 
HETATM    8  C4  UNL     1     -32.552   8.797   1.821  1.00 20.00     0.005 C 
ENDBRANCH   5   7
ENDBRANCH   4   5
ENDBRANCH   3   4
BRANCH   3   9
HETATM    9  C7  UNL     1     -34.133   6.151   6.479  1.00 20.00     0.124 C 
HETATM   10 CL10 UNL     1     -34.273   7.780   7.184  1.00 20.00    -0.130 Cl
ENDBRANCH   3   9
TORSDOF 4
ENDMDL
MODEL 4
REMARK VINA RESULT:      -3.6     11.596     12.500
REMARK  4 active torsions:
REMARK  status: ('A' for Active; 'I' for Inactive)
REMARK    1  A    between atoms: C3_3  and  C6_6 
REMARK    2  A    between atoms: C3_3  and  C7_7 
REMARK    3  A    between atoms: C6_6  and  C9_9 
REMARK    4  A    between atoms: C8_8  and  C9_9 
ROOT
HETATM    1  C1  UNL     1     -34.626   5.778   5.982  1.00 20.00     0.011 A 
HETATM    2  C2  UNL     1     -35.539   5.518   4.817  1.00 20.00     0.011 A 
HETATM    3  C3  UNL     1     -34.127   5.994   4.572  1.00 20.00    -0.027 A 
ENDROOT
BRANCH   3   4
HETATM    4  C6  UNL     1     -33.928   7.427   4.097  1.00 20.00     0.015 C 
BRANCH   4   5
HETATM    5  C9  UNL     1     -32.449   7.859   4.015  1.00 20.00    -0.018 C 
HETATM    6  C5  UNL     1     -32.165   9.074   4.903  1.00 20.00     0.010 C 
BRANCH   5   7
HETATM    7  C8  UNL     1     -32.091   8.138   2.540  1.00 20.00    -0.000 C 
HETATM    8  C4  UNL     1     -32.838   9.320   1.938  1.00 20.00     0.005 C 
ENDBRANCH   5   7
ENDBRANCH   4   5
ENDBRANCH   3   4
BRANCH   3   9
HETATM    9  C7  UNL     1     -33.136   5.008   4.015  1.00 20.00     0.124 C 
HETATM   10 CL10 UNL     1     -33.251   4.929   2.241  1.00 20.00    -0.130 Cl
ENDBRANCH   3   9
TORSDOF 4
ENDMDL
MODEL 5
REMARK VINA RESULT:      -3.5      2.149      4.521
REMARK  4 active torsions:
REMARK  status: ('A' for Active; 'I' for Inactive)
REMARK    1  A    between atoms: C3_3  and  C6_6 
REMARK    2  A    between atoms: C3_3  and  C7_7 
REMARK    3  A    between atoms: C6_6  and  C9_9 
REMARK    4  A    between atoms: C8_8  and  C9_9 
ROOT
HETATM    1  C1  UNL     1     -32.697  15.219  -4.173  1.00 20.00     0.011 A 
HETATM    2  C2  UNL     1     -34.152  14.918  -3.954  1.00 20.00     0.011 A 
HETATM    3  C3  UNL     1     -33.601  16.273  -3.577  1.00 20.00    -0.027 A 
ENDROOT
BRANCH   3   4
HETATM    4  C6  UNL     1     -33.444  16.594  -2.098  1.00 20.00     0.015 C 
BRANCH   4   5
HETATM    5  C9  UNL     1     -33.218  18.092  -1.803  1.00 20.00    -0.018 C 
HETATM    6  C5  UNL     1     -31.882  18.333  -1.095  1.00 20.00     0.010 C 
BRANCH   5   7
HETATM    7  C8  UNL     1     -34.406  18.622  -0.972  1.00 20.00    -0.000 C 
HETATM    8  C4  UNL     1     -34.171  18.582   0.532  1.00 20.00     0.005 C 
ENDBRANCH   5   7
ENDBRANCH   4   5
ENDBRANCH   3   4
BRANCH   3   9
HETATM    9  C7  UNL     1     -33.974  17.451  -4.437  1.00 20.00     0.124 C 
HETATM   10 CL10 UNL     1     -35.743  17.608  -4.562  1.00 20.00    -0.130 Cl
ENDBRANCH   3   9
TORSDOF 4
ENDMDL
MODEL 6
REMARK VINA RESULT:      -3.5      2.235      4.416
REMARK  4 active torsions:
REMARK  status: ('A' for Active; 'I' for Inactive)
REMARK    1  A    between atoms: C3_3  and  C6_6 
REMARK    2  A    between atoms: C3_3  and  C7_7 
REMARK    3  A    between atoms: C6_6  and  C9_9 
REMARK    4  A    between atoms: C8_8  and  C9_9 
ROOT
HETATM    1  C1  UNL     1     -34.807  18.571  -3.139  1.00 20.00     0.011 A 
HETATM    2  C2  UNL     1     -33.715  18.384  -4.153  1.00 20.00     0.011 A 
HETATM    3  C3  UNL     1     -33.500  17.933  -2.728  1.00 20.00    -0.027 A 
ENDROOT
BRANCH   3   4
HETATM    4  C6  UNL     1     -32.552  18.745  -1.857  1.00 20.00     0.015 C 
BRANCH   4   5
HETATM    5  C9  UNL     1     -32.383  18.188  -0.428  1.00 20.00    -0.018 C 
HETATM    6  C5  UNL     1     -33.495  18.681   0.504  1.00 20.00     0.010 C 
BRANCH   5   7
HETATM    7  C8  UNL     1     -30.986  18.578   0.099  1.00 20.00    -0.000 C 
HETATM    8  C4  UNL     1     -30.818  18.387   1.599  1.00 20.00     0.005 C 
ENDBRANCH   5   7
ENDBRANCH   4   5
ENDBRANCH   3   4
BRANCH   3   9
HETATM    9  C7  UNL     1     -33.494  16.454  -2.449  1.00 20.00     0.124 C 
HETATM   10 CL10 UNL     1     -32.933  15.544  -3.872  1.00 20.00    -0.130 Cl
ENDBRANCH   3   9
TORSDOF 4
ENDMDL
MODEL 7
REMARK VINA RESULT:      -3.4     11.182     12.513
REMARK  4 active torsions:
REMARK  status: ('A' for Active; 'I' for Inactive)
REMARK    1  A    between atoms: C3_3  and  C6_6 
REMARK    2  A    between atoms: C3_3  and  C7_7 
REMARK    3  A    between atoms: C6_6  and  C9_9 
REMARK    4  A    between atoms: C8_8  and  C9_9 
ROOT
HETATM    1  C1  UNL     1     -43.293  13.547   6.500  1.00 20.00     0.011 A 
HETATM    2  C2  UNL     1     -42.790  12.243   7.051  1.00 20.00     0.011 A 
HETATM    3  C3  UNL     1     -41.990  13.507   7.263  1.00 20.00    -0.027 A 
ENDROOT
BRANCH   3   4
HETATM    4  C6  UNL     1     -40.697  13.674   6.477  1.00 20.00     0.015 C 
BRANCH   4   5
HETATM    5  C9  UNL     1     -40.097  12.346   5.971  1.00 20.00    -0.018 C 
HETATM    6  C5  UNL     1     -38.752  12.043   6.639  1.00 20.00     0.010 C 
BRANCH   5   7
HETATM    7  C8  UNL     1     -39.966  12.410   4.434  1.00 20.00    -0.000 C 
HETATM    8  C4  UNL     1     -38.822  11.575   3.878  1.00 20.00     0.005 C 
ENDBRANCH   5   7
ENDBRANCH   4   5
ENDBRANCH   3   4
BRANCH   3   9
HETATM    9  C7  UNL     1     -41.963  14.101   8.645  1.00 20.00     0.124 C 
HETATM   10 CL10 UNL     1     -40.290  14.403   9.172  1.00 20.00    -0.130 Cl
ENDBRANCH   3   9
TORSDOF 4
ENDMDL
MODEL 8
REMARK VINA RESULT:      -3.3      3.093      5.117
REMARK  4 active torsions:
REMARK  status: ('A' for Active; 'I' for Inactive)
REMARK    1  A    between atoms: C3_3  and  C6_6 
REMARK    2  A    between atoms: C3_3  and  C7_7 
REMARK    3  A    between atoms: C6_6  and  C9_9 
REMARK    4  A    between atoms: C8_8  and  C9_9 
ROOT
HETATM    1  C1  UNL     1     -35.805  14.339  -5.326  1.00 20.00     0.011 A 
HETATM    2  C2  UNL     1     -36.076  15.814  -5.404  1.00 20.00     0.011 A 
HETATM    3  C3  UNL     1     -34.660  15.303  -5.529  1.00 20.00    -0.027 A 
ENDROOT
BRANCH   3   4
HETATM    4  C6  UNL     1     -33.710  15.538  -4.364  1.00 20.00     0.015 C 
BRANCH   4   5
HETATM    5  C9  UNL     1     -34.006  16.825  -3.565  1.00 20.00    -0.018 C 
HETATM    6  C5  UNL     1     -33.469  18.069  -4.280  1.00 20.00     0.010 C 
BRANCH   5   7
HETATM    7  C8  UNL     1     -33.410  16.682  -2.149  1.00 20.00    -0.000 C 
HETATM    8  C4  UNL     1     -33.866  17.761  -1.177  1.00 20.00     0.005 C 
ENDBRANCH   5   7
ENDBRANCH   4   5
ENDBRANCH   3   4
BRANCH   3   9
HETATM    9  C7  UNL     1     -34.010  15.351  -6.886  1.00 20.00     0.124 C 
HETATM   10 CL10 UNL     1     -34.310  16.917  -7.676  1.00 20.00    -0.130 Cl
ENDBRANCH   3   9
TORSDOF 4
ENDMDL
MODEL 9
REMARK VINA RESULT:      -3.3      1.762      2.045
REMARK  4 active torsions:
REMARK  status: ('A' for Active; 'I' for Inactive)
REMARK    1  A    between atoms: C3_3  and  C6_6 
REMARK    2  A    between atoms: C3_3  and  C7_7 
REMARK    3  A    between atoms: C6_6  and  C9_9 
REMARK    4  A    between atoms: C8_8  and  C9_9 
ROOT
HETATM    1  C1  UNL     1     -33.063  18.100   0.017  1.00 20.00     0.011 A 
HETATM    2  C2  UNL     1     -31.952  18.317  -0.971  1.00 20.00     0.011 A 
HETATM    3  C3  UNL     1     -33.361  18.089  -1.464  1.00 20.00    -0.027 A 
ENDROOT
BRANCH   3   4
HETATM    4  C6  UNL     1     -33.682  16.752  -2.117  1.00 20.00     0.015 C 
BRANCH   4   5
HETATM    5  C9  UNL     1     -33.289  16.673  -3.607  1.00 20.00    -0.018 C 
HETATM    6  C5  UNL     1     -34.408  17.197  -4.513  1.00 20.00     0.010 C 
BRANCH   5   7
HETATM    7  C8  UNL     1     -32.916  15.216  -3.949  1.00 20.00    -0.000 C 
HETATM    8  C4  UNL     1     -34.117  14.310  -4.182  1.00 20.00     0.005 C 
ENDBRANCH   5   7
ENDBRANCH   4   5
ENDBRANCH   3   4
BRANCH   3   9
HETATM    9  C7  UNL     1     -34.105  19.262  -2.043  1.00 20.00     0.124 C 
HETATM   10 CL10 UNL     1     -35.861  19.064  -1.833  1.00 20.00    -0.130 Cl
ENDBRANCH   3   9
TORSDOF 4
ENDMDL
