MODEL 1
REMARK VINA RESULT:      -4.3      0.000      0.000
REMARK  4 active torsions:
REMARK  status: ('A' for Active; 'I' for Inactive)
REMARK    1  A    between atoms: C2_2  and  C7_7 
REMARK    2  A    between atoms: C2_2  and  C8_8 
REMARK    3  A    between atoms: C3_3  and  C9_9 
REMARK    4  A    between atoms: C8_8  and  C9_9 
ROOT
HETATM    1  C8  UNL     1     -33.957   7.803   4.478  1.00 20.00     0.045 C 
ENDROOT
BRANCH   1   2
HETATM    2  C2  UNL     1     -32.698   8.517   4.025  1.00 20.00    -0.089 C 
HETATM    3  C1  UNL     1     -31.984   9.259   4.888  1.00 20.00     0.014 C 
BRANCH   2   4
HETATM    4  C7  UNL     1     -32.260   8.373   2.586  1.00 20.00     0.029 C 
HETATM    5  C5  UNL     1     -32.853   9.436   1.671  1.00 20.00     0.010 C 
ENDBRANCH   2   4
ENDBRANCH   1   2
BRANCH   1   6
HETATM    6  C9  UNL     1     -33.701   6.478   5.219  1.00 20.00     0.055 C 
HETATM    7  C6  UNL     1     -34.462   6.442   6.543  1.00 20.00     0.018 C 
BRANCH   6   8
HETATM    8  C3  UNL     1     -34.126   5.274   4.384  1.00 20.00     0.127 C 
HETATM    9  C4  UNL     1     -33.392   5.058   3.085  1.00 20.00     0.091 C 
HETATM   10  O10 UNL     1     -34.998   4.490   4.757  1.00 20.00    -0.298 OA
ENDBRANCH   6   8
ENDBRANCH   1   6
TORSDOF 4
ENDMDL
MODEL 2
REMARK VINA RESULT:      -4.1     11.856     12.593
REMARK  4 active torsions:
REMARK  status: ('A' for Active; 'I' for Inactive)
REMARK    1  A    between atoms: C2_2  and  C7_7 
REMARK    2  A    between atoms: C2_2  and  C8_8 
REMARK    3  A    between atoms: C3_3  and  C9_9 
REMARK    4  A    between atoms: C8_8  and  C9_9 
ROOT
HETATM    1  C8  UNL     1     -33.533  17.386  -1.100  1.00 20.00     0.045 C 
ENDROOT
BRANCH   1   2
HETATM    2  C2  UNL     1     -33.317  17.358  -2.600  1.00 20.00    -0.089 C 
HETATM    3  C1  UNL     1     -33.112  18.496  -3.285  1.00 20.00     0.014 C 
BRANCH   2   4
HETATM    4  C7  UNL     1     -33.330  16.023  -3.310  1.00 20.00     0.029 C 
HETATM    5  C5  UNL     1     -34.177  16.027  -4.575  1.00 20.00     0.010 C 
ENDBRANCH   2   4
ENDBRANCH   1   2
BRANCH   1   6
HETATM    6  C9  UNL     1     -33.097  18.697  -0.422  1.00 20.00     0.055 C 
HETATM    7  C6  UNL     1     -34.033  19.049   0.732  1.00 20.00     0.018 C 
BRANCH   6   8
HETATM    8  C3  UNL     1     -31.674  18.605   0.121  1.00 20.00     0.127 C 
HETATM    9  C4  UNL     1     -31.528  18.415   1.609  1.00 20.00     0.091 C 
HETATM   10  O10 UNL     1     -30.687  18.648  -0.612  1.00 20.00    -0.298 OA
ENDBRANCH   6   8
ENDBRANCH   1   6
TORSDOF 4
ENDMDL
MODEL 3
REMARK VINA RESULT:      -4.0      2.087      3.881
REMARK  4 active torsions:
REMARK  status: ('A' for Active; 'I' for Inactive)
REMARK    1  A    between atoms: C2_2  and  C7_7 
REMARK    2  A    between atoms: C2_2  and  C8_8 
REMARK    3  A    between atoms: C3_3  and  C9_9 
REMARK    4  A    between atoms: C8_8  and  C9_9 
ROOT
HETATM    1  C8  UNL     1     -34.247   6.285   4.105  1.00 20.00     0.045 C 
ENDROOT
BRANCH   1   2
HETATM    2  C2  UNL     1     -34.322   6.130   5.611  1.00 20.00    -0.089 C 
HETATM    3  C1  UNL     1     -34.790   4.997   6.161  1.00 20.00     0.014 C 
BRANCH   2   4
HETATM    4  C7  UNL     1     -33.857   7.274   6.482  1.00 20.00     0.029 C 
HETATM    5  C5  UNL     1     -34.026   8.636   5.822  1.00 20.00     0.010 C 
ENDBRANCH   2   4
ENDBRANCH   1   2
BRANCH   1   6
HETATM    6  C9  UNL     1     -32.850   6.026   3.512  1.00 20.00     0.055 C 
HETATM    7  C6  UNL     1     -32.942   5.123   2.284  1.00 20.00     0.018 C 
BRANCH   6   8
HETATM    8  C3  UNL     1     -32.160   7.325   3.107  1.00 20.00     0.127 C 
HETATM    9  C4  UNL     1     -32.334   7.767   1.677  1.00 20.00     0.091 C 
HETATM   10  O10 UNL     1     -31.518   8.005   3.907  1.00 20.00    -0.298 OA
ENDBRANCH   6   8
ENDBRANCH   1   6
TORSDOF 4
ENDMDL
MODEL 4
REMARK VINA RESULT:      -4.0      2.128      4.503
REMARK  4 active torsions:
REMARK  status: ('A' for Active; 'I' for Inactive)
REMARK    1  A    between atoms: C2_2  and  C7_7 
REMARK    2  A    between atoms: C2_2  and  C8_8 
REMARK    3  A    between atoms: C3_3  and  C9_9 
REMARK    4  A    between atoms: C8_8  and  C9_9 
ROOT
HETATM    1  C8  UNL     1     -34.196   6.548   4.002  1.00 20.00     0.045 C 
ENDROOT
BRANCH   1   2
HETATM    2  C2  UNL     1     -34.290   5.321   4.887  1.00 20.00    -0.089 C 
HETATM    3  C1  UNL     1     -34.033   4.098   4.393  1.00 20.00     0.014 C 
BRANCH   2   4
HETATM    4  C7  UNL     1     -34.675   5.501   6.337  1.00 20.00     0.029 C 
HETATM    5  C5  UNL     1     -34.379   6.898   6.866  1.00 20.00     0.010 C 
ENDBRANCH   2   4
ENDBRANCH   1   2
BRANCH   1   6
HETATM    6  C9  UNL     1     -32.757   6.950   3.628  1.00 20.00     0.055 C 
HETATM    7  C6  UNL     1     -32.392   6.429   2.241  1.00 20.00     0.018 C 
BRANCH   6   8
HETATM    8  C3  UNL     1     -32.574   8.465   3.640  1.00 20.00     0.127 C 
HETATM    9  C4  UNL     1     -32.227   9.094   4.965  1.00 20.00     0.091 C 
HETATM   10  O10 UNL     1     -32.667   9.147   2.620  1.00 20.00    -0.298 OA
ENDBRANCH   6   8
ENDBRANCH   1   6
TORSDOF 4
ENDMDL
MODEL 5
REMARK VINA RESULT:      -4.0      1.563      2.143
REMARK  4 active torsions:
REMARK  status: ('A' for Active; 'I' for Inactive)
REMARK    1  A    between atoms: C2_2  and  C7_7 
REMARK    2  A    between atoms: C2_2  and  C8_8 
REMARK    3  A    between atoms: C3_3  and  C9_9 
REMARK    4  A    between atoms: C8_8  and  C9_9 
ROOT
HETATM    1  C8  UNL     1     -33.201   6.513   3.837  1.00 20.00     0.045 C 
ENDROOT
BRANCH   1   2
HETATM    2  C2  UNL     1     -32.497   7.772   3.372  1.00 20.00    -0.089 C 
HETATM    3  C1  UNL     1     -32.196   8.750   4.243  1.00 20.00     0.014 C 
BRANCH   2   4
HETATM    4  C7  UNL     1     -32.136   7.904   1.910  1.00 20.00     0.029 C 
HETATM    5  C5  UNL     1     -32.690   9.170   1.269  1.00 20.00     0.010 C 
ENDBRANCH   2   4
ENDBRANCH   1   2
BRANCH   1   6
HETATM    6  C9  UNL     1     -34.500   6.766   4.622  1.00 20.00     0.055 C 
HETATM    7  C6  UNL     1     -35.618   5.849   4.132  1.00 20.00     0.018 C 
BRANCH   6   8
HETATM    8  C3  UNL     1     -34.309   6.538   6.118  1.00 20.00     0.127 C 
HETATM    9  C4  UNL     1     -34.314   5.107   6.591  1.00 20.00     0.091 C 
HETATM   10  O10 UNL     1     -34.124   7.465   6.906  1.00 20.00    -0.298 OA
ENDBRANCH   6   8
ENDBRANCH   1   6
TORSDOF 4
ENDMDL
MODEL 6
REMARK VINA RESULT:      -3.9      0.930      2.068
REMARK  4 active torsions:
REMARK  status: ('A' for Active; 'I' for Inactive)
REMARK    1  A    between atoms: C2_2  and  C7_7 
REMARK    2  A    between atoms: C2_2  and  C8_8 
REMARK    3  A    between atoms: C3_3  and  C9_9 
REMARK    4  A    between atoms: C8_8  and  C9_9 
ROOT
HETATM    1  C8  UNL     1     -32.283   6.912   3.719  1.00 20.00     0.045 C 
ENDROOT
BRANCH   1   2
HETATM    2  C2  UNL     1     -32.511   8.410   3.658  1.00 20.00    -0.089 C 
HETATM    3  C1  UNL     1     -32.422   9.163   4.767  1.00 20.00     0.014 C 
BRANCH   2   4
HETATM    4  C7  UNL     1     -32.837   9.040   2.323  1.00 20.00     0.029 C 
HETATM    5  C5  UNL     1     -32.079   8.408   1.163  1.00 20.00     0.010 C 
ENDBRANCH   2   4
ENDBRANCH   1   2
BRANCH   1   6
HETATM    6  C9  UNL     1     -33.517   6.068   3.356  1.00 20.00     0.055 C 
HETATM    7  C6  UNL     1     -33.149   4.969   2.362  1.00 20.00     0.018 C 
BRANCH   6   8
HETATM    8  C3  UNL     1     -34.138   5.418   4.588  1.00 20.00     0.127 C 
HETATM    9  C4  UNL     1     -34.490   6.333   5.733  1.00 20.00     0.091 C 
HETATM   10  O10 UNL     1     -34.378   4.212   4.645  1.00 20.00    -0.298 OA
ENDBRANCH   6   8
ENDBRANCH   1   6
TORSDOF 4
ENDMDL
MODEL 7
REMARK VINA RESULT:      -3.9      2.119      4.263
REMARK  4 active torsions:
REMARK  status: ('A' for Active; 'I' for Inactive)
REMARK    1  A    between atoms: C2_2  and  C7_7 
REMARK    2  A    between atoms: C2_2  and  C8_8 
REMARK    3  A    between atoms: C3_3  and  C9_9 
REMARK    4  A    between atoms: C8_8  and  C9_9 
ROOT
HETATM    1  C8  UNL     1     -34.150   7.006   4.310  1.00 20.00     0.045 C 
ENDROOT
BRANCH   1   2
HETATM    2  C2  UNL     1     -34.285   6.438   5.709  1.00 20.00    -0.089 C 
HETATM    3  C1  UNL     1     -34.187   7.237   6.786  1.00 20.00     0.014 C 
BRANCH   2   4
HETATM    4  C7  UNL     1     -34.537   4.957   5.869  1.00 20.00     0.029 C 
HETATM    5  C5  UNL     1     -34.120   4.144   4.651  1.00 20.00     0.010 C 
ENDBRANCH   2   4
ENDBRANCH   1   2
BRANCH   1   6
HETATM    6  C9  UNL     1     -32.700   7.303   3.885  1.00 20.00     0.055 C 
HETATM    7  C6  UNL     1     -32.369   6.608   2.566  1.00 20.00     0.018 C 
BRANCH   6   8
HETATM    8  C3  UNL     1     -32.456   8.799   3.718  1.00 20.00     0.127 C 
HETATM    9  C4  UNL     1     -32.713   9.378   2.350  1.00 20.00     0.091 C 
HETATM   10  O10 UNL     1     -32.100   9.516   4.652  1.00 20.00    -0.298 OA
ENDBRANCH   6   8
ENDBRANCH   1   6
TORSDOF 4
ENDMDL
MODEL 8
REMARK VINA RESULT:      -3.9     12.053     12.941
REMARK  4 active torsions:
REMARK  status: ('A' for Active; 'I' for Inactive)
REMARK    1  A    between atoms: C2_2  and  C7_7 
REMARK    2  A    between atoms: C2_2  and  C8_8 
REMARK    3  A    between atoms: C3_3  and  C9_9 
REMARK    4  A    between atoms: C8_8  and  C9_9 
ROOT
HETATM    1  C8  UNL     1     -33.687  17.034  -1.479  1.00 20.00     0.045 C 
ENDROOT
BRANCH   1   2
HETATM    2  C2  UNL     1     -33.131  18.118  -0.577  1.00 20.00    -0.089 C 
HETATM    3  C1  UNL     1     -33.930  18.767   0.287  1.00 20.00     0.014 C 
BRANCH   2   4
HETATM    4  C7  UNL     1     -31.659  18.451  -0.664  1.00 20.00     0.029 C 
HETATM    5  C5  UNL     1     -30.977  18.508   0.696  1.00 20.00     0.010 C 
ENDBRANCH   2   4
ENDBRANCH   1   2
BRANCH   1   6
HETATM    6  C9  UNL     1     -33.110  17.041  -2.906  1.00 20.00     0.055 C 
HETATM    7  C6  UNL     1     -33.436  15.736  -3.629  1.00 20.00     0.018 C 
BRANCH   6   8
HETATM    8  C3  UNL     1     -33.657  18.201  -3.731  1.00 20.00     0.127 C 
HETATM    9  C4  UNL     1     -35.156  18.299  -3.850  1.00 20.00     0.091 C 
HETATM   10  O10 UNL     1     -32.924  19.042  -4.250  1.00 20.00    -0.298 OA
ENDBRANCH   6   8
ENDBRANCH   1   6
TORSDOF 4
ENDMDL
MODEL 9
REMARK VINA RESULT:      -3.8      2.116      3.799
REMARK  4 active torsions:
REMARK  status: ('A' for Active; 'I' for Inactive)
REMARK    1  A    between atoms: C2_2  and  C7_7 
REMARK    2  A    between atoms: C2_2  and  C8_8 
REMARK    3  A    between atoms: C3_3  and  C9_9 
REMARK    4  A    between atoms: C8_8  and  C9_9 
ROOT
HETATM    1  C8  UNL     1     -34.500   6.851   4.287  1.00 20.00     0.045 C 
ENDROOT
BRANCH   1   2
HETATM    2  C2  UNL     1     -34.462   5.432   4.818  1.00 20.00    -0.089 C 
HETATM    3  C1  UNL     1     -35.031   5.125   5.995  1.00 20.00     0.014 C 
BRANCH   2   4
HETATM    4  C7  UNL     1     -33.775   4.367   3.993  1.00 20.00     0.029 C 
HETATM    5  C5  UNL     1     -33.138   4.913   2.722  1.00 20.00     0.010 C 
ENDBRANCH   2   4
ENDBRANCH   1   2
BRANCH   1   6
HETATM    6  C9  UNL     1     -33.819   7.887   5.200  1.00 20.00     0.055 C 
HETATM    7  C6  UNL     1     -33.380   7.245   6.514  1.00 20.00     0.018 C 
BRANCH   6   8
HETATM    8  C3  UNL     1     -32.597   8.510   4.533  1.00 20.00     0.127 C 
HETATM    9  C4  UNL     1     -32.230   7.986   3.168  1.00 20.00     0.091 C 
HETATM   10  O10 UNL     1     -31.953   9.418   5.057  1.00 20.00    -0.298 OA
ENDBRANCH   6   8
ENDBRANCH   1   6
TORSDOF 4
ENDMDL
