MODEL 1
REMARK VINA RESULT:      -4.9      0.000      0.000
REMARK  4 active torsions:
REMARK  status: ('A' for Active; 'I' for Inactive)
REMARK    1  A    between atoms: C2_2  and  C9_9 
REMARK    2  A    between atoms: C2_2  and  C10_10 
REMARK    3  A    between atoms: C3_3  and  C5_5 
REMARK    4  A    between atoms: C3_3  and  C9_9 
ROOT
HETATM    1  C3  UNL     1     -33.179   5.301   3.058  1.00 20.00     0.135 C 
HETATM    2  O11 UNL     1     -32.669   4.754   2.089  1.00 20.00    -0.297 OA
ENDROOT
BRANCH   1   3
HETATM    3  C5  UNL     1     -33.211   6.791   3.136  1.00 20.00     0.060 A 
HETATM    4  C4  UNL     1     -32.312   7.572   2.235  1.00 20.00     0.017 A 
HETATM    5  C6  UNL     1     -32.014   7.499   3.709  1.00 20.00    -0.007 A 
HETATM    6  C7  UNL     1     -32.214   8.694   4.575  1.00 20.00     0.011 C 
ENDBRANCH   1   3
BRANCH   1   7
HETATM    7  C9  UNL     1     -33.772   4.577   4.252  1.00 20.00     0.111 C 
BRANCH   7   8
HETATM    8  C2  UNL     1     -34.813   5.419   4.943  1.00 20.00    -0.083 C 
HETATM    9  C1  UNL     1     -35.853   5.930   4.266  1.00 20.00     0.014 C 
BRANCH   8  10
HETATM   10  C10 UNL     1     -34.643   5.675   6.423  1.00 20.00     0.029 C 
HETATM   11  C8  UNL     1     -34.217   7.105   6.726  1.00 20.00     0.010 C 
ENDBRANCH   8  10
ENDBRANCH   7   8
ENDBRANCH   1   7
TORSDOF 4
ENDMDL
MODEL 2
REMARK VINA RESULT:      -4.8      1.972      3.077
REMARK  4 active torsions:
REMARK  status: ('A' for Active; 'I' for Inactive)
REMARK    1  A    between atoms: C2_2  and  C9_9 
REMARK    2  A    between atoms: C2_2  and  C10_10 
REMARK    3  A    between atoms: C3_3  and  C5_5 
REMARK    4  A    between atoms: C3_3  and  C9_9 
ROOT
HETATM    1  C3  UNL     1     -33.762   7.518   5.947  1.00 20.00     0.135 C 
HETATM    2  O11 UNL     1     -34.291   8.480   6.487  1.00 20.00    -0.297 OA
ENDROOT
BRANCH   1   3
HETATM    3  C5  UNL     1     -32.623   7.729   5.006  1.00 20.00     0.060 A 
HETATM    4  C4  UNL     1     -32.109   9.117   4.808  1.00 20.00     0.017 A 
HETATM    5  C6  UNL     1     -32.893   8.447   3.712  1.00 20.00    -0.007 A 
HETATM    6  C7  UNL     1     -32.209   7.997   2.468  1.00 20.00     0.011 C 
ENDBRANCH   1   3
BRANCH   1   7
HETATM    7  C9  UNL     1     -34.199   6.075   6.122  1.00 20.00     0.111 C 
BRANCH   7   8
HETATM    8  C2  UNL     1     -34.701   5.493   4.825  1.00 20.00    -0.083 C 
HETATM    9  C1  UNL     1     -35.822   5.953   4.247  1.00 20.00     0.014 C 
BRANCH   8  10
HETATM   10  C10 UNL     1     -33.904   4.371   4.201  1.00 20.00     0.029 C 
HETATM   11  C8  UNL     1     -33.265   4.770   2.879  1.00 20.00     0.010 C 
ENDBRANCH   8  10
ENDBRANCH   7   8
ENDBRANCH   1   7
TORSDOF 4
ENDMDL
MODEL 3
REMARK VINA RESULT:      -4.7      1.856      3.067
REMARK  4 active torsions:
REMARK  status: ('A' for Active; 'I' for Inactive)
REMARK    1  A    between atoms: C2_2  and  C9_9 
REMARK    2  A    between atoms: C2_2  and  C10_10 
REMARK    3  A    between atoms: C3_3  and  C5_5 
REMARK    4  A    between atoms: C3_3  and  C9_9 
ROOT
HETATM    1  C3  UNL     1     -32.634   8.394   4.430  1.00 20.00     0.135 C 
HETATM    2  O11 UNL     1     -31.957   9.306   4.887  1.00 20.00    -0.297 OA
ENDROOT
BRANCH   1   3
HETATM    3  C5  UNL     1     -32.028   7.437   3.458  1.00 20.00     0.060 A 
HETATM    4  C4  UNL     1     -32.082   7.768   2.003  1.00 20.00     0.017 A 
HETATM    5  C6  UNL     1     -32.948   6.666   2.551  1.00 20.00    -0.007 A 
HETATM    6  C7  UNL     1     -32.642   5.243   2.234  1.00 20.00     0.011 C 
ENDBRANCH   1   3
BRANCH   1   7
HETATM    7  C9  UNL     1     -34.101   8.160   4.741  1.00 20.00     0.111 C 
BRANCH   7   8
HETATM    8  C2  UNL     1     -34.292   6.920   5.578  1.00 20.00    -0.083 C 
HETATM    9  C1  UNL     1     -33.684   6.786   6.766  1.00 20.00     0.014 C 
BRANCH   8  10
HETATM   10  C10 UNL     1     -35.188   5.833   5.030  1.00 20.00     0.029 C 
HETATM   11  C8  UNL     1     -34.494   4.481   4.962  1.00 20.00     0.010 C 
ENDBRANCH   8  10
ENDBRANCH   7   8
ENDBRANCH   1   7
TORSDOF 4
ENDMDL
MODEL 4
REMARK VINA RESULT:      -4.6      1.321      2.559
REMARK  4 active torsions:
REMARK  status: ('A' for Active; 'I' for Inactive)
REMARK    1  A    between atoms: C2_2  and  C9_9 
REMARK    2  A    between atoms: C2_2  and  C10_10 
REMARK    3  A    between atoms: C3_3  and  C5_5 
REMARK    4  A    between atoms: C3_3  and  C9_9 
ROOT
HETATM    1  C3  UNL     1     -34.319   5.091   4.225  1.00 20.00     0.135 C 
HETATM    2  O11 UNL     1     -34.088   3.940   4.572  1.00 20.00    -0.297 OA
ENDROOT
BRANCH   1   3
HETATM    3  C5  UNL     1     -33.822   5.582   2.906  1.00 20.00     0.060 A 
HETATM    4  C4  UNL     1     -32.720   4.830   2.235  1.00 20.00     0.017 A 
HETATM    5  C6  UNL     1     -32.443   6.178   2.843  1.00 20.00    -0.007 A 
HETATM    6  C7  UNL     1     -32.195   7.359   1.969  1.00 20.00     0.011 C 
ENDBRANCH   1   3
BRANCH   1   7
HETATM    7  C9  UNL     1     -35.059   6.119   5.062  1.00 20.00     0.111 C 
BRANCH   7   8
HETATM    8  C2  UNL     1     -34.100   7.027   5.789  1.00 20.00    -0.083 C 
HETATM    9  C1  UNL     1     -33.409   6.594   6.855  1.00 20.00     0.014 C 
BRANCH   8  10
HETATM   10  C10 UNL     1     -33.949   8.442   5.281  1.00 20.00     0.029 C 
HETATM   11  C8  UNL     1     -32.493   8.862   5.140  1.00 20.00     0.010 C 
ENDBRANCH   8  10
ENDBRANCH   7   8
ENDBRANCH   1   7
TORSDOF 4
ENDMDL
MODEL 5
REMARK VINA RESULT:      -4.5      2.164      4.613
REMARK  4 active torsions:
REMARK  status: ('A' for Active; 'I' for Inactive)
REMARK    1  A    between atoms: C2_2  and  C9_9 
REMARK    2  A    between atoms: C2_2  and  C10_10 
REMARK    3  A    between atoms: C3_3  and  C5_5 
REMARK    4  A    between atoms: C3_3  and  C9_9 
ROOT
HETATM    1  C3  UNL     1     -33.543   8.142   5.191  1.00 20.00     0.135 C 
HETATM    2  O11 UNL     1     -33.928   9.060   5.904  1.00 20.00    -0.297 OA
ENDROOT
BRANCH   1   3
HETATM    3  C5  UNL     1     -34.389   6.923   5.031  1.00 20.00     0.060 A 
HETATM    4  C4  UNL     1     -34.760   6.146   6.251  1.00 20.00     0.017 A 
HETATM    5  C6  UNL     1     -33.758   5.581   5.280  1.00 20.00    -0.007 A 
HETATM    6  C7  UNL     1     -34.123   4.427   4.412  1.00 20.00     0.011 C 
ENDBRANCH   1   3
BRANCH   1   7
HETATM    7  C9  UNL     1     -32.215   8.110   4.458  1.00 20.00     0.111 C 
BRANCH   7   8
HETATM    8  C2  UNL     1     -32.414   8.074   2.964  1.00 20.00    -0.083 C 
HETATM    9  C1  UNL     1     -32.197   6.950   2.263  1.00 20.00     0.014 C 
BRANCH   8  10
HETATM   10  C10 UNL     1     -32.860   9.347   2.283  1.00 20.00     0.029 C 
HETATM   11  C8  UNL     1     -32.697   9.291   0.771  1.00 20.00     0.010 C 
ENDBRANCH   8  10
ENDBRANCH   7   8
ENDBRANCH   1   7
TORSDOF 4
ENDMDL
MODEL 6
REMARK VINA RESULT:      -4.5      9.722     10.855
REMARK  4 active torsions:
REMARK  status: ('A' for Active; 'I' for Inactive)
REMARK    1  A    between atoms: C2_2  and  C9_9 
REMARK    2  A    between atoms: C2_2  and  C10_10 
REMARK    3  A    between atoms: C3_3  and  C5_5 
REMARK    4  A    between atoms: C3_3  and  C9_9 
ROOT
HETATM    1  C3  UNL     1     -41.560  12.651   6.423  1.00 20.00     0.135 C 
HETATM    2  O11 UNL     1     -42.318  12.217   7.280  1.00 20.00    -0.297 OA
ENDROOT
BRANCH   1   3
HETATM    3  C5  UNL     1     -40.451  11.793   5.912  1.00 20.00     0.060 A 
HETATM    4  C4  UNL     1     -39.061  12.065   6.386  1.00 20.00     0.017 A 
HETATM    5  C6  UNL     1     -39.450  12.408   4.973  1.00 20.00    -0.007 A 
HETATM    6  C7  UNL     1     -38.923  11.606   3.834  1.00 20.00     0.011 C 
ENDBRANCH   1   3
BRANCH   1   7
HETATM    7  C9  UNL     1     -41.620  14.049   5.836  1.00 20.00     0.111 C 
BRANCH   7   8
HETATM    8  C2  UNL     1     -41.626  15.098   6.918  1.00 20.00    -0.083 C 
HETATM    9  C1  UNL     1     -42.756  15.739   7.256  1.00 20.00     0.014 C 
BRANCH   8  10
HETATM   10  C10 UNL     1     -40.315  15.408   7.605  1.00 20.00     0.029 C 
HETATM   11  C8  UNL     1     -40.270  14.899   9.038  1.00 20.00     0.010 C 
ENDBRANCH   8  10
ENDBRANCH   7   8
ENDBRANCH   1   7
TORSDOF 4
ENDMDL
MODEL 7
REMARK VINA RESULT:      -4.4      0.841      3.464
REMARK  4 active torsions:
REMARK  status: ('A' for Active; 'I' for Inactive)
REMARK    1  A    between atoms: C2_2  and  C9_9 
REMARK    2  A    between atoms: C2_2  and  C10_10 
REMARK    3  A    between atoms: C3_3  and  C5_5 
REMARK    4  A    between atoms: C3_3  and  C9_9 
ROOT
HETATM    1  C3  UNL     1     -33.199   5.452   3.066  1.00 20.00     0.135 C 
HETATM    2  O11 UNL     1     -33.274   4.917   1.967  1.00 20.00    -0.297 OA
ENDROOT
BRANCH   1   3
HETATM    3  C5  UNL     1     -34.208   5.130   4.118  1.00 20.00     0.060 A 
HETATM    4  C4  UNL     1     -35.406   6.011   4.251  1.00 20.00     0.017 A 
HETATM    5  C6  UNL     1     -34.325   6.054   5.298  1.00 20.00    -0.007 A 
HETATM    6  C7  UNL     1     -34.570   5.485   6.653  1.00 20.00     0.011 C 
ENDBRANCH   1   3
BRANCH   1   7
HETATM    7  C9  UNL     1     -32.158   6.483   3.461  1.00 20.00     0.111 C 
BRANCH   7   8
HETATM    8  C2  UNL     1     -32.389   7.794   2.754  1.00 20.00    -0.083 C 
HETATM    9  C1  UNL     1     -32.144   7.925   1.440  1.00 20.00     0.014 C 
BRANCH   8  10
HETATM   10  C10 UNL     1     -32.898   8.956   3.574  1.00 20.00     0.029 C 
HETATM   11  C8  UNL     1     -32.358   8.950   4.997  1.00 20.00     0.010 C 
ENDBRANCH   8  10
ENDBRANCH   7   8
ENDBRANCH   1   7
TORSDOF 4
ENDMDL
MODEL 8
REMARK VINA RESULT:      -4.4      1.937      4.243
REMARK  4 active torsions:
REMARK  status: ('A' for Active; 'I' for Inactive)
REMARK    1  A    between atoms: C2_2  and  C9_9 
REMARK    2  A    between atoms: C2_2  and  C10_10 
REMARK    3  A    between atoms: C3_3  and  C5_5 
REMARK    4  A    between atoms: C3_3  and  C9_9 
ROOT
HETATM    1  C3  UNL     1     -32.617   8.279   4.674  1.00 20.00     0.135 C 
HETATM    2  O11 UNL     1     -32.303   9.401   5.050  1.00 20.00    -0.297 OA
ENDROOT
BRANCH   1   3
HETATM    3  C5  UNL     1     -33.885   7.661   5.161  1.00 20.00     0.060 A 
HETATM    4  C4  UNL     1     -34.119   7.580   6.633  1.00 20.00     0.017 A 
HETATM    5  C6  UNL     1     -33.807   6.330   5.856  1.00 20.00    -0.007 A 
HETATM    6  C7  UNL     1     -34.868   5.313   5.613  1.00 20.00     0.011 C 
ENDBRANCH   1   3
BRANCH   1   7
HETATM    7  C9  UNL     1     -31.784   7.407   3.753  1.00 20.00     0.111 C 
BRANCH   7   8
HETATM    8  C2  UNL     1     -32.406   7.305   2.383  1.00 20.00    -0.083 C 
HETATM    9  C1  UNL     1     -32.214   8.261   1.462  1.00 20.00     0.014 C 
BRANCH   8  10
HETATM   10  C10 UNL     1     -33.258   6.092   2.086  1.00 20.00     0.029 C 
HETATM   11  C8  UNL     1     -32.713   4.822   2.724  1.00 20.00     0.010 C 
ENDBRANCH   8  10
ENDBRANCH   7   8
ENDBRANCH   1   7
TORSDOF 4
ENDMDL
MODEL 9
REMARK VINA RESULT:      -4.3      1.056      4.000
REMARK  4 active torsions:
REMARK  status: ('A' for Active; 'I' for Inactive)
REMARK    1  A    between atoms: C2_2  and  C9_9 
REMARK    2  A    between atoms: C2_2  and  C10_10 
REMARK    3  A    between atoms: C3_3  and  C5_5 
REMARK    4  A    between atoms: C3_3  and  C9_9 
ROOT
HETATM    1  C3  UNL     1     -33.093   5.635   3.078  1.00 20.00     0.135 C 
HETATM    2  O11 UNL     1     -33.071   5.091   1.981  1.00 20.00    -0.297 OA
ENDROOT
BRANCH   1   3
HETATM    3  C5  UNL     1     -34.129   5.243   4.079  1.00 20.00     0.060 A 
HETATM    4  C4  UNL     1     -35.358   6.083   4.199  1.00 20.00     0.017 A 
HETATM    5  C6  UNL     1     -34.319   6.119   5.286  1.00 20.00    -0.007 A 
HETATM    6  C7  UNL     1     -34.595   5.494   6.610  1.00 20.00     0.011 C 
ENDBRANCH   1   3
BRANCH   1   7
HETATM    7  C9  UNL     1     -32.152   6.741   3.519  1.00 20.00     0.111 C 
BRANCH   7   8
HETATM    8  C2  UNL     1     -32.444   8.030   2.794  1.00 20.00    -0.083 C 
HETATM    9  C1  UNL     1     -32.930   9.097   3.447  1.00 20.00     0.014 C 
BRANCH   8  10
HETATM   10  C10 UNL     1     -32.176   8.077   1.307  1.00 20.00     0.029 C 
HETATM   11  C8  UNL     1     -32.694   9.353   0.659  1.00 20.00     0.010 C 
ENDBRANCH   8  10
ENDBRANCH   7   8
ENDBRANCH   1   7
TORSDOF 4
ENDMDL
