MODEL 1
REMARK VINA RESULT:      -4.0      0.000      0.000
REMARK  4 active torsions:
REMARK  status: ('A' for Active; 'I' for Inactive)
REMARK    1  A    between atoms: C4_4  and  C5_5 
REMARK    2  A    between atoms: C5_5  and  C7_7 
REMARK    3  A    between atoms: C6_6  and  O9_9 
REMARK    4  A    between atoms: C7_7  and  O9_9 
ROOT
HETATM    1  C1  UNL     1     -32.630   6.345   3.032  1.00 20.00     0.091 C 
HETATM    2  C7  UNL     1     -32.146   7.668   3.450  1.00 20.00     0.227 C 
HETATM    3  N8  UNL     1     -33.009   5.300   2.700  1.00 20.00    -0.195 NA
ENDROOT
BRANCH   2   4
HETATM    4  C5  UNL     1     -32.652   8.051   4.844  1.00 20.00     0.046 C 
BRANCH   4   5
HETATM    5  C4  UNL     1     -34.075   7.562   5.122  1.00 20.00    -0.001 C 
HETATM    6  C2  UNL     1     -34.135   6.726   6.391  1.00 20.00     0.005 C 
ENDBRANCH   4   5
ENDBRANCH   2   4
BRANCH   2   7
HETATM    7  O9  UNL     1     -32.618   8.654   2.533  1.00 20.00    -0.372 OA
BRANCH   7   8
HETATM    8  C6  UNL     1     -32.142   8.407   1.219  1.00 20.00     0.165 C 
HETATM    9  C3  UNL     1     -32.776   9.402   0.269  1.00 20.00     0.033 C 
ENDBRANCH   7   8
ENDBRANCH   2   7
TORSDOF 4
ENDMDL
MODEL 2
REMARK VINA RESULT:      -3.7      9.619     10.812
REMARK  4 active torsions:
REMARK  status: ('A' for Active; 'I' for Inactive)
REMARK    1  A    between atoms: C4_4  and  C5_5 
REMARK    2  A    between atoms: C5_5  and  C7_7 
REMARK    3  A    between atoms: C6_6  and  O9_9 
REMARK    4  A    between atoms: C7_7  and  O9_9 
ROOT
HETATM    1  C1  UNL     1     -42.337  12.477   7.104  1.00 20.00     0.091 C 
HETATM    2  C7  UNL     1     -41.256  13.379   6.684  1.00 20.00     0.227 C 
HETATM    3  N8  UNL     1     -43.191  11.766   7.439  1.00 20.00    -0.195 NA
ENDROOT
BRANCH   2   4
HETATM    4  C5  UNL     1     -40.670  12.981   5.326  1.00 20.00     0.046 C 
BRANCH   4   5
HETATM    5  C4  UNL     1     -39.461  12.050   5.443  1.00 20.00    -0.001 C 
HETATM    6  C2  UNL     1     -38.943  11.639   4.074  1.00 20.00     0.005 C 
ENDBRANCH   4   5
ENDBRANCH   2   4
BRANCH   2   7
HETATM    7  O9  UNL     1     -40.200  13.330   7.642  1.00 20.00    -0.372 OA
BRANCH   7   8
HETATM    8  C6  UNL     1     -40.339  14.351   8.617  1.00 20.00     0.165 C 
HETATM    9  C3  UNL     1     -40.403  15.694   7.920  1.00 20.00     0.033 C 
ENDBRANCH   7   8
ENDBRANCH   2   7
TORSDOF 4
ENDMDL
MODEL 3
REMARK VINA RESULT:      -3.6      1.884      2.496
REMARK  4 active torsions:
REMARK  status: ('A' for Active; 'I' for Inactive)
REMARK    1  A    between atoms: C4_4  and  C5_5 
REMARK    2  A    between atoms: C5_5  and  C7_7 
REMARK    3  A    between atoms: C6_6  and  O9_9 
REMARK    4  A    between atoms: C7_7  and  O9_9 
ROOT
HETATM    1  C1  UNL     1     -33.085   5.227   2.811  1.00 20.00     0.091 C 
HETATM    2  C7  UNL     1     -33.450   6.000   4.007  1.00 20.00     0.227 C 
HETATM    3  N8  UNL     1     -32.795   4.619   1.867  1.00 20.00    -0.195 NA
ENDROOT
BRANCH   2   4
HETATM    4  C5  UNL     1     -34.812   5.583   4.568  1.00 20.00     0.046 C 
BRANCH   4   5
HETATM    5  C4  UNL     1     -34.816   5.442   6.092  1.00 20.00    -0.001 C 
HETATM    6  C2  UNL     1     -34.339   6.718   6.767  1.00 20.00     0.005 C 
ENDBRANCH   4   5
ENDBRANCH   2   4
BRANCH   2   7
HETATM    7  O9  UNL     1     -33.527   7.384   3.669  1.00 20.00    -0.372 OA
BRANCH   7   8
HETATM    8  C6  UNL     1     -32.250   8.000   3.718  1.00 20.00     0.165 C 
HETATM    9  C3  UNL     1     -32.230   9.006   4.850  1.00 20.00     0.033 C 
ENDBRANCH   7   8
ENDBRANCH   2   7
TORSDOF 4
ENDMDL
MODEL 4
REMARK VINA RESULT:      -3.6      9.540     10.780
REMARK  4 active torsions:
REMARK  status: ('A' for Active; 'I' for Inactive)
REMARK    1  A    between atoms: C4_4  and  C5_5 
REMARK    2  A    between atoms: C5_5  and  C7_7 
REMARK    3  A    between atoms: C6_6  and  O9_9 
REMARK    4  A    between atoms: C7_7  and  O9_9 
ROOT
HETATM    1  C1  UNL     1     -41.506  13.840   5.425  1.00 20.00     0.091 C 
HETATM    2  C7  UNL     1     -40.656  13.257   6.472  1.00 20.00     0.227 C 
HETATM    3  N8  UNL     1     -42.177  14.304   4.601  1.00 20.00    -0.195 NA
ENDROOT
BRANCH   2   4
HETATM    4  C5  UNL     1     -40.052  11.916   6.043  1.00 20.00     0.046 C 
BRANCH   4   5
HETATM    5  C4  UNL     1     -38.749  12.069   5.254  1.00 20.00    -0.001 C 
HETATM    6  C2  UNL     1     -38.923  11.634   3.808  1.00 20.00     0.005 C 
ENDBRANCH   4   5
ENDBRANCH   2   4
BRANCH   2   7
HETATM    7  O9  UNL     1     -41.440  13.023   7.641  1.00 20.00    -0.372 OA
BRANCH   7   8
HETATM    8  C6  UNL     1     -41.627  14.216   8.385  1.00 20.00     0.165 C 
HETATM    9  C3  UNL     1     -40.283  14.702   8.886  1.00 20.00     0.033 C 
ENDBRANCH   7   8
ENDBRANCH   2   7
TORSDOF 4
ENDMDL
MODEL 5
REMARK VINA RESULT:      -3.5      1.421      4.105
REMARK  4 active torsions:
REMARK  status: ('A' for Active; 'I' for Inactive)
REMARK    1  A    between atoms: C4_4  and  C5_5 
REMARK    2  A    between atoms: C5_5  and  C7_7 
REMARK    3  A    between atoms: C6_6  and  O9_9 
REMARK    4  A    between atoms: C7_7  and  O9_9 
ROOT
HETATM    1  C1  UNL     1     -33.136   6.101   3.357  1.00 20.00     0.091 C 
HETATM    2  C7  UNL     1     -33.386   7.322   4.135  1.00 20.00     0.227 C 
HETATM    3  N8  UNL     1     -32.941   5.136   2.744  1.00 20.00    -0.195 NA
ENDROOT
BRANCH   2   4
HETATM    4  C5  UNL     1     -32.549   8.504   3.636  1.00 20.00     0.046 C 
BRANCH   4   5
HETATM    5  C4  UNL     1     -32.235   8.429   2.140  1.00 20.00    -0.001 C 
HETATM    6  C2  UNL     1     -32.885   9.574   1.380  1.00 20.00     0.005 C 
ENDBRANCH   4   5
ENDBRANCH   2   4
BRANCH   2   7
HETATM    7  O9  UNL     1     -33.038   7.092   5.500  1.00 20.00    -0.372 OA
BRANCH   7   8
HETATM    8  C6  UNL     1     -34.194   6.960   6.312  1.00 20.00     0.165 C 
HETATM    9  C3  UNL     1     -34.580   5.498   6.387  1.00 20.00     0.033 C 
ENDBRANCH   7   8
ENDBRANCH   2   7
TORSDOF 4
ENDMDL
MODEL 6
REMARK VINA RESULT:      -3.5     10.790     11.554
REMARK  4 active torsions:
REMARK  status: ('A' for Active; 'I' for Inactive)
REMARK    1  A    between atoms: C4_4  and  C5_5 
REMARK    2  A    between atoms: C5_5  and  C7_7 
REMARK    3  A    between atoms: C6_6  and  O9_9 
REMARK    4  A    between atoms: C7_7  and  O9_9 
ROOT
HETATM    1  C1  UNL     1     -35.056  13.968  -4.675  1.00 20.00     0.091 C 
HETATM    2  C7  UNL     1     -34.026  14.945  -5.055  1.00 20.00     0.227 C 
HETATM    3  N8  UNL     1     -35.870  13.197  -4.379  1.00 20.00    -0.195 NA
ENDROOT
BRANCH   2   4
HETATM    4  C5  UNL     1     -33.177  15.381  -3.858  1.00 20.00     0.046 C 
BRANCH   4   5
HETATM    5  C4  UNL     1     -33.418  16.836  -3.449  1.00 20.00    -0.001 C 
HETATM    6  C2  UNL     1     -33.480  16.984  -1.937  1.00 20.00     0.005 C 
ENDBRANCH   4   5
ENDBRANCH   2   4
BRANCH   2   7
HETATM    7  O9  UNL     1     -34.654  16.111  -5.588  1.00 20.00    -0.372 OA
BRANCH   7   8
HETATM    8  C6  UNL     1     -35.126  15.887  -6.907  1.00 20.00     0.165 C 
HETATM    9  C3  UNL     1     -33.939  15.745  -7.838  1.00 20.00     0.033 C 
ENDBRANCH   7   8
ENDBRANCH   2   7
TORSDOF 4
ENDMDL
MODEL 7
REMARK VINA RESULT:      -3.4      2.531      3.084
REMARK  4 active torsions:
REMARK  status: ('A' for Active; 'I' for Inactive)
REMARK    1  A    between atoms: C4_4  and  C5_5 
REMARK    2  A    between atoms: C5_5  and  C7_7 
REMARK    3  A    between atoms: C6_6  and  O9_9 
REMARK    4  A    between atoms: C7_7  and  O9_9 
ROOT
HETATM    1  C1  UNL     1     -32.417   8.986   4.850  1.00 20.00     0.091 C 
HETATM    2  C7  UNL     1     -33.234   7.969   4.173  1.00 20.00     0.227 C 
HETATM    3  N8  UNL     1     -31.770   9.788   5.382  1.00 20.00    -0.195 NA
ENDROOT
BRANCH   2   4
HETATM    4  C5  UNL     1     -34.407   7.503   5.040  1.00 20.00     0.046 C 
BRANCH   4   5
HETATM    5  C4  UNL     1     -33.965   6.716   6.276  1.00 20.00    -0.001 C 
HETATM    6  C2  UNL     1     -34.541   5.309   6.272  1.00 20.00     0.005 C 
ENDBRANCH   4   5
ENDBRANCH   2   4
BRANCH   2   7
HETATM    7  O9  UNL     1     -32.427   6.828   3.888  1.00 20.00    -0.372 OA
BRANCH   7   8
HETATM    8  C6  UNL     1     -32.627   6.373   2.559  1.00 20.00     0.165 C 
HETATM    9  C3  UNL     1     -33.039   4.917   2.591  1.00 20.00     0.033 C 
ENDBRANCH   7   8
ENDBRANCH   2   7
TORSDOF 4
ENDMDL
MODEL 8
REMARK VINA RESULT:      -3.4     11.112     11.677
REMARK  4 active torsions:
REMARK  status: ('A' for Active; 'I' for Inactive)
REMARK    1  A    between atoms: C4_4  and  C5_5 
REMARK    2  A    between atoms: C5_5  and  C7_7 
REMARK    3  A    between atoms: C6_6  and  O9_9 
REMARK    4  A    between atoms: C7_7  and  O9_9 
ROOT
HETATM    1  C1  UNL     1     -34.746  18.554  -1.709  1.00 20.00     0.091 C 
HETATM    2  C7  UNL     1     -33.593  17.789  -1.214  1.00 20.00     0.227 C 
HETATM    3  N8  UNL     1     -35.658  19.157  -2.097  1.00 20.00    -0.195 NA
ENDROOT
BRANCH   2   4
HETATM    4  C5  UNL     1     -32.265  18.489  -1.517  1.00 20.00     0.046 C 
BRANCH   4   5
HETATM    5  C4  UNL     1     -31.339  18.575  -0.301  1.00 20.00    -0.001 C 
HETATM    6  C2  UNL     1     -32.125  18.503   0.999  1.00 20.00     0.005 C 
ENDBRANCH   4   5
ENDBRANCH   2   4
BRANCH   2   7
HETATM    7  O9  UNL     1     -33.564  16.513  -1.853  1.00 20.00    -0.372 OA
BRANCH   7   8
HETATM    8  C6  UNL     1     -33.278  16.634  -3.237  1.00 20.00     0.165 C 
HETATM    9  C3  UNL     1     -33.478  15.289  -3.903  1.00 20.00     0.033 C 
ENDBRANCH   7   8
ENDBRANCH   2   7
TORSDOF 4
ENDMDL
MODEL 9
REMARK VINA RESULT:      -3.4      9.705     10.688
REMARK  4 active torsions:
REMARK  status: ('A' for Active; 'I' for Inactive)
REMARK    1  A    between atoms: C4_4  and  C5_5 
REMARK    2  A    between atoms: C5_5  and  C7_7 
REMARK    3  A    between atoms: C6_6  and  O9_9 
REMARK    4  A    between atoms: C7_7  and  O9_9 
ROOT
HETATM    1  C1  UNL     1     -40.400  14.063   7.871  1.00 20.00     0.091 C 
HETATM    2  C7  UNL     1     -40.707  13.316   6.643  1.00 20.00     0.227 C 
HETATM    3  N8  UNL     1     -40.155  14.653   8.839  1.00 20.00    -0.195 NA
ENDROOT
BRANCH   2   4
HETATM    4  C5  UNL     1     -42.197  12.980   6.531  1.00 20.00     0.046 C 
BRANCH   4   5
HETATM    5  C4  UNL     1     -42.972  13.967   5.656  1.00 20.00    -0.001 C 
HETATM    6  C2  UNL     1     -42.153  14.398   4.449  1.00 20.00     0.005 C 
ENDBRANCH   4   5
ENDBRANCH   2   4
BRANCH   2   7
HETATM    7  O9  UNL     1     -39.985  12.085   6.647  1.00 20.00    -0.372 OA
BRANCH   7   8
HETATM    8  C6  UNL     1     -38.861  12.143   5.783  1.00 20.00     0.165 C 
HETATM    9  C3  UNL     1     -39.281  11.708   4.395  1.00 20.00     0.033 C 
ENDBRANCH   7   8
ENDBRANCH   2   7
TORSDOF 4
ENDMDL
