MODEL 1
REMARK VINA RESULT:      -3.7      0.000      0.000
REMARK  1 active torsions:
REMARK  status: ('A' for Active; 'I' for Inactive)
REMARK    1  A    between atoms: C6_6  and  O9_9 
ROOT
HETATM    1  C1  UNL     1     -33.138   6.113   3.578  1.00 20.00     0.098 C 
HETATM    2  C2  UNL     1     -35.297   5.198   5.606  1.00 20.00     0.004 C 
HETATM    3  C3  UNL     1     -34.014   5.292   6.433  1.00 20.00     0.004 C 
HETATM    4  C4  UNL     1     -35.323   6.443   4.723  1.00 20.00     0.053 C 
HETATM    5  C5  UNL     1     -33.328   6.588   6.008  1.00 20.00     0.053 C 
HETATM    6  C6  UNL     1     -33.862   6.875   4.607  1.00 20.00     0.148 C 
HETATM    7  N8  UNL     1     -32.566   5.513   2.766  1.00 20.00    -0.194 NA
ENDROOT
BRANCH   6   8
HETATM    8  O9  UNL     1     -33.767   8.263   4.328  1.00 20.00    -0.370 OA
HETATM    9  C7  UNL     1     -32.481   8.776   4.650  1.00 20.00     0.204 C 
ENDBRANCH   6   8
TORSDOF 1
ENDMDL
MODEL 2
REMARK VINA RESULT:      -3.7     12.747     13.669
REMARK  1 active torsions:
REMARK  status: ('A' for Active; 'I' for Inactive)
REMARK    1  A    between atoms: C6_6  and  O9_9 
ROOT
HETATM    1  C1  UNL     1     -35.579  14.486  -5.202  1.00 20.00     0.098 C 
HETATM    2  C2  UNL     1     -34.332  17.051  -3.987  1.00 20.00     0.004 C 
HETATM    3  C3  UNL     1     -33.506  15.909  -3.393  1.00 20.00     0.004 C 
HETATM    4  C4  UNL     1     -34.512  16.719  -5.466  1.00 20.00     0.053 C 
HETATM    5  C5  UNL     1     -33.229  14.942  -4.543  1.00 20.00     0.053 C 
HETATM    6  C6  UNL     1     -34.343  15.203  -5.553  1.00 20.00     0.148 C 
HETATM    7  N8  UNL     1     -36.554  13.920  -4.926  1.00 20.00    -0.194 NA
ENDROOT
BRANCH   6   8
HETATM    8  O9  UNL     1     -33.920  14.815  -6.851  1.00 20.00    -0.370 OA
HETATM    9  C7  UNL     1     -34.104  15.860  -7.796  1.00 20.00     0.204 C 
ENDBRANCH   6   8
TORSDOF 1
ENDMDL
MODEL 3
REMARK VINA RESULT:      -3.7     12.599     13.450
REMARK  1 active torsions:
REMARK  status: ('A' for Active; 'I' for Inactive)
REMARK    1  A    between atoms: C6_6  and  O9_9 
ROOT
HETATM    1  C1  UNL     1     -31.776  18.522  -0.766  1.00 20.00     0.098 C 
HETATM    2  C2  UNL     1     -33.035  17.919  -3.534  1.00 20.00     0.004 C 
HETATM    3  C3  UNL     1     -33.285  16.649  -2.719  1.00 20.00     0.004 C 
HETATM    4  C4  UNL     1     -33.354  19.088  -2.606  1.00 20.00     0.053 C 
HETATM    5  C5  UNL     1     -33.741  17.114  -1.337  1.00 20.00     0.053 C 
HETATM    6  C6  UNL     1     -33.184  18.529  -1.194  1.00 20.00     0.148 C 
HETATM    7  N8  UNL     1     -30.667  18.518  -0.428  1.00 20.00    -0.194 NA
ENDROOT
BRANCH   6   8
HETATM    8  O9  UNL     1     -33.962  19.263  -0.262  1.00 20.00    -0.370 OA
HETATM    9  C7  UNL     1     -34.040  18.601   0.993  1.00 20.00     0.204 C 
ENDBRANCH   6   8
TORSDOF 1
ENDMDL
MODEL 4
REMARK VINA RESULT:      -3.6     15.714     16.457
REMARK  1 active torsions:
REMARK  status: ('A' for Active; 'I' for Inactive)
REMARK    1  A    between atoms: C6_6  and  O9_9 
ROOT
HETATM    1  C1  UNL     1     -22.345  17.395   9.274  1.00 20.00     0.098 C 
HETATM    2  C2  UNL     1     -23.908  16.818  11.888  1.00 20.00     0.004 C 
HETATM    3  C3  UNL     1     -22.771  17.744  12.322  1.00 20.00     0.004 C 
HETATM    4  C4  UNL     1     -24.457  17.403  10.589  1.00 20.00     0.053 C 
HETATM    5  C5  UNL     1     -22.688  18.841  11.263  1.00 20.00     0.053 C 
HETATM    6  C6  UNL     1     -23.308  18.227  10.011  1.00 20.00     0.148 C 
HETATM    7  N8  UNL     1     -21.585  16.740   8.692  1.00 20.00    -0.194 NA
ENDROOT
BRANCH   6   8
HETATM    8  O9  UNL     1     -23.800  19.253   9.162  1.00 20.00    -0.370 OA
HETATM    9  C7  UNL     1     -25.221  19.262   9.119  1.00 20.00     0.204 C 
ENDBRANCH   6   8
TORSDOF 1
ENDMDL
MODEL 5
REMARK VINA RESULT:      -3.5     12.729     13.815
REMARK  1 active torsions:
REMARK  status: ('A' for Active; 'I' for Inactive)
REMARK    1  A    between atoms: C6_6  and  O9_9 
ROOT
HETATM    1  C1  UNL     1     -34.302  15.269  -6.744  1.00 20.00     0.098 C 
HETATM    2  C2  UNL     1     -33.348  15.408  -3.797  1.00 20.00     0.004 C 
HETATM    3  C3  UNL     1     -33.765  16.842  -4.129  1.00 20.00     0.004 C 
HETATM    4  C4  UNL     1     -34.433  14.506  -4.379  1.00 20.00     0.053 C 
HETATM    5  C5  UNL     1     -35.082  16.734  -4.896  1.00 20.00     0.053 C 
HETATM    6  C6  UNL     1     -35.075  15.329  -5.494  1.00 20.00     0.148 C 
HETATM    7  N8  UNL     1     -33.692  15.222  -7.730  1.00 20.00    -0.194 NA
ENDROOT
BRANCH   6   8
HETATM    8  O9  UNL     1     -36.406  14.900  -5.736  1.00 20.00    -0.370 OA
HETATM    9  C7  UNL     1     -37.344  15.942  -5.500  1.00 20.00     0.204 C 
ENDBRANCH   6   8
TORSDOF 1
ENDMDL
MODEL 6
REMARK VINA RESULT:      -3.5     15.844     16.751
REMARK  1 active torsions:
REMARK  status: ('A' for Active; 'I' for Inactive)
REMARK    1  A    between atoms: C6_6  and  O9_9 
ROOT
HETATM    1  C1  UNL     1     -24.394  16.993  11.708  1.00 20.00     0.098 C 
HETATM    2  C2  UNL     1     -21.996  18.170  10.135  1.00 20.00     0.004 C 
HETATM    3  C3  UNL     1     -23.175  18.278   9.166  1.00 20.00     0.004 C 
HETATM    4  C4  UNL     1     -22.523  18.620  11.495  1.00 20.00     0.053 C 
HETATM    5  C5  UNL     1     -24.356  18.787   9.991  1.00 20.00     0.053 C 
HETATM    6  C6  UNL     1     -24.032  18.392  11.429  1.00 20.00     0.148 C 
HETATM    7  N8  UNL     1     -24.681  15.891  11.929  1.00 20.00    -0.194 NA
ENDROOT
BRANCH   6   8
HETATM    8  O9  UNL     1     -24.712  19.250  12.332  1.00 20.00    -0.370 OA
HETATM    9  C7  UNL     1     -26.116  19.239  12.109  1.00 20.00     0.204 C 
ENDBRANCH   6   8
TORSDOF 1
ENDMDL
MODEL 7
REMARK VINA RESULT:      -3.4      2.136      2.914
REMARK  1 active torsions:
REMARK  status: ('A' for Active; 'I' for Inactive)
REMARK    1  A    between atoms: C6_6  and  O9_9 
ROOT
HETATM    1  C1  UNL     1     -35.681   6.060   4.151  1.00 20.00     0.098 C 
HETATM    2  C2  UNL     1     -33.686   7.903   5.645  1.00 20.00     0.004 C 
HETATM    3  C3  UNL     1     -34.202   6.949   6.723  1.00 20.00     0.004 C 
HETATM    4  C4  UNL     1     -33.410   7.043   4.415  1.00 20.00     0.053 C 
HETATM    5  C5  UNL     1     -34.213   5.559   6.091  1.00 20.00     0.053 C 
HETATM    6  C6  UNL     1     -34.298   5.812   4.587  1.00 20.00     0.148 C 
HETATM    7  N8  UNL     1     -36.771   6.254   3.806  1.00 20.00    -0.194 NA
ENDROOT
BRANCH   6   8
HETATM    8  O9  UNL     1     -33.766   4.702   3.880  1.00 20.00    -0.370 OA
HETATM    9  C7  UNL     1     -33.026   5.114   2.738  1.00 20.00     0.204 C 
ENDBRANCH   6   8
TORSDOF 1
ENDMDL
MODEL 8
REMARK VINA RESULT:      -3.4     12.228     13.589
REMARK  1 active torsions:
REMARK  status: ('A' for Active; 'I' for Inactive)
REMARK    1  A    between atoms: C6_6  and  O9_9 
ROOT
HETATM    1  C1  UNL     1     -35.180  14.053  -4.706  1.00 20.00     0.098 C 
HETATM    2  C2  UNL     1     -35.169  15.702  -7.331  1.00 20.00     0.004 C 
HETATM    3  C3  UNL     1     -35.909  16.589  -6.329  1.00 20.00     0.004 C 
HETATM    4  C4  UNL     1     -33.962  15.137  -6.586  1.00 20.00     0.053 C 
HETATM    5  C5  UNL     1     -35.113  16.515  -5.027  1.00 20.00     0.053 C 
HETATM    6  C6  UNL     1     -34.347  15.197  -5.109  1.00 20.00     0.148 C 
HETATM    7  N8  UNL     1     -35.836  13.151  -4.387  1.00 20.00    -0.194 NA
ENDROOT
BRANCH   6   8
HETATM    8  O9  UNL     1     -33.192  15.258  -4.288  1.00 20.00    -0.370 OA
HETATM    9  C7  UNL     1     -33.347  16.197  -3.232  1.00 20.00     0.204 C 
ENDBRANCH   6   8
TORSDOF 1
ENDMDL
MODEL 9
REMARK VINA RESULT:      -3.4     15.770     16.719
REMARK  1 active torsions:
REMARK  status: ('A' for Active; 'I' for Inactive)
REMARK    1  A    between atoms: C6_6  and  O9_9 
ROOT
HETATM    1  C1  UNL     1     -24.089  17.017  10.902  1.00 20.00     0.098 C 
HETATM    2  C2  UNL     1     -23.715  18.978   8.530  1.00 20.00     0.004 C 
HETATM    3  C3  UNL     1     -25.145  19.229   9.008  1.00 20.00     0.004 C 
HETATM    4  C4  UNL     1     -22.859  18.874   9.791  1.00 20.00     0.053 C 
HETATM    5  C5  UNL     1     -25.084  19.263  10.534  1.00 20.00     0.053 C 
HETATM    6  C6  UNL     1     -23.833  18.466  10.895  1.00 20.00     0.148 C 
HETATM    7  N8  UNL     1     -24.291  15.875  10.909  1.00 20.00    -0.194 NA
ENDROOT
BRANCH   6   8
HETATM    8  O9  UNL     1     -23.352  18.872  12.167  1.00 20.00    -0.370 OA
HETATM    9  C7  UNL     1     -21.973  18.568  12.328  1.00 20.00     0.204 C 
ENDBRANCH   6   8
TORSDOF 1
ENDMDL
