MODEL 1
REMARK VINA RESULT:      -3.6      0.000      0.000
REMARK  2 active torsions:
REMARK  status: ('A' for Active; 'I' for Inactive)
REMARK    1  A    between atoms: C5_5  and  O9_9 
REMARK    2  A    between atoms: C7_7  and  O9_9 
ROOT
HETATM    1  C1  UNL     1     -35.343  14.156  -4.794  1.00 20.00     0.098 C 
HETATM    2  C2  UNL     1     -34.216  15.306  -6.688  1.00 20.00     0.065 C 
HETATM    3  C3  UNL     1     -35.429  15.372  -7.604  1.00 20.00     0.078 C 
HETATM    4  C4  UNL     1     -35.692  16.581  -5.213  1.00 20.00     0.127 C 
HETATM    5  C5  UNL     1     -34.712  15.409  -5.244  1.00 20.00     0.157 C 
HETATM    6  N8  UNL     1     -35.840  13.170  -4.440  1.00 20.00    -0.194 NA
HETATM    7  S10 UNL     1     -36.535  16.581  -6.826  1.00 20.00    -0.165 SA
ENDROOT
BRANCH   5   8
HETATM    8  O9  UNL     1     -33.609  15.681  -4.384  1.00 20.00    -0.365 OA
BRANCH   8   9
HETATM    9  C7  UNL     1     -33.767  16.926  -3.719  1.00 20.00     0.165 C 
HETATM   10  C6  UNL     1     -33.403  16.754  -2.259  1.00 20.00     0.033 C 
ENDBRANCH   8   9
ENDBRANCH   5   8
TORSDOF 2
ENDMDL
MODEL 2
REMARK VINA RESULT:      -3.5     12.377     13.442
REMARK  2 active torsions:
REMARK  status: ('A' for Active; 'I' for Inactive)
REMARK    1  A    between atoms: C5_5  and  O9_9 
REMARK    2  A    between atoms: C7_7  and  O9_9 
ROOT
HETATM    1  C1  UNL     1     -41.632  13.700   4.940  1.00 20.00     0.098 C 
HETATM    2  C2  UNL     1     -40.466  13.880   7.128  1.00 20.00     0.065 C 
HETATM    3  C3  UNL     1     -41.413  14.893   7.753  1.00 20.00     0.078 C 
HETATM    4  C4  UNL     1     -42.526  12.571   6.966  1.00 20.00     0.127 C 
HETATM    5  C5  UNL     1     -41.283  12.993   6.184  1.00 20.00     0.157 C 
HETATM    6  N8  UNL     1     -41.908  14.257   3.960  1.00 20.00    -0.194 NA
HETATM    7  S10 UNL     1     -42.952  13.978   8.039  1.00 20.00    -0.165 SA
ENDROOT
BRANCH   5   8
HETATM    8  O9  UNL     1     -40.518  11.842   5.838  1.00 20.00    -0.365 OA
BRANCH   8   9
HETATM    9  C7  UNL     1     -39.187  12.192   5.489  1.00 20.00     0.165 C 
HETATM   10  C6  UNL     1     -38.877  11.637   4.114  1.00 20.00     0.033 C 
ENDBRANCH   8   9
ENDBRANCH   5   8
TORSDOF 2
ENDMDL
MODEL 3
REMARK VINA RESULT:      -3.4     12.604     13.577
REMARK  2 active torsions:
REMARK  status: ('A' for Active; 'I' for Inactive)
REMARK    1  A    between atoms: C5_5  and  O9_9 
REMARK    2  A    between atoms: C7_7  and  O9_9 
ROOT
HETATM    1  C1  UNL     1     -42.406  12.376   7.215  1.00 20.00     0.098 C 
HETATM    2  C2  UNL     1     -41.666  13.904   5.400  1.00 20.00     0.065 C 
HETATM    3  C3  UNL     1     -42.100  15.200   6.069  1.00 20.00     0.078 C 
HETATM    4  C4  UNL     1     -40.320  13.709   7.432  1.00 20.00     0.127 C 
HETATM    5  C5  UNL     1     -41.242  12.926   6.499  1.00 20.00     0.157 C 
HETATM    6  N8  UNL     1     -43.322  11.942   7.780  1.00 20.00    -0.194 NA
HETATM    7  S10 UNL     1     -40.949  15.417   7.454  1.00 20.00    -0.165 SA
ENDROOT
BRANCH   5   8
HETATM    8  O9  UNL     1     -40.529  11.841   5.916  1.00 20.00    -0.365 OA
BRANCH   8   9
HETATM    9  C7  UNL     1     -39.241  12.246   5.476  1.00 20.00     0.165 C 
HETATM   10  C6  UNL     1     -38.968  11.631   4.119  1.00 20.00     0.033 C 
ENDBRANCH   8   9
ENDBRANCH   5   8
TORSDOF 2
ENDMDL
MODEL 4
REMARK VINA RESULT:      -3.3     12.815     13.844
REMARK  2 active torsions:
REMARK  status: ('A' for Active; 'I' for Inactive)
REMARK    1  A    between atoms: C5_5  and  O9_9 
REMARK    2  A    between atoms: C7_7  and  O9_9 
ROOT
HETATM    1  C1  UNL     1     -40.470  13.920   8.098  1.00 20.00     0.098 C 
HETATM    2  C2  UNL     1     -41.972  12.512   6.705  1.00 20.00     0.065 C 
HETATM    3  C3  UNL     1     -43.284  13.033   7.274  1.00 20.00     0.078 C 
HETATM    4  C4  UNL     1     -41.676  14.874   6.145  1.00 20.00     0.127 C 
HETATM    5  C5  UNL     1     -40.959  13.660   6.733  1.00 20.00     0.157 C 
HETATM    6  N8  UNL     1     -40.085  14.127   9.173  1.00 20.00    -0.194 NA
HETATM    7  S10 UNL     1     -43.417  14.732   6.655  1.00 20.00    -0.165 SA
ENDROOT
BRANCH   5   8
HETATM    8  O9  UNL     1     -39.840  13.321   5.920  1.00 20.00    -0.365 OA
BRANCH   8   9
HETATM    9  C7  UNL     1     -39.870  11.953   5.544  1.00 20.00     0.165 C 
HETATM   10  C6  UNL     1     -38.932  11.743   4.373  1.00 20.00     0.033 C 
ENDBRANCH   8   9
ENDBRANCH   5   8
TORSDOF 2
ENDMDL
MODEL 5
REMARK VINA RESULT:      -3.2      2.570      3.623
REMARK  2 active torsions:
REMARK  status: ('A' for Active; 'I' for Inactive)
REMARK    1  A    between atoms: C5_5  and  O9_9 
REMARK    2  A    between atoms: C7_7  and  O9_9 
ROOT
HETATM    1  C1  UNL     1     -34.465  15.309  -6.868  1.00 20.00     0.098 C 
HETATM    2  C2  UNL     1     -34.922  14.342  -4.625  1.00 20.00     0.065 C 
HETATM    3  C3  UNL     1     -33.589  14.716  -3.994  1.00 20.00     0.078 C 
HETATM    4  C4  UNL     1     -35.059  16.763  -4.942  1.00 20.00     0.127 C 
HETATM    5  C5  UNL     1     -35.279  15.425  -5.646  1.00 20.00     0.157 C 
HETATM    6  N8  UNL     1     -33.823  15.218  -7.831  1.00 20.00    -0.194 NA
HETATM    7  S10 UNL     1     -33.646  16.520  -3.821  1.00 20.00    -0.165 SA
ENDROOT
BRANCH   5   8
HETATM    8  O9  UNL     1     -36.649  15.293  -6.014  1.00 20.00    -0.365 OA
BRANCH   8   9
HETATM    9  C7  UNL     1     -37.392  16.449  -5.658  1.00 20.00     0.165 C 
HETATM   10  C6  UNL     1     -38.642  16.022  -4.918  1.00 20.00     0.033 C 
ENDBRANCH   8   9
ENDBRANCH   5   8
TORSDOF 2
ENDMDL
MODEL 6
REMARK VINA RESULT:      -3.1      1.710      2.108
REMARK  2 active torsions:
REMARK  status: ('A' for Active; 'I' for Inactive)
REMARK    1  A    between atoms: C5_5  and  O9_9 
REMARK    2  A    between atoms: C7_7  and  O9_9 
ROOT
HETATM    1  C1  UNL     1     -34.136  15.506  -6.844  1.00 20.00     0.098 C 
HETATM    2  C2  UNL     1     -34.929  17.602  -5.771  1.00 20.00     0.065 C 
HETATM    3  C3  UNL     1     -36.000  17.936  -6.798  1.00 20.00     0.078 C 
HETATM    4  C4  UNL     1     -36.259  15.562  -5.553  1.00 20.00     0.127 C 
HETATM    5  C5  UNL     1     -34.826  16.078  -5.676  1.00 20.00     0.157 C 
HETATM    6  N8  UNL     1     -33.593  15.054  -7.765  1.00 20.00    -0.194 NA
HETATM    7  S10 UNL     1     -37.290  16.685  -6.547  1.00 20.00    -0.165 SA
ENDROOT
BRANCH   5   8
HETATM    8  O9  UNL     1     -34.086  15.726  -4.511  1.00 20.00    -0.365 OA
BRANCH   8   9
HETATM    9  C7  UNL     1     -33.575  16.878  -3.857  1.00 20.00     0.165 C 
HETATM   10  C6  UNL     1     -33.454  16.590  -2.374  1.00 20.00     0.033 C 
ENDBRANCH   8   9
ENDBRANCH   5   8
TORSDOF 2
ENDMDL
MODEL 7
REMARK VINA RESULT:      -3.1      1.928      2.265
REMARK  2 active torsions:
REMARK  status: ('A' for Active; 'I' for Inactive)
REMARK    1  A    between atoms: C5_5  and  O9_9 
REMARK    2  A    between atoms: C7_7  and  O9_9 
ROOT
HETATM    1  C1  UNL     1     -36.119  17.351  -4.828  1.00 20.00     0.098 C 
HETATM    2  C2  UNL     1     -34.922  15.192  -5.114  1.00 20.00     0.065 C 
HETATM    3  C3  UNL     1     -35.781  14.660  -6.251  1.00 20.00     0.078 C 
HETATM    4  C4  UNL     1     -34.535  17.003  -6.711  1.00 20.00     0.127 C 
HETATM    5  C5  UNL     1     -34.858  16.716  -5.245  1.00 20.00     0.157 C 
HETATM    6  N8  UNL     1     -37.113  17.853  -4.501  1.00 20.00    -0.194 NA
HETATM    7  S10 UNL     1     -35.359  15.699  -7.677  1.00 20.00    -0.165 SA
ENDROOT
BRANCH   5   8
HETATM    8  O9  UNL     1     -33.815  17.218  -4.415  1.00 20.00    -0.365 OA
BRANCH   8   9
HETATM    9  C7  UNL     1     -33.415  16.256  -3.450  1.00 20.00     0.165 C 
HETATM   10  C6  UNL     1     -33.457  16.891  -2.076  1.00 20.00     0.033 C 
ENDBRANCH   8   9
ENDBRANCH   5   8
TORSDOF 2
ENDMDL
MODEL 8
REMARK VINA RESULT:      -3.1      3.726      4.871
REMARK  2 active torsions:
REMARK  status: ('A' for Active; 'I' for Inactive)
REMARK    1  A    between atoms: C5_5  and  O9_9 
REMARK    2  A    between atoms: C7_7  and  O9_9 
ROOT
HETATM    1  C1  UNL     1     -34.220  18.908  -1.395  1.00 20.00     0.098 C 
HETATM    2  C2  UNL     1     -32.968  17.057  -2.483  1.00 20.00     0.065 C 
HETATM    3  C3  UNL     1     -34.055  16.662  -3.472  1.00 20.00     0.078 C 
HETATM    4  C4  UNL     1     -33.182  19.204  -3.634  1.00 20.00     0.127 C 
HETATM    5  C5  UNL     1     -33.070  18.567  -2.250  1.00 20.00     0.157 C 
HETATM    6  N8  UNL     1     -35.126  19.178  -0.723  1.00 20.00    -0.194 NA
HETATM    7  S10 UNL     1     -34.125  18.032  -4.659  1.00 20.00    -0.165 SA
ENDROOT
BRANCH   5   8
HETATM    8  O9  UNL     1     -31.887  19.026  -1.603  1.00 20.00    -0.365 OA
BRANCH   8   9
HETATM    9  C7  UNL     1     -31.603  18.258  -0.442  1.00 20.00     0.165 C 
HETATM   10  C6  UNL     1     -31.156  19.189   0.666  1.00 20.00     0.033 C 
ENDBRANCH   8   9
ENDBRANCH   5   8
TORSDOF 2
ENDMDL
MODEL 9
REMARK VINA RESULT:      -2.9      3.067      3.609
REMARK  2 active torsions:
REMARK  status: ('A' for Active; 'I' for Inactive)
REMARK    1  A    between atoms: C5_5  and  O9_9 
REMARK    2  A    between atoms: C7_7  and  O9_9 
ROOT
HETATM    1  C1  UNL     1     -33.369  16.695  -3.541  1.00 20.00     0.098 C 
HETATM    2  C2  UNL     1     -33.614  18.945  -4.568  1.00 20.00     0.065 C 
HETATM    3  C3  UNL     1     -34.959  18.694  -5.232  1.00 20.00     0.078 C 
HETATM    4  C4  UNL     1     -34.891  18.395  -2.557  1.00 20.00     0.127 C 
HETATM    5  C5  UNL     1     -33.568  18.130  -3.273  1.00 20.00     0.157 C 
HETATM    6  N8  UNL     1     -33.212  15.565  -3.751  1.00 20.00    -0.194 NA
HETATM    7  S10 UNL     1     -36.143  18.599  -3.861  1.00 20.00    -0.165 SA
ENDROOT
BRANCH   5   8
HETATM    8  O9  UNL     1     -32.485  18.583  -2.467  1.00 20.00    -0.365 OA
BRANCH   8   9
HETATM    9  C7  UNL     1     -32.590  18.095  -1.138  1.00 20.00     0.165 C 
HETATM   10  C6  UNL     1     -31.352  18.499  -0.365  1.00 20.00     0.033 C 
ENDBRANCH   8   9
ENDBRANCH   5   8
TORSDOF 2
ENDMDL
