MODEL 1
REMARK VINA RESULT:      -4.7      0.000      0.000
REMARK  4 active torsions:
REMARK  status: ('A' for Active; 'I' for Inactive)
REMARK    1  A    between atoms: C2_2  and  C9_9 
REMARK    2  A    between atoms: C2_2  and  C10_10 
REMARK    3  A    between atoms: C3_3  and  C5_5 
REMARK    4  A    between atoms: C3_3  and  C9_9 
ROOT
HETATM    1  C3  UNL     1     -32.733   8.333   4.414  1.00 20.00     0.135 C 
HETATM    2  O11 UNL     1     -32.208   9.202   5.100  1.00 20.00    -0.297 OA
ENDROOT
BRANCH   1   3
HETATM    3  C5  UNL     1     -31.937   7.639   3.360  1.00 20.00     0.060 A 
HETATM    4  C4  UNL     1     -32.664   6.831   2.332  1.00 20.00     0.017 A 
HETATM    5  C6  UNL     1     -31.992   8.116   1.941  1.00 20.00    -0.007 A 
HETATM    6  C7  UNL     1     -32.811   9.284   1.509  1.00 20.00     0.011 C 
ENDBRANCH   1   3
BRANCH   1   7
HETATM    7  C9  UNL     1     -34.185   7.905   4.517  1.00 20.00     0.111 C 
BRANCH   7   8
HETATM    8  C2  UNL     1     -34.340   6.700   5.405  1.00 20.00    -0.083 C 
HETATM    9  C1  UNL     1     -33.871   6.700   6.664  1.00 20.00     0.014 C 
BRANCH   8  10
HETATM   10  C10 UNL     1     -35.038   5.487   4.833  1.00 20.00     0.029 C 
HETATM   11  C8  UNL     1     -34.067   4.377   4.454  1.00 20.00     0.010 C 
ENDBRANCH   8  10
ENDBRANCH   7   8
ENDBRANCH   1   7
TORSDOF 4
ENDMDL
MODEL 2
REMARK VINA RESULT:      -4.7      1.115      4.129
REMARK  4 active torsions:
REMARK  status: ('A' for Active; 'I' for Inactive)
REMARK    1  A    between atoms: C2_2  and  C9_9 
REMARK    2  A    between atoms: C2_2  and  C10_10 
REMARK    3  A    between atoms: C3_3  and  C5_5 
REMARK    4  A    between atoms: C3_3  and  C9_9 
ROOT
HETATM    1  C3  UNL     1     -33.359   7.974   5.335  1.00 20.00     0.135 C 
HETATM    2  O11 UNL     1     -34.220   8.823   5.532  1.00 20.00    -0.297 OA
ENDROOT
BRANCH   1   3
HETATM    3  C5  UNL     1     -33.474   6.635   5.984  1.00 20.00     0.060 A 
HETATM    4  C4  UNL     1     -34.692   6.339   6.800  1.00 20.00     0.017 A 
HETATM    5  C6  UNL     1     -34.479   5.643   5.486  1.00 20.00    -0.007 A 
HETATM    6  C7  UNL     1     -35.393   5.919   4.341  1.00 20.00     0.011 C 
ENDBRANCH   1   3
BRANCH   1   7
HETATM    7  C9  UNL     1     -32.118   8.177   4.487  1.00 20.00     0.111 C 
BRANCH   7   8
HETATM    8  C2  UNL     1     -32.394   7.895   3.033  1.00 20.00    -0.083 C 
HETATM    9  C1  UNL     1     -32.322   6.647   2.542  1.00 20.00     0.014 C 
BRANCH   8  10
HETATM   10  C10 UNL     1     -32.749   9.064   2.143  1.00 20.00     0.029 C 
HETATM   11  C8  UNL     1     -32.440   8.800   0.676  1.00 20.00     0.010 C 
ENDBRANCH   8  10
ENDBRANCH   7   8
ENDBRANCH   1   7
TORSDOF 4
ENDMDL
MODEL 3
REMARK VINA RESULT:      -4.5      1.178      3.840
REMARK  4 active torsions:
REMARK  status: ('A' for Active; 'I' for Inactive)
REMARK    1  A    between atoms: C2_2  and  C9_9 
REMARK    2  A    between atoms: C2_2  and  C10_10 
REMARK    3  A    between atoms: C3_3  and  C5_5 
REMARK    4  A    between atoms: C3_3  and  C9_9 
ROOT
HETATM    1  C3  UNL     1     -33.911   6.914   5.881  1.00 20.00     0.135 C 
HETATM    2  O11 UNL     1     -33.092   6.845   6.789  1.00 20.00    -0.297 OA
ENDROOT
BRANCH   1   3
HETATM    3  C5  UNL     1     -34.916   5.826   5.702  1.00 20.00     0.060 A 
HETATM    4  C4  UNL     1     -35.704   5.782   4.432  1.00 20.00     0.017 A 
HETATM    5  C6  UNL     1     -34.669   4.729   4.713  1.00 20.00    -0.007 A 
HETATM    6  C7  UNL     1     -33.438   4.654   3.876  1.00 20.00     0.011 C 
ENDBRANCH   1   3
BRANCH   1   7
HETATM    7  C9  UNL     1     -33.977   8.031   4.856  1.00 20.00     0.111 C 
BRANCH   7   8
HETATM    8  C2  UNL     1     -32.610   8.371   4.324  1.00 20.00    -0.083 C 
HETATM    9  C1  UNL     1     -31.909   9.403   4.821  1.00 20.00     0.014 C 
BRANCH   8  10
HETATM   10  C10 UNL     1     -32.055   7.515   3.209  1.00 20.00     0.029 C 
HETATM   11  C8  UNL     1     -32.302   8.114   1.831  1.00 20.00     0.010 C 
ENDBRANCH   8  10
ENDBRANCH   7   8
ENDBRANCH   1   7
TORSDOF 4
ENDMDL
MODEL 4
REMARK VINA RESULT:      -4.3      1.865      4.301
REMARK  4 active torsions:
REMARK  status: ('A' for Active; 'I' for Inactive)
REMARK    1  A    between atoms: C2_2  and  C9_9 
REMARK    2  A    between atoms: C2_2  and  C10_10 
REMARK    3  A    between atoms: C3_3  and  C5_5 
REMARK    4  A    between atoms: C3_3  and  C9_9 
ROOT
HETATM    1  C3  UNL     1     -34.974   5.519   4.673  1.00 20.00     0.135 C 
HETATM    2  O11 UNL     1     -35.899   6.016   4.043  1.00 20.00    -0.297 OA
ENDROOT
BRANCH   1   3
HETATM    3  C5  UNL     1     -34.840   5.790   6.134  1.00 20.00     0.060 A 
HETATM    4  C4  UNL     1     -33.472   5.796   6.738  1.00 20.00     0.017 A 
HETATM    5  C6  UNL     1     -34.242   7.079   6.607  1.00 20.00    -0.007 A 
HETATM    6  C7  UNL     1     -33.765   8.142   5.676  1.00 20.00     0.011 C 
ENDBRANCH   1   3
BRANCH   1   7
HETATM    7  C9  UNL     1     -33.886   4.646   4.075  1.00 20.00     0.111 C 
BRANCH   7   8
HETATM    8  C2  UNL     1     -33.141   5.368   2.983  1.00 20.00    -0.083 C 
HETATM    9  C1  UNL     1     -33.011   4.831   1.759  1.00 20.00     0.014 C 
BRANCH   8  10
HETATM   10  C10 UNL     1     -32.541   6.716   3.312  1.00 20.00     0.029 C 
HETATM   11  C8  UNL     1     -32.249   7.547   2.070  1.00 20.00     0.010 C 
ENDBRANCH   8  10
ENDBRANCH   7   8
ENDBRANCH   1   7
TORSDOF 4
ENDMDL
MODEL 5
REMARK VINA RESULT:      -4.1      1.822      4.326
REMARK  4 active torsions:
REMARK  status: ('A' for Active; 'I' for Inactive)
REMARK    1  A    between atoms: C2_2  and  C9_9 
REMARK    2  A    between atoms: C2_2  and  C10_10 
REMARK    3  A    between atoms: C3_3  and  C5_5 
REMARK    4  A    between atoms: C3_3  and  C9_9 
ROOT
HETATM    1  C3  UNL     1     -33.249   6.065   3.486  1.00 20.00     0.135 C 
HETATM    2  O11 UNL     1     -33.312   4.888   3.152  1.00 20.00    -0.297 OA
ENDROOT
BRANCH   1   3
HETATM    3  C5  UNL     1     -34.368   6.677   4.262  1.00 20.00     0.060 A 
HETATM    4  C4  UNL     1     -35.581   5.848   4.543  1.00 20.00     0.017 A 
HETATM    5  C6  UNL     1     -34.649   6.222   5.661  1.00 20.00    -0.007 A 
HETATM    6  C7  UNL     1     -33.849   5.168   6.347  1.00 20.00     0.011 C 
ENDBRANCH   1   3
BRANCH   1   7
HETATM    7  C9  UNL     1     -32.111   7.006   3.139  1.00 20.00     0.111 C 
BRANCH   7   8
HETATM    8  C2  UNL     1     -32.457   8.433   3.474  1.00 20.00    -0.083 C 
HETATM    9  C1  UNL     1     -32.344   8.898   4.729  1.00 20.00     0.014 C 
BRANCH   8  10
HETATM   10  C10 UNL     1     -32.941   9.323   2.353  1.00 20.00     0.029 C 
HETATM   11  C8  UNL     1     -32.469   8.851   0.985  1.00 20.00     0.010 C 
ENDBRANCH   8  10
ENDBRANCH   7   8
ENDBRANCH   1   7
TORSDOF 4
ENDMDL
MODEL 6
REMARK VINA RESULT:      -4.0     11.331     12.390
REMARK  4 active torsions:
REMARK  status: ('A' for Active; 'I' for Inactive)
REMARK    1  A    between atoms: C2_2  and  C9_9 
REMARK    2  A    between atoms: C2_2  and  C10_10 
REMARK    3  A    between atoms: C3_3  and  C5_5 
REMARK    4  A    between atoms: C3_3  and  C9_9 
ROOT
HETATM    1  C3  UNL     1     -32.855  18.522  -1.696  1.00 20.00     0.135 C 
HETATM    2  O11 UNL     1     -32.143  19.133  -2.483  1.00 20.00    -0.297 OA
ENDROOT
BRANCH   1   3
HETATM    3  C5  UNL     1     -33.336  19.195  -0.454  1.00 20.00     0.060 A 
HETATM    4  C4  UNL     1     -33.748  18.345   0.706  1.00 20.00     0.017 A 
HETATM    5  C6  UNL     1     -32.496  19.172   0.786  1.00 20.00    -0.007 A 
HETATM    6  C7  UNL     1     -31.165  18.503   0.852  1.00 20.00     0.011 C 
ENDBRANCH   1   3
BRANCH   1   7
HETATM    7  C9  UNL     1     -33.282  17.075  -1.855  1.00 20.00     0.111 C 
BRANCH   7   8
HETATM    8  C2  UNL     1     -33.683  16.773  -3.274  1.00 20.00    -0.083 C 
HETATM    9  C1  UNL     1     -34.572  17.544  -3.923  1.00 20.00     0.014 C 
BRANCH   8  10
HETATM   10  C10 UNL     1     -33.057  15.571  -3.944  1.00 20.00     0.029 C 
HETATM   11  C8  UNL     1     -34.067  14.470  -4.234  1.00 20.00     0.010 C 
ENDBRANCH   8  10
ENDBRANCH   7   8
ENDBRANCH   1   7
TORSDOF 4
ENDMDL
MODEL 7
REMARK VINA RESULT:      -3.9      0.665      1.310
REMARK  4 active torsions:
REMARK  status: ('A' for Active; 'I' for Inactive)
REMARK    1  A    between atoms: C2_2  and  C9_9 
REMARK    2  A    between atoms: C2_2  and  C10_10 
REMARK    3  A    between atoms: C3_3  and  C5_5 
REMARK    4  A    between atoms: C3_3  and  C9_9 
ROOT
HETATM    1  C3  UNL     1     -32.753   8.360   4.371  1.00 20.00     0.135 C 
HETATM    2  O11 UNL     1     -32.219   9.155   5.134  1.00 20.00    -0.297 OA
ENDROOT
BRANCH   1   3
HETATM    3  C5  UNL     1     -31.925   7.614   3.378  1.00 20.00     0.060 A 
HETATM    4  C4  UNL     1     -32.619   6.745   2.378  1.00 20.00     0.017 A 
HETATM    5  C6  UNL     1     -31.943   8.011   1.934  1.00 20.00    -0.007 A 
HETATM    6  C7  UNL     1     -32.757   9.148   1.417  1.00 20.00     0.011 C 
ENDBRANCH   1   3
BRANCH   1   7
HETATM    7  C9  UNL     1     -34.243   8.078   4.314  1.00 20.00     0.111 C 
BRANCH   7   8
HETATM    8  C2  UNL     1     -34.582   6.779   4.997  1.00 20.00    -0.083 C 
HETATM    9  C1  UNL     1     -35.370   5.867   4.403  1.00 20.00     0.014 C 
BRANCH   8  10
HETATM   10  C10 UNL     1     -34.012   6.538   6.375  1.00 20.00     0.029 C 
HETATM   11  C8  UNL     1     -34.063   5.072   6.783  1.00 20.00     0.010 C 
ENDBRANCH   8  10
ENDBRANCH   7   8
ENDBRANCH   1   7
TORSDOF 4
ENDMDL
MODEL 8
REMARK VINA RESULT:      -3.8     11.301     12.559
REMARK  4 active torsions:
REMARK  status: ('A' for Active; 'I' for Inactive)
REMARK    1  A    between atoms: C2_2  and  C9_9 
REMARK    2  A    between atoms: C2_2  and  C10_10 
REMARK    3  A    between atoms: C3_3  and  C5_5 
REMARK    4  A    between atoms: C3_3  and  C9_9 
ROOT
HETATM    1  C3  UNL     1     -34.057  14.814  -4.652  1.00 20.00     0.135 C 
HETATM    2  O11 UNL     1     -34.711  13.932  -4.109  1.00 20.00    -0.297 OA
ENDROOT
BRANCH   1   3
HETATM    3  C5  UNL     1     -34.404  15.250  -6.037  1.00 20.00     0.060 A 
HETATM    4  C4  UNL     1     -35.664  14.732  -6.654  1.00 20.00     0.017 A 
HETATM    5  C6  UNL     1     -35.556  16.179  -6.266  1.00 20.00    -0.007 A 
HETATM    6  C7  UNL     1     -36.396  16.718  -5.159  1.00 20.00     0.011 C 
ENDBRANCH   1   3
BRANCH   1   7
HETATM    7  C9  UNL     1     -32.858  15.510  -4.037  1.00 20.00     0.111 C 
BRANCH   7   8
HETATM    8  C2  UNL     1     -33.264  16.761  -3.305  1.00 20.00    -0.083 C 
HETATM    9  C1  UNL     1     -33.245  17.959  -3.914  1.00 20.00     0.014 C 
BRANCH   8  10
HETATM   10  C10 UNL     1     -33.690  16.627  -1.861  1.00 20.00     0.029 C 
HETATM   11  C8  UNL     1     -33.377  17.870  -1.039  1.00 20.00     0.010 C 
ENDBRANCH   8  10
ENDBRANCH   7   8
ENDBRANCH   1   7
TORSDOF 4
ENDMDL
MODEL 9
REMARK VINA RESULT:      -3.7      9.910     11.248
REMARK  4 active torsions:
REMARK  status: ('A' for Active; 'I' for Inactive)
REMARK    1  A    between atoms: C2_2  and  C9_9 
REMARK    2  A    between atoms: C2_2  and  C10_10 
REMARK    3  A    between atoms: C3_3  and  C5_5 
REMARK    4  A    between atoms: C3_3  and  C9_9 
ROOT
HETATM    1  C3  UNL     1     -40.630  14.226   8.049  1.00 20.00     0.135 C 
HETATM    2  O11 UNL     1     -40.079  13.709   9.014  1.00 20.00    -0.297 OA
ENDROOT
BRANCH   1   3
HETATM    3  C5  UNL     1     -40.324  15.642   7.690  1.00 20.00     0.060 A 
HETATM    4  C4  UNL     1     -41.426  16.496   7.148  1.00 20.00     0.017 A 
HETATM    5  C6  UNL     1     -40.873  16.762   8.520  1.00 20.00    -0.007 A 
HETATM    6  C7  UNL     1     -41.724  16.539   9.723  1.00 20.00     0.011 C 
ENDBRANCH   1   3
BRANCH   1   7
HETATM    7  C9  UNL     1     -41.662  13.544   7.171  1.00 20.00     0.111 C 
BRANCH   7   8
HETATM    8  C2  UNL     1     -41.060  13.088   5.868  1.00 20.00    -0.083 C 
HETATM    9  C1  UNL     1     -41.417  13.653   4.703  1.00 20.00     0.014 C 
BRANCH   8  10
HETATM   10  C10 UNL     1     -40.045  11.970   5.915  1.00 20.00     0.029 C 
HETATM   11  C8  UNL     1     -39.318  11.782   4.590  1.00 20.00     0.010 C 
ENDBRANCH   8  10
ENDBRANCH   7   8
ENDBRANCH   1   7
TORSDOF 4
ENDMDL
