MODEL 1
REMARK VINA RESULT:      -3.7      0.000      0.000
REMARK  5 active torsions:
REMARK  status: ('A' for Active; 'I' for Inactive)
REMARK    1  A    between atoms: C2_2  and  C8_8 
REMARK    2  A    between atoms: C2_2  and  C9_9 
REMARK    3  A    between atoms: C3_3  and  C10_10 
REMARK    4  A    between atoms: C9_9  and  C10_10 
REMARK    5  A    between atoms: C10_10  and  C11_11 
ROOT
HETATM    1  C10 UNL     1     -35.694  15.943  -5.520  1.00 20.00     0.062 C 
ENDROOT
BRANCH   1   2
HETATM    2  C3  UNL     1     -35.486  15.317  -6.903  1.00 20.00     0.127 C 
HETATM    3  C4  UNL     1     -34.488  15.991  -7.810  1.00 20.00     0.091 C 
HETATM    4  O12 UNL     1     -36.085  14.305  -7.264  1.00 20.00    -0.298 OA
ENDBRANCH   1   2
BRANCH   1   5
HETATM    5  C9  UNL     1     -34.384  16.601  -5.036  1.00 20.00     0.045 C 
BRANCH   5   6
HETATM    6  C2  UNL     1     -33.657  15.815  -3.961  1.00 20.00    -0.089 C 
HETATM    7  C1  UNL     1     -33.295  14.538  -4.167  1.00 20.00     0.014 C 
BRANCH   6   8
HETATM    8  C8  UNL     1     -33.355  16.498  -2.645  1.00 20.00     0.029 C 
HETATM    9  C5  UNL     1     -33.192  18.006  -2.779  1.00 20.00     0.010 C 
ENDBRANCH   6   8
ENDBRANCH   5   6
ENDBRANCH   1   5
BRANCH   1  10
HETATM   10  C11 UNL     1     -36.891  16.931  -5.487  1.00 20.00    -0.011 C 
HETATM   11  C6  UNL     1     -36.691  18.152  -4.585  1.00 20.00     0.010 C 
HETATM   12  C7  UNL     1     -38.199  16.224  -5.118  1.00 20.00     0.010 C 
ENDBRANCH   1  10
TORSDOF 5
ENDMDL
MODEL 2
REMARK VINA RESULT:      -3.7     13.072     14.120
REMARK  5 active torsions:
REMARK  status: ('A' for Active; 'I' for Inactive)
REMARK    1  A    between atoms: C2_2  and  C8_8 
REMARK    2  A    between atoms: C2_2  and  C9_9 
REMARK    3  A    between atoms: C3_3  and  C10_10 
REMARK    4  A    between atoms: C9_9  and  C10_10 
REMARK    5  A    between atoms: C10_10  and  C11_11 
ROOT
HETATM    1  C10 UNL     1     -40.858  13.217   6.952  1.00 20.00     0.062 C 
ENDROOT
BRANCH   1   2
HETATM    2  C3  UNL     1     -39.746  12.365   6.332  1.00 20.00     0.127 C 
HETATM    3  C4  UNL     1     -39.809  12.145   4.842  1.00 20.00     0.091 C 
HETATM    4  O12 UNL     1     -38.831  11.888   7.002  1.00 20.00    -0.298 OA
ENDBRANCH   1   2
BRANCH   1   5
HETATM    5  C9  UNL     1     -40.505  14.715   6.827  1.00 20.00     0.045 C 
BRANCH   5   6
HETATM    6  C2  UNL     1     -40.506  15.463   8.148  1.00 20.00    -0.089 C 
HETATM    7  C1  UNL     1     -40.741  16.785   8.190  1.00 20.00     0.014 C 
BRANCH   6   8
HETATM    8  C8  UNL     1     -40.230  14.689   9.417  1.00 20.00     0.029 C 
HETATM    9  C5  UNL     1     -41.447  14.578  10.326  1.00 20.00     0.010 C 
ENDBRANCH   6   8
ENDBRANCH   5   6
ENDBRANCH   1   5
BRANCH   1  10
HETATM   10  C11 UNL     1     -42.256  12.895   6.359  1.00 20.00    -0.011 C 
HETATM   11  C6  UNL     1     -42.968  14.085   5.707  1.00 20.00     0.010 C 
HETATM   12  C7  UNL     1     -43.177  12.249   7.400  1.00 20.00     0.010 C 
ENDBRANCH   1  10
TORSDOF 5
ENDMDL
MODEL 3
REMARK VINA RESULT:      -3.7     12.214     13.548
REMARK  5 active torsions:
REMARK  status: ('A' for Active; 'I' for Inactive)
REMARK    1  A    between atoms: C2_2  and  C8_8 
REMARK    2  A    between atoms: C2_2  and  C9_9 
REMARK    3  A    between atoms: C3_3  and  C10_10 
REMARK    4  A    between atoms: C9_9  and  C10_10 
REMARK    5  A    between atoms: C10_10  and  C11_11 
ROOT
HETATM    1  C10 UNL     1     -40.610  13.748   6.422  1.00 20.00     0.062 C 
ENDROOT
BRANCH   1   2
HETATM    2  C3  UNL     1     -39.728  12.518   6.190  1.00 20.00     0.127 C 
HETATM    3  C4  UNL     1     -39.653  11.992   4.779  1.00 20.00     0.091 C 
HETATM    4  O12 UNL     1     -39.093  11.982   7.098  1.00 20.00    -0.298 OA
ENDBRANCH   1   2
BRANCH   1   5
HETATM    5  C9  UNL     1     -42.005  13.522   5.800  1.00 20.00     0.045 C 
BRANCH   5   6
HETATM    6  C2  UNL     1     -42.496  14.675   4.945  1.00 20.00    -0.089 C 
HETATM    7  C1  UNL     1     -42.258  14.702   3.623  1.00 20.00     0.014 C 
BRANCH   6   8
HETATM    8  C8  UNL     1     -43.252  15.801   5.613  1.00 20.00     0.029 C 
HETATM    9  C5  UNL     1     -42.507  17.129   5.573  1.00 20.00     0.010 C 
ENDBRANCH   6   8
ENDBRANCH   5   6
ENDBRANCH   1   5
BRANCH   1  10
HETATM   10  C11 UNL     1     -40.697  14.145   7.921  1.00 20.00    -0.011 C 
HETATM   11  C6  UNL     1     -42.054  13.877   8.579  1.00 20.00     0.010 C 
HETATM   12  C7  UNL     1     -40.295  15.607   8.144  1.00 20.00     0.010 C 
ENDBRANCH   1  10
TORSDOF 5
ENDMDL
MODEL 4
REMARK VINA RESULT:      -3.7     12.766     13.785
REMARK  5 active torsions:
REMARK  status: ('A' for Active; 'I' for Inactive)
REMARK    1  A    between atoms: C2_2  and  C8_8 
REMARK    2  A    between atoms: C2_2  and  C9_9 
REMARK    3  A    between atoms: C3_3  and  C10_10 
REMARK    4  A    between atoms: C9_9  and  C10_10 
REMARK    5  A    between atoms: C10_10  and  C11_11 
ROOT
HETATM    1  C10 UNL     1     -40.884  13.340   6.887  1.00 20.00     0.062 C 
ENDROOT
BRANCH   1   2
HETATM    2  C3  UNL     1     -39.801  12.412   6.329  1.00 20.00     0.127 C 
HETATM    3  C4  UNL     1     -39.829  12.149   4.845  1.00 20.00     0.091 C 
HETATM    4  O12 UNL     1     -38.934  11.909   7.043  1.00 20.00    -0.298 OA
ENDBRANCH   1   2
BRANCH   1   5
HETATM    5  C9  UNL     1     -40.307  14.758   7.094  1.00 20.00     0.045 C 
BRANCH   5   6
HETATM    6  C2  UNL     1     -40.512  15.311   8.492  1.00 20.00    -0.089 C 
HETATM    7  C1  UNL     1     -40.455  14.505   9.566  1.00 20.00     0.014 C 
BRANCH   6   8
HETATM    8  C8  UNL     1     -40.789  16.789   8.652  1.00 20.00     0.029 C 
HETATM    9  C5  UNL     1     -40.810  17.540   7.328  1.00 20.00     0.010 C 
ENDBRANCH   6   8
ENDBRANCH   5   6
ENDBRANCH   1   5
BRANCH   1  10
HETATM   10  C11 UNL     1     -42.166  13.354   6.011  1.00 20.00    -0.011 C 
HETATM   11  C6  UNL     1     -42.488  14.703   5.363  1.00 20.00     0.010 C 
HETATM   12  C7  UNL     1     -43.387  12.849   6.788  1.00 20.00     0.010 C 
ENDBRANCH   1  10
TORSDOF 5
ENDMDL
MODEL 5
REMARK VINA RESULT:      -3.6      1.937      2.950
REMARK  5 active torsions:
REMARK  status: ('A' for Active; 'I' for Inactive)
REMARK    1  A    between atoms: C2_2  and  C8_8 
REMARK    2  A    between atoms: C2_2  and  C9_9 
REMARK    3  A    between atoms: C3_3  and  C10_10 
REMARK    4  A    between atoms: C9_9  and  C10_10 
REMARK    5  A    between atoms: C10_10  and  C11_11 
ROOT
HETATM    1  C10 UNL     1     -34.249  16.475  -3.826  1.00 20.00     0.062 C 
ENDROOT
BRANCH   1   2
HETATM    2  C3  UNL     1     -34.111  15.130  -4.545  1.00 20.00     0.127 C 
HETATM    3  C4  UNL     1     -34.041  15.168  -6.050  1.00 20.00     0.091 C 
HETATM    4  O12 UNL     1     -34.045  14.062  -3.937  1.00 20.00    -0.298 OA
ENDBRANCH   1   2
BRANCH   1   5
HETATM    5  C9  UNL     1     -32.897  16.878  -3.198  1.00 20.00     0.045 C 
BRANCH   5   6
HETATM    6  C2  UNL     1     -33.022  17.607  -1.873  1.00 20.00    -0.089 C 
HETATM    7  C1  UNL     1     -33.933  17.227  -0.962  1.00 20.00     0.014 C 
BRANCH   6   8
HETATM    8  C8  UNL     1     -32.103  18.777  -1.601  1.00 20.00     0.029 C 
HETATM    9  C5  UNL     1     -31.297  18.618  -0.319  1.00 20.00     0.010 C 
ENDBRANCH   6   8
ENDBRANCH   5   6
ENDBRANCH   1   5
BRANCH   1  10
HETATM   10  C11 UNL     1     -34.821  17.587  -4.746  1.00 20.00    -0.011 C 
HETATM   11  C6  UNL     1     -33.839  18.714  -5.079  1.00 20.00     0.010 C 
HETATM   12  C7  UNL     1     -36.115  18.180  -4.180  1.00 20.00     0.010 C 
ENDBRANCH   1  10
TORSDOF 5
ENDMDL
MODEL 6
REMARK VINA RESULT:      -3.6      3.052      4.972
REMARK  5 active torsions:
REMARK  status: ('A' for Active; 'I' for Inactive)
REMARK    1  A    between atoms: C2_2  and  C8_8 
REMARK    2  A    between atoms: C2_2  and  C9_9 
REMARK    3  A    between atoms: C3_3  and  C10_10 
REMARK    4  A    between atoms: C9_9  and  C10_10 
REMARK    5  A    between atoms: C10_10  and  C11_11 
ROOT
HETATM    1  C10 UNL     1     -32.994  17.834  -2.740  1.00 20.00     0.062 C 
ENDROOT
BRANCH   1   2
HETATM    2  C3  UNL     1     -32.507  18.240  -1.346  1.00 20.00     0.127 C 
HETATM    3  C4  UNL     1     -33.421  17.930  -0.189  1.00 20.00     0.091 C 
HETATM    4  O12 UNL     1     -31.416  18.781  -1.162  1.00 20.00    -0.298 OA
ENDBRANCH   1   2
BRANCH   1   5
HETATM    5  C9  UNL     1     -33.707  16.466  -2.671  1.00 20.00     0.045 C 
BRANCH   5   6
HETATM    6  C2  UNL     1     -33.546  15.620  -3.920  1.00 20.00    -0.089 C 
HETATM    7  C1  UNL     1     -32.396  14.972  -4.169  1.00 20.00     0.014 C 
BRANCH   6   8
HETATM    8  C8  UNL     1     -34.707  15.527  -4.885  1.00 20.00     0.029 C 
HETATM    9  C5  UNL     1     -34.281  15.143  -6.296  1.00 20.00     0.010 C 
ENDBRANCH   6   8
ENDBRANCH   5   6
ENDBRANCH   1   5
BRANCH   1  10
HETATM   10  C11 UNL     1     -33.882  18.922  -3.402  1.00 20.00    -0.011 C 
HETATM   11  C6  UNL     1     -35.389  18.716  -3.228  1.00 20.00     0.010 C 
HETATM   12  C7  UNL     1     -33.552  19.094  -4.889  1.00 20.00     0.010 C 
ENDBRANCH   1  10
TORSDOF 5
ENDMDL
MODEL 7
REMARK VINA RESULT:      -3.5      1.309      2.064
REMARK  5 active torsions:
REMARK  status: ('A' for Active; 'I' for Inactive)
REMARK    1  A    between atoms: C2_2  and  C8_8 
REMARK    2  A    between atoms: C2_2  and  C9_9 
REMARK    3  A    between atoms: C3_3  and  C10_10 
REMARK    4  A    between atoms: C9_9  and  C10_10 
REMARK    5  A    between atoms: C10_10  and  C11_11 
ROOT
HETATM    1  C10 UNL     1     -35.859  16.087  -5.297  1.00 20.00     0.062 C 
ENDROOT
BRANCH   1   2
HETATM    2  C3  UNL     1     -35.888  14.613  -5.714  1.00 20.00     0.127 C 
HETATM    3  C4  UNL     1     -35.801  13.592  -4.608  1.00 20.00     0.091 C 
HETATM    4  O12 UNL     1     -35.992  14.264  -6.889  1.00 20.00    -0.298 OA
ENDBRANCH   1   2
BRANCH   1   5
HETATM    5  C9  UNL     1     -34.442  16.665  -5.499  1.00 20.00     0.045 C 
BRANCH   5   6
HETATM    6  C2  UNL     1     -33.840  17.281  -4.250  1.00 20.00    -0.089 C 
HETATM    7  C1  UNL     1     -33.660  18.608  -4.155  1.00 20.00     0.014 C 
BRANCH   6   8
HETATM    8  C8  UNL     1     -33.439  16.366  -3.114  1.00 20.00     0.029 C 
HETATM    9  C5  UNL     1     -33.521  17.036  -1.750  1.00 20.00     0.010 C 
ENDBRANCH   6   8
ENDBRANCH   5   6
ENDBRANCH   1   5
BRANCH   1  10
HETATM   10  C11 UNL     1     -36.943  16.932  -6.019  1.00 20.00    -0.011 C 
HETATM   11  C6  UNL     1     -36.415  17.838  -7.134  1.00 20.00     0.010 C 
HETATM   12  C7  UNL     1     -37.769  17.760  -5.028  1.00 20.00     0.010 C 
ENDBRANCH   1  10
TORSDOF 5
ENDMDL
MODEL 8
REMARK VINA RESULT:      -3.5     12.722     13.919
REMARK  5 active torsions:
REMARK  status: ('A' for Active; 'I' for Inactive)
REMARK    1  A    between atoms: C2_2  and  C8_8 
REMARK    2  A    between atoms: C2_2  and  C9_9 
REMARK    3  A    between atoms: C3_3  and  C10_10 
REMARK    4  A    between atoms: C9_9  and  C10_10 
REMARK    5  A    between atoms: C10_10  and  C11_11 
ROOT
HETATM    1  C10 UNL     1     -41.355  14.239   7.124  1.00 20.00     0.062 C 
ENDROOT
BRANCH   1   2
HETATM    2  C3  UNL     1     -41.235  14.230   8.651  1.00 20.00     0.127 C 
HETATM    3  C4  UNL     1     -40.235  15.180   9.261  1.00 20.00     0.091 C 
HETATM    4  O12 UNL     1     -41.926  13.499   9.361  1.00 20.00    -0.298 OA
ENDBRANCH   1   2
BRANCH   1   5
HETATM    5  C9  UNL     1     -41.334  12.793   6.585  1.00 20.00     0.045 C 
BRANCH   5   6
HETATM    6  C2  UNL     1     -40.032  12.403   5.910  1.00 20.00    -0.089 C 
HETATM    7  C1  UNL     1     -38.973  12.005   6.635  1.00 20.00     0.014 C 
BRANCH   6   8
HETATM    8  C8  UNL     1     -39.948  12.477   4.402  1.00 20.00     0.029 C 
HETATM    9  C5  UNL     1     -38.861  11.584   3.819  1.00 20.00     0.010 C 
ENDBRANCH   6   8
ENDBRANCH   5   6
ENDBRANCH   1   5
BRANCH   1  10
HETATM   10  C11 UNL     1     -42.596  15.030   6.629  1.00 20.00    -0.011 C 
HETATM   11  C6  UNL     1     -43.379  14.355   5.499  1.00 20.00     0.010 C 
HETATM   12  C7  UNL     1     -42.230  16.461   6.220  1.00 20.00     0.010 C 
ENDBRANCH   1  10
TORSDOF 5
ENDMDL
MODEL 9
REMARK VINA RESULT:      -3.4     10.818     12.937
REMARK  5 active torsions:
REMARK  status: ('A' for Active; 'I' for Inactive)
REMARK    1  A    between atoms: C2_2  and  C8_8 
REMARK    2  A    between atoms: C2_2  and  C9_9 
REMARK    3  A    between atoms: C3_3  and  C10_10 
REMARK    4  A    between atoms: C9_9  and  C10_10 
REMARK    5  A    between atoms: C10_10  and  C11_11 
ROOT
HETATM    1  C10 UNL     1     -33.346   7.355   3.962  1.00 20.00     0.062 C 
ENDROOT
BRANCH   1   2
HETATM    2  C3  UNL     1     -33.176   7.972   5.354  1.00 20.00     0.127 C 
HETATM    3  C4  UNL     1     -33.792   7.224   6.509  1.00 20.00     0.091 C 
HETATM    4  O12 UNL     1     -32.555   9.019   5.539  1.00 20.00    -0.298 OA
ENDBRANCH   1   2
BRANCH   1   5
HETATM    5  C9  UNL     1     -32.131   7.709   3.077  1.00 20.00     0.045 C 
BRANCH   5   6
HETATM    6  C2  UNL     1     -32.448   8.673   1.949  1.00 20.00    -0.089 C 
HETATM    7  C1  UNL     1     -33.001   9.870   2.201  1.00 20.00     0.014 C 
BRANCH   6   8
HETATM    8  C8  UNL     1     -32.133   8.253   0.530  1.00 20.00     0.029 C 
HETATM    9  C5  UNL     1     -33.012   8.943  -0.506  1.00 20.00     0.010 C 
ENDBRANCH   6   8
ENDBRANCH   5   6
ENDBRANCH   1   5
BRANCH   1  10
HETATM   10  C11 UNL     1     -33.604   5.825   4.016  1.00 20.00    -0.011 C 
HETATM   11  C6  UNL     1     -33.146   5.053   2.776  1.00 20.00     0.010 C 
HETATM   12  C7  UNL     1     -35.074   5.509   4.308  1.00 20.00     0.010 C 
ENDBRANCH   1  10
TORSDOF 5
ENDMDL
