MODEL 1
REMARK VINA RESULT:      -3.8      0.000      0.000
REMARK  3 active torsions:
REMARK  status: ('A' for Active; 'I' for Inactive)
REMARK    1  A    between atoms: C5_5  and  C6_6 
REMARK    2  A    between atoms: C5_5  and  C7_7 
REMARK    3  A    between atoms: C6_6  and  O9_9 
ROOT
HETATM    1  C1  UNL     1     -32.557   7.426   3.163  1.00 20.00     0.091 C 
HETATM    2  C6  UNL     1     -33.214   7.295   4.471  1.00 20.00     0.227 C 
HETATM    3  N8  UNL     1     -32.037   7.529   2.131  1.00 20.00    -0.195 NA
ENDROOT
BRANCH   2   4
HETATM    4  C5  UNL     1     -34.628   6.712   4.359  1.00 20.00     0.050 C 
BRANCH   4   5
HETATM    5  C7  UNL     1     -34.846   5.356   5.061  1.00 20.00    -0.019 C 
HETATM    6  C2  UNL     1     -34.008   4.277   4.369  1.00 20.00     0.009 C 
HETATM    7  C3  UNL     1     -34.494   5.406   6.548  1.00 20.00     0.009 C 
ENDBRANCH   4   5
ENDBRANCH   2   4
BRANCH   2   8
HETATM    8  O9  UNL     1     -33.303   8.582   5.084  1.00 20.00    -0.376 OA
HETATM    9  C4  UNL     1     -32.055   9.255   5.051  1.00 20.00     0.203 C 
ENDBRANCH   2   8
TORSDOF 3
ENDMDL
MODEL 2
REMARK VINA RESULT:      -3.8     11.850     12.908
REMARK  3 active torsions:
REMARK  status: ('A' for Active; 'I' for Inactive)
REMARK    1  A    between atoms: C5_5  and  C6_6 
REMARK    2  A    between atoms: C5_5  and  C7_7 
REMARK    3  A    between atoms: C6_6  and  O9_9 
ROOT
HETATM    1  C1  UNL     1     -34.002  15.110  -6.108  1.00 20.00     0.091 C 
HETATM    2  C6  UNL     1     -34.297  15.209  -4.672  1.00 20.00     0.227 C 
HETATM    3  N8  UNL     1     -33.770  15.033  -7.242  1.00 20.00    -0.195 NA
ENDROOT
BRANCH   2   4
HETATM    4  C5  UNL     1     -33.098  15.718  -3.863  1.00 20.00     0.050 C 
BRANCH   4   5
HETATM    5  C7  UNL     1     -33.282  17.098  -3.199  1.00 20.00    -0.019 C 
HETATM    6  C2  UNL     1     -34.443  17.841  -3.867  1.00 20.00     0.009 C 
HETATM    7  C3  UNL     1     -33.535  16.994  -1.696  1.00 20.00     0.009 C 
ENDBRANCH   4   5
ENDBRANCH   2   4
BRANCH   2   8
HETATM    8  O9  UNL     1     -34.662  13.919  -4.177  1.00 20.00    -0.376 OA
HETATM    9  C4  UNL     1     -35.963  13.553  -4.607  1.00 20.00     0.203 C 
ENDBRANCH   2   8
TORSDOF 3
ENDMDL
MODEL 3
REMARK VINA RESULT:      -3.5      1.716      2.384
REMARK  3 active torsions:
REMARK  status: ('A' for Active; 'I' for Inactive)
REMARK    1  A    between atoms: C5_5  and  C6_6 
REMARK    2  A    between atoms: C5_5  and  C7_7 
REMARK    3  A    between atoms: C6_6  and  O9_9 
ROOT
HETATM    1  C1  UNL     1     -32.648   6.239   2.895  1.00 20.00     0.091 C 
HETATM    2  C6  UNL     1     -32.514   7.542   3.561  1.00 20.00     0.227 C 
HETATM    3  N8  UNL     1     -32.753   5.210   2.370  1.00 20.00    -0.195 NA
ENDROOT
BRANCH   2   4
HETATM    4  C5  UNL     1     -33.576   7.756   4.646  1.00 20.00     0.050 C 
BRANCH   4   5
HETATM    5  C7  UNL     1     -34.095   6.475   5.331  1.00 20.00    -0.019 C 
HETATM    6  C2  UNL     1     -34.354   6.753   6.814  1.00 20.00     0.009 C 
HETATM    7  C3  UNL     1     -35.368   5.938   4.677  1.00 20.00     0.009 C 
ENDBRANCH   4   5
ENDBRANCH   2   4
BRANCH   2   8
HETATM    8  O9  UNL     1     -32.643   8.582   2.590  1.00 20.00    -0.376 OA
HETATM    9  C4  UNL     1     -32.045   8.212   1.358  1.00 20.00     0.203 C 
ENDBRANCH   2   8
TORSDOF 3
ENDMDL
MODEL 4
REMARK VINA RESULT:      -3.5     12.207     12.953
REMARK  3 active torsions:
REMARK  status: ('A' for Active; 'I' for Inactive)
REMARK    1  A    between atoms: C5_5  and  C6_6 
REMARK    2  A    between atoms: C5_5  and  C7_7 
REMARK    3  A    between atoms: C6_6  and  O9_9 
ROOT
HETATM    1  C1  UNL     1     -33.314  15.743  -3.811  1.00 20.00     0.091 C 
HETATM    2  C6  UNL     1     -33.215  17.061  -3.169  1.00 20.00     0.227 C 
HETATM    3  N8  UNL     1     -33.392  14.703  -4.319  1.00 20.00    -0.195 NA
ENDROOT
BRANCH   2   4
HETATM    4  C5  UNL     1     -33.580  17.014  -1.680  1.00 20.00     0.050 C 
BRANCH   4   5
HETATM    5  C7  UNL     1     -33.203  18.268  -0.865  1.00 20.00    -0.019 C 
HETATM    6  C2  UNL     1     -33.844  18.191   0.524  1.00 20.00     0.009 C 
HETATM    7  C3  UNL     1     -31.691  18.441  -0.725  1.00 20.00     0.009 C 
ENDBRANCH   4   5
ENDBRANCH   2   4
BRANCH   2   8
HETATM    8  O9  UNL     1     -34.100  17.971  -3.823  1.00 20.00    -0.376 OA
HETATM    9  C4  UNL     1     -33.382  19.003  -4.480  1.00 20.00     0.203 C 
ENDBRANCH   2   8
TORSDOF 3
ENDMDL
MODEL 5
REMARK VINA RESULT:      -3.5      9.612     10.313
REMARK  3 active torsions:
REMARK  status: ('A' for Active; 'I' for Inactive)
REMARK    1  A    between atoms: C5_5  and  C6_6 
REMARK    2  A    between atoms: C5_5  and  C7_7 
REMARK    3  A    between atoms: C6_6  and  O9_9 
ROOT
HETATM    1  C1  UNL     1     -41.483  14.936   6.687  1.00 20.00     0.091 C 
HETATM    2  C6  UNL     1     -40.940  13.577   6.818  1.00 20.00     0.227 C 
HETATM    3  N8  UNL     1     -41.910  16.010   6.584  1.00 20.00    -0.195 NA
ENDROOT
BRANCH   2   4
HETATM    4  C5  UNL     1     -40.801  12.870   5.464  1.00 20.00     0.050 C 
BRANCH   4   5
HETATM    5  C7  UNL     1     -39.697  11.796   5.386  1.00 20.00    -0.019 C 
HETATM    6  C2  UNL     1     -39.156  11.716   3.955  1.00 20.00     0.009 C 
HETATM    7  C3  UNL     1     -38.548  12.067   6.356  1.00 20.00     0.009 C 
ENDBRANCH   4   5
ENDBRANCH   2   4
BRANCH   2   8
HETATM    8  O9  UNL     1     -41.809  12.801   7.645  1.00 20.00    -0.376 OA
HETATM    9  C4  UNL     1     -42.981  12.419   6.942  1.00 20.00     0.203 C 
ENDBRANCH   2   8
TORSDOF 3
ENDMDL
MODEL 6
REMARK VINA RESULT:      -3.4     11.914     13.163
REMARK  3 active torsions:
REMARK  status: ('A' for Active; 'I' for Inactive)
REMARK    1  A    between atoms: C5_5  and  C6_6 
REMARK    2  A    between atoms: C5_5  and  C7_7 
REMARK    3  A    between atoms: C6_6  and  O9_9 
ROOT
HETATM    1  C1  UNL     1     -35.049  13.943  -4.585  1.00 20.00     0.091 C 
HETATM    2  C6  UNL     1     -33.978  14.916  -4.839  1.00 20.00     0.227 C 
HETATM    3  N8  UNL     1     -35.894  13.174  -4.384  1.00 20.00    -0.195 NA
ENDROOT
BRANCH   2   4
HETATM    4  C5  UNL     1     -34.334  16.321  -4.337  1.00 20.00     0.050 C 
BRANCH   4   5
HETATM    5  C7  UNL     1     -33.258  17.010  -3.472  1.00 20.00    -0.019 C 
HETATM    6  C2  UNL     1     -33.179  18.496  -3.835  1.00 20.00     0.009 C 
HETATM    7  C3  UNL     1     -33.528  16.859  -1.976  1.00 20.00     0.009 C 
ENDBRANCH   4   5
ENDBRANCH   2   4
BRANCH   2   8
HETATM    8  O9  UNL     1     -33.730  14.988  -6.244  1.00 20.00    -0.376 OA
HETATM    9  C4  UNL     1     -34.709  15.781  -6.898  1.00 20.00     0.203 C 
ENDBRANCH   2   8
TORSDOF 3
ENDMDL
MODEL 7
REMARK VINA RESULT:      -3.4     15.450     16.300
REMARK  3 active torsions:
REMARK  status: ('A' for Active; 'I' for Inactive)
REMARK    1  A    between atoms: C5_5  and  C6_6 
REMARK    2  A    between atoms: C5_5  and  C7_7 
REMARK    3  A    between atoms: C6_6  and  O9_9 
ROOT
HETATM    1  C1  UNL     1     -24.507  16.914  11.514  1.00 20.00     0.091 C 
HETATM    2  C6  UNL     1     -24.548  18.284  10.984  1.00 20.00     0.227 C 
HETATM    3  N8  UNL     1     -24.476  15.833  11.932  1.00 20.00    -0.195 NA
ENDROOT
BRANCH   2   4
HETATM    4  C5  UNL     1     -23.170  18.774  10.524  1.00 20.00     0.050 C 
BRANCH   4   5
HETATM    5  C7  UNL     1     -23.054  19.121   9.025  1.00 20.00    -0.019 C 
HETATM    6  C2  UNL     1     -22.232  18.045   8.310  1.00 20.00     0.009 C 
HETATM    7  C3  UNL     1     -24.418  19.259   8.351  1.00 20.00     0.009 C 
ENDBRANCH   4   5
ENDBRANCH   2   4
BRANCH   2   8
HETATM    8  O9  UNL     1     -25.026  19.168  12.000  1.00 20.00    -0.376 OA
HETATM    9  C4  UNL     1     -26.427  19.037  12.177  1.00 20.00     0.203 C 
ENDBRANCH   2   8
TORSDOF 3
ENDMDL
MODEL 8
REMARK VINA RESULT:      -3.4     15.757     16.887
REMARK  3 active torsions:
REMARK  status: ('A' for Active; 'I' for Inactive)
REMARK    1  A    between atoms: C5_5  and  C6_6 
REMARK    2  A    between atoms: C5_5  and  C7_7 
REMARK    3  A    between atoms: C6_6  and  O9_9 
ROOT
HETATM    1  C1  UNL     1     -23.900  17.003  11.126  1.00 20.00     0.091 C 
HETATM    2  C6  UNL     1     -23.195  18.269  10.881  1.00 20.00     0.227 C 
HETATM    3  N8  UNL     1     -24.458  16.005  11.320  1.00 20.00    -0.195 NA
ENDROOT
BRANCH   2   4
HETATM    4  C5  UNL     1     -21.969  18.089   9.977  1.00 20.00     0.050 C 
BRANCH   4   5
HETATM    5  C7  UNL     1     -22.055  18.772   8.597  1.00 20.00    -0.019 C 
HETATM    6  C2  UNL     1     -21.551  17.813   7.514  1.00 20.00     0.009 C 
HETATM    7  C3  UNL     1     -23.474  19.229   8.259  1.00 20.00     0.009 C 
ENDBRANCH   4   5
ENDBRANCH   2   4
BRANCH   2   8
HETATM    8  O9  UNL     1     -22.760  18.815  12.127  1.00 20.00    -0.376 OA
HETATM    9  C4  UNL     1     -21.375  18.590  12.331  1.00 20.00     0.203 C 
ENDBRANCH   2   8
TORSDOF 3
ENDMDL
MODEL 9
REMARK VINA RESULT:      -3.4     12.335     12.979
REMARK  3 active torsions:
REMARK  status: ('A' for Active; 'I' for Inactive)
REMARK    1  A    between atoms: C5_5  and  C6_6 
REMARK    2  A    between atoms: C5_5  and  C7_7 
REMARK    3  A    between atoms: C6_6  and  O9_9 
ROOT
HETATM    1  C1  UNL     1     -31.709  18.361  -0.730  1.00 20.00     0.091 C 
HETATM    2  C6  UNL     1     -32.985  17.871  -1.270  1.00 20.00     0.227 C 
HETATM    3  N8  UNL     1     -30.702  18.747  -0.303  1.00 20.00    -0.195 NA
ENDROOT
BRANCH   2   4
HETATM    4  C5  UNL     1     -33.035  17.937  -2.802  1.00 20.00     0.050 C 
BRANCH   4   5
HETATM    5  C7  UNL     1     -33.913  16.868  -3.484  1.00 20.00    -0.019 C 
HETATM    6  C2  UNL     1     -34.510  17.438  -4.775  1.00 20.00     0.009 C 
HETATM    7  C3  UNL     1     -33.138  15.589  -3.797  1.00 20.00     0.009 C 
ENDBRANCH   4   5
ENDBRANCH   2   4
BRANCH   2   8
HETATM    8  O9  UNL     1     -34.053  18.664  -0.749  1.00 20.00    -0.376 OA
HETATM    9  C4  UNL     1     -34.127  18.561   0.664  1.00 20.00     0.203 C 
ENDBRANCH   2   8
TORSDOF 3
ENDMDL
