MODEL 1
REMARK VINA RESULT:      -4.1      0.000      0.000
REMARK  4 active torsions:
REMARK  status: ('A' for Active; 'I' for Inactive)
REMARK    1  A    between atoms: C4_4  and  C5_5 
REMARK    2  A    between atoms: C5_5  and  C8_8 
REMARK    3  A    between atoms: C6_6  and  C8_8 
REMARK    4  A    between atoms: C7_7  and  C8_8 
ROOT
HETATM    1  C8  UNL     1     -34.002   6.571   4.208  1.00 20.00     0.003 C 
ENDROOT
BRANCH   1   2
HETATM    2  C5  UNL     1     -32.644   7.277   3.944  1.00 20.00     0.005 C 
BRANCH   2   3
HETATM    3  C4  UNL     1     -32.688   8.533   3.066  1.00 20.00    -0.004 C 
HETATM    4  C1  UNL     1     -32.245   8.289   1.632  1.00 20.00     0.005 C 
ENDBRANCH   2   3
ENDBRANCH   1   2
BRANCH   1   5
HETATM    5  C6  UNL     1     -33.948   5.108   3.716  1.00 20.00     0.119 C 
HETATM    6 CL9  UNL     1     -32.758   4.878   2.404  1.00 20.00    -0.130 Cl
ENDBRANCH   1   5
BRANCH   1   7
HETATM    7  C7  UNL     1     -34.457   6.662   5.698  1.00 20.00    -0.018 C 
HETATM    8  C2  UNL     1     -33.537   7.567   6.528  1.00 20.00     0.010 C 
HETATM    9  C3  UNL     1     -34.595   5.302   6.386  1.00 20.00     0.010 C 
ENDBRANCH   1   7
TORSDOF 4
ENDMDL
MODEL 2
REMARK VINA RESULT:      -4.0      1.157      3.431
REMARK  4 active torsions:
REMARK  status: ('A' for Active; 'I' for Inactive)
REMARK    1  A    between atoms: C4_4  and  C5_5 
REMARK    2  A    between atoms: C5_5  and  C8_8 
REMARK    3  A    between atoms: C6_6  and  C8_8 
REMARK    4  A    between atoms: C7_7  and  C8_8 
ROOT
HETATM    1  C8  UNL     1     -33.037   6.730   4.146  1.00 20.00     0.003 C 
ENDROOT
BRANCH   1   2
HETATM    2  C5  UNL     1     -34.556   6.448   4.304  1.00 20.00     0.005 C 
BRANCH   2   3
HETATM    3  C4  UNL     1     -34.939   5.216   5.132  1.00 20.00    -0.004 C 
HETATM    4  C1  UNL     1     -34.463   5.281   6.575  1.00 20.00     0.005 C 
ENDBRANCH   2   3
ENDBRANCH   1   2
BRANCH   1   5
HETATM    5  C6  UNL     1     -32.579   6.395   2.708  1.00 20.00     0.119 C 
HETATM    6 CL9  UNL     1     -32.812   4.670   2.307  1.00 20.00    -0.130 Cl
ENDBRANCH   1   5
BRANCH   1   7
HETATM    7  C7  UNL     1     -32.641   8.183   4.554  1.00 20.00    -0.018 C 
HETATM    8  C2  UNL     1     -33.570   8.753   5.635  1.00 20.00     0.010 C 
HETATM    9  C3  UNL     1     -32.566   9.157   3.376  1.00 20.00     0.010 C 
ENDBRANCH   1   7
TORSDOF 4
ENDMDL
MODEL 3
REMARK VINA RESULT:      -4.0      1.264      3.282
REMARK  4 active torsions:
REMARK  status: ('A' for Active; 'I' for Inactive)
REMARK    1  A    between atoms: C4_4  and  C5_5 
REMARK    2  A    between atoms: C5_5  and  C8_8 
REMARK    3  A    between atoms: C6_6  and  C8_8 
REMARK    4  A    between atoms: C7_7  and  C8_8 
ROOT
HETATM    1  C8  UNL     1     -33.364   6.765   4.231  1.00 20.00     0.003 C 
ENDROOT
BRANCH   1   2
HETATM    2  C5  UNL     1     -34.769   6.105   4.199  1.00 20.00     0.005 C 
BRANCH   2   3
HETATM    3  C4  UNL     1     -35.018   4.981   5.211  1.00 20.00    -0.004 C 
HETATM    4  C1  UNL     1     -34.387   5.237   6.572  1.00 20.00     0.005 C 
ENDBRANCH   2   3
ENDBRANCH   1   2
BRANCH   1   5
HETATM    5  C6  UNL     1     -32.627   6.519   2.896  1.00 20.00     0.119 C 
HETATM    6 CL9  UNL     1     -32.791   4.831   2.333  1.00 20.00    -0.130 Cl
ENDBRANCH   1   5
BRANCH   1   7
HETATM    7  C7  UNL     1     -33.412   8.283   4.592  1.00 20.00    -0.018 C 
HETATM    8  C2  UNL     1     -32.069   8.979   4.337  1.00 20.00     0.010 C 
HETATM    9  C3  UNL     1     -33.872   8.564   6.025  1.00 20.00     0.010 C 
ENDBRANCH   1   7
TORSDOF 4
ENDMDL
MODEL 4
REMARK VINA RESULT:      -4.0      2.032      4.132
REMARK  4 active torsions:
REMARK  status: ('A' for Active; 'I' for Inactive)
REMARK    1  A    between atoms: C4_4  and  C5_5 
REMARK    2  A    between atoms: C5_5  and  C8_8 
REMARK    3  A    between atoms: C6_6  and  C8_8 
REMARK    4  A    between atoms: C7_7  and  C8_8 
ROOT
HETATM    1  C8  UNL     1     -33.640   7.315   4.101  1.00 20.00     0.003 C 
ENDROOT
BRANCH   1   2
HETATM    2  C5  UNL     1     -34.738   6.295   4.505  1.00 20.00     0.005 C 
BRANCH   2   3
HETATM    3  C4  UNL     1     -34.893   6.018   6.005  1.00 20.00    -0.004 C 
HETATM    4  C1  UNL     1     -34.096   4.816   6.487  1.00 20.00     0.005 C 
ENDBRANCH   2   3
ENDBRANCH   1   2
BRANCH   1   5
HETATM    5  C6  UNL     1     -33.014   7.954   5.361  1.00 20.00     0.119 C 
HETATM    6 CL9  UNL     1     -32.018   9.384   4.971  1.00 20.00    -0.130 Cl
ENDBRANCH   1   5
BRANCH   1   7
HETATM    7  C7  UNL     1     -32.552   6.700   3.166  1.00 20.00    -0.018 C 
HETATM    8  C2  UNL     1     -32.228   7.616   1.978  1.00 20.00     0.010 C 
HETATM    9  C3  UNL     1     -32.896   5.299   2.654  1.00 20.00     0.010 C 
ENDBRANCH   1   7
TORSDOF 4
ENDMDL
MODEL 5
REMARK VINA RESULT:      -4.0      1.151      1.444
REMARK  4 active torsions:
REMARK  status: ('A' for Active; 'I' for Inactive)
REMARK    1  A    between atoms: C4_4  and  C5_5 
REMARK    2  A    between atoms: C5_5  and  C8_8 
REMARK    3  A    between atoms: C6_6  and  C8_8 
REMARK    4  A    between atoms: C7_7  and  C8_8 
ROOT
HETATM    1  C8  UNL     1     -33.481   7.228   3.639  1.00 20.00     0.003 C 
ENDROOT
BRANCH   1   2
HETATM    2  C5  UNL     1     -32.122   7.500   2.938  1.00 20.00     0.005 C 
BRANCH   2   3
HETATM    3  C4  UNL     1     -32.190   8.103   1.531  1.00 20.00    -0.004 C 
HETATM    4  C1  UNL     1     -32.854   9.471   1.487  1.00 20.00     0.005 C 
ENDBRANCH   2   3
ENDBRANCH   1   2
BRANCH   1   5
HETATM    5  C6  UNL     1     -33.701   5.708   3.807  1.00 20.00     0.119 C 
HETATM    6 CL9  UNL     1     -32.878   4.760   2.537  1.00 20.00    -0.130 Cl
ENDBRANCH   1   5
BRANCH   1   7
HETATM    7  C7  UNL     1     -33.628   7.986   4.996  1.00 20.00    -0.018 C 
HETATM    8  C2  UNL     1     -32.453   8.937   5.257  1.00 20.00     0.010 C 
HETATM    9  C3  UNL     1     -33.818   7.062   6.202  1.00 20.00     0.010 C 
ENDBRANCH   1   7
TORSDOF 4
ENDMDL
MODEL 6
REMARK VINA RESULT:      -3.9      0.734      1.396
REMARK  4 active torsions:
REMARK  status: ('A' for Active; 'I' for Inactive)
REMARK    1  A    between atoms: C4_4  and  C5_5 
REMARK    2  A    between atoms: C5_5  and  C8_8 
REMARK    3  A    between atoms: C6_6  and  C8_8 
REMARK    4  A    between atoms: C7_7  and  C8_8 
ROOT
HETATM    1  C8  UNL     1     -33.580   6.944   4.119  1.00 20.00     0.003 C 
ENDROOT
BRANCH   1   2
HETATM    2  C5  UNL     1     -32.330   7.463   3.358  1.00 20.00     0.005 C 
BRANCH   2   3
HETATM    3  C4  UNL     1     -32.523   8.729   2.515  1.00 20.00    -0.004 C 
HETATM    4  C1  UNL     1     -32.235   8.525   1.036  1.00 20.00     0.005 C 
ENDBRANCH   2   3
ENDBRANCH   1   2
BRANCH   1   5
HETATM    5  C6  UNL     1     -33.806   5.446   3.814  1.00 20.00     0.119 C 
HETATM    6 CL9  UNL     1     -32.836   4.883   2.424  1.00 20.00    -0.130 Cl
ENDBRANCH   1   5
BRANCH   1   7
HETATM    7  C7  UNL     1     -33.516   7.216   5.655  1.00 20.00    -0.018 C 
HETATM    8  C2  UNL     1     -34.450   6.290   6.445  1.00 20.00     0.010 C 
HETATM    9  C3  UNL     1     -33.793   8.673   6.036  1.00 20.00     0.010 C 
ENDBRANCH   1   7
TORSDOF 4
ENDMDL
MODEL 7
REMARK VINA RESULT:      -3.9      2.061      2.898
REMARK  4 active torsions:
REMARK  status: ('A' for Active; 'I' for Inactive)
REMARK    1  A    between atoms: C4_4  and  C5_5 
REMARK    2  A    between atoms: C5_5  and  C8_8 
REMARK    3  A    between atoms: C6_6  and  C8_8 
REMARK    4  A    between atoms: C7_7  and  C8_8 
ROOT
HETATM    1  C8  UNL     1     -32.918   6.969   4.183  1.00 20.00     0.003 C 
ENDROOT
BRANCH   1   2
HETATM    2  C5  UNL     1     -32.037   7.754   3.174  1.00 20.00     0.005 C 
BRANCH   2   3
HETATM    3  C4  UNL     1     -32.735   8.860   2.376  1.00 20.00    -0.004 C 
HETATM    4  C1  UNL     1     -32.451   8.804   0.882  1.00 20.00     0.005 C 
ENDBRANCH   2   3
ENDBRANCH   1   2
BRANCH   1   5
HETATM    5  C6  UNL     1     -33.826   7.941   4.969  1.00 20.00     0.119 C 
HETATM    6 CL9  UNL     1     -34.157   7.366   6.628  1.00 20.00    -0.130 Cl
ENDBRANCH   1   5
BRANCH   1   7
HETATM    7  C7  UNL     1     -33.743   5.826   3.511  1.00 20.00    -0.018 C 
HETATM    8  C2  UNL     1     -34.349   4.868   4.545  1.00 20.00     0.010 C 
HETATM    9  C3  UNL     1     -32.956   5.026   2.470  1.00 20.00     0.010 C 
ENDBRANCH   1   7
TORSDOF 4
ENDMDL
MODEL 8
REMARK VINA RESULT:      -3.9      1.936      3.385
REMARK  4 active torsions:
REMARK  status: ('A' for Active; 'I' for Inactive)
REMARK    1  A    between atoms: C4_4  and  C5_5 
REMARK    2  A    between atoms: C5_5  and  C8_8 
REMARK    3  A    between atoms: C6_6  and  C8_8 
REMARK    4  A    between atoms: C7_7  and  C8_8 
ROOT
HETATM    1  C8  UNL     1     -33.988   7.343   4.808  1.00 20.00     0.003 C 
ENDROOT
BRANCH   1   2
HETATM    2  C5  UNL     1     -34.471   6.128   3.970  1.00 20.00     0.005 C 
BRANCH   2   3
HETATM    3  C4  UNL     1     -33.450   5.009   3.742  1.00 20.00    -0.004 C 
HETATM    4  C1  UNL     1     -32.918   4.952   2.318  1.00 20.00     0.005 C 
ENDBRANCH   2   3
ENDBRANCH   1   2
BRANCH   1   5
HETATM    5  C6  UNL     1     -33.872   6.952   6.299  1.00 20.00     0.119 C 
HETATM    6 CL9  UNL     1     -34.789   5.468   6.683  1.00 20.00    -0.130 Cl
ENDBRANCH   1   5
BRANCH   1   7
HETATM    7  C7  UNL     1     -32.662   7.966   4.271  1.00 20.00    -0.018 C 
HETATM    8  C2  UNL     1     -32.134   9.078   5.186  1.00 20.00     0.010 C 
HETATM    9  C3  UNL     1     -32.762   8.487   2.835  1.00 20.00     0.010 C 
ENDBRANCH   1   7
TORSDOF 4
ENDMDL
MODEL 9
REMARK VINA RESULT:      -3.7      2.032      2.435
REMARK  4 active torsions:
REMARK  status: ('A' for Active; 'I' for Inactive)
REMARK    1  A    between atoms: C4_4  and  C5_5 
REMARK    2  A    between atoms: C5_5  and  C8_8 
REMARK    3  A    between atoms: C6_6  and  C8_8 
REMARK    4  A    between atoms: C7_7  and  C8_8 
ROOT
HETATM    1  C8  UNL     1     -33.240   6.813   4.335  1.00 20.00     0.003 C 
ENDROOT
BRANCH   1   2
HETATM    2  C5  UNL     1     -32.857   6.628   2.842  1.00 20.00     0.005 C 
BRANCH   2   3
HETATM    3  C4  UNL     1     -31.881   7.654   2.256  1.00 20.00    -0.004 C 
HETATM    4  C1  UNL     1     -32.435   8.404   1.055  1.00 20.00     0.005 C 
ENDBRANCH   2   3
ENDBRANCH   1   2
BRANCH   1   5
HETATM    5  C6  UNL     1     -33.603   8.289   4.615  1.00 20.00     0.119 C 
HETATM    6 CL9  UNL     1     -32.200   9.234   5.188  1.00 20.00    -0.130 Cl
ENDBRANCH   1   5
BRANCH   1   7
HETATM    7  C7  UNL     1     -34.371   5.843   4.799  1.00 20.00    -0.018 C 
HETATM    8  C2  UNL     1     -34.603   5.910   6.315  1.00 20.00     0.010 C 
HETATM    9  C3  UNL     1     -34.150   4.388   4.377  1.00 20.00     0.010 C 
ENDBRANCH   1   7
TORSDOF 4
ENDMDL
