MODEL 1
REMARK VINA RESULT:      -4.1      0.000      0.000
REMARK  3 active torsions:
REMARK  status: ('A' for Active; 'I' for Inactive)
REMARK    1  A    between atoms: C6_6  and  C8_8 
REMARK    2  A    between atoms: C7_7  and  C8_8 
REMARK    3  A    between atoms: C7_7  and  C9_9 
ROOT
HETATM    1  C8  UNL     1     -33.668  16.685  -1.905  1.00 20.00     0.042 C 
ENDROOT
BRANCH   1   2
HETATM    2  C6  UNL     1     -33.225  16.765  -3.359  1.00 20.00     0.122 C 
HETATM    3  C2  UNL     1     -32.920  15.402  -3.962  1.00 20.00     0.034 C 
HETATM    4  C1  UNL     1     -34.239  15.006  -4.576  1.00 20.00     0.029 C 
HETATM    5  C5  UNL     1     -34.771  16.337  -5.057  1.00 20.00     0.168 C 
HETATM    6  O10 UNL     1     -34.302  17.326  -4.131  1.00 20.00    -0.386 OA
ENDBRANCH   1   2
BRANCH   1   7
HETATM    7  C7  UNL     1     -33.421  17.966  -1.170  1.00 20.00    -0.025 A 
HETATM    8  C3  UNL     1     -34.611  18.837  -0.842  1.00 20.00     0.011 A 
HETATM    9  C4  UNL     1     -33.919  18.074   0.252  1.00 20.00     0.011 A 
BRANCH   7  10
HETATM   10  C9  UNL     1     -32.125  18.645  -1.516  1.00 20.00     0.124 C 
HETATM   11 CL11 UNL     1     -30.943  18.467  -0.197  1.00 20.00    -0.130 Cl
ENDBRANCH   7  10
ENDBRANCH   1   7
TORSDOF 3
ENDMDL
MODEL 2
REMARK VINA RESULT:      -3.9      2.479      4.684
REMARK  3 active torsions:
REMARK  status: ('A' for Active; 'I' for Inactive)
REMARK    1  A    between atoms: C6_6  and  C8_8 
REMARK    2  A    between atoms: C7_7  and  C8_8 
REMARK    3  A    between atoms: C7_7  and  C9_9 
ROOT
HETATM    1  C8  UNL     1     -33.362  16.667  -2.113  1.00 20.00     0.042 C 
ENDROOT
BRANCH   1   2
HETATM    2  C6  UNL     1     -33.310  18.171  -1.887  1.00 20.00     0.122 C 
HETATM    3  C2  UNL     1     -34.056  18.610  -0.636  1.00 20.00     0.034 C 
HETATM    4  C1  UNL     1     -32.975  18.598   0.417  1.00 20.00     0.029 C 
HETATM    5  C5  UNL     1     -31.768  19.053  -0.371  1.00 20.00     0.168 C 
HETATM    6  O10 UNL     1     -31.935  18.554  -1.704  1.00 20.00    -0.386 OA
ENDBRANCH   1   2
BRANCH   1   7
HETATM    7  C7  UNL     1     -33.611  16.321  -3.549  1.00 20.00    -0.025 A 
HETATM    8  C3  UNL     1     -32.720  15.285  -4.193  1.00 20.00     0.011 A 
HETATM    9  C4  UNL     1     -34.145  14.943  -3.863  1.00 20.00     0.011 A 
BRANCH   7  10
HETATM   10  C9  UNL     1     -34.083  17.470  -4.395  1.00 20.00     0.124 C 
HETATM   11 CL11 UNL     1     -35.743  17.190  -4.975  1.00 20.00    -0.130 Cl
ENDBRANCH   7  10
ENDBRANCH   1   7
TORSDOF 3
ENDMDL
MODEL 3
REMARK VINA RESULT:      -3.6      2.582      4.632
REMARK  3 active torsions:
REMARK  status: ('A' for Active; 'I' for Inactive)
REMARK    1  A    between atoms: C6_6  and  C8_8 
REMARK    2  A    between atoms: C7_7  and  C8_8 
REMARK    3  A    between atoms: C7_7  and  C9_9 
ROOT
HETATM    1  C8  UNL     1     -33.400  17.242  -1.717  1.00 20.00     0.042 C 
ENDROOT
BRANCH   1   2
HETATM    2  C6  UNL     1     -32.843  18.592  -1.289  1.00 20.00     0.122 C 
HETATM    3  C2  UNL     1     -33.361  19.043   0.070  1.00 20.00     0.034 C 
HETATM    4  C1  UNL     1     -32.313  18.514   1.017  1.00 20.00     0.029 C 
HETATM    5  C5  UNL     1     -31.048  18.674   0.204  1.00 20.00     0.168 C 
HETATM    6  O10 UNL     1     -31.415  18.475  -1.168  1.00 20.00    -0.386 OA
ENDBRANCH   1   2
BRANCH   1   7
HETATM    7  C7  UNL     1     -33.526  17.131  -3.205  1.00 20.00    -0.025 A 
HETATM    8  C3  UNL     1     -34.774  17.684  -3.854  1.00 20.00     0.011 A 
HETATM    9  C4  UNL     1     -33.465  18.402  -4.018  1.00 20.00     0.011 A 
BRANCH   7  10
HETATM   10  C9  UNL     1     -32.917  15.888  -3.793  1.00 20.00     0.124 C 
HETATM   11 CL11 UNL     1     -34.088  14.547  -3.793  1.00 20.00    -0.130 Cl
ENDBRANCH   7  10
ENDBRANCH   1   7
TORSDOF 3
ENDMDL
MODEL 4
REMARK VINA RESULT:      -3.4     15.580     16.462
REMARK  3 active torsions:
REMARK  status: ('A' for Active; 'I' for Inactive)
REMARK    1  A    between atoms: C6_6  and  C8_8 
REMARK    2  A    between atoms: C7_7  and  C8_8 
REMARK    3  A    between atoms: C7_7  and  C9_9 
ROOT
HETATM    1  C8  UNL     1     -24.279  17.768  10.072  1.00 20.00     0.042 C 
ENDROOT
BRANCH   1   2
HETATM    2  C6  UNL     1     -23.216  18.798   9.716  1.00 20.00     0.122 C 
HETATM    3  C2  UNL     1     -21.810  18.354  10.094  1.00 20.00     0.034 C 
HETATM    4  C1  UNL     1     -21.323  17.684   8.834  1.00 20.00     0.029 C 
HETATM    5  C5  UNL     1     -21.966  18.532   7.761  1.00 20.00     0.168 C 
HETATM    6  O10 UNL     1     -23.221  18.980   8.289  1.00 20.00    -0.386 OA
ENDBRANCH   1   2
BRANCH   1   7
HETATM    7  C7  UNL     1     -24.455  17.629  11.553  1.00 20.00    -0.025 A 
HETATM    8  C3  UNL     1     -25.062  16.349  12.077  1.00 20.00     0.011 A 
HETATM    9  C4  UNL     1     -23.598  16.619  12.276  1.00 20.00     0.011 A 
BRANCH   7  10
HETATM   10  C9  UNL     1     -24.788  18.911  12.265  1.00 20.00     0.124 C 
HETATM   11 CL11 UNL     1     -26.529  19.263  12.156  1.00 20.00    -0.130 Cl
ENDBRANCH   7  10
ENDBRANCH   1   7
TORSDOF 3
ENDMDL
MODEL 5
REMARK VINA RESULT:      -3.4     11.782     12.836
REMARK  3 active torsions:
REMARK  status: ('A' for Active; 'I' for Inactive)
REMARK    1  A    between atoms: C6_6  and  C8_8 
REMARK    2  A    between atoms: C7_7  and  C8_8 
REMARK    3  A    between atoms: C7_7  and  C9_9 
ROOT
HETATM    1  C8  UNL     1     -40.223  14.956   7.183  1.00 20.00     0.042 C 
ENDROOT
BRANCH   1   2
HETATM    2  C6  UNL     1     -40.836  13.570   7.040  1.00 20.00     0.122 C 
HETATM    3  C2  UNL     1     -41.392  13.308   5.647  1.00 20.00     0.034 C 
HETATM    4  C1  UNL     1     -40.225  12.667   4.939  1.00 20.00     0.029 C 
HETATM    5  C5  UNL     1     -39.591  11.860   6.048  1.00 20.00     0.168 C 
HETATM    6  O10 UNL     1     -39.803  12.594   7.262  1.00 20.00    -0.386 OA
ENDBRANCH   1   2
BRANCH   1   7
HETATM    7  C7  UNL     1     -40.707  15.662   8.412  1.00 20.00    -0.025 A 
HETATM    8  C3  UNL     1     -41.059  17.126   8.297  1.00 20.00     0.011 A 
HETATM    9  C4  UNL     1     -42.150  16.106   8.453  1.00 20.00     0.011 A 
BRANCH   7  10
HETATM   10  C9  UNL     1     -40.080  15.186   9.693  1.00 20.00     0.124 C 
HETATM   11 CL11 UNL     1     -41.188  14.114  10.582  1.00 20.00    -0.130 Cl
ENDBRANCH   7  10
ENDBRANCH   1   7
TORSDOF 3
ENDMDL
MODEL 6
REMARK VINA RESULT:      -3.2      2.991      5.167
REMARK  3 active torsions:
REMARK  status: ('A' for Active; 'I' for Inactive)
REMARK    1  A    between atoms: C6_6  and  C8_8 
REMARK    2  A    between atoms: C7_7  and  C8_8 
REMARK    3  A    between atoms: C7_7  and  C9_9 
ROOT
HETATM    1  C8  UNL     1     -35.008  16.677  -4.627  1.00 20.00     0.042 C 
ENDROOT
BRANCH   1   2
HETATM    2  C6  UNL     1     -33.612  16.813  -4.037  1.00 20.00     0.122 C 
HETATM    3  C2  UNL     1     -33.225  18.258  -3.755  1.00 20.00     0.034 C 
HETATM    4  C1  UNL     1     -33.653  18.443  -2.321  1.00 20.00     0.029 C 
HETATM    5  C5  UNL     1     -33.361  17.083  -1.730  1.00 20.00     0.168 C 
HETATM    6  O10 UNL     1     -33.586  16.125  -2.773  1.00 20.00    -0.386 OA
ENDBRANCH   1   2
BRANCH   1   7
HETATM    7  C7  UNL     1     -35.098  15.547  -5.606  1.00 20.00    -0.025 A 
HETATM    8  C3  UNL     1     -36.150  14.488  -5.372  1.00 20.00     0.011 A 
HETATM    9  C4  UNL     1     -36.318  15.473  -6.493  1.00 20.00     0.011 A 
BRANCH   7  10
HETATM   10  C9  UNL     1     -33.779  15.115  -6.184  1.00 20.00     0.124 C 
HETATM   11 CL11 UNL     1     -33.683  15.519  -7.915  1.00 20.00    -0.130 Cl
ENDBRANCH   7  10
ENDBRANCH   1   7
TORSDOF 3
ENDMDL
MODEL 7
REMARK VINA RESULT:      -3.2      2.910      5.162
REMARK  3 active torsions:
REMARK  status: ('A' for Active; 'I' for Inactive)
REMARK    1  A    between atoms: C6_6  and  C8_8 
REMARK    2  A    between atoms: C7_7  and  C8_8 
REMARK    3  A    between atoms: C7_7  and  C9_9 
ROOT
HETATM    1  C8  UNL     1     -34.227  17.268  -5.038  1.00 20.00     0.042 C 
ENDROOT
BRANCH   1   2
HETATM    2  C6  UNL     1     -34.600  16.989  -3.588  1.00 20.00     0.122 C 
HETATM    3  C2  UNL     1     -33.423  16.498  -2.758  1.00 20.00     0.034 C 
HETATM    4  C1  UNL     1     -32.869  17.775  -2.179  1.00 20.00     0.029 C 
HETATM    5  C5  UNL     1     -34.124  18.585  -1.951  1.00 20.00     0.168 C 
HETATM    6  O10 UNL     1     -35.042  18.220  -2.990  1.00 20.00    -0.386 OA
ENDBRANCH   1   2
BRANCH   1   7
HETATM    7  C7  UNL     1     -34.822  16.263  -5.976  1.00 20.00    -0.025 A 
HETATM    8  C3  UNL     1     -34.509  16.396  -7.448  1.00 20.00     0.011 A 
HETATM    9  C4  UNL     1     -33.889  15.284  -6.649  1.00 20.00     0.011 A 
BRANCH   7  10
HETATM   10  C9  UNL     1     -36.191  15.779  -5.587  1.00 20.00     0.124 C 
HETATM   11 CL11 UNL     1     -36.143  14.069  -5.094  1.00 20.00    -0.130 Cl
ENDBRANCH   7  10
ENDBRANCH   1   7
TORSDOF 3
ENDMDL
MODEL 8
REMARK VINA RESULT:      -3.2     12.035     13.653
REMARK  3 active torsions:
REMARK  status: ('A' for Active; 'I' for Inactive)
REMARK    1  A    between atoms: C6_6  and  C8_8 
REMARK    2  A    between atoms: C7_7  and  C8_8 
REMARK    3  A    between atoms: C7_7  and  C9_9 
ROOT
HETATM    1  C8  UNL     1     -40.966  14.736   7.019  1.00 20.00     0.042 C 
ENDROOT
BRANCH   1   2
HETATM    2  C6  UNL     1     -40.614  14.134   8.371  1.00 20.00     0.122 C 
HETATM    3  C2  UNL     1     -40.049  15.156   9.347  1.00 20.00     0.034 C 
HETATM    4  C1  UNL     1     -41.277  15.630  10.081  1.00 20.00     0.029 C 
HETATM    5  C5  UNL     1     -42.104  14.366  10.156  1.00 20.00     0.168 C 
HETATM    6  O10 UNL     1     -41.820  13.620   8.965  1.00 20.00    -0.386 OA
ENDBRANCH   1   2
BRANCH   1   7
HETATM    7  C7  UNL     1     -41.514  13.713   6.071  1.00 20.00    -0.025 A 
HETATM    8  C3  UNL     1     -42.988  13.766   5.747  1.00 20.00     0.011 A 
HETATM    9  C4  UNL     1     -41.980  14.183   4.714  1.00 20.00     0.011 A 
BRANCH   7  10
HETATM   10  C9  UNL     1     -40.859  12.363   6.164  1.00 20.00     0.124 C 
HETATM   11 CL11 UNL     1     -39.630  12.165   4.892  1.00 20.00    -0.130 Cl
ENDBRANCH   7  10
ENDBRANCH   1   7
TORSDOF 3
ENDMDL
MODEL 9
REMARK VINA RESULT:      -3.1     24.684     25.285
REMARK  3 active torsions:
REMARK  status: ('A' for Active; 'I' for Inactive)
REMARK    1  A    between atoms: C6_6  and  C8_8 
REMARK    2  A    between atoms: C7_7  and  C8_8 
REMARK    3  A    between atoms: C7_7  and  C9_9 
ROOT
HETATM    1  C8  UNL     1     -25.309  -1.804  11.664  1.00 20.00     0.042 C 
ENDROOT
BRANCH   1   2
HETATM    2  C6  UNL     1     -24.905  -3.153  11.088  1.00 20.00     0.122 C 
HETATM    3  C2  UNL     1     -24.458  -3.067   9.635  1.00 20.00     0.034 C 
HETATM    4  C1  UNL     1     -22.967  -2.877   9.757  1.00 20.00     0.029 C 
HETATM    5  C5  UNL     1     -22.642  -3.721  10.968  1.00 20.00     0.168 C 
HETATM    6  O10 UNL     1     -23.781  -3.647  11.837  1.00 20.00    -0.386 OA
ENDBRANCH   1   2
BRANCH   1   7
HETATM    7  C7  UNL     1     -26.787  -1.575  11.579  1.00 20.00    -0.025 A 
HETATM    8  C3  UNL     1     -27.363  -0.386  12.313  1.00 20.00     0.011 A 
HETATM    9  C4  UNL     1     -27.273  -0.367  10.814  1.00 20.00     0.011 A 
BRANCH   7  10
HETATM   10  C9  UNL     1     -27.611  -2.830  11.513  1.00 20.00     0.124 C 
HETATM   11 CL11 UNL     1     -28.375  -3.003   9.914  1.00 20.00    -0.130 Cl
ENDBRANCH   7  10
ENDBRANCH   1   7
TORSDOF 3
ENDMDL
