MODEL 1
REMARK VINA RESULT:      -4.0      0.000      0.000
REMARK  2 active torsions:
REMARK  status: ('A' for Active; 'I' for Inactive)
REMARK    1  A    between atoms: C5_5  and  O9_9 
REMARK    2  A    between atoms: C7_7  and  O9_9 
ROOT
HETATM    1  C1  UNL     1     -33.310   5.754   3.505  1.00 20.00     0.098 C 
HETATM    2  C2  UNL     1     -34.871   5.152   6.002  1.00 20.00     0.008 C 
HETATM    3  C3  UNL     1     -35.465   5.946   4.824  1.00 20.00     0.054 C 
HETATM    4  C4  UNL     1     -33.672   6.117   5.985  1.00 20.00     0.054 C 
HETATM    5  C5  UNL     1     -34.039   6.488   4.520  1.00 20.00     0.148 C 
HETATM    6  N8  UNL     1     -32.727   5.166   2.691  1.00 20.00    -0.194 NA
ENDROOT
BRANCH   5   7
HETATM    7  O9  UNL     1     -33.966   7.892   4.202  1.00 20.00    -0.366 OA
BRANCH   7   8
HETATM    8  C7  UNL     1     -32.649   8.254   3.836  1.00 20.00     0.165 C 
HETATM    9  C6  UNL     1     -32.079   9.173   4.896  1.00 20.00     0.033 C 
ENDBRANCH   7   8
ENDBRANCH   5   7
TORSDOF 2
ENDMDL
MODEL 2
REMARK VINA RESULT:      -3.5      9.537     10.091
REMARK  2 active torsions:
REMARK  status: ('A' for Active; 'I' for Inactive)
REMARK    1  A    between atoms: C5_5  and  O9_9 
REMARK    2  A    between atoms: C7_7  and  O9_9 
ROOT
HETATM    1  C1  UNL     1     -41.719  12.441   6.715  1.00 20.00     0.098 C 
HETATM    2  C2  UNL     1     -39.537  11.595   4.828  1.00 20.00     0.008 C 
HETATM    3  C3  UNL     1     -39.260  12.009   6.285  1.00 20.00     0.054 C 
HETATM    4  C4  UNL     1     -40.321  12.909   4.656  1.00 20.00     0.054 C 
HETATM    5  C5  UNL     1     -40.473  12.977   6.202  1.00 20.00     0.148 C 
HETATM    6  N8  UNL     1     -42.715  12.012   7.127  1.00 20.00    -0.194 NA
ENDROOT
BRANCH   5   7
HETATM    7  O9  UNL     1     -40.267  14.279   6.786  1.00 20.00    -0.366 OA
BRANCH   7   8
HETATM    8  C7  UNL     1     -40.493  14.241   8.181  1.00 20.00     0.165 C 
HETATM    9  C6  UNL     1     -40.328  15.638   8.744  1.00 20.00     0.033 C 
ENDBRANCH   7   8
ENDBRANCH   5   7
TORSDOF 2
ENDMDL
MODEL 3
REMARK VINA RESULT:      -3.4      9.737     10.373
REMARK  2 active torsions:
REMARK  status: ('A' for Active; 'I' for Inactive)
REMARK    1  A    between atoms: C5_5  and  O9_9 
REMARK    2  A    between atoms: C7_7  and  O9_9 
ROOT
HETATM    1  C1  UNL     1     -40.735  13.591   7.684  1.00 20.00     0.098 C 
HETATM    2  C2  UNL     1     -43.265  13.970   6.107  1.00 20.00     0.008 C 
HETATM    3  C3  UNL     1     -42.940  12.662   6.851  1.00 20.00     0.054 C 
HETATM    4  C4  UNL     1     -41.879  13.880   5.444  1.00 20.00     0.054 C 
HETATM    5  C5  UNL     1     -41.431  12.936   6.594  1.00 20.00     0.148 C 
HETATM    6  N8  UNL     1     -40.178  14.115   8.557  1.00 20.00    -0.194 NA
ENDROOT
BRANCH   5   7
HETATM    7  O9  UNL     1     -40.656  11.790   6.187  1.00 20.00    -0.366 OA
BRANCH   7   8
HETATM    8  C7  UNL     1     -39.322  12.165   5.903  1.00 20.00     0.165 C 
HETATM    9  C6  UNL     1     -38.988  11.756   4.484  1.00 20.00     0.033 C 
ENDBRANCH   7   8
ENDBRANCH   5   7
TORSDOF 2
ENDMDL
MODEL 4
REMARK VINA RESULT:      -3.4     12.197     13.367
REMARK  2 active torsions:
REMARK  status: ('A' for Active; 'I' for Inactive)
REMARK    1  A    between atoms: C5_5  and  O9_9 
REMARK    2  A    between atoms: C7_7  and  O9_9 
ROOT
HETATM    1  C1  UNL     1     -35.525  14.178  -4.927  1.00 20.00     0.098 C 
HETATM    2  C2  UNL     1     -35.712  15.385  -7.674  1.00 20.00     0.008 C 
HETATM    3  C3  UNL     1     -34.391  15.318  -6.884  1.00 20.00     0.054 C 
HETATM    4  C4  UNL     1     -36.361  16.031  -6.437  1.00 20.00     0.054 C 
HETATM    5  C5  UNL     1     -35.214  15.439  -5.571  1.00 20.00     0.148 C 
HETATM    6  N8  UNL     1     -35.774  13.168  -4.412  1.00 20.00    -0.194 NA
ENDROOT
BRANCH   5   7
HETATM    7  O9  UNL     1     -34.667  16.329  -4.578  1.00 20.00    -0.366 OA
BRANCH   7   8
HETATM    8  C7  UNL     1     -33.653  15.684  -3.833  1.00 20.00     0.165 C 
HETATM    9  C6  UNL     1     -33.329  16.522  -2.614  1.00 20.00     0.033 C 
ENDBRANCH   7   8
ENDBRANCH   5   7
TORSDOF 2
ENDMDL
MODEL 5
REMARK VINA RESULT:      -3.4     12.395     13.112
REMARK  2 active torsions:
REMARK  status: ('A' for Active; 'I' for Inactive)
REMARK    1  A    between atoms: C5_5  and  O9_9 
REMARK    2  A    between atoms: C7_7  and  O9_9 
ROOT
HETATM    1  C1  UNL     1     -34.348  18.554  -2.400  1.00 20.00     0.098 C 
HETATM    2  C2  UNL     1     -32.706  18.867   0.098  1.00 20.00     0.008 C 
HETATM    3  C3  UNL     1     -32.129  18.289  -1.207  1.00 20.00     0.054 C 
HETATM    4  C4  UNL     1     -33.856  17.851  -0.017  1.00 20.00     0.054 C 
HETATM    5  C5  UNL     1     -33.539  17.720  -1.533  1.00 20.00     0.148 C 
HETATM    6  N8  UNL     1     -34.996  19.222  -3.094  1.00 20.00    -0.194 NA
ENDROOT
BRANCH   5   7
HETATM    7  O9  UNL     1     -33.557  16.376  -2.055  1.00 20.00    -0.366 OA
BRANCH   7   8
HETATM    8  C7  UNL     1     -33.326  16.379  -3.450  1.00 20.00     0.165 C 
HETATM    9  C6  UNL     1     -33.699  15.023  -4.013  1.00 20.00     0.033 C 
ENDBRANCH   7   8
ENDBRANCH   5   7
TORSDOF 2
ENDMDL
MODEL 6
REMARK VINA RESULT:      -3.4     12.399     13.709
REMARK  2 active torsions:
REMARK  status: ('A' for Active; 'I' for Inactive)
REMARK    1  A    between atoms: C5_5  and  O9_9 
REMARK    2  A    between atoms: C7_7  and  O9_9 
ROOT
HETATM    1  C1  UNL     1     -34.115  15.220  -6.573  1.00 20.00     0.098 C 
HETATM    2  C2  UNL     1     -33.190  15.698  -3.754  1.00 20.00     0.008 C 
HETATM    3  C3  UNL     1     -34.025  14.468  -4.156  1.00 20.00     0.054 C 
HETATM    4  C4  UNL     1     -34.247  16.580  -4.441  1.00 20.00     0.054 C 
HETATM    5  C5  UNL     1     -34.704  15.336  -5.253  1.00 20.00     0.148 C 
HETATM    6  N8  UNL     1     -33.644  15.126  -7.630  1.00 20.00    -0.194 NA
ENDROOT
BRANCH   5   7
HETATM    7  O9  UNL     1     -36.130  15.169  -5.379  1.00 20.00    -0.366 OA
BRANCH   7   8
HETATM    8  C7  UNL     1     -36.647  16.023  -6.380  1.00 20.00     0.165 C 
HETATM    9  C6  UNL     1     -37.793  16.825  -5.801  1.00 20.00     0.033 C 
ENDBRANCH   7   8
ENDBRANCH   5   7
TORSDOF 2
ENDMDL
MODEL 7
REMARK VINA RESULT:      -3.3     10.087     10.741
REMARK  2 active torsions:
REMARK  status: ('A' for Active; 'I' for Inactive)
REMARK    1  A    between atoms: C5_5  and  O9_9 
REMARK    2  A    between atoms: C7_7  and  O9_9 
ROOT
HETATM    1  C1  UNL     1     -42.217  12.730   6.786  1.00 20.00     0.098 C 
HETATM    2  C2  UNL     1     -42.638  15.407   5.485  1.00 20.00     0.008 C 
HETATM    3  C3  UNL     1     -42.002  14.215   4.745  1.00 20.00     0.054 C 
HETATM    4  C4  UNL     1     -41.619  15.185   6.617  1.00 20.00     0.054 C 
HETATM    5  C5  UNL     1     -41.420  13.731   6.104  1.00 20.00     0.148 C 
HETATM    6  N8  UNL     1     -42.854  11.929   7.333  1.00 20.00    -0.194 NA
ENDROOT
BRANCH   5   7
HETATM    7  O9  UNL     1     -40.055  13.271   6.063  1.00 20.00    -0.366 OA
BRANCH   7   8
HETATM    8  C7  UNL     1     -40.000  11.899   5.726  1.00 20.00     0.165 C 
HETATM    9  C6  UNL     1     -39.185  11.736   4.460  1.00 20.00     0.033 C 
ENDBRANCH   7   8
ENDBRANCH   5   7
TORSDOF 2
ENDMDL
MODEL 8
REMARK VINA RESULT:      -3.3      9.256     10.670
REMARK  2 active torsions:
REMARK  status: ('A' for Active; 'I' for Inactive)
REMARK    1  A    between atoms: C5_5  and  O9_9 
REMARK    2  A    between atoms: C7_7  and  O9_9 
ROOT
HETATM    1  C1  UNL     1     -42.808   5.831   1.134  1.00 20.00     0.098 C 
HETATM    2  C2  UNL     1     -40.793   7.773   0.036  1.00 20.00     0.008 C 
HETATM    3  C3  UNL     1     -42.299   7.877  -0.270  1.00 20.00     0.054 C 
HETATM    4  C4  UNL     1     -40.855   6.300  -0.408  1.00 20.00     0.054 C 
HETATM    5  C5  UNL     1     -42.390   6.329  -0.162  1.00 20.00     0.148 C 
HETATM    6  N8  UNL     1     -43.143   5.432   2.171  1.00 20.00    -0.194 NA
ENDROOT
BRANCH   5   7
HETATM    7  O9  UNL     1     -43.190   5.684  -1.173  1.00 20.00    -0.366 OA
BRANCH   7   8
HETATM    8  C7  UNL     1     -43.415   4.328  -0.842  1.00 20.00     0.165 C 
HETATM    9  C6  UNL     1     -43.417   3.506  -2.114  1.00 20.00     0.033 C 
ENDBRANCH   7   8
ENDBRANCH   5   7
TORSDOF 2
ENDMDL
MODEL 9
REMARK VINA RESULT:      -3.3      1.982      2.486
REMARK  2 active torsions:
REMARK  status: ('A' for Active; 'I' for Inactive)
REMARK    1  A    between atoms: C5_5  and  O9_9 
REMARK    2  A    between atoms: C7_7  and  O9_9 
ROOT
HETATM    1  C1  UNL     1     -33.676   7.797   5.147  1.00 20.00     0.098 C 
HETATM    2  C2  UNL     1     -35.116   5.292   5.975  1.00 20.00     0.008 C 
HETATM    3  C3  UNL     1     -33.596   5.334   5.735  1.00 20.00     0.054 C 
HETATM    4  C4  UNL     1     -35.304   5.938   4.590  1.00 20.00     0.054 C 
HETATM    5  C5  UNL     1     -33.834   6.438   4.666  1.00 20.00     0.148 C 
HETATM    6  N8  UNL     1     -33.550   8.885   5.531  1.00 20.00    -0.194 NA
ENDROOT
BRANCH   5   7
HETATM    7  O9  UNL     1     -33.069   6.298   3.452  1.00 20.00    -0.366 OA
BRANCH   7   8
HETATM    8  C7  UNL     1     -32.210   7.406   3.271  1.00 20.00     0.165 C 
HETATM    9  C6  UNL     1     -32.214   7.799   1.809  1.00 20.00     0.033 C 
ENDBRANCH   7   8
ENDBRANCH   5   7
TORSDOF 2
ENDMDL
