MODEL 1
REMARK VINA RESULT:      -3.9      0.000      0.000
REMARK  3 active torsions:
REMARK  status: ('A' for Active; 'I' for Inactive)
REMARK    1  A    between atoms: C1_1  and  C6_6 
REMARK    2  A    between atoms: C5_5  and  C6_6 
REMARK    3  A    between atoms: C6_6  and  O8_8 
ROOT
HETATM    1  C4  UNL     1     -33.942   4.613   4.204  1.00 20.00     0.054 C 
HETATM    2  C6  UNL     1     -34.548   5.912   4.737  1.00 20.00     0.110 C 
ENDROOT
BRANCH   2   3
HETATM    3  C1  UNL     1     -34.517   5.875   6.259  1.00 20.00     0.268 C 
HETATM    4  O7  UNL     1     -33.941   5.013   6.916  1.00 20.00    -0.304 OA
ENDBRANCH   2   3
BRANCH   2   5
HETATM    5  C5  UNL     1     -33.843   7.177   4.179  1.00 20.00     0.018 C 
HETATM    6  C2  UNL     1     -32.615   6.884   3.313  1.00 20.00     0.013 C 
HETATM    7  C3  UNL     1     -33.461   8.168   5.289  1.00 20.00     0.013 C 
ENDBRANCH   2   5
BRANCH   2   8
HETATM    8  O8  UNL     1     -35.915   5.957   4.335  1.00 20.00    -0.383 OA
HETATM    9  H20 UNL     1     -36.125   5.082   3.974  1.00 20.00     0.211 HD
ENDBRANCH   2   8
TORSDOF 3
ENDMDL
MODEL 2
REMARK VINA RESULT:      -3.7      1.783      2.735
REMARK  3 active torsions:
REMARK  status: ('A' for Active; 'I' for Inactive)
REMARK    1  A    between atoms: C1_1  and  C6_6 
REMARK    2  A    between atoms: C5_5  and  C6_6 
REMARK    3  A    between atoms: C6_6  and  O8_8 
ROOT
HETATM    1  C4  UNL     1     -35.690   6.027   4.170  1.00 20.00     0.054 C 
HETATM    2  C6  UNL     1     -34.219   5.697   4.427  1.00 20.00     0.110 C 
ENDROOT
BRANCH   2   3
HETATM    3  C1  UNL     1     -33.462   5.787   3.108  1.00 20.00     0.268 C 
HETATM    4  O7  UNL     1     -32.823   4.861   2.616  1.00 20.00    -0.304 OA
ENDBRANCH   2   3
BRANCH   2   5
HETATM    5  C5  UNL     1     -33.582   6.601   5.516  1.00 20.00     0.018 C 
HETATM    6  C2  UNL     1     -34.434   6.762   6.778  1.00 20.00     0.013 C 
HETATM    7  C3  UNL     1     -33.204   7.988   4.974  1.00 20.00     0.013 C 
ENDBRANCH   2   5
BRANCH   2   8
HETATM    8  O8  UNL     1     -34.143   4.346   4.877  1.00 20.00    -0.383 OA
HETATM    9  H20 UNL     1     -35.002   3.943   4.683  1.00 20.00     0.211 HD
ENDBRANCH   2   8
TORSDOF 3
ENDMDL
MODEL 3
REMARK VINA RESULT:      -3.6      2.161      3.146
REMARK  3 active torsions:
REMARK  status: ('A' for Active; 'I' for Inactive)
REMARK    1  A    between atoms: C1_1  and  C6_6 
REMARK    2  A    between atoms: C5_5  and  C6_6 
REMARK    3  A    between atoms: C6_6  and  O8_8 
ROOT
HETATM    1  C4  UNL     1     -33.671   6.905   6.318  1.00 20.00     0.054 C 
HETATM    2  C6  UNL     1     -33.741   7.202   4.819  1.00 20.00     0.110 C 
ENDROOT
BRANCH   2   3
HETATM    3  C1  UNL     1     -32.426   7.835   4.386  1.00 20.00     0.268 C 
HETATM    4  O7  UNL     1     -32.152   9.022   4.530  1.00 20.00    -0.304 OA
ENDBRANCH   2   3
BRANCH   2   5
HETATM    5  C5  UNL     1     -34.080   5.946   3.973  1.00 20.00     0.018 C 
HETATM    6  C2  UNL     1     -34.434   4.706   4.799  1.00 20.00     0.013 C 
HETATM    7  C3  UNL     1     -32.964   5.595   2.978  1.00 20.00     0.013 C 
ENDBRANCH   2   5
BRANCH   2   8
HETATM    8  O8  UNL     1     -34.773   8.164   4.610  1.00 20.00    -0.383 OA
HETATM    9  H20 UNL     1     -34.768   8.371   3.664  1.00 20.00     0.211 HD
ENDBRANCH   2   8
TORSDOF 3
ENDMDL
MODEL 4
REMARK VINA RESULT:      -3.5     16.425     16.958
REMARK  3 active torsions:
REMARK  status: ('A' for Active; 'I' for Inactive)
REMARK    1  A    between atoms: C1_1  and  C6_6 
REMARK    2  A    between atoms: C5_5  and  C6_6 
REMARK    3  A    between atoms: C6_6  and  O8_8 
ROOT
HETATM    1  C4  UNL     1     -22.348  18.419  12.332  1.00 20.00     0.054 C 
HETATM    2  C6  UNL     1     -23.534  17.702  11.685  1.00 20.00     0.110 C 
ENDROOT
BRANCH   2   3
HETATM    3  C1  UNL     1     -24.821  18.358  12.166  1.00 20.00     0.268 C 
HETATM    4  O7  UNL     1     -25.879  17.759  12.332  1.00 20.00    -0.304 OA
ENDBRANCH   2   3
BRANCH   2   5
HETATM    5  C5  UNL     1     -23.447  17.674  10.136  1.00 20.00     0.018 C 
HETATM    6  C2  UNL     1     -22.021  17.755   9.583  1.00 20.00     0.013 C 
HETATM    7  C3  UNL     1     -24.311  18.765   9.485  1.00 20.00     0.013 C 
ENDBRANCH   2   5
BRANCH   2   8
HETATM    8  O8  UNL     1     -23.537  16.353  12.150  1.00 20.00    -0.383 OA
HETATM    9  H20 UNL     1     -24.465  16.075  12.178  1.00 20.00     0.211 HD
ENDBRANCH   2   8
TORSDOF 3
ENDMDL
MODEL 5
REMARK VINA RESULT:      -3.5     12.830     13.933
REMARK  3 active torsions:
REMARK  status: ('A' for Active; 'I' for Inactive)
REMARK    1  A    between atoms: C1_1  and  C6_6 
REMARK    2  A    between atoms: C5_5  and  C6_6 
REMARK    3  A    between atoms: C6_6  and  O8_8 
ROOT
HETATM    1  C4  UNL     1     -35.752  14.114  -5.083  1.00 20.00     0.054 C 
HETATM    2  C6  UNL     1     -34.432  14.878  -5.206  1.00 20.00     0.110 C 
ENDROOT
BRANCH   2   3
HETATM    3  C1  UNL     1     -34.202  15.221  -6.671  1.00 20.00     0.268 C 
HETATM    4  O7  UNL     1     -34.999  14.974  -7.571  1.00 20.00    -0.304 OA
ENDBRANCH   2   3
BRANCH   2   5
HETATM    5  C5  UNL     1     -34.383  16.141  -4.306  1.00 20.00     0.018 C 
HETATM    6  C2  UNL     1     -34.337  17.463  -5.078  1.00 20.00     0.013 C 
HETATM    7  C3  UNL     1     -33.223  16.096  -3.300  1.00 20.00     0.013 C 
ENDBRANCH   2   5
BRANCH   2   8
HETATM    8  O8  UNL     1     -33.380  14.006  -4.796  1.00 20.00    -0.383 OA
HETATM    9  H20 UNL     1     -32.748  13.976  -5.529  1.00 20.00     0.211 HD
ENDBRANCH   2   8
TORSDOF 3
ENDMDL
MODEL 6
REMARK VINA RESULT:      -3.5     12.707     13.904
REMARK  3 active torsions:
REMARK  status: ('A' for Active; 'I' for Inactive)
REMARK    1  A    between atoms: C1_1  and  C6_6 
REMARK    2  A    between atoms: C5_5  and  C6_6 
REMARK    3  A    between atoms: C6_6  and  O8_8 
ROOT
HETATM    1  C4  UNL     1     -34.440  14.026  -4.169  1.00 20.00     0.054 C 
HETATM    2  C6  UNL     1     -34.379  15.104  -5.252  1.00 20.00     0.110 C 
ENDROOT
BRANCH   2   3
HETATM    3  C1  UNL     1     -35.685  15.085  -6.034  1.00 20.00     0.268 C 
HETATM    4  O7  UNL     1     -35.953  14.267  -6.909  1.00 20.00    -0.304 OA
ENDBRANCH   2   3
BRANCH   2   5
HETATM    5  C5  UNL     1     -34.074  16.514  -4.679  1.00 20.00     0.018 C 
HETATM    6  C2  UNL     1     -33.452  16.505  -3.280  1.00 20.00     0.013 C 
HETATM    7  C3  UNL     1     -35.311  17.424  -4.683  1.00 20.00     0.013 C 
ENDBRANCH   2   5
BRANCH   2   8
HETATM    8  O8  UNL     1     -33.330  14.760  -6.155  1.00 20.00    -0.383 OA
HETATM    9  H20 UNL     1     -32.818  14.058  -5.727  1.00 20.00     0.211 HD
ENDBRANCH   2   8
TORSDOF 3
ENDMDL
MODEL 7
REMARK VINA RESULT:      -3.5      1.405      1.935
REMARK  3 active torsions:
REMARK  status: ('A' for Active; 'I' for Inactive)
REMARK    1  A    between atoms: C1_1  and  C6_6 
REMARK    2  A    between atoms: C5_5  and  C6_6 
REMARK    3  A    between atoms: C6_6  and  O8_8 
ROOT
HETATM    1  C4  UNL     1     -35.423   6.066   4.283  1.00 20.00     0.054 C 
HETATM    2  C6  UNL     1     -34.125   6.710   4.775  1.00 20.00     0.110 C 
ENDROOT
BRANCH   2   3
HETATM    3  C1  UNL     1     -33.905   6.314   6.228  1.00 20.00     0.268 C 
HETATM    4  O7  UNL     1     -34.118   5.191   6.677  1.00 20.00    -0.304 OA
ENDBRANCH   2   3
BRANCH   2   5
HETATM    5  C5  UNL     1     -32.902   6.350   3.890  1.00 20.00     0.018 C 
HETATM    6  C2  UNL     1     -32.263   7.546   3.180  1.00 20.00     0.013 C 
HETATM    7  C3  UNL     1     -33.231   5.260   2.858  1.00 20.00     0.013 C 
ENDBRANCH   2   5
BRANCH   2   8
HETATM    8  O8  UNL     1     -34.295   8.126   4.734  1.00 20.00    -0.383 OA
HETATM    9  H20 UNL     1     -33.461   8.511   5.043  1.00 20.00     0.211 HD
ENDBRANCH   2   8
TORSDOF 3
ENDMDL
MODEL 8
REMARK VINA RESULT:      -3.4      8.885      9.817
REMARK  3 active torsions:
REMARK  status: ('A' for Active; 'I' for Inactive)
REMARK    1  A    between atoms: C1_1  and  C6_6 
REMARK    2  A    between atoms: C5_5  and  C6_6 
REMARK    3  A    between atoms: C6_6  and  O8_8 
ROOT
HETATM    1  C4  UNL     1     -42.070   4.795   1.432  1.00 20.00     0.054 C 
HETATM    2  C6  UNL     1     -41.988   5.685   0.191  1.00 20.00     0.110 C 
ENDROOT
BRANCH   2   3
HETATM    3  C1  UNL     1     -43.101   5.288  -0.769  1.00 20.00     0.268 C 
HETATM    4  O7  UNL     1     -42.919   4.700  -1.831  1.00 20.00    -0.304 OA
ENDBRANCH   2   3
BRANCH   2   5
HETATM    5  C5  UNL     1     -42.038   7.198   0.532  1.00 20.00     0.018 C 
HETATM    6  C2  UNL     1     -43.411   7.845   0.333  1.00 20.00     0.013 C 
HETATM    7  C3  UNL     1     -40.978   8.004  -0.235  1.00 20.00     0.013 C 
ENDBRANCH   2   5
BRANCH   2   8
HETATM    8  O8  UNL     1     -40.745   5.421  -0.457  1.00 20.00    -0.383 OA
HETATM    9  H20 UNL     1     -40.950   4.887  -1.239  1.00 20.00     0.211 HD
ENDBRANCH   2   8
TORSDOF 3
ENDMDL
MODEL 9
REMARK VINA RESULT:      -3.4     12.491     13.654
REMARK  3 active torsions:
REMARK  status: ('A' for Active; 'I' for Inactive)
REMARK    1  A    between atoms: C1_1  and  C6_6 
REMARK    2  A    between atoms: C5_5  and  C6_6 
REMARK    3  A    between atoms: C6_6  and  O8_8 
ROOT
HETATM    1  C4  UNL     1     -33.700  14.839  -3.995  1.00 20.00     0.054 C 
HETATM    2  C6  UNL     1     -34.594  14.978  -5.228  1.00 20.00     0.110 C 
ENDROOT
BRANCH   2   3
HETATM    3  C1  UNL     1     -35.779  14.033  -5.079  1.00 20.00     0.268 C 
HETATM    4  O7  UNL     1     -35.799  13.065  -4.324  1.00 20.00    -0.304 OA
ENDBRANCH   2   3
BRANCH   2   5
HETATM    5  C5  UNL     1     -35.053  16.439  -5.476  1.00 20.00     0.018 C 
HETATM    6  C2  UNL     1     -34.513  17.451  -4.461  1.00 20.00     0.013 C 
HETATM    7  C3  UNL     1     -36.582  16.564  -5.557  1.00 20.00     0.013 C 
ENDBRANCH   2   5
BRANCH   2   8
HETATM    8  O8  UNL     1     -33.845  14.554  -6.365  1.00 20.00    -0.383 OA
HETATM    9  H20 UNL     1     -34.483  14.429  -7.084  1.00 20.00     0.211 HD
ENDBRANCH   2   8
TORSDOF 3
ENDMDL
