MODEL 1
REMARK VINA RESULT:      -5.3      0.000      0.000
REMARK  3 active torsions:
REMARK  status: ('A' for Active; 'I' for Inactive)
REMARK    1  A    between atoms: C2_2  and  C9_9 
REMARK    2  A    between atoms: C2_2  and  C10_10 
REMARK    3  A    between atoms: C6_6  and  C9_9 
ROOT
HETATM    1  C3  UNL     1     -33.641   6.787   6.487  1.00 20.00     0.006 C 
HETATM    2  C4  UNL     1     -34.838   5.849   6.404  1.00 20.00     0.020 C 
HETATM    3  C5  UNL     1     -34.724   6.968   4.288  1.00 20.00     0.025 C 
HETATM    4  C6  UNL     1     -33.781   7.700   5.262  1.00 20.00    -0.009 C 
HETATM    5  C7  UNL     1     -35.004   5.602   4.911  1.00 20.00     0.082 C 
HETATM    6 CL11 UNL     1     -33.818   4.395   4.332  1.00 20.00    -0.125 Cl
ENDROOT
BRANCH   4   7
HETATM    7  C9  UNL     1     -32.434   8.039   4.638  1.00 20.00     0.038 C 
BRANCH   7   8
HETATM    8  C2  UNL     1     -32.456   7.995   3.127  1.00 20.00    -0.089 C 
HETATM    9  C1  UNL     1     -32.137   6.869   2.468  1.00 20.00     0.014 C 
BRANCH   8  10
HETATM   10  C10 UNL     1     -32.847   9.247   2.376  1.00 20.00     0.029 C 
HETATM   11  C8  UNL     1     -32.603   9.142   0.877  1.00 20.00     0.010 C 
ENDBRANCH   8  10
ENDBRANCH   7   8
ENDBRANCH   4   7
TORSDOF 3
ENDMDL
MODEL 2
REMARK VINA RESULT:      -4.4     11.403     12.469
REMARK  3 active torsions:
REMARK  status: ('A' for Active; 'I' for Inactive)
REMARK    1  A    between atoms: C2_2  and  C9_9 
REMARK    2  A    between atoms: C2_2  and  C10_10 
REMARK    3  A    between atoms: C6_6  and  C9_9 
ROOT
HETATM    1  C3  UNL     1     -34.570  17.137  -4.266  1.00 20.00     0.006 C 
HETATM    2  C4  UNL     1     -34.478  16.346  -5.565  1.00 20.00     0.020 C 
HETATM    3  C5  UNL     1     -32.889  15.356  -4.068  1.00 20.00     0.025 C 
HETATM    4  C6  UNL     1     -33.346  16.694  -3.455  1.00 20.00    -0.009 C 
HETATM    5  C7  UNL     1     -33.928  14.995  -5.128  1.00 20.00     0.082 C 
HETATM    6 CL11 UNL     1     -35.220  13.983  -4.419  1.00 20.00    -0.125 Cl
ENDROOT
BRANCH   4   7
HETATM    7  C9  UNL     1     -33.646  16.590  -1.967  1.00 20.00     0.038 C 
BRANCH   7   8
HETATM    8  C2  UNL     1     -33.295  17.848  -1.204  1.00 20.00    -0.089 C 
HETATM    9  C1  UNL     1     -34.221  18.489  -0.473  1.00 20.00     0.014 C 
BRANCH   8  10
HETATM   10  C10 UNL     1     -31.877  18.365  -1.284  1.00 20.00     0.029 C 
HETATM   11  C8  UNL     1     -31.246  18.582   0.086  1.00 20.00     0.010 C 
ENDBRANCH   8  10
ENDBRANCH   7   8
ENDBRANCH   4   7
TORSDOF 3
ENDMDL
MODEL 3
REMARK VINA RESULT:      -4.1     12.145     12.959
REMARK  3 active torsions:
REMARK  status: ('A' for Active; 'I' for Inactive)
REMARK    1  A    between atoms: C2_2  and  C9_9 
REMARK    2  A    between atoms: C2_2  and  C10_10 
REMARK    3  A    between atoms: C6_6  and  C9_9 
ROOT
HETATM    1  C3  UNL     1     -33.064  16.504  -3.123  1.00 20.00     0.006 C 
HETATM    2  C4  UNL     1     -34.200  16.288  -4.115  1.00 20.00     0.020 C 
HETATM    3  C5  UNL     1     -34.838  18.167  -2.772  1.00 20.00     0.025 C 
HETATM    4  C6  UNL     1     -33.631  17.491  -2.095  1.00 20.00    -0.009 C 
HETATM    5  C7  UNL     1     -34.864  17.655  -4.210  1.00 20.00     0.082 C 
HETATM    6 CL11 UNL     1     -33.928  18.741  -5.279  1.00 20.00    -0.125 Cl
ENDROOT
BRANCH   4   7
HETATM    7  C9  UNL     1     -32.587  18.488  -1.614  1.00 20.00     0.038 C 
BRANCH   7   8
HETATM    8  C2  UNL     1     -32.379  18.451  -0.117  1.00 20.00    -0.089 C 
HETATM    9  C1  UNL     1     -33.427  18.382   0.720  1.00 20.00     0.014 C 
BRANCH   8  10
HETATM   10  C10 UNL     1     -30.965  18.491   0.414  1.00 20.00     0.029 C 
HETATM   11  C8  UNL     1     -30.898  18.408   1.933  1.00 20.00     0.010 C 
ENDBRANCH   8  10
ENDBRANCH   7   8
ENDBRANCH   4   7
TORSDOF 3
ENDMDL
MODEL 4
REMARK VINA RESULT:      -3.9      1.368      2.075
REMARK  3 active torsions:
REMARK  status: ('A' for Active; 'I' for Inactive)
REMARK    1  A    between atoms: C2_2  and  C9_9 
REMARK    2  A    between atoms: C2_2  and  C10_10 
REMARK    3  A    between atoms: C6_6  and  C9_9 
ROOT
HETATM    1  C3  UNL     1     -34.790   6.749   3.788  1.00 20.00     0.006 C 
HETATM    2  C4  UNL     1     -35.621   5.789   4.630  1.00 20.00     0.020 C 
HETATM    3  C5  UNL     1     -33.579   4.638   4.130  1.00 20.00     0.025 C 
HETATM    4  C6  UNL     1     -33.651   5.887   3.230  1.00 20.00    -0.009 C 
HETATM    5  C7  UNL     1     -34.585   4.866   5.257  1.00 20.00     0.082 C 
HETATM    6 CL11 UNL     1     -33.793   5.655   6.653  1.00 20.00    -0.125 Cl
ENDROOT
BRANCH   4   7
HETATM    7  C9  UNL     1     -32.333   6.644   3.163  1.00 20.00     0.038 C 
BRANCH   7   8
HETATM    8  C2  UNL     1     -32.480   8.115   3.486  1.00 20.00    -0.089 C 
HETATM    9  C1  UNL     1     -32.428   8.547   4.756  1.00 20.00     0.014 C 
BRANCH   8  10
HETATM   10  C10 UNL     1     -32.683   9.085   2.345  1.00 20.00     0.029 C 
HETATM   11  C8  UNL     1     -32.271   8.510   0.996  1.00 20.00     0.010 C 
ENDBRANCH   8  10
ENDBRANCH   7   8
ENDBRANCH   4   7
TORSDOF 3
ENDMDL
MODEL 5
REMARK VINA RESULT:      -3.9     10.496     11.262
REMARK  3 active torsions:
REMARK  status: ('A' for Active; 'I' for Inactive)
REMARK    1  A    between atoms: C2_2  and  C9_9 
REMARK    2  A    between atoms: C2_2  and  C10_10 
REMARK    3  A    between atoms: C6_6  and  C9_9 
ROOT
HETATM    1  C3  UNL     1     -40.760  14.278   9.572  1.00 20.00     0.006 C 
HETATM    2  C4  UNL     1     -40.429  15.680  10.067  1.00 20.00     0.020 C 
HETATM    3  C5  UNL     1     -40.470  15.812   7.674  1.00 20.00     0.025 C 
HETATM    4  C6  UNL     1     -40.472  14.322   8.066  1.00 20.00    -0.009 C 
HETATM    5  C7  UNL     1     -40.881  16.583   8.927  1.00 20.00     0.082 C 
HETATM    6 CL11 UNL     1     -42.653  16.817   8.966  1.00 20.00    -0.125 Cl
ENDROOT
BRANCH   4   7
HETATM    7  C9  UNL     1     -41.472  13.501   7.263  1.00 20.00     0.038 C 
BRANCH   7   8
HETATM    8  C2  UNL     1     -40.926  13.048   5.927  1.00 20.00    -0.089 C 
HETATM    9  C1  UNL     1     -41.363  13.602   4.784  1.00 20.00     0.014 C 
BRANCH   8  10
HETATM   10  C10 UNL     1     -39.877  11.961   5.910  1.00 20.00     0.029 C 
HETATM   11  C8  UNL     1     -39.261  11.751   4.533  1.00 20.00     0.010 C 
ENDBRANCH   8  10
ENDBRANCH   7   8
ENDBRANCH   4   7
TORSDOF 3
ENDMDL
MODEL 6
REMARK VINA RESULT:      -3.8     10.160     10.892
REMARK  3 active torsions:
REMARK  status: ('A' for Active; 'I' for Inactive)
REMARK    1  A    between atoms: C2_2  and  C9_9 
REMARK    2  A    between atoms: C2_2  and  C10_10 
REMARK    3  A    between atoms: C6_6  and  C9_9 
ROOT
HETATM    1  C3  UNL     1     -40.353  15.784   8.141  1.00 20.00     0.006 C 
HETATM    2  C4  UNL     1     -41.232  16.320   9.264  1.00 20.00     0.020 C 
HETATM    3  C5  UNL     1     -42.009  14.098   8.812  1.00 20.00     0.025 C 
HETATM    4  C6  UNL     1     -41.063  14.510   7.668  1.00 20.00    -0.009 C 
HETATM    5  C7  UNL     1     -41.733  15.063   9.964  1.00 20.00     0.082 C 
HETATM    6 CL11 UNL     1     -40.478  14.398  11.050  1.00 20.00    -0.125 Cl
ENDROOT
BRANCH   4   7
HETATM    7  C9  UNL     1     -40.082  13.410   7.288  1.00 20.00     0.038 C 
BRANCH   7   8
HETATM    8  C2  UNL     1     -40.322  12.859   5.900  1.00 20.00    -0.089 C 
HETATM    9  C1  UNL     1     -41.185  13.458   5.063  1.00 20.00     0.014 C 
BRANCH   8  10
HETATM   10  C10 UNL     1     -39.565  11.622   5.476  1.00 20.00     0.029 C 
HETATM   11  C8  UNL     1     -39.058  11.696   4.042  1.00 20.00     0.010 C 
ENDBRANCH   8  10
ENDBRANCH   7   8
ENDBRANCH   4   7
TORSDOF 3
ENDMDL
MODEL 7
REMARK VINA RESULT:      -3.8     11.956     13.207
REMARK  3 active torsions:
REMARK  status: ('A' for Active; 'I' for Inactive)
REMARK    1  A    between atoms: C2_2  and  C9_9 
REMARK    2  A    between atoms: C2_2  and  C10_10 
REMARK    3  A    between atoms: C6_6  and  C9_9 
ROOT
HETATM    1  C3  UNL     1     -33.612  16.315  -2.819  1.00 20.00     0.006 C 
HETATM    2  C4  UNL     1     -32.908  17.323  -1.919  1.00 20.00     0.020 C 
HETATM    3  C5  UNL     1     -33.556  18.528  -3.887  1.00 20.00     0.025 C 
HETATM    4  C6  UNL     1     -33.730  17.024  -4.175  1.00 20.00    -0.009 C 
HETATM    5  C7  UNL     1     -33.470  18.665  -2.369  1.00 20.00     0.082 C 
HETATM    6 CL11 UNL     1     -35.093  18.939  -1.672  1.00 20.00    -0.125 Cl
ENDROOT
BRANCH   4   7
HETATM    7  C9  UNL     1     -35.040  16.705  -4.880  1.00 20.00     0.038 C 
BRANCH   7   8
HETATM    8  C2  UNL     1     -35.017  15.372  -5.594  1.00 20.00    -0.089 C 
HETATM    9  C1  UNL     1     -35.946  14.437  -5.333  1.00 20.00     0.014 C 
BRANCH   8  10
HETATM   10  C10 UNL     1     -33.927  15.118  -6.609  1.00 20.00     0.029 C 
HETATM   11  C8  UNL     1     -34.079  15.961  -7.868  1.00 20.00     0.010 C 
ENDBRANCH   8  10
ENDBRANCH   7   8
ENDBRANCH   4   7
TORSDOF 3
ENDMDL
MODEL 8
REMARK VINA RESULT:      -3.5     12.181     13.352
REMARK  3 active torsions:
REMARK  status: ('A' for Active; 'I' for Inactive)
REMARK    1  A    between atoms: C2_2  and  C9_9 
REMARK    2  A    between atoms: C2_2  and  C10_10 
REMARK    3  A    between atoms: C6_6  and  C9_9 
ROOT
HETATM    1  C3  UNL     1     -34.057  14.837  -5.757  1.00 20.00     0.006 C 
HETATM    2  C4  UNL     1     -35.196  15.253  -6.678  1.00 20.00     0.020 C 
HETATM    3  C5  UNL     1     -35.305  16.716  -4.783  1.00 20.00     0.025 C 
HETATM    4  C6  UNL     1     -34.341  15.565  -4.437  1.00 20.00    -0.009 C 
HETATM    5  C7  UNL     1     -35.453  16.707  -6.303  1.00 20.00     0.082 C 
HETATM    6 CL11 UNL     1     -34.240  17.781  -7.058  1.00 20.00    -0.125 Cl
ENDROOT
BRANCH   4   7
HETATM    7  C9  UNL     1     -33.067  16.045  -3.756  1.00 20.00     0.038 C 
BRANCH   7   8
HETATM    8  C2  UNL     1     -33.265  17.317  -2.962  1.00 20.00    -0.089 C 
HETATM    9  C1  UNL     1     -33.055  18.518  -3.525  1.00 20.00     0.014 C 
BRANCH   8  10
HETATM   10  C10 UNL     1     -33.706  17.203  -1.521  1.00 20.00     0.029 C 
HETATM   11  C8  UNL     1     -32.932  18.125  -0.588  1.00 20.00     0.010 C 
ENDBRANCH   8  10
ENDBRANCH   7   8
ENDBRANCH   4   7
TORSDOF 3
ENDMDL
MODEL 9
REMARK VINA RESULT:      -3.5      1.164      4.095
REMARK  3 active torsions:
REMARK  status: ('A' for Active; 'I' for Inactive)
REMARK    1  A    between atoms: C2_2  and  C9_9 
REMARK    2  A    between atoms: C2_2  and  C10_10 
REMARK    3  A    between atoms: C6_6  and  C9_9 
ROOT
HETATM    1  C3  UNL     1     -33.134   8.937   2.469  1.00 20.00     0.006 C 
HETATM    2  C4  UNL     1     -32.078   8.157   1.696  1.00 20.00     0.020 C 
HETATM    3  C5  UNL     1     -31.829   7.518   3.992  1.00 20.00     0.025 C 
HETATM    4  C6  UNL     1     -32.750   8.752   3.942  1.00 20.00    -0.009 C 
HETATM    5  C7  UNL     1     -31.806   6.945   2.576  1.00 20.00     0.082 C 
HETATM    6 CL11 UNL     1     -33.087   5.714   2.377  1.00 20.00    -0.125 Cl
ENDROOT
BRANCH   4   7
HETATM    7  C9  UNL     1     -33.969   8.617   4.844  1.00 20.00     0.038 C 
BRANCH   7   8
HETATM    8  C2  UNL     1     -34.084   7.250   5.480  1.00 20.00    -0.089 C 
HETATM    9  C1  UNL     1     -33.415   6.959   6.608  1.00 20.00     0.014 C 
BRANCH   8  10
HETATM   10  C10 UNL     1     -34.973   6.222   4.819  1.00 20.00     0.029 C 
HETATM   11  C8  UNL     1     -34.654   4.797   5.249  1.00 20.00     0.010 C 
ENDBRANCH   8  10
ENDBRANCH   7   8
ENDBRANCH   4   7
TORSDOF 3
ENDMDL
