MODEL 1
REMARK VINA RESULT:      -3.8      0.000      0.000
REMARK  4 active torsions:
REMARK  status: ('A' for Active; 'I' for Inactive)
REMARK    1  A    between atoms: C6_6  and  C8_8 
REMARK    2  A    between atoms: C6_6  and  C9_9 
REMARK    3  A    between atoms: C7_7  and  O11_11 
REMARK    4  A    between atoms: C9_9  and  O11_11 
ROOT
HETATM    1  C1  UNL     1     -35.229  18.454  -2.907  1.00 20.00     0.097 C 
HETATM    2  C5  UNL     1     -33.018  19.048  -3.800  1.00 20.00     0.062 C 
HETATM    3  C9  UNL     1     -33.880  17.934  -3.191  1.00 20.00     0.145 C 
HETATM    4  N10 UNL     1     -36.291  18.865  -2.681  1.00 20.00    -0.194 NA
ENDROOT
BRANCH   3   5
HETATM    5  C6  UNL     1     -33.197  17.397  -1.914  1.00 20.00     0.057 C 
BRANCH   5   6
HETATM    6  C8  UNL     1     -32.862  18.420  -0.801  1.00 20.00    -0.019 C 
HETATM    7  C3  UNL     1     -33.719  18.121   0.435  1.00 20.00     0.009 C 
HETATM    8  C4  UNL     1     -31.387  18.434  -0.401  1.00 20.00     0.009 C 
ENDBRANCH   5   6
ENDBRANCH   3   5
BRANCH   3   9
HETATM    9  O11 UNL     1     -33.957  16.885  -4.156  1.00 20.00    -0.366 OA
BRANCH   9  10
HETATM   10  C7  UNL     1     -33.260  15.729  -3.718  1.00 20.00     0.165 C 
HETATM   11  C2  UNL     1     -33.975  14.498  -4.232  1.00 20.00     0.033 C 
ENDBRANCH   9  10
ENDBRANCH   3   9
TORSDOF 4
ENDMDL
MODEL 2
REMARK VINA RESULT:      -3.8     10.806     12.298
REMARK  4 active torsions:
REMARK  status: ('A' for Active; 'I' for Inactive)
REMARK    1  A    between atoms: C6_6  and  C8_8 
REMARK    2  A    between atoms: C6_6  and  C9_9 
REMARK    3  A    between atoms: C7_7  and  O11_11 
REMARK    4  A    between atoms: C9_9  and  O11_11 
ROOT
HETATM    1  C1  UNL     1     -41.824  14.027   4.723  1.00 20.00     0.097 C 
HETATM    2  C5  UNL     1     -42.663  13.168   6.867  1.00 20.00     0.062 C 
HETATM    3  C9  UNL     1     -41.416  13.510   6.041  1.00 20.00     0.145 C 
HETATM    4  N10 UNL     1     -42.147  14.431   3.683  1.00 20.00    -0.194 NA
ENDROOT
BRANCH   3   5
HETATM    5  C6  UNL     1     -40.526  12.255   5.910  1.00 20.00     0.057 C 
BRANCH   5   6
HETATM    6  C8  UNL     1     -39.218  12.392   5.092  1.00 20.00    -0.019 C 
HETATM    7  C3  UNL     1     -38.019  12.114   6.006  1.00 20.00     0.009 C 
HETATM    8  C4  UNL     1     -39.152  11.466   3.877  1.00 20.00     0.009 C 
ENDBRANCH   5   6
ENDBRANCH   3   5
BRANCH   3   9
HETATM    9  O11 UNL     1     -40.700  14.518   6.756  1.00 20.00    -0.366 OA
BRANCH   9  10
HETATM   10  C7  UNL     1     -40.542  14.167   8.122  1.00 20.00     0.165 C 
HETATM   11  C2  UNL     1     -40.266  15.420   8.924  1.00 20.00     0.033 C 
ENDBRANCH   9  10
ENDBRANCH   3   9
TORSDOF 4
ENDMDL
MODEL 3
REMARK VINA RESULT:      -3.6     11.571     12.847
REMARK  4 active torsions:
REMARK  status: ('A' for Active; 'I' for Inactive)
REMARK    1  A    between atoms: C6_6  and  C8_8 
REMARK    2  A    between atoms: C6_6  and  C9_9 
REMARK    3  A    between atoms: C7_7  and  O11_11 
REMARK    4  A    between atoms: C9_9  and  O11_11 
ROOT
HETATM    1  C1  UNL     1     -42.456  12.824   7.793  1.00 20.00     0.097 C 
HETATM    2  C5  UNL     1     -42.181  13.827   5.566  1.00 20.00     0.062 C 
HETATM    3  C9  UNL     1     -41.468  13.173   6.757  1.00 20.00     0.145 C 
HETATM    4  N10 UNL     1     -43.234  12.552   8.611  1.00 20.00    -0.194 NA
ENDROOT
BRANCH   3   5
HETATM    5  C6  UNL     1     -40.389  14.135   7.300  1.00 20.00     0.057 C 
BRANCH   5   6
HETATM    6  C8  UNL     1     -40.863  15.302   8.203  1.00 20.00    -0.019 C 
HETATM    7  C3  UNL     1     -40.129  15.231   9.547  1.00 20.00     0.009 C 
HETATM    8  C4  UNL     1     -40.652  16.683   7.584  1.00 20.00     0.009 C 
ENDBRANCH   5   6
ENDBRANCH   3   5
BRANCH   3   9
HETATM    9  O11 UNL     1     -40.836  11.989   6.272  1.00 20.00    -0.366 OA
BRANCH   9  10
HETATM   10  C7  UNL     1     -39.478  12.229   5.936  1.00 20.00     0.165 C 
HETATM   11  C2  UNL     1     -39.224  11.738   4.527  1.00 20.00     0.033 C 
ENDBRANCH   9  10
ENDBRANCH   3   9
TORSDOF 4
ENDMDL
MODEL 4
REMARK VINA RESULT:      -3.5      2.833      4.135
REMARK  4 active torsions:
REMARK  status: ('A' for Active; 'I' for Inactive)
REMARK    1  A    between atoms: C6_6  and  C8_8 
REMARK    2  A    between atoms: C6_6  and  C9_9 
REMARK    3  A    between atoms: C7_7  and  O11_11 
REMARK    4  A    between atoms: C9_9  and  O11_11 
ROOT
HETATM    1  C1  UNL     1     -34.097  15.208  -6.388  1.00 20.00     0.097 C 
HETATM    2  C5  UNL     1     -35.179  14.037  -4.518  1.00 20.00     0.062 C 
HETATM    3  C9  UNL     1     -34.631  15.377  -5.025  1.00 20.00     0.145 C 
HETATM    4  N10 UNL     1     -33.674  15.073  -7.461  1.00 20.00    -0.194 NA
ENDROOT
BRANCH   3   5
HETATM    5  C6  UNL     1     -33.549  15.891  -4.050  1.00 20.00     0.057 C 
BRANCH   5   6
HETATM    6  C8  UNL     1     -33.859  17.188  -3.262  1.00 20.00    -0.019 C 
HETATM    7  C3  UNL     1     -33.466  16.993  -1.792  1.00 20.00     0.009 C 
HETATM    8  C4  UNL     1     -33.152  18.426  -3.813  1.00 20.00     0.009 C 
ENDBRANCH   5   6
ENDBRANCH   3   5
BRANCH   3   9
HETATM    9  O11 UNL     1     -35.720  16.299  -5.042  1.00 20.00    -0.366 OA
BRANCH   9  10
HETATM   10  C7  UNL     1     -36.835  15.768  -5.743  1.00 20.00     0.165 C 
HETATM   11  C2  UNL     1     -38.101  16.399  -5.207  1.00 20.00     0.033 C 
ENDBRANCH   9  10
ENDBRANCH   3   9
TORSDOF 4
ENDMDL
MODEL 5
REMARK VINA RESULT:      -3.5     11.239     12.659
REMARK  4 active torsions:
REMARK  status: ('A' for Active; 'I' for Inactive)
REMARK    1  A    between atoms: C6_6  and  C8_8 
REMARK    2  A    between atoms: C6_6  and  C9_9 
REMARK    3  A    between atoms: C7_7  and  O11_11 
REMARK    4  A    between atoms: C9_9  and  O11_11 
ROOT
HETATM    1  C1  UNL     1     -40.762  13.610   7.715  1.00 20.00     0.097 C 
HETATM    2  C5  UNL     1     -42.740  12.366   6.955  1.00 20.00     0.062 C 
HETATM    3  C9  UNL     1     -41.374  12.940   6.555  1.00 20.00     0.145 C 
HETATM    4  N10 UNL     1     -40.281  14.142   8.629  1.00 20.00    -0.194 NA
ENDROOT
BRANCH   3   5
HETATM    5  C6  UNL     1     -41.553  13.909   5.366  1.00 20.00     0.057 C 
BRANCH   5   6
HETATM    6  C8  UNL     1     -42.943  14.569   5.188  1.00 20.00    -0.019 C 
HETATM    7  C3  UNL     1     -42.906  15.990   5.762  1.00 20.00     0.009 C 
HETATM    8  C4  UNL     1     -43.416  14.623   3.735  1.00 20.00     0.009 C 
ENDBRANCH   5   6
ENDBRANCH   3   5
BRANCH   3   9
HETATM    9  O11 UNL     1     -40.560  11.842   6.144  1.00 20.00    -0.366 OA
BRANCH   9  10
HETATM   10  C7  UNL     1     -39.321  12.289   5.615  1.00 20.00     0.165 C 
HETATM   11  C2  UNL     1     -39.070  11.596   4.293  1.00 20.00     0.033 C 
ENDBRANCH   9  10
ENDBRANCH   3   9
TORSDOF 4
ENDMDL
MODEL 6
REMARK VINA RESULT:      -3.4     11.280     12.254
REMARK  4 active torsions:
REMARK  status: ('A' for Active; 'I' for Inactive)
REMARK    1  A    between atoms: C6_6  and  C8_8 
REMARK    2  A    between atoms: C6_6  and  C9_9 
REMARK    3  A    between atoms: C7_7  and  O11_11 
REMARK    4  A    between atoms: C9_9  and  O11_11 
ROOT
HETATM    1  C1  UNL     1     -32.876   9.105   2.615  1.00 20.00     0.097 C 
HETATM    2  C5  UNL     1     -31.911   9.052   4.874  1.00 20.00     0.062 C 
HETATM    3  C9  UNL     1     -32.733   8.285   3.830  1.00 20.00     0.145 C 
HETATM    4  N10 UNL     1     -32.992   9.753   1.658  1.00 20.00    -0.194 NA
ENDROOT
BRANCH   3   5
HETATM    5  C6  UNL     1     -34.105   7.911   4.431  1.00 20.00     0.057 C 
BRANCH   5   6
HETATM    6  C8  UNL     1     -34.205   6.572   5.202  1.00 20.00    -0.019 C 
HETATM    7  C3  UNL     1     -34.312   6.861   6.705  1.00 20.00     0.009 C 
HETATM    8  C4  UNL     1     -35.384   5.700   4.770  1.00 20.00     0.009 C 
ENDBRANCH   5   6
ENDBRANCH   3   5
BRANCH   3   9
HETATM    9  O11 UNL     1     -32.015   7.089   3.525  1.00 20.00    -0.366 OA
BRANCH   9  10
HETATM   10  C7  UNL     1     -32.427   6.543   2.281  1.00 20.00     0.165 C 
HETATM   11  C2  UNL     1     -32.747   5.076   2.467  1.00 20.00     0.033 C 
ENDBRANCH   9  10
ENDBRANCH   3   9
TORSDOF 4
ENDMDL
MODEL 7
REMARK VINA RESULT:      -3.4     11.420     13.140
REMARK  4 active torsions:
REMARK  status: ('A' for Active; 'I' for Inactive)
REMARK    1  A    between atoms: C6_6  and  C8_8 
REMARK    2  A    between atoms: C6_6  and  C9_9 
REMARK    3  A    between atoms: C7_7  and  O11_11 
REMARK    4  A    between atoms: C9_9  and  O11_11 
ROOT
HETATM    1  C1  UNL     1     -42.705  14.662   6.745  1.00 20.00     0.097 C 
HETATM    2  C5  UNL     1     -42.649  12.215   6.967  1.00 20.00     0.062 C 
HETATM    3  C9  UNL     1     -41.818  13.505   6.960  1.00 20.00     0.145 C 
HETATM    4  N10 UNL     1     -43.404  15.573   6.571  1.00 20.00    -0.194 NA
ENDROOT
BRANCH   3   5
HETATM    5  C6  UNL     1     -40.731  13.410   5.867  1.00 20.00     0.057 C 
BRANCH   5   6
HETATM    6  C8  UNL     1     -39.961  12.071   5.744  1.00 20.00    -0.019 C 
HETATM    7  C3  UNL     1     -39.553  11.856   4.281  1.00 20.00     0.009 C 
HETATM    8  C4  UNL     1     -38.718  11.993   6.631  1.00 20.00     0.009 C 
ENDBRANCH   5   6
ENDBRANCH   3   5
BRANCH   3   9
HETATM    9  O11 UNL     1     -41.189  13.608   8.237  1.00 20.00    -0.366 OA
BRANCH   9  10
HETATM   10  C7  UNL     1     -40.360  14.758   8.312  1.00 20.00     0.165 C 
HETATM   11  C2  UNL     1     -40.256  15.197   9.757  1.00 20.00     0.033 C 
ENDBRANCH   9  10
ENDBRANCH   3   9
TORSDOF 4
ENDMDL
MODEL 8
REMARK VINA RESULT:      -3.4      3.187      5.264
REMARK  4 active torsions:
REMARK  status: ('A' for Active; 'I' for Inactive)
REMARK    1  A    between atoms: C6_6  and  C8_8 
REMARK    2  A    between atoms: C6_6  and  C9_9 
REMARK    3  A    between atoms: C7_7  and  O11_11 
REMARK    4  A    between atoms: C9_9  and  O11_11 
ROOT
HETATM    1  C1  UNL     1     -35.291  14.132  -4.766  1.00 20.00     0.097 C 
HETATM    2  C5  UNL     1     -33.988  15.143  -6.588  1.00 20.00     0.062 C 
HETATM    3  C9  UNL     1     -34.624  15.369  -5.210  1.00 20.00     0.145 C 
HETATM    4  N10 UNL     1     -35.820  13.159  -4.417  1.00 20.00    -0.194 NA
ENDROOT
BRANCH   3   5
HETATM    5  C6  UNL     1     -35.612  16.553  -5.289  1.00 20.00     0.057 C 
BRANCH   5   6
HETATM    6  C8  UNL     1     -37.035  16.259  -5.827  1.00 20.00    -0.019 C 
HETATM    7  C3  UNL     1     -38.070  16.914  -4.905  1.00 20.00     0.009 C 
HETATM    8  C4  UNL     1     -37.261  16.738  -7.261  1.00 20.00     0.009 C 
ENDBRANCH   5   6
ENDBRANCH   3   5
BRANCH   3   9
HETATM    9  O11 UNL     1     -33.568  15.701  -4.308  1.00 20.00    -0.366 OA
BRANCH   9  10
HETATM   10  C7  UNL     1     -33.818  16.935  -3.653  1.00 20.00     0.165 C 
HETATM   11  C2  UNL     1     -33.449  16.800  -2.192  1.00 20.00     0.033 C 
ENDBRANCH   9  10
ENDBRANCH   3   9
TORSDOF 4
ENDMDL
MODEL 9
REMARK VINA RESULT:      -3.4     24.713     25.694
REMARK  4 active torsions:
REMARK  status: ('A' for Active; 'I' for Inactive)
REMARK    1  A    between atoms: C6_6  and  C8_8 
REMARK    2  A    between atoms: C6_6  and  C9_9 
REMARK    3  A    between atoms: C7_7  and  O11_11 
REMARK    4  A    between atoms: C9_9  and  O11_11 
ROOT
HETATM    1  C1  UNL     1     -24.458  -1.958  11.629  1.00 20.00     0.097 C 
HETATM    2  C5  UNL     1     -24.413  -4.408  11.438  1.00 20.00     0.062 C 
HETATM    3  C9  UNL     1     -25.056  -3.109  10.931  1.00 20.00     0.145 C 
HETATM    4  N10 UNL     1     -23.988  -1.051  12.181  1.00 20.00    -0.194 NA
ENDROOT
BRANCH   3   5
HETATM    5  C6  UNL     1     -26.584  -3.175  11.147  1.00 20.00     0.057 C 
BRANCH   5   6
HETATM    6  C8  UNL     1     -27.486  -2.564  10.046  1.00 20.00    -0.019 C 
HETATM    7  C3  UNL     1     -28.806  -3.343   9.985  1.00 20.00     0.009 C 
HETATM    8  C4  UNL     1     -27.785  -1.079  10.249  1.00 20.00     0.009 C 
ENDBRANCH   5   6
ENDBRANCH   3   5
BRANCH   3   9
HETATM    9  O11 UNL     1     -24.786  -3.023   9.532  1.00 20.00    -0.366 OA
BRANCH   9  10
HETATM   10  C7  UNL     1     -23.403  -3.200   9.262  1.00 20.00     0.165 C 
HETATM   11  C2  UNL     1     -23.190  -3.200   7.764  1.00 20.00     0.033 C 
ENDBRANCH   9  10
ENDBRANCH   3   9
TORSDOF 4
ENDMDL
