MODEL 1
REMARK VINA RESULT:      -3.9      0.000      0.000
REMARK  4 active torsions:
REMARK  status: ('A' for Active; 'I' for Inactive)
REMARK    1  A    between atoms: C3_3  and  C6_6 
REMARK    2  A    between atoms: C3_3  and  C7_7 
REMARK    3  A    between atoms: C6_6  and  C8_8 
REMARK    4  A    between atoms: C8_8  and  C9_9 
ROOT
HETATM    1  C1  UNL     1     -32.499   9.530   3.737  1.00 20.00     0.011 A 
HETATM    2  C2  UNL     1     -31.845   8.770   4.854  1.00 20.00     0.011 A 
HETATM    3  C3  UNL     1     -32.717   8.040   3.860  1.00 20.00    -0.028 A 
ENDROOT
BRANCH   3   4
HETATM    4  C6  UNL     1     -34.081   7.554   4.329  1.00 20.00     0.011 C 
BRANCH   4   5
HETATM    5  C8  UNL     1     -34.087   7.278   5.834  1.00 20.00     0.005 C 
BRANCH   5   6
HETATM    6  C9  UNL     1     -34.673   5.901   6.201  1.00 20.00    -0.023 C 
HETATM    7  C4  UNL     1     -33.562   4.987   6.723  1.00 20.00     0.009 C 
HETATM    8  C5  UNL     1     -35.379   5.232   5.021  1.00 20.00     0.009 C 
ENDBRANCH   5   6
ENDBRANCH   4   5
ENDBRANCH   3   4
BRANCH   3   9
HETATM    9  C7  UNL     1     -32.045   7.143   2.856  1.00 20.00     0.124 C 
HETATM   10 CL10 UNL     1     -32.889   5.581   2.738  1.00 20.00    -0.130 Cl
ENDBRANCH   3   9
TORSDOF 4
ENDMDL
MODEL 2
REMARK VINA RESULT:      -3.8      1.579      2.150
REMARK  4 active torsions:
REMARK  status: ('A' for Active; 'I' for Inactive)
REMARK    1  A    between atoms: C3_3  and  C6_6 
REMARK    2  A    between atoms: C3_3  and  C7_7 
REMARK    3  A    between atoms: C6_6  and  C8_8 
REMARK    4  A    between atoms: C8_8  and  C9_9 
ROOT
HETATM    1  C1  UNL     1     -31.283   7.672   3.719  1.00 20.00     0.011 A 
HETATM    2  C2  UNL     1     -32.267   7.138   2.720  1.00 20.00     0.011 A 
HETATM    3  C3  UNL     1     -32.698   8.202   3.701  1.00 20.00    -0.028 A 
ENDROOT
BRANCH   3   4
HETATM    4  C6  UNL     1     -33.627   7.793   4.835  1.00 20.00     0.011 C 
BRANCH   4   5
HETATM    5  C8  UNL     1     -34.770   6.910   4.328  1.00 20.00     0.005 C 
BRANCH   5   6
HETATM    6  C9  UNL     1     -34.877   5.562   5.066  1.00 20.00    -0.023 C 
HETATM    7  C4  UNL     1     -34.439   5.732   6.522  1.00 20.00     0.009 C 
HETATM    8  C5  UNL     1     -34.044   4.465   4.401  1.00 20.00     0.009 C 
ENDBRANCH   5   6
ENDBRANCH   4   5
ENDBRANCH   3   4
BRANCH   3   9
HETATM    9  C7  UNL     1     -32.923   9.594   3.180  1.00 20.00     0.124 C 
HETATM   10 CL10 UNL     1     -32.939   9.608   1.400  1.00 20.00    -0.130 Cl
ENDBRANCH   3   9
TORSDOF 4
ENDMDL
MODEL 3
REMARK VINA RESULT:      -3.7     11.990     12.842
REMARK  4 active torsions:
REMARK  status: ('A' for Active; 'I' for Inactive)
REMARK    1  A    between atoms: C3_3  and  C6_6 
REMARK    2  A    between atoms: C3_3  and  C7_7 
REMARK    3  A    between atoms: C6_6  and  C8_8 
REMARK    4  A    between atoms: C8_8  and  C9_9 
ROOT
HETATM    1  C1  UNL     1     -32.708  15.098  -4.223  1.00 20.00     0.011 A 
HETATM    2  C2  UNL     1     -34.130  14.746  -3.895  1.00 20.00     0.011 A 
HETATM    3  C3  UNL     1     -33.640  16.160  -3.689  1.00 20.00    -0.028 A 
ENDROOT
BRANCH   3   4
HETATM    4  C6  UNL     1     -33.430  16.640  -2.260  1.00 20.00     0.011 C 
BRANCH   4   5
HETATM    5  C8  UNL     1     -33.258  18.160  -2.204  1.00 20.00     0.005 C 
BRANCH   5   6
HETATM    6  C9  UNL     1     -32.917  18.686  -0.796  1.00 20.00    -0.023 C 
HETATM    7  C4  UNL     1     -31.441  18.428  -0.490  1.00 20.00     0.009 C 
HETATM    8  C5  UNL     1     -33.788  18.054   0.291  1.00 20.00     0.009 C 
ENDBRANCH   5   6
ENDBRANCH   4   5
ENDBRANCH   3   4
BRANCH   3   9
HETATM    9  C7  UNL     1     -34.122  17.220  -4.641  1.00 20.00     0.124 C 
HETATM   10 CL10 UNL     1     -35.849  16.999  -5.011  1.00 20.00    -0.130 Cl
ENDBRANCH   3   9
TORSDOF 4
ENDMDL
MODEL 4
REMARK VINA RESULT:      -3.6      0.950      4.006
REMARK  4 active torsions:
REMARK  status: ('A' for Active; 'I' for Inactive)
REMARK    1  A    between atoms: C3_3  and  C6_6 
REMARK    2  A    between atoms: C3_3  and  C7_7 
REMARK    3  A    between atoms: C6_6  and  C8_8 
REMARK    4  A    between atoms: C8_8  and  C9_9 
ROOT
HETATM    1  C1  UNL     1     -33.921   5.062   6.475  1.00 20.00     0.011 A 
HETATM    2  C2  UNL     1     -35.104   5.948   6.738  1.00 20.00     0.011 A 
HETATM    3  C3  UNL     1     -34.225   6.207   5.537  1.00 20.00    -0.028 A 
ENDROOT
BRANCH   3   4
HETATM    4  C6  UNL     1     -33.308   7.421   5.574  1.00 20.00     0.011 C 
BRANCH   4   5
HETATM    5  C8  UNL     1     -33.678   8.431   4.485  1.00 20.00     0.005 C 
BRANCH   5   6
HETATM    6  C9  UNL     1     -32.492   8.818   3.580  1.00 20.00    -0.023 C 
HETATM    7  C4  UNL     1     -33.011   9.438   2.281  1.00 20.00     0.009 C 
HETATM    8  C5  UNL     1     -31.590   7.625   3.258  1.00 20.00     0.009 C 
ENDBRANCH   5   6
ENDBRANCH   4   5
ENDBRANCH   3   4
BRANCH   3   9
HETATM    9  C7  UNL     1     -34.773   5.878   4.176  1.00 20.00     0.124 C 
HETATM   10 CL10 UNL     1     -33.555   5.033   3.191  1.00 20.00    -0.130 Cl
ENDBRANCH   3   9
TORSDOF 4
ENDMDL
MODEL 5
REMARK VINA RESULT:      -3.5     11.894     12.803
REMARK  4 active torsions:
REMARK  status: ('A' for Active; 'I' for Inactive)
REMARK    1  A    between atoms: C3_3  and  C6_6 
REMARK    2  A    between atoms: C3_3  and  C7_7 
REMARK    3  A    between atoms: C6_6  and  C8_8 
REMARK    4  A    between atoms: C8_8  and  C9_9 
ROOT
HETATM    1  C1  UNL     1     -34.421  19.027  -0.485  1.00 20.00     0.011 A 
HETATM    2  C2  UNL     1     -33.886  18.046   0.517  1.00 20.00     0.011 A 
HETATM    3  C3  UNL     1     -33.317  18.075  -0.881  1.00 20.00    -0.028 A 
ENDROOT
BRANCH   3   4
HETATM    4  C6  UNL     1     -33.666  16.928  -1.817  1.00 20.00     0.011 C 
BRANCH   4   5
HETATM    5  C8  UNL     1     -32.987  17.093  -3.179  1.00 20.00     0.005 C 
BRANCH   5   6
HETATM    6  C9  UNL     1     -33.682  16.310  -4.309  1.00 20.00    -0.023 C 
HETATM    7  C4  UNL     1     -35.017  16.973  -4.655  1.00 20.00     0.009 C 
HETATM    8  C5  UNL     1     -33.914  14.842  -3.947  1.00 20.00     0.009 C 
ENDBRANCH   5   6
ENDBRANCH   4   5
ENDBRANCH   3   4
BRANCH   3   9
HETATM    9  C7  UNL     1     -31.934  18.637  -1.069  1.00 20.00     0.124 C 
HETATM   10 CL10 UNL     1     -30.937  18.361   0.379  1.00 20.00    -0.130 Cl
ENDBRANCH   3   9
TORSDOF 4
ENDMDL
MODEL 6
REMARK VINA RESULT:      -3.4      1.683      4.159
REMARK  4 active torsions:
REMARK  status: ('A' for Active; 'I' for Inactive)
REMARK    1  A    between atoms: C3_3  and  C6_6 
REMARK    2  A    between atoms: C3_3  and  C7_7 
REMARK    3  A    between atoms: C6_6  and  C8_8 
REMARK    4  A    between atoms: C8_8  and  C9_9 
ROOT
HETATM    1  C1  UNL     1     -35.697   5.909   4.362  1.00 20.00     0.011 A 
HETATM    2  C2  UNL     1     -34.299   5.387   4.198  1.00 20.00     0.011 A 
HETATM    3  C3  UNL     1     -34.556   6.574   5.095  1.00 20.00    -0.028 A 
ENDROOT
BRANCH   3   4
HETATM    4  C6  UNL     1     -34.101   7.944   4.614  1.00 20.00     0.011 C 
BRANCH   4   5
HETATM    5  C8  UNL     1     -32.574   8.037   4.560  1.00 20.00     0.005 C 
BRANCH   5   6
HETATM    6  C9  UNL     1     -32.021   8.199   3.131  1.00 20.00    -0.023 C 
HETATM    7  C4  UNL     1     -32.796   9.294   2.396  1.00 20.00     0.009 C 
HETATM    8  C5  UNL     1     -32.081   6.897   2.331  1.00 20.00     0.009 C 
ENDBRANCH   5   6
ENDBRANCH   4   5
ENDBRANCH   3   4
BRANCH   3   9
HETATM    9  C7  UNL     1     -34.458   6.369   6.582  1.00 20.00     0.124 C 
HETATM   10 CL10 UNL     1     -33.560   4.879   6.958  1.00 20.00    -0.130 Cl
ENDBRANCH   3   9
TORSDOF 4
ENDMDL
MODEL 7
REMARK VINA RESULT:      -3.4      1.978      4.554
REMARK  4 active torsions:
REMARK  status: ('A' for Active; 'I' for Inactive)
REMARK    1  A    between atoms: C3_3  and  C6_6 
REMARK    2  A    between atoms: C3_3  and  C7_7 
REMARK    3  A    between atoms: C6_6  and  C8_8 
REMARK    4  A    between atoms: C8_8  and  C9_9 
ROOT
HETATM    1  C1  UNL     1     -35.415   5.810   4.204  1.00 20.00     0.011 A 
HETATM    2  C2  UNL     1     -34.497   4.969   5.043  1.00 20.00     0.011 A 
HETATM    3  C3  UNL     1     -33.970   6.215   4.374  1.00 20.00    -0.028 A 
ENDROOT
BRANCH   3   4
HETATM    4  C6  UNL     1     -33.037   6.046   3.184  1.00 20.00     0.011 C 
BRANCH   4   5
HETATM    5  C8  UNL     1     -32.192   7.301   2.955  1.00 20.00     0.005 C 
BRANCH   5   6
HETATM    6  C9  UNL     1     -32.748   8.221   1.851  1.00 20.00    -0.023 C 
HETATM    7  C4  UNL     1     -31.855   8.142   0.611  1.00 20.00     0.009 C 
HETATM    8  C5  UNL     1     -32.869   9.676   2.309  1.00 20.00     0.009 C 
ENDBRANCH   5   6
ENDBRANCH   4   5
ENDBRANCH   3   4
BRANCH   3   9
HETATM    9  C7  UNL     1     -33.668   7.408   5.240  1.00 20.00     0.124 C 
HETATM   10 CL10 UNL     1     -34.212   7.130   6.912  1.00 20.00    -0.130 Cl
ENDBRANCH   3   9
TORSDOF 4
ENDMDL
MODEL 8
REMARK VINA RESULT:      -3.4     12.108     13.139
REMARK  4 active torsions:
REMARK  status: ('A' for Active; 'I' for Inactive)
REMARK    1  A    between atoms: C3_3  and  C6_6 
REMARK    2  A    between atoms: C3_3  and  C7_7 
REMARK    3  A    between atoms: C6_6  and  C8_8 
REMARK    4  A    between atoms: C8_8  and  C9_9 
ROOT
HETATM    1  C1  UNL     1     -33.505  14.862  -5.347  1.00 20.00     0.011 A 
HETATM    2  C2  UNL     1     -34.262  14.495  -4.104  1.00 20.00     0.011 A 
HETATM    3  C3  UNL     1     -34.225  15.934  -4.563  1.00 20.00    -0.028 A 
ENDROOT
BRANCH   3   4
HETATM    4  C6  UNL     1     -33.384  16.917  -3.761  1.00 20.00     0.011 C 
BRANCH   4   5
HETATM    5  C8  UNL     1     -33.487  16.642  -2.259  1.00 20.00     0.005 C 
BRANCH   5   6
HETATM    6  C9  UNL     1     -32.848  17.743  -1.390  1.00 20.00    -0.023 C 
HETATM    7  C4  UNL     1     -33.734  18.023  -0.174  1.00 20.00     0.009 C 
HETATM    8  C5  UNL     1     -32.613  19.039  -2.168  1.00 20.00     0.009 C 
ENDBRANCH   5   6
ENDBRANCH   4   5
ENDBRANCH   3   4
BRANCH   3   9
HETATM    9  C7  UNL     1     -35.478  16.519  -5.153  1.00 20.00     0.124 C 
HETATM   10 CL10 UNL     1     -35.734  18.183  -4.574  1.00 20.00    -0.130 Cl
ENDBRANCH   3   9
TORSDOF 4
ENDMDL
MODEL 9
REMARK VINA RESULT:      -3.4     11.978     12.946
REMARK  4 active torsions:
REMARK  status: ('A' for Active; 'I' for Inactive)
REMARK    1  A    between atoms: C3_3  and  C6_6 
REMARK    2  A    between atoms: C3_3  and  C7_7 
REMARK    3  A    between atoms: C6_6  and  C8_8 
REMARK    4  A    between atoms: C8_8  and  C9_9 
ROOT
HETATM    1  C1  UNL     1     -33.307  18.151  -0.059  1.00 20.00     0.011 A 
HETATM    2  C2  UNL     1     -32.093  18.298  -0.930  1.00 20.00     0.011 A 
HETATM    3  C3  UNL     1     -33.437  18.014  -1.557  1.00 20.00    -0.028 A 
ENDROOT
BRANCH   3   4
HETATM    4  C6  UNL     1     -33.678  16.623  -2.127  1.00 20.00     0.011 C 
BRANCH   4   5
HETATM    5  C8  UNL     1     -32.918  16.420  -3.441  1.00 20.00     0.005 C 
BRANCH   5   6
HETATM    6  C9  UNL     1     -33.751  15.711  -4.526  1.00 20.00    -0.023 C 
HETATM    7  C4  UNL     1     -34.931  16.595  -4.934  1.00 20.00     0.009 C 
HETATM    8  C5  UNL     1     -34.263  14.344  -4.071  1.00 20.00     0.009 C 
ENDBRANCH   5   6
ENDBRANCH   4   5
ENDBRANCH   3   4
BRANCH   3   9
HETATM    9  C7  UNL     1     -34.113  19.125  -2.312  1.00 20.00     0.124 C 
HETATM   10 CL10 UNL     1     -35.876  18.884  -2.348  1.00 20.00    -0.130 Cl
ENDBRANCH   3   9
TORSDOF 4
ENDMDL
