MODEL 1
REMARK VINA RESULT:      -4.7      0.000      0.000
REMARK  5 active torsions:
REMARK  status: ('A' for Active; 'I' for Inactive)
REMARK    1  A    between atoms: C2_2  and  C5_5 
REMARK    2  A    between atoms: C2_2  and  C6_6 
REMARK    3  A    between atoms: C6_6  and  C7_7 
REMARK    4  A    between atoms: C7_7  and  C8_8 
REMARK    5  A    between atoms: C8_8  and  C9_9 
ROOT
HETATM    1  C6  UNL     1     -32.323   8.050   4.039  1.00 20.00     0.033 C 
ENDROOT
BRANCH   1   2
HETATM    2  C2  UNL     1     -32.372   7.304   2.720  1.00 20.00    -0.090 C 
HETATM    3  C1  UNL     1     -32.609   5.981   2.710  1.00 20.00     0.014 C 
BRANCH   2   4
HETATM    4  C5  UNL     1     -32.105   8.137   1.484  1.00 20.00     0.029 C 
HETATM    5  C3  UNL     1     -32.834   9.472   1.373  1.00 20.00     0.010 C 
ENDBRANCH   2   4
ENDBRANCH   1   2
BRANCH   1   6
HETATM    6  C7  UNL     1     -33.692   8.122   4.727  1.00 20.00     0.006 C 
BRANCH   6   7
HETATM    7  C8  UNL     1     -33.701   7.302   6.024  1.00 20.00     0.020 C 
BRANCH   7   8
HETATM    8  C9  UNL     1     -34.740   6.174   6.022  1.00 20.00     0.078 C 
HETATM    9  C4  UNL     1     -34.090   4.827   6.313  1.00 20.00     0.026 C 
HETATM   10 CL10 UNL     1     -35.584   6.081   4.447  1.00 20.00    -0.125 Cl
ENDBRANCH   7   8
ENDBRANCH   6   7
ENDBRANCH   1   6
TORSDOF 5
ENDMDL
MODEL 2
REMARK VINA RESULT:      -4.4      0.689      1.778
REMARK  5 active torsions:
REMARK  status: ('A' for Active; 'I' for Inactive)
REMARK    1  A    between atoms: C2_2  and  C5_5 
REMARK    2  A    between atoms: C2_2  and  C6_6 
REMARK    3  A    between atoms: C6_6  and  C7_7 
REMARK    4  A    between atoms: C7_7  and  C8_8 
REMARK    5  A    between atoms: C8_8  and  C9_9 
ROOT
HETATM    1  C6  UNL     1     -32.468   8.466   4.649  1.00 20.00     0.033 C 
ENDROOT
BRANCH   1   2
HETATM    2  C2  UNL     1     -32.383   8.133   3.173  1.00 20.00    -0.090 C 
HETATM    3  C1  UNL     1     -32.752   9.048   2.259  1.00 20.00     0.014 C 
BRANCH   2   4
HETATM    4  C5  UNL     1     -31.903   6.735   2.840  1.00 20.00     0.029 C 
HETATM    5  C3  UNL     1     -32.969   5.665   2.633  1.00 20.00     0.010 C 
ENDBRANCH   2   4
ENDBRANCH   1   2
BRANCH   1   6
HETATM    6  C7  UNL     1     -33.862   8.207   5.233  1.00 20.00     0.006 C 
BRANCH   6   7
HETATM    7  C8  UNL     1     -33.815   7.114   6.308  1.00 20.00     0.020 C 
BRANCH   7   8
HETATM    8  C9  UNL     1     -34.798   5.964   6.050  1.00 20.00     0.078 C 
HETATM    9  C4  UNL     1     -34.089   4.616   6.091  1.00 20.00     0.026 C 
HETATM   10 CL10 UNL     1     -35.597   6.148   4.459  1.00 20.00    -0.125 Cl
ENDBRANCH   7   8
ENDBRANCH   6   7
ENDBRANCH   1   6
TORSDOF 5
ENDMDL
MODEL 3
REMARK VINA RESULT:      -4.2      1.890      4.479
REMARK  5 active torsions:
REMARK  status: ('A' for Active; 'I' for Inactive)
REMARK    1  A    between atoms: C2_2  and  C5_5 
REMARK    2  A    between atoms: C2_2  and  C6_6 
REMARK    3  A    between atoms: C6_6  and  C7_7 
REMARK    4  A    between atoms: C7_7  and  C8_8 
REMARK    5  A    between atoms: C8_8  and  C9_9 
ROOT
HETATM    1  C6  UNL     1     -33.739   4.839   3.801  1.00 20.00     0.033 C 
ENDROOT
BRANCH   1   2
HETATM    2  C2  UNL     1     -34.803   5.496   4.658  1.00 20.00    -0.090 C 
HETATM    3  C1  UNL     1     -35.904   6.008   4.081  1.00 20.00     0.014 C 
BRANCH   2   4
HETATM    4  C5  UNL     1     -34.508   5.552   6.143  1.00 20.00     0.029 C 
HETATM    5  C3  UNL     1     -34.179   6.917   6.737  1.00 20.00     0.010 C 
ENDBRANCH   2   4
ENDBRANCH   1   2
BRANCH   1   6
HETATM    6  C7  UNL     1     -33.201   5.772   2.710  1.00 20.00     0.006 C 
BRANCH   6   7
HETATM    7  C8  UNL     1     -32.249   6.820   3.301  1.00 20.00     0.020 C 
BRANCH   7   8
HETATM    8  C9  UNL     1     -32.885   8.209   3.440  1.00 20.00     0.078 C 
HETATM    9  C4  UNL     1     -32.664   9.043   2.185  1.00 20.00     0.026 C 
HETATM   10 CL10 UNL     1     -32.208   9.087   4.844  1.00 20.00    -0.125 Cl
ENDBRANCH   7   8
ENDBRANCH   6   7
ENDBRANCH   1   6
TORSDOF 5
ENDMDL
MODEL 4
REMARK VINA RESULT:      -4.2      1.426      2.316
REMARK  5 active torsions:
REMARK  status: ('A' for Active; 'I' for Inactive)
REMARK    1  A    between atoms: C2_2  and  C5_5 
REMARK    2  A    between atoms: C2_2  and  C6_6 
REMARK    3  A    between atoms: C6_6  and  C7_7 
REMARK    4  A    between atoms: C7_7  and  C8_8 
REMARK    5  A    between atoms: C8_8  and  C9_9 
ROOT
HETATM    1  C6  UNL     1     -32.157   6.707   2.942  1.00 20.00     0.033 C 
ENDROOT
BRANCH   1   2
HETATM    2  C2  UNL     1     -32.517   8.112   3.384  1.00 20.00    -0.090 C 
HETATM    3  C1  UNL     1     -32.604   8.399   4.695  1.00 20.00     0.014 C 
BRANCH   2   4
HETATM    4  C5  UNL     1     -32.793   9.101   2.270  1.00 20.00     0.029 C 
HETATM    5  C3  UNL     1     -32.319   8.723   0.871  1.00 20.00     0.010 C 
ENDBRANCH   2   4
ENDBRANCH   1   2
BRANCH   1   6
HETATM    6  C7  UNL     1     -33.383   5.796   2.813  1.00 20.00     0.006 C 
BRANCH   6   7
HETATM    7  C8  UNL     1     -33.467   4.816   3.990  1.00 20.00     0.020 C 
BRANCH   7   8
HETATM    8  C9  UNL     1     -34.686   5.052   4.891  1.00 20.00     0.078 C 
HETATM    9  C4  UNL     1     -35.617   6.100   4.294  1.00 20.00     0.026 C 
HETATM   10 CL10 UNL     1     -34.184   5.588   6.522  1.00 20.00    -0.125 Cl
ENDBRANCH   7   8
ENDBRANCH   6   7
ENDBRANCH   1   6
TORSDOF 5
ENDMDL
MODEL 5
REMARK VINA RESULT:      -4.2      2.138      3.864
REMARK  5 active torsions:
REMARK  status: ('A' for Active; 'I' for Inactive)
REMARK    1  A    between atoms: C2_2  and  C5_5 
REMARK    2  A    between atoms: C2_2  and  C6_6 
REMARK    3  A    between atoms: C6_6  and  C7_7 
REMARK    4  A    between atoms: C7_7  and  C8_8 
REMARK    5  A    between atoms: C8_8  and  C9_9 
ROOT
HETATM    1  C6  UNL     1     -34.590   5.747   6.233  1.00 20.00     0.033 C 
ENDROOT
BRANCH   1   2
HETATM    2  C2  UNL     1     -34.843   5.415   4.775  1.00 20.00    -0.090 C 
HETATM    3  C1  UNL     1     -35.936   5.899   4.159  1.00 20.00     0.014 C 
BRANCH   2   4
HETATM    4  C5  UNL     1     -33.823   4.505   4.121  1.00 20.00     0.029 C 
HETATM    5  C3  UNL     1     -33.153   5.012   2.849  1.00 20.00     0.010 C 
ENDBRANCH   2   4
ENDBRANCH   1   2
BRANCH   1   6
HETATM    6  C7  UNL     1     -33.718   6.995   6.411  1.00 20.00     0.006 C 
BRANCH   6   7
HETATM    7  C8  UNL     1     -33.844   7.933   5.204  1.00 20.00     0.020 C 
BRANCH   7   8
HETATM    8  C9  UNL     1     -32.500   8.246   4.534  1.00 20.00     0.078 C 
HETATM    9  C4  UNL     1     -31.853   9.481   5.150  1.00 20.00     0.026 C 
HETATM   10 CL10 UNL     1     -32.705   8.517   2.778  1.00 20.00    -0.125 Cl
ENDBRANCH   7   8
ENDBRANCH   6   7
ENDBRANCH   1   6
TORSDOF 5
ENDMDL
MODEL 6
REMARK VINA RESULT:      -4.2      2.104      4.205
REMARK  5 active torsions:
REMARK  status: ('A' for Active; 'I' for Inactive)
REMARK    1  A    between atoms: C2_2  and  C5_5 
REMARK    2  A    between atoms: C2_2  and  C6_6 
REMARK    3  A    between atoms: C6_6  and  C7_7 
REMARK    4  A    between atoms: C7_7  and  C8_8 
REMARK    5  A    between atoms: C8_8  and  C9_9 
ROOT
HETATM    1  C6  UNL     1     -34.115   7.784   5.555  1.00 20.00     0.033 C 
ENDROOT
BRANCH   1   2
HETATM    2  C2  UNL     1     -34.487   6.315   5.588  1.00 20.00    -0.090 C 
HETATM    3  C1  UNL     1     -34.497   5.653   6.758  1.00 20.00     0.014 C 
BRANCH   2   4
HETATM    4  C5  UNL     1     -34.795   5.685   4.244  1.00 20.00     0.029 C 
HETATM    5  C3  UNL     1     -33.859   4.582   3.762  1.00 20.00     0.010 C 
ENDBRANCH   2   4
ENDBRANCH   1   2
BRANCH   1   6
HETATM    6  C7  UNL     1     -32.634   8.011   5.231  1.00 20.00     0.006 C 
BRANCH   6   7
HETATM    7  C8  UNL     1     -32.467   9.035   4.102  1.00 20.00     0.020 C 
BRANCH   7   8
HETATM    8  C9  UNL     1     -32.918   8.510   2.733  1.00 20.00     0.078 C 
HETATM    9  C4  UNL     1     -32.049   7.344   2.278  1.00 20.00     0.026 C 
HETATM   10 CL10 UNL     1     -32.848   9.800   1.496  1.00 20.00    -0.125 Cl
ENDBRANCH   7   8
ENDBRANCH   6   7
ENDBRANCH   1   6
TORSDOF 5
ENDMDL
MODEL 7
REMARK VINA RESULT:      -4.2      1.438      2.776
REMARK  5 active torsions:
REMARK  status: ('A' for Active; 'I' for Inactive)
REMARK    1  A    between atoms: C2_2  and  C5_5 
REMARK    2  A    between atoms: C2_2  and  C6_6 
REMARK    3  A    between atoms: C6_6  and  C7_7 
REMARK    4  A    between atoms: C7_7  and  C8_8 
REMARK    5  A    between atoms: C8_8  and  C9_9 
ROOT
HETATM    1  C6  UNL     1     -32.152   6.362   2.827  1.00 20.00     0.033 C 
ENDROOT
BRANCH   1   2
HETATM    2  C2  UNL     1     -32.371   7.845   3.054  1.00 20.00    -0.090 C 
HETATM    3  C1  UNL     1     -32.680   8.641   2.016  1.00 20.00     0.014 C 
BRANCH   2   4
HETATM    4  C5  UNL     1     -32.183   8.326   4.478  1.00 20.00     0.029 C 
HETATM    5  C3  UNL     1     -33.440   8.520   5.319  1.00 20.00     0.010 C 
ENDBRANCH   2   4
ENDBRANCH   1   2
BRANCH   1   6
HETATM    6  C7  UNL     1     -33.465   5.570   2.789  1.00 20.00     0.006 C 
BRANCH   6   7
HETATM    7  C8  UNL     1     -33.577   4.631   3.997  1.00 20.00     0.020 C 
BRANCH   7   8
HETATM    8  C9  UNL     1     -34.788   4.932   4.890  1.00 20.00     0.078 C 
HETATM    9  C4  UNL     1     -35.634   6.057   4.307  1.00 20.00     0.026 C 
HETATM   10 CL10 UNL     1     -34.269   5.394   6.539  1.00 20.00    -0.125 Cl
ENDBRANCH   7   8
ENDBRANCH   6   7
ENDBRANCH   1   6
TORSDOF 5
ENDMDL
MODEL 8
REMARK VINA RESULT:      -4.1      1.040      2.128
REMARK  5 active torsions:
REMARK  status: ('A' for Active; 'I' for Inactive)
REMARK    1  A    between atoms: C2_2  and  C5_5 
REMARK    2  A    between atoms: C2_2  and  C6_6 
REMARK    3  A    between atoms: C6_6  and  C7_7 
REMARK    4  A    between atoms: C7_7  and  C8_8 
REMARK    5  A    between atoms: C8_8  and  C9_9 
ROOT
HETATM    1  C6  UNL     1     -33.806   7.843   5.295  1.00 20.00     0.033 C 
ENDROOT
BRANCH   1   2
HETATM    2  C2  UNL     1     -32.600   8.291   4.493  1.00 20.00    -0.090 C 
HETATM    3  C1  UNL     1     -31.962   9.427   4.822  1.00 20.00     0.014 C 
BRANCH   2   4
HETATM    4  C5  UNL     1     -32.222   7.404   3.324  1.00 20.00     0.029 C 
HETATM    5  C3  UNL     1     -32.245   8.035   1.936  1.00 20.00     0.010 C 
ENDBRANCH   2   4
ENDBRANCH   1   2
BRANCH   1   6
HETATM    6  C7  UNL     1     -33.477   6.706   6.270  1.00 20.00     0.006 C 
BRANCH   6   7
HETATM    7  C8  UNL     1     -34.686   5.782   6.466  1.00 20.00     0.020 C 
BRANCH   7   8
HETATM    8  C9  UNL     1     -35.096   5.039   5.188  1.00 20.00     0.078 C 
HETATM    9  C4  UNL     1     -33.880   4.462   4.474  1.00 20.00     0.026 C 
HETATM   10 CL10 UNL     1     -35.964   6.126   4.064  1.00 20.00    -0.125 Cl
ENDBRANCH   7   8
ENDBRANCH   6   7
ENDBRANCH   1   6
TORSDOF 5
ENDMDL
MODEL 9
REMARK VINA RESULT:      -4.0      1.642      4.423
REMARK  5 active torsions:
REMARK  status: ('A' for Active; 'I' for Inactive)
REMARK    1  A    between atoms: C2_2  and  C5_5 
REMARK    2  A    between atoms: C2_2  and  C6_6 
REMARK    3  A    between atoms: C6_6  and  C7_7 
REMARK    4  A    between atoms: C7_7  and  C8_8 
REMARK    5  A    between atoms: C8_8  and  C9_9 
ROOT
HETATM    1  C6  UNL     1     -33.848   8.282   5.338  1.00 20.00     0.033 C 
ENDROOT
BRANCH   1   2
HETATM    2  C2  UNL     1     -34.096   6.853   5.781  1.00 20.00    -0.090 C 
HETATM    3  C1  UNL     1     -33.529   6.396   6.912  1.00 20.00     0.014 C 
BRANCH   2   4
HETATM    4  C5  UNL     1     -34.965   6.021   4.861  1.00 20.00     0.029 C 
HETATM    5  C3  UNL     1     -34.539   4.578   4.617  1.00 20.00     0.010 C 
ENDBRANCH   2   4
ENDBRANCH   1   2
BRANCH   1   6
HETATM    6  C7  UNL     1     -32.480   8.464   4.671  1.00 20.00     0.006 C 
BRANCH   6   7
HETATM    7  C8  UNL     1     -32.634   8.911   3.211  1.00 20.00     0.020 C 
BRANCH   7   8
HETATM    8  C9  UNL     1     -31.955   7.966   2.211  1.00 20.00     0.078 C 
HETATM    9  C4  UNL     1     -32.247   8.385   0.776  1.00 20.00     0.026 C 
HETATM   10 CL10 UNL     1     -32.506   6.280   2.445  1.00 20.00    -0.125 Cl
ENDBRANCH   7   8
ENDBRANCH   6   7
ENDBRANCH   1   6
TORSDOF 5
ENDMDL
