MODEL 1
REMARK VINA RESULT:      -3.6      0.000      0.000
REMARK  2 active torsions:
REMARK  status: ('A' for Active; 'I' for Inactive)
REMARK    1  A    between atoms: C6_6  and  O10_10 
REMARK    2  A    between atoms: C8_8  and  O10_10 
ROOT
HETATM    1  C1  UNL     1     -41.667  14.008   4.699  1.00 20.00     0.098 C 
HETATM    2  C2  UNL     1     -42.668  14.598   7.573  1.00 20.00     0.004 C 
HETATM    3  C3  UNL     1     -43.156  13.177   7.286  1.00 20.00     0.004 C 
HETATM    4  C4  UNL     1     -41.233  14.667   7.059  1.00 20.00     0.053 C 
HETATM    5  C5  UNL     1     -41.989  12.458   6.612  1.00 20.00     0.053 C 
HETATM    6  C6  UNL     1     -41.141  13.570   6.000  1.00 20.00     0.148 C 
HETATM    7  N9  UNL     1     -42.083  14.353   3.672  1.00 20.00    -0.194 NA
ENDROOT
BRANCH   6   8
HETATM    8  O10 UNL     1     -39.800  13.127   5.848  1.00 20.00    -0.366 OA
BRANCH   8   9
HETATM    9  C8  UNL     1     -39.740  11.759   5.465  1.00 20.00     0.165 C 
HETATM   10  C7  UNL     1     -38.964  11.642   4.171  1.00 20.00     0.033 C 
ENDBRANCH   8   9
ENDBRANCH   6   8
TORSDOF 2
ENDMDL
MODEL 2
REMARK VINA RESULT:      -3.6      1.811      2.390
REMARK  2 active torsions:
REMARK  status: ('A' for Active; 'I' for Inactive)
REMARK    1  A    between atoms: C6_6  and  O10_10 
REMARK    2  A    between atoms: C8_8  and  O10_10 
ROOT
HETATM    1  C1  UNL     1     -42.456  12.306   7.141  1.00 20.00     0.098 C 
HETATM    2  C2  UNL     1     -42.038  15.133   5.938  1.00 20.00     0.004 C 
HETATM    3  C3  UNL     1     -41.190  15.133   7.212  1.00 20.00     0.004 C 
HETATM    4  C4  UNL     1     -41.784  13.789   5.259  1.00 20.00     0.053 C 
HETATM    5  C5  UNL     1     -40.466  13.789   7.238  1.00 20.00     0.053 C 
HETATM    6  C6  UNL     1     -41.325  12.861   6.383  1.00 20.00     0.148 C 
HETATM    7  N9  UNL     1     -43.348  11.868   7.741  1.00 20.00    -0.194 NA
ENDROOT
BRANCH   6   8
HETATM    8  O10 UNL     1     -40.529  11.803   5.869  1.00 20.00    -0.366 OA
BRANCH   8   9
HETATM    9  C8  UNL     1     -39.252  12.264   5.449  1.00 20.00     0.165 C 
HETATM   10  C7  UNL     1     -38.936  11.675   4.091  1.00 20.00     0.033 C 
ENDBRANCH   8   9
ENDBRANCH   6   8
TORSDOF 2
ENDMDL
MODEL 3
REMARK VINA RESULT:      -3.5     11.963     13.325
REMARK  2 active torsions:
REMARK  status: ('A' for Active; 'I' for Inactive)
REMARK    1  A    between atoms: C6_6  and  O10_10 
REMARK    2  A    between atoms: C8_8  and  O10_10 
ROOT
HETATM    1  C1  UNL     1     -35.406  14.167  -4.766  1.00 20.00     0.098 C 
HETATM    2  C2  UNL     1     -35.139  15.580  -7.513  1.00 20.00     0.004 C 
HETATM    3  C3  UNL     1     -36.063  16.493  -6.705  1.00 20.00     0.004 C 
HETATM    4  C4  UNL     1     -34.012  15.171  -6.567  1.00 20.00     0.053 C 
HETATM    5  C5  UNL     1     -35.448  16.589  -5.310  1.00 20.00     0.053 C 
HETATM    6  C6  UNL     1     -34.599  15.329  -5.166  1.00 20.00     0.148 C 
HETATM    7  N9  UNL     1     -36.044  13.250  -4.451  1.00 20.00    -0.194 NA
ENDROOT
BRANCH   6   8
HETATM    8  O10 UNL     1     -33.571  15.547  -4.210  1.00 20.00    -0.366 OA
BRANCH   8   9
HETATM    9  C8  UNL     1     -33.626  16.862  -3.671  1.00 20.00     0.165 C 
HETATM   10  C7  UNL     1     -33.434  16.789  -2.172  1.00 20.00     0.033 C 
ENDBRANCH   8   9
ENDBRANCH   6   8
TORSDOF 2
ENDMDL
MODEL 4
REMARK VINA RESULT:      -3.5      1.684      2.236
REMARK  2 active torsions:
REMARK  status: ('A' for Active; 'I' for Inactive)
REMARK    1  A    between atoms: C6_6  and  O10_10 
REMARK    2  A    between atoms: C8_8  and  O10_10 
ROOT
HETATM    1  C1  UNL     1     -40.758  14.633   7.332  1.00 20.00     0.098 C 
HETATM    2  C2  UNL     1     -43.296  12.999   6.620  1.00 20.00     0.004 C 
HETATM    3  C3  UNL     1     -43.229  14.085   5.544  1.00 20.00     0.004 C 
HETATM    4  C4  UNL     1     -41.871  12.476   6.783  1.00 20.00     0.053 C 
HETATM    5  C5  UNL     1     -41.766  14.163   5.112  1.00 20.00     0.053 C 
HETATM    6  C6  UNL     1     -40.975  13.613   6.296  1.00 20.00     0.148 C 
HETATM    7  N9  UNL     1     -40.588  15.438   8.150  1.00 20.00    -0.194 NA
ENDROOT
BRANCH   6   8
HETATM    8  O10 UNL     1     -39.723  13.113   5.849  1.00 20.00    -0.366 OA
BRANCH   8   9
HETATM    9  C8  UNL     1     -39.826  11.767   5.402  1.00 20.00     0.165 C 
HETATM   10  C7  UNL     1     -39.065  11.619   4.102  1.00 20.00     0.033 C 
ENDBRANCH   8   9
ENDBRANCH   6   8
TORSDOF 2
ENDMDL
MODEL 5
REMARK VINA RESULT:      -3.5     11.584     12.253
REMARK  2 active torsions:
REMARK  status: ('A' for Active; 'I' for Inactive)
REMARK    1  A    between atoms: C6_6  and  O10_10 
REMARK    2  A    between atoms: C8_8  and  O10_10 
ROOT
HETATM    1  C1  UNL     1     -35.340  18.514  -2.707  1.00 20.00     0.098 C 
HETATM    2  C2  UNL     1     -32.492  19.261  -1.736  1.00 20.00     0.004 C 
HETATM    3  C3  UNL     1     -32.952  18.173  -0.763  1.00 20.00     0.004 C 
HETATM    4  C4  UNL     1     -32.903  18.787  -3.128  1.00 20.00     0.053 C 
HETATM    5  C5  UNL     1     -33.618  17.096  -1.617  1.00 20.00     0.053 C 
HETATM    6  C6  UNL     1     -34.058  17.817  -2.888  1.00 20.00     0.148 C 
HETATM    7  N9  UNL     1     -36.352  19.063  -2.564  1.00 20.00    -0.194 NA
ENDROOT
BRANCH   6   8
HETATM    8  O10 UNL     1     -34.166  16.888  -3.957  1.00 20.00    -0.366 OA
BRANCH   8   9
HETATM    9  C8  UNL     1     -33.270  15.796  -3.796  1.00 20.00     0.165 C 
HETATM   10  C7  UNL     1     -33.962  14.521  -4.226  1.00 20.00     0.033 C 
ENDBRANCH   8   9
ENDBRANCH   6   8
TORSDOF 2
ENDMDL
MODEL 6
REMARK VINA RESULT:      -3.4     12.164     13.370
REMARK  2 active torsions:
REMARK  status: ('A' for Active; 'I' for Inactive)
REMARK    1  A    between atoms: C6_6  and  O10_10 
REMARK    2  A    between atoms: C8_8  and  O10_10 
ROOT
HETATM    1  C1  UNL     1     -34.310  15.225  -6.785  1.00 20.00     0.098 C 
HETATM    2  C2  UNL     1     -33.457  15.117  -3.806  1.00 20.00     0.004 C 
HETATM    3  C3  UNL     1     -33.669  16.606  -4.086  1.00 20.00     0.004 C 
HETATM    4  C4  UNL     1     -34.628  14.390  -4.462  1.00 20.00     0.053 C 
HETATM    5  C5  UNL     1     -34.959  16.703  -4.898  1.00 20.00     0.053 C 
HETATM    6  C6  UNL     1     -35.114  15.336  -5.559  1.00 20.00     0.148 C 
HETATM    7  N9  UNL     1     -33.675  15.138  -7.753  1.00 20.00    -0.194 NA
ENDROOT
BRANCH   6   8
HETATM    8  O10 UNL     1     -36.481  15.097  -5.861  1.00 20.00    -0.366 OA
BRANCH   8   9
HETATM    9  C8  UNL     1     -37.271  16.263  -5.669  1.00 20.00     0.165 C 
HETATM   10  C7  UNL     1     -38.530  15.888  -4.918  1.00 20.00     0.033 C 
ENDBRANCH   8   9
ENDBRANCH   6   8
TORSDOF 2
ENDMDL
MODEL 7
REMARK VINA RESULT:      -3.3      1.968      3.771
REMARK  2 active torsions:
REMARK  status: ('A' for Active; 'I' for Inactive)
REMARK    1  A    between atoms: C6_6  and  O10_10 
REMARK    2  A    between atoms: C8_8  and  O10_10 
ROOT
HETATM    1  C1  UNL     1     -42.147  12.523   6.863  1.00 20.00     0.098 C 
HETATM    2  C2  UNL     1     -39.181  11.955   6.159  1.00 20.00     0.004 C 
HETATM    3  C3  UNL     1     -39.886  12.029   4.803  1.00 20.00     0.004 C 
HETATM    4  C4  UNL     1     -39.733  13.113   6.988  1.00 20.00     0.053 C 
HETATM    5  C5  UNL     1     -40.828  13.229   4.881  1.00 20.00     0.053 C 
HETATM    6  C6  UNL     1     -41.095  13.425   6.372  1.00 20.00     0.148 C 
HETATM    7  N9  UNL     1     -42.978  11.811   7.251  1.00 20.00    -0.194 NA
ENDROOT
BRANCH   6   8
HETATM    8  O10 UNL     1     -41.465  14.772   6.623  1.00 20.00    -0.366 OA
BRANCH   8   9
HETATM    9  C8  UNL     1     -40.659  15.357   7.637  1.00 20.00     0.165 C 
HETATM   10  C7  UNL     1     -40.704  16.863   7.497  1.00 20.00     0.033 C 
ENDBRANCH   8   9
ENDBRANCH   6   8
TORSDOF 2
ENDMDL
MODEL 8
REMARK VINA RESULT:      -3.3      9.784     10.492
REMARK  2 active torsions:
REMARK  status: ('A' for Active; 'I' for Inactive)
REMARK    1  A    between atoms: C6_6  and  O10_10 
REMARK    2  A    between atoms: C8_8  and  O10_10 
ROOT
HETATM    1  C1  UNL     1     -33.242   5.909   3.526  1.00 20.00     0.098 C 
HETATM    2  C2  UNL     1     -35.193   5.142   5.810  1.00 20.00     0.004 C 
HETATM    3  C3  UNL     1     -33.868   5.423   6.521  1.00 20.00     0.004 C 
HETATM    4  C4  UNL     1     -35.365   6.253   4.778  1.00 20.00     0.053 C 
HETATM    5  C5  UNL     1     -33.306   6.691   5.882  1.00 20.00     0.053 C 
HETATM    6  C6  UNL     1     -33.949   6.754   4.499  1.00 20.00     0.148 C 
HETATM    7  N9  UNL     1     -32.683   5.241   2.758  1.00 20.00    -0.194 NA
ENDROOT
BRANCH   6   8
HETATM    8  O10 UNL     1     -33.972   8.097   4.037  1.00 20.00    -0.366 OA
BRANCH   8   9
HETATM    9  C8  UNL     1     -32.661   8.584   3.780  1.00 20.00     0.165 C 
HETATM   10  C7  UNL     1     -32.616   9.168   2.385  1.00 20.00     0.033 C 
ENDBRANCH   8   9
ENDBRANCH   6   8
TORSDOF 2
ENDMDL
MODEL 9
REMARK VINA RESULT:      -3.3      8.732     10.219
REMARK  2 active torsions:
REMARK  status: ('A' for Active; 'I' for Inactive)
REMARK    1  A    between atoms: C6_6  and  O10_10 
REMARK    2  A    between atoms: C8_8  and  O10_10 
ROOT
HETATM    1  C1  UNL     1     -43.031   5.582   1.153  1.00 20.00     0.098 C 
HETATM    2  C2  UNL     1     -41.334   8.006   0.227  1.00 20.00     0.004 C 
HETATM    3  C3  UNL     1     -40.364   6.824   0.182  1.00 20.00     0.004 C 
HETATM    4  C4  UNL     1     -42.643   7.505  -0.379  1.00 20.00     0.053 C 
HETATM    5  C5  UNL     1     -41.136   5.668  -0.450  1.00 20.00     0.053 C 
HETATM    6  C6  UNL     1     -42.606   5.989  -0.195  1.00 20.00     0.148 C 
HETATM    7  N9  UNL     1     -43.366   5.260   2.216  1.00 20.00    -0.194 NA
ENDROOT
BRANCH   6   8
HETATM    8  O10 UNL     1     -43.417   5.343  -1.166  1.00 20.00    -0.366 OA
BRANCH   8   9
HETATM    9  C8  UNL     1     -43.417   3.932  -0.994  1.00 20.00     0.165 C 
HETATM   10  C7  UNL     1     -43.356   3.269  -2.353  1.00 20.00     0.033 C 
ENDBRANCH   8   9
ENDBRANCH   6   8
TORSDOF 2
ENDMDL
