MODEL 1
REMARK VINA RESULT:      -4.7      0.000      0.000
REMARK  5 active torsions:
REMARK  status: ('A' for Active; 'I' for Inactive)
REMARK    1  A    between atoms: C4_4  and  C7_7 
REMARK    2  A    between atoms: C4_4  and  C8_8 
REMARK    3  A    between atoms: C6_6  and  C9_9 
REMARK    4  A    between atoms: C8_8  and  N10_10 
REMARK    5  A    between atoms: C9_9  and  N10_10 
ROOT
HETATM    1  C1  UNL     1     -34.810   4.980   5.155  1.00 20.00     0.012 C 
HETATM    2  C2  UNL     1     -34.485   5.950   5.782  1.00 20.00    -0.116 C 
HETATM    3  C6  UNL     1     -34.086   7.137   6.556  1.00 20.00     0.123 C 
ENDROOT
BRANCH   3   4
HETATM    4  C9  UNL     1     -33.700   8.304   5.653  1.00 20.00     0.282 C 
BRANCH   4   5
HETATM    5  N10 UNL     1     -32.474   8.013   4.924  1.00 20.00     0.088 N 
HETATM    6  H25 UNL     1     -31.678   8.375   5.446  1.00 20.00     0.316 HD
BRANCH   5   7
HETATM    7  C8  UNL     1     -32.497   8.631   3.602  1.00 20.00     0.302 C 
BRANCH   7   8
HETATM    8  C4  UNL     1     -32.352   7.628   2.482  1.00 20.00    -0.062 C 
HETATM    9  C3  UNL     1     -32.467   6.311   2.719  1.00 20.00     0.016 C 
BRANCH   8  10
HETATM   10  C7  UNL     1     -32.075   8.143   1.087  1.00 20.00     0.030 C 
HETATM   11  C5  UNL     1     -32.752   9.477   0.803  1.00 20.00     0.010 C 
ENDBRANCH   8  10
ENDBRANCH   7   8
ENDBRANCH   5   7
ENDBRANCH   4   5
ENDBRANCH   3   4
TORSDOF 5
ENDMDL
MODEL 2
REMARK VINA RESULT:      -4.5      0.816      4.425
REMARK  5 active torsions:
REMARK  status: ('A' for Active; 'I' for Inactive)
REMARK    1  A    between atoms: C4_4  and  C7_7 
REMARK    2  A    between atoms: C4_4  and  C8_8 
REMARK    3  A    between atoms: C6_6  and  C9_9 
REMARK    4  A    between atoms: C8_8  and  N10_10 
REMARK    5  A    between atoms: C9_9  and  N10_10 
ROOT
HETATM    1  C1  UNL     1     -32.441   8.836   0.487  1.00 20.00     0.012 C 
HETATM    2  C2  UNL     1     -32.331   8.296   1.553  1.00 20.00    -0.116 C 
HETATM    3  C6  UNL     1     -32.194   7.630   2.858  1.00 20.00     0.123 C 
ENDROOT
BRANCH   3   4
HETATM    4  C9  UNL     1     -32.280   8.619   4.016  1.00 20.00     0.282 C 
BRANCH   4   5
HETATM    5  N10 UNL     1     -32.548   7.929   5.269  1.00 20.00     0.088 N 
HETATM    6  H25 UNL     1     -32.123   7.004   5.242  1.00 20.00     0.316 HD
BRANCH   5   7
HETATM    7  C8  UNL     1     -33.985   7.786   5.485  1.00 20.00     0.302 C 
BRANCH   7   8
HETATM    8  C4  UNL     1     -34.423   6.344   5.588  1.00 20.00    -0.062 C 
HETATM    9  C3  UNL     1     -34.404   5.702   6.767  1.00 20.00     0.016 C 
BRANCH   8  10
HETATM   10  C7  UNL     1     -34.883   5.641   4.330  1.00 20.00     0.030 C 
HETATM   11  C5  UNL     1     -33.959   4.504   3.915  1.00 20.00     0.010 C 
ENDBRANCH   8  10
ENDBRANCH   7   8
ENDBRANCH   5   7
ENDBRANCH   4   5
ENDBRANCH   3   4
TORSDOF 5
ENDMDL
MODEL 3
REMARK VINA RESULT:      -4.4      1.251      3.918
REMARK  5 active torsions:
REMARK  status: ('A' for Active; 'I' for Inactive)
REMARK    1  A    between atoms: C4_4  and  C7_7 
REMARK    2  A    between atoms: C4_4  and  C8_8 
REMARK    3  A    between atoms: C6_6  and  C9_9 
REMARK    4  A    between atoms: C8_8  and  N10_10 
REMARK    5  A    between atoms: C9_9  and  N10_10 
ROOT
HETATM    1  C1  UNL     1     -32.215   7.794   2.390  1.00 20.00     0.012 C 
HETATM    2  C2  UNL     1     -32.312   8.239   3.501  1.00 20.00    -0.116 C 
HETATM    3  C6  UNL     1     -32.428   8.788   4.861  1.00 20.00     0.123 C 
ENDROOT
BRANCH   3   4
HETATM    4  C9  UNL     1     -33.627   8.213   5.609  1.00 20.00     0.282 C 
BRANCH   4   5
HETATM    5  N10 UNL     1     -33.265   6.987   6.304  1.00 20.00     0.088 N 
HETATM    6  H25 UNL     1     -32.489   6.540   5.818  1.00 20.00     0.316 HD
BRANCH   5   7
HETATM    7  C8  UNL     1     -34.394   6.062   6.346  1.00 20.00     0.302 C 
BRANCH   7   8
HETATM    8  C4  UNL     1     -34.748   5.505   4.988  1.00 20.00    -0.062 C 
HETATM    9  C3  UNL     1     -35.806   5.974   4.307  1.00 20.00     0.016 C 
BRANCH   8  10
HETATM   10  C7  UNL     1     -33.882   4.406   4.414  1.00 20.00     0.030 C 
HETATM   11  C5  UNL     1     -33.344   4.740   3.029  1.00 20.00     0.010 C 
ENDBRANCH   8  10
ENDBRANCH   7   8
ENDBRANCH   5   7
ENDBRANCH   4   5
ENDBRANCH   3   4
TORSDOF 5
ENDMDL
MODEL 4
REMARK VINA RESULT:      -4.3      1.717      4.628
REMARK  5 active torsions:
REMARK  status: ('A' for Active; 'I' for Inactive)
REMARK    1  A    between atoms: C4_4  and  C7_7 
REMARK    2  A    between atoms: C4_4  and  C8_8 
REMARK    3  A    between atoms: C6_6  and  C9_9 
REMARK    4  A    between atoms: C8_8  and  N10_10 
REMARK    5  A    between atoms: C9_9  and  N10_10 
ROOT
HETATM    1  C1  UNL     1     -32.302   9.016   4.845  1.00 20.00     0.012 C 
HETATM    2  C2  UNL     1     -32.421   8.315   3.878  1.00 20.00    -0.116 C 
HETATM    3  C6  UNL     1     -32.567   7.461   2.689  1.00 20.00     0.123 C 
ENDROOT
BRANCH   3   4
HETATM    4  C9  UNL     1     -32.253   5.999   2.994  1.00 20.00     0.282 C 
BRANCH   4   5
HETATM    5  N10 UNL     1     -33.395   5.149   2.691  1.00 20.00     0.088 N 
HETATM    6  H25 UNL     1     -34.151   5.721   2.315  1.00 20.00     0.316 HD
BRANCH   5   7
HETATM    7  C8  UNL     1     -33.867   4.467   3.892  1.00 20.00     0.302 C 
BRANCH   7   8
HETATM    8  C4  UNL     1     -34.728   5.347   4.767  1.00 20.00    -0.062 C 
HETATM    9  C3  UNL     1     -35.765   6.026   4.251  1.00 20.00     0.016 C 
BRANCH   8  10
HETATM   10  C7  UNL     1     -34.393   5.444   6.239  1.00 20.00     0.030 C 
HETATM   11  C5  UNL     1     -34.297   6.882   6.730  1.00 20.00     0.010 C 
ENDBRANCH   8  10
ENDBRANCH   7   8
ENDBRANCH   5   7
ENDBRANCH   4   5
ENDBRANCH   3   4
TORSDOF 5
ENDMDL
MODEL 5
REMARK VINA RESULT:      -4.3      1.139      2.277
REMARK  5 active torsions:
REMARK  status: ('A' for Active; 'I' for Inactive)
REMARK    1  A    between atoms: C4_4  and  C7_7 
REMARK    2  A    between atoms: C4_4  and  C8_8 
REMARK    3  A    between atoms: C6_6  and  C9_9 
REMARK    4  A    between atoms: C8_8  and  N10_10 
REMARK    5  A    between atoms: C9_9  and  N10_10 
ROOT
HETATM    1  C1  UNL     1     -34.041   7.380   6.657  1.00 20.00     0.012 C 
HETATM    2  C2  UNL     1     -34.360   6.310   6.213  1.00 20.00    -0.116 C 
HETATM    3  C6  UNL     1     -34.755   5.000   5.673  1.00 20.00     0.123 C 
ENDROOT
BRANCH   3   4
HETATM    4  C9  UNL     1     -34.019   4.672   4.377  1.00 20.00     0.282 C 
BRANCH   4   5
HETATM    5  N10 UNL     1     -34.014   5.817   3.479  1.00 20.00     0.088 N 
HETATM    6  H25 UNL     1     -34.705   5.673   2.744  1.00 20.00     0.316 HD
BRANCH   5   7
HETATM    7  C8  UNL     1     -32.700   5.992   2.869  1.00 20.00     0.302 C 
BRANCH   7   8
HETATM    8  C4  UNL     1     -32.289   7.441   2.764  1.00 20.00    -0.062 C 
HETATM    9  C3  UNL     1     -32.081   8.179   3.867  1.00 20.00     0.016 C 
BRANCH   8  10
HETATM   10  C7  UNL     1     -32.116   8.042   1.386  1.00 20.00     0.030 C 
HETATM   11  C5  UNL     1     -32.823   9.382   1.232  1.00 20.00     0.010 C 
ENDBRANCH   8  10
ENDBRANCH   7   8
ENDBRANCH   5   7
ENDBRANCH   4   5
ENDBRANCH   3   4
TORSDOF 5
ENDMDL
MODEL 6
REMARK VINA RESULT:      -4.2      0.544      1.785
REMARK  5 active torsions:
REMARK  status: ('A' for Active; 'I' for Inactive)
REMARK    1  A    between atoms: C4_4  and  C7_7 
REMARK    2  A    between atoms: C4_4  and  C8_8 
REMARK    3  A    between atoms: C6_6  and  C9_9 
REMARK    4  A    between atoms: C8_8  and  N10_10 
REMARK    5  A    between atoms: C9_9  and  N10_10 
ROOT
HETATM    1  C1  UNL     1     -34.861   4.931   5.209  1.00 20.00     0.012 C 
HETATM    2  C2  UNL     1     -34.485   5.893   5.822  1.00 20.00    -0.116 C 
HETATM    3  C6  UNL     1     -34.024   7.069   6.576  1.00 20.00     0.123 C 
ENDROOT
BRANCH   3   4
HETATM    4  C9  UNL     1     -33.778   8.270   5.668  1.00 20.00     0.282 C 
BRANCH   4   5
HETATM    5  N10 UNL     1     -32.484   8.167   5.010  1.00 20.00     0.088 N 
HETATM    6  H25 UNL     1     -31.790   8.680   5.551  1.00 20.00     0.316 HD
BRANCH   5   7
HETATM    7  C8  UNL     1     -32.542   8.723   3.662  1.00 20.00     0.302 C 
BRANCH   7   8
HETATM    8  C4  UNL     1     -32.281   7.691   2.590  1.00 20.00    -0.062 C 
HETATM    9  C3  UNL     1     -32.162   8.053   1.302  1.00 20.00     0.016 C 
BRANCH   8  10
HETATM   10  C7  UNL     1     -32.156   6.241   3.002  1.00 20.00     0.030 C 
HETATM   11  C5  UNL     1     -33.059   5.317   2.198  1.00 20.00     0.010 C 
ENDBRANCH   8  10
ENDBRANCH   7   8
ENDBRANCH   5   7
ENDBRANCH   4   5
ENDBRANCH   3   4
TORSDOF 5
ENDMDL
MODEL 7
REMARK VINA RESULT:      -4.0      1.450      4.609
REMARK  5 active torsions:
REMARK  status: ('A' for Active; 'I' for Inactive)
REMARK    1  A    between atoms: C4_4  and  C7_7 
REMARK    2  A    between atoms: C4_4  and  C8_8 
REMARK    3  A    between atoms: C6_6  and  C9_9 
REMARK    4  A    between atoms: C8_8  and  N10_10 
REMARK    5  A    between atoms: C9_9  and  N10_10 
ROOT
HETATM    1  C1  UNL     1     -32.185   8.495   0.848  1.00 20.00     0.012 C 
HETATM    2  C2  UNL     1     -32.207   7.719   1.764  1.00 20.00    -0.116 C 
HETATM    3  C6  UNL     1     -32.233   6.772   2.889  1.00 20.00     0.123 C 
ENDROOT
BRANCH   3   4
HETATM    4  C9  UNL     1     -32.964   5.481   2.533  1.00 20.00     0.282 C 
BRANCH   4   5
HETATM    5  N10 UNL     1     -33.662   4.943   3.691  1.00 20.00     0.088 N 
HETATM    6  H25 UNL     1     -34.226   4.145   3.404  1.00 20.00     0.316 HD
BRANCH   5   7
HETATM    7  C8  UNL     1     -34.534   5.952   4.285  1.00 20.00     0.302 C 
BRANCH   7   8
HETATM    8  C4  UNL     1     -34.325   6.106   5.773  1.00 20.00    -0.062 C 
HETATM    9  C3  UNL     1     -34.721   5.147   6.626  1.00 20.00     0.016 C 
BRANCH   8  10
HETATM   10  C7  UNL     1     -33.659   7.366   6.279  1.00 20.00     0.030 C 
HETATM   11  C5  UNL     1     -33.730   8.515   5.281  1.00 20.00     0.010 C 
ENDBRANCH   8  10
ENDBRANCH   7   8
ENDBRANCH   5   7
ENDBRANCH   4   5
ENDBRANCH   3   4
TORSDOF 5
ENDMDL
MODEL 8
REMARK VINA RESULT:      -4.0      1.404      2.783
REMARK  5 active torsions:
REMARK  status: ('A' for Active; 'I' for Inactive)
REMARK    1  A    between atoms: C4_4  and  C7_7 
REMARK    2  A    between atoms: C4_4  and  C8_8 
REMARK    3  A    between atoms: C6_6  and  C9_9 
REMARK    4  A    between atoms: C8_8  and  N10_10 
REMARK    5  A    between atoms: C9_9  and  N10_10 
ROOT
HETATM    1  C1  UNL     1     -34.400   6.671   6.747  1.00 20.00     0.012 C 
HETATM    2  C2  UNL     1     -34.652   6.155   5.692  1.00 20.00    -0.116 C 
HETATM    3  C6  UNL     1     -34.965   5.526   4.399  1.00 20.00     0.123 C 
ENDROOT
BRANCH   3   4
HETATM    4  C9  UNL     1     -33.763   4.788   3.818  1.00 20.00     0.282 C 
BRANCH   4   5
HETATM    5  N10 UNL     1     -33.267   5.462   2.627  1.00 20.00     0.088 N 
HETATM    6  H25 UNL     1     -32.944   4.766   1.956  1.00 20.00     0.316 HD
BRANCH   5   7
HETATM    7  C8  UNL     1     -32.160   6.353   2.958  1.00 20.00     0.302 C 
BRANCH   7   8
HETATM    8  C4  UNL     1     -32.398   7.776   2.512  1.00 20.00    -0.062 C 
HETATM    9  C3  UNL     1     -32.145   8.152   1.248  1.00 20.00     0.016 C 
BRANCH   8  10
HETATM   10  C7  UNL     1     -32.928   8.768   3.523  1.00 20.00     0.030 C 
HETATM   11  C5  UNL     1     -32.160   8.741   4.838  1.00 20.00     0.010 C 
ENDBRANCH   8  10
ENDBRANCH   7   8
ENDBRANCH   5   7
ENDBRANCH   4   5
ENDBRANCH   3   4
TORSDOF 5
ENDMDL
MODEL 9
REMARK VINA RESULT:      -3.9      1.654      3.266
REMARK  5 active torsions:
REMARK  status: ('A' for Active; 'I' for Inactive)
REMARK    1  A    between atoms: C4_4  and  C7_7 
REMARK    2  A    between atoms: C4_4  and  C8_8 
REMARK    3  A    between atoms: C6_6  and  C9_9 
REMARK    4  A    between atoms: C8_8  and  N10_10 
REMARK    5  A    between atoms: C9_9  and  N10_10 
ROOT
HETATM    1  C1  UNL     1     -32.901   5.133   2.299  1.00 20.00     0.012 C 
HETATM    2  C2  UNL     1     -33.510   4.884   3.304  1.00 20.00    -0.116 C 
HETATM    3  C6  UNL     1     -34.253   4.575   4.536  1.00 20.00     0.123 C 
ENDROOT
BRANCH   3   4
HETATM    4  C9  UNL     1     -35.115   5.748   4.992  1.00 20.00     0.282 C 
BRANCH   4   5
HETATM    5  N10 UNL     1     -34.710   6.207   6.313  1.00 20.00     0.088 N 
HETATM    6  H25 UNL     1     -35.348   6.936   6.626  1.00 20.00     0.316 HD
BRANCH   5   7
HETATM    7  C8  UNL     1     -33.353   6.742   6.282  1.00 20.00     0.302 C 
BRANCH   7   8
HETATM    8  C4  UNL     1     -33.237   8.001   5.455  1.00 20.00    -0.062 C 
HETATM    9  C3  UNL     1     -34.087   9.025   5.638  1.00 20.00     0.016 C 
BRANCH   8  10
HETATM   10  C7  UNL     1     -32.141   8.080   4.416  1.00 20.00     0.030 C 
HETATM   11  C5  UNL     1     -32.606   8.713   3.112  1.00 20.00     0.010 C 
ENDBRANCH   8  10
ENDBRANCH   7   8
ENDBRANCH   5   7
ENDBRANCH   4   5
ENDBRANCH   3   4
TORSDOF 5
ENDMDL
