MODEL 1
REMARK VINA RESULT:      -4.1      0.000      0.000
REMARK  3 active torsions:
REMARK  status: ('A' for Active; 'I' for Inactive)
REMARK    1  A    between atoms: C5_5  and  C8_8 
REMARK    2  A    between atoms: C5_5  and  C9_9 
REMARK    3  A    between atoms: C8_8  and  C10_10 
ROOT
HETATM    1  C1  UNL     1     -35.246   5.234   5.167  1.00 20.00     0.001 C 
HETATM    2  C2  UNL     1     -34.366   5.236   6.417  1.00 20.00     0.001 C 
HETATM    3  C3  UNL     1     -35.157   6.641   4.582  1.00 20.00     0.010 C 
HETATM    4  C4  UNL     1     -33.784   6.644   6.526  1.00 20.00     0.010 C 
HETATM    5  C5  UNL     1     -33.825   7.206   5.099  1.00 20.00    -0.028 C 
ENDROOT
BRANCH   5   6
HETATM    6  C8  UNL     1     -32.641   6.693   4.263  1.00 20.00     0.014 C 
BRANCH   6   7
HETATM    7  C10 UNL     1     -32.971   6.537   2.772  1.00 20.00    -0.022 C 
HETATM    8  C6  UNL     1     -32.117   7.444   1.885  1.00 20.00     0.009 C 
HETATM    9  C7  UNL     1     -32.780   5.077   2.354  1.00 20.00     0.009 C 
ENDBRANCH   6   7
ENDBRANCH   5   6
BRANCH   5  10
HETATM   10  C9  UNL     1     -33.822   8.735   5.094  1.00 20.00     0.124 C 
HETATM   11 CL11 UNL     1     -32.162   9.329   4.951  1.00 20.00    -0.130 Cl
ENDBRANCH   5  10
TORSDOF 3
ENDMDL
MODEL 2
REMARK VINA RESULT:      -3.4      9.063     10.350
REMARK  3 active torsions:
REMARK  status: ('A' for Active; 'I' for Inactive)
REMARK    1  A    between atoms: C5_5  and  C8_8 
REMARK    2  A    between atoms: C5_5  and  C9_9 
REMARK    3  A    between atoms: C8_8  and  C10_10 
ROOT
HETATM    1  C1  UNL     1     -42.576  13.360   8.213  1.00 20.00     0.001 C 
HETATM    2  C2  UNL     1     -41.291  14.183   8.313  1.00 20.00     0.001 C 
HETATM    3  C3  UNL     1     -42.932  13.307   6.729  1.00 20.00     0.010 C 
HETATM    4  C4  UNL     1     -40.930  14.585   6.884  1.00 20.00     0.010 C 
HETATM    5  C5  UNL     1     -41.605  13.535   5.991  1.00 20.00    -0.028 C 
ENDROOT
BRANCH   5   6
HETATM    6  C8  UNL     1     -40.775  12.243   5.923  1.00 20.00     0.014 C 
BRANCH   6   7
HETATM    7  C10 UNL     1     -39.373  12.451   5.333  1.00 20.00    -0.022 C 
HETATM    8  C6  UNL     1     -38.262  12.109   6.327  1.00 20.00     0.009 C 
HETATM    9  C7  UNL     1     -39.217  11.600   4.070  1.00 20.00     0.009 C 
ENDBRANCH   6   7
ENDBRANCH   5   6
BRANCH   5  10
HETATM   10  C9  UNL     1     -41.833  14.063   4.573  1.00 20.00     0.124 C 
HETATM   11 CL11 UNL     1     -42.754  15.572   4.637  1.00 20.00    -0.130 Cl
ENDBRANCH   5  10
TORSDOF 3
ENDMDL
MODEL 3
REMARK VINA RESULT:      -3.3      9.348     10.859
REMARK  3 active torsions:
REMARK  status: ('A' for Active; 'I' for Inactive)
REMARK    1  A    between atoms: C5_5  and  C8_8 
REMARK    2  A    between atoms: C5_5  and  C9_9 
REMARK    3  A    between atoms: C8_8  and  C10_10 
ROOT
HETATM    1  C1  UNL     1     -41.042  15.711   7.523  1.00 20.00     0.001 C 
HETATM    2  C2  UNL     1     -42.068  16.016   6.431  1.00 20.00     0.001 C 
HETATM    3  C3  UNL     1     -41.169  14.218   7.820  1.00 20.00     0.010 C 
HETATM    4  C4  UNL     1     -42.763  14.692   6.118  1.00 20.00     0.010 C 
HETATM    5  C5  UNL     1     -41.767  13.606   6.545  1.00 20.00    -0.028 C 
ENDROOT
BRANCH   5   6
HETATM    6  C8  UNL     1     -40.687  13.387   5.472  1.00 20.00     0.014 C 
BRANCH   6   7
HETATM    7  C10 UNL     1     -39.985  12.026   5.586  1.00 20.00    -0.022 C 
HETATM    8  C6  UNL     1     -39.343  11.587   4.269  1.00 20.00     0.009 C 
HETATM    9  C7  UNL     1     -38.922  12.087   6.684  1.00 20.00     0.009 C 
ENDBRANCH   6   7
ENDBRANCH   5   6
BRANCH   5  10
HETATM   10  C9  UNL     1     -42.469  12.278   6.834  1.00 20.00     0.124 C 
HETATM   11 CL11 UNL     1     -43.417  12.413   8.321  1.00 20.00    -0.130 Cl
ENDBRANCH   5  10
TORSDOF 3
ENDMDL
MODEL 4
REMARK VINA RESULT:      -3.2      9.341     11.173
REMARK  3 active torsions:
REMARK  status: ('A' for Active; 'I' for Inactive)
REMARK    1  A    between atoms: C5_5  and  C8_8 
REMARK    2  A    between atoms: C5_5  and  C9_9 
REMARK    3  A    between atoms: C8_8  and  C10_10 
ROOT
HETATM    1  C1  UNL     1     -43.245  13.491   6.245  1.00 20.00     0.001 C 
HETATM    2  C2  UNL     1     -42.682  14.129   4.975  1.00 20.00     0.001 C 
HETATM    3  C3  UNL     1     -42.118  12.640   6.828  1.00 20.00     0.010 C 
HETATM    4  C4  UNL     1     -41.242  13.637   4.853  1.00 20.00     0.010 C 
HETATM    5  C5  UNL     1     -40.824  13.261   6.280  1.00 20.00    -0.028 C 
ENDROOT
BRANCH   5   6
HETATM    6  C8  UNL     1     -40.417  14.504   7.089  1.00 20.00     0.014 C 
BRANCH   6   7
HETATM    7  C10 UNL     1     -41.065  14.564   8.480  1.00 20.00    -0.022 C 
HETATM    8  C6  UNL     1     -40.046  14.390   9.607  1.00 20.00     0.009 C 
HETATM    9  C7  UNL     1     -41.799  15.896   8.647  1.00 20.00     0.009 C 
ENDBRANCH   6   7
ENDBRANCH   5   6
BRANCH   5  10
HETATM   10  C9  UNL     1     -39.672  12.256   6.285  1.00 20.00     0.124 C 
HETATM   11 CL11 UNL     1     -39.300  11.763   4.627  1.00 20.00    -0.130 Cl
ENDBRANCH   5  10
TORSDOF 3
ENDMDL
MODEL 5
REMARK VINA RESULT:      -3.2     11.695     13.750
REMARK  3 active torsions:
REMARK  status: ('A' for Active; 'I' for Inactive)
REMARK    1  A    between atoms: C5_5  and  C8_8 
REMARK    2  A    between atoms: C5_5  and  C9_9 
REMARK    3  A    between atoms: C8_8  and  C10_10 
ROOT
HETATM    1  C1  UNL     1     -35.420  17.176  -6.368  1.00 20.00     0.001 C 
HETATM    2  C2  UNL     1     -34.359  16.478  -7.219  1.00 20.00     0.001 C 
HETATM    3  C3  UNL     1     -35.613  16.303  -5.130  1.00 20.00     0.010 C 
HETATM    4  C4  UNL     1     -33.958  15.219  -6.454  1.00 20.00     0.010 C 
HETATM    5  C5  UNL     1     -34.302  15.516  -4.988  1.00 20.00    -0.028 C 
ENDROOT
BRANCH   5   6
HETATM    6  C8  UNL     1     -33.209  16.367  -4.320  1.00 20.00     0.014 C 
BRANCH   6   7
HETATM    7  C10 UNL     1     -33.760  17.369  -3.295  1.00 20.00    -0.022 C 
HETATM    8  C6  UNL     1     -33.465  16.953  -1.853  1.00 20.00     0.009 C 
HETATM    9  C7  UNL     1     -33.171  18.755  -3.564  1.00 20.00     0.009 C 
ENDBRANCH   6   7
ENDBRANCH   5   6
BRANCH   5  10
HETATM   10  C9  UNL     1     -34.501  14.230  -4.183  1.00 20.00     0.124 C 
HETATM   11 CL11 UNL     1     -36.091  13.541  -4.540  1.00 20.00    -0.130 Cl
ENDBRANCH   5  10
TORSDOF 3
ENDMDL
MODEL 6
REMARK VINA RESULT:      -3.1     12.240     13.010
REMARK  3 active torsions:
REMARK  status: ('A' for Active; 'I' for Inactive)
REMARK    1  A    between atoms: C5_5  and  C8_8 
REMARK    2  A    between atoms: C5_5  and  C9_9 
REMARK    3  A    between atoms: C8_8  and  C10_10 
ROOT
HETATM    1  C1  UNL     1     -34.343  18.323  -0.230  1.00 20.00     0.001 C 
HETATM    2  C2  UNL     1     -32.834  18.147  -0.059  1.00 20.00     0.001 C 
HETATM    3  C3  UNL     1     -34.576  18.564  -1.720  1.00 20.00     0.010 C 
HETATM    4  C4  UNL     1     -32.227  18.288  -1.454  1.00 20.00     0.010 C 
HETATM    5  C5  UNL     1     -33.365  17.934  -2.422  1.00 20.00    -0.028 C 
ENDROOT
BRANCH   5   6
HETATM    6  C8  UNL     1     -33.528  16.411  -2.558  1.00 20.00     0.014 C 
BRANCH   6   7
HETATM    7  C10 UNL     1     -33.440  15.917  -4.009  1.00 20.00    -0.022 C 
HETATM    8  C6  UNL     1     -32.461  14.753  -4.172  1.00 20.00     0.009 C 
HETATM    9  C7  UNL     1     -34.829  15.496  -4.493  1.00 20.00     0.009 C 
ENDBRANCH   6   7
ENDBRANCH   5   6
BRANCH   5  10
HETATM   10  C9  UNL     1     -33.137  18.542  -3.807  1.00 20.00     0.124 C 
HETATM   11 CL11 UNL     1     -34.640  19.262  -4.399  1.00 20.00    -0.130 Cl
ENDBRANCH   5  10
TORSDOF 3
ENDMDL
MODEL 7
REMARK VINA RESULT:      -3.0     12.377     14.040
REMARK  3 active torsions:
REMARK  status: ('A' for Active; 'I' for Inactive)
REMARK    1  A    between atoms: C5_5  and  C8_8 
REMARK    2  A    between atoms: C5_5  and  C9_9 
REMARK    3  A    between atoms: C8_8  and  C10_10 
ROOT
HETATM    1  C1  UNL     1     -35.541  15.819  -7.625  1.00 20.00     0.001 C 
HETATM    2  C2  UNL     1     -35.820  14.718  -6.601  1.00 20.00     0.001 C 
HETATM    3  C3  UNL     1     -35.870  17.139  -6.930  1.00 20.00     0.010 C 
HETATM    4  C4  UNL     1     -36.299  15.425  -5.335  1.00 20.00     0.010 C 
HETATM    5  C5  UNL     1     -35.728  16.846  -5.429  1.00 20.00    -0.028 C 
ENDROOT
BRANCH   5   6
HETATM    6  C8  UNL     1     -34.254  16.885  -4.990  1.00 20.00     0.014 C 
BRANCH   6   7
HETATM    7  C10 UNL     1     -33.933  15.905  -3.852  1.00 20.00    -0.022 C 
HETATM    8  C6  UNL     1     -32.908  14.847  -4.262  1.00 20.00     0.009 C 
HETATM    9  C7  UNL     1     -33.419  16.681  -2.638  1.00 20.00     0.009 C 
ENDBRANCH   6   7
ENDBRANCH   5   6
BRANCH   5  10
HETATM   10  C9  UNL     1     -36.532  17.835  -4.584  1.00 20.00     0.124 C 
HETATM   11 CL11 UNL     1     -35.547  19.263  -4.234  1.00 20.00    -0.130 Cl
ENDBRANCH   5  10
TORSDOF 3
ENDMDL
MODEL 8
REMARK VINA RESULT:      -3.0     10.351     11.981
REMARK  3 active torsions:
REMARK  status: ('A' for Active; 'I' for Inactive)
REMARK    1  A    between atoms: C5_5  and  C8_8 
REMARK    2  A    between atoms: C5_5  and  C9_9 
REMARK    3  A    between atoms: C8_8  and  C10_10 
ROOT
HETATM    1  C1  UNL     1     -41.208  12.495   6.548  1.00 20.00     0.001 C 
HETATM    2  C2  UNL     1     -42.690  12.318   6.880  1.00 20.00     0.001 C 
HETATM    3  C3  UNL     1     -41.111  13.763   5.701  1.00 20.00     0.010 C 
HETATM    4  C4  UNL     1     -43.417  13.488   6.221  1.00 20.00     0.010 C 
HETATM    5  C5  UNL     1     -42.355  14.585   6.068  1.00 20.00    -0.028 C 
ENDROOT
BRANCH   5   6
HETATM    6  C8  UNL     1     -42.149  15.350   7.387  1.00 20.00     0.014 C 
BRANCH   6   7
HETATM    7  C10 UNL     1     -40.714  15.863   7.574  1.00 20.00    -0.022 C 
HETATM    8  C6  UNL     1     -40.618  17.385   7.469  1.00 20.00     0.009 C 
HETATM    9  C7  UNL     1     -40.178  15.403   8.932  1.00 20.00     0.009 C 
ENDBRANCH   6   7
ENDBRANCH   5   6
BRANCH   5  10
HETATM   10  C9  UNL     1     -42.721  15.576   4.962  1.00 20.00     0.124 C 
HETATM   11 CL11 UNL     1     -42.271  14.908   3.387  1.00 20.00    -0.130 Cl
ENDBRANCH   5  10
TORSDOF 3
ENDMDL
MODEL 9
REMARK VINA RESULT:      -2.9     12.264     14.136
REMARK  3 active torsions:
REMARK  status: ('A' for Active; 'I' for Inactive)
REMARK    1  A    between atoms: C5_5  and  C8_8 
REMARK    2  A    between atoms: C5_5  and  C9_9 
REMARK    3  A    between atoms: C8_8  and  C10_10 
ROOT
HETATM    1  C1  UNL     1     -36.133  14.684  -6.441  1.00 20.00     0.001 C 
HETATM    2  C2  UNL     1     -35.131  15.356  -7.379  1.00 20.00     0.001 C 
HETATM    3  C3  UNL     1     -35.432  14.556  -5.091  1.00 20.00     0.010 C 
HETATM    4  C4  UNL     1     -33.873  15.606  -6.551  1.00 20.00     0.010 C 
HETATM    5  C5  UNL     1     -34.355  15.651  -5.095  1.00 20.00    -0.028 C 
ENDROOT
BRANCH   5   6
HETATM    6  C8  UNL     1     -34.955  17.024  -4.748  1.00 20.00     0.014 C 
BRANCH   6   7
HETATM    7  C10 UNL     1     -34.416  18.162  -5.628  1.00 20.00    -0.022 C 
HETATM    8  C6  UNL     1     -35.533  18.945  -6.320  1.00 20.00     0.009 C 
HETATM    9  C7  UNL     1     -33.570  19.111  -4.777  1.00 20.00     0.009 C 
ENDBRANCH   6   7
ENDBRANCH   5   6
BRANCH   5  10
HETATM   10  C9  UNL     1     -33.224  15.333  -4.115  1.00 20.00     0.124 C 
HETATM   11 CL11 UNL     1     -33.432  16.278  -2.634  1.00 20.00    -0.130 Cl
ENDBRANCH   5  10
TORSDOF 3
ENDMDL
