MODEL 1
REMARK VINA RESULT:      -3.9      0.000      0.000
REMARK  6 active torsions:
REMARK  status: ('A' for Active; 'I' for Inactive)
REMARK    1  A    between atoms: C4_4  and  C6_6 
REMARK    2  A    between atoms: C4_4  and  C9_9 
REMARK    3  A    between atoms: C5_5  and  O10_10 
REMARK    4  A    between atoms: C6_6  and  O10_10 
REMARK    5  A    between atoms: C7_7  and  C9_9 
REMARK    6  A    between atoms: C8_8  and  C9_9 
ROOT
HETATM    1  C9  UNL     1     -33.878   7.185   4.292  1.00 20.00     0.005 C 
ENDROOT
BRANCH   1   2
HETATM    2  C4  UNL     1     -32.558   6.915   3.526  1.00 20.00     0.032 C 
BRANCH   2   3
HETATM    3  C6  UNL     1     -32.443   7.627   2.181  1.00 20.00     0.168 C 
BRANCH   3   4
HETATM    4  O10 UNL     1     -32.570   9.028   2.394  1.00 20.00    -0.391 OA
BRANCH   4   5
HETATM    5  C5  UNL     1     -32.975   9.699   1.211  1.00 20.00     0.163 C 
HETATM    6  C1  UNL     1     -32.580   8.864   0.011  1.00 20.00     0.033 C 
ENDBRANCH   4   5
ENDBRANCH   3   4
ENDBRANCH   2   3
ENDBRANCH   1   2
BRANCH   1   7
HETATM    7  C7  UNL     1     -33.678   8.109   5.513  1.00 20.00     0.119 C 
HETATM    8 CL11 UNL     1     -32.238   9.146   5.381  1.00 20.00    -0.130 Cl
ENDBRANCH   1   7
BRANCH   1   9
HETATM    9  C8  UNL     1     -34.604   5.849   4.664  1.00 20.00    -0.017 C 
HETATM   10  C2  UNL     1     -33.939   4.625   4.016  1.00 20.00     0.010 C 
HETATM   11  C3  UNL     1     -34.662   5.615   6.179  1.00 20.00     0.010 C 
ENDBRANCH   1   9
TORSDOF 6
ENDMDL
MODEL 2
REMARK VINA RESULT:      -3.7      2.233      4.871
REMARK  6 active torsions:
REMARK  status: ('A' for Active; 'I' for Inactive)
REMARK    1  A    between atoms: C4_4  and  C6_6 
REMARK    2  A    between atoms: C4_4  and  C9_9 
REMARK    3  A    between atoms: C5_5  and  O10_10 
REMARK    4  A    between atoms: C6_6  and  O10_10 
REMARK    5  A    between atoms: C7_7  and  C9_9 
REMARK    6  A    between atoms: C8_8  and  C9_9 
ROOT
HETATM    1  C9  UNL     1     -32.646   7.852   2.910  1.00 20.00     0.005 C 
ENDROOT
BRANCH   1   2
HETATM    2  C4  UNL     1     -32.255   8.433   4.293  1.00 20.00     0.032 C 
BRANCH   2   3
HETATM    3  C6  UNL     1     -33.359   8.374   5.345  1.00 20.00     0.168 C 
BRANCH   3   4
HETATM    4  O10 UNL     1     -33.225   7.162   6.078  1.00 20.00    -0.391 OA
BRANCH   4   5
HETATM    5  C5  UNL     1     -34.490   6.646   6.466  1.00 20.00     0.163 C 
HETATM    6  C1  UNL     1     -34.508   5.152   6.225  1.00 20.00     0.033 C 
ENDBRANCH   4   5
ENDBRANCH   3   4
ENDBRANCH   2   3
ENDBRANCH   1   2
BRANCH   1   7
HETATM    7  C7  UNL     1     -32.182   6.391   2.727  1.00 20.00     0.119 C 
HETATM    8 CL11 UNL     1     -33.470   5.201   3.032  1.00 20.00    -0.130 Cl
ENDBRANCH   1   7
BRANCH   1   9
HETATM    9  C8  UNL     1     -32.168   8.783   1.745  1.00 20.00    -0.017 C 
HETATM   10  C2  UNL     1     -31.977   8.016   0.428  1.00 20.00     0.010 C 
HETATM   11  C3  UNL     1     -33.138   9.944   1.487  1.00 20.00     0.010 C 
ENDBRANCH   1   9
TORSDOF 6
ENDMDL
MODEL 3
REMARK VINA RESULT:      -3.7      2.210      4.264
REMARK  6 active torsions:
REMARK  status: ('A' for Active; 'I' for Inactive)
REMARK    1  A    between atoms: C4_4  and  C6_6 
REMARK    2  A    between atoms: C4_4  and  C9_9 
REMARK    3  A    between atoms: C5_5  and  O10_10 
REMARK    4  A    between atoms: C6_6  and  O10_10 
REMARK    5  A    between atoms: C7_7  and  C9_9 
REMARK    6  A    between atoms: C8_8  and  C9_9 
ROOT
HETATM    1  C9  UNL     1     -32.944   7.875   3.336  1.00 20.00     0.005 C 
ENDROOT
BRANCH   1   2
HETATM    2  C4  UNL     1     -32.199   6.594   2.881  1.00 20.00     0.032 C 
BRANCH   2   3
HETATM    3  C6  UNL     1     -33.077   5.351   2.768  1.00 20.00     0.168 C 
BRANCH   3   4
HETATM    4  O10 UNL     1     -34.173   5.484   3.665  1.00 20.00    -0.391 OA
BRANCH   4   5
HETATM    5  C5  UNL     1     -34.112   4.521   4.708  1.00 20.00     0.163 C 
HETATM    6  C1  UNL     1     -34.648   5.139   5.981  1.00 20.00     0.033 C 
ENDBRANCH   4   5
ENDBRANCH   3   4
ENDBRANCH   2   3
ENDBRANCH   1   2
BRANCH   1   7
HETATM    7  C7  UNL     1     -32.683   9.077   2.402  1.00 20.00     0.119 C 
HETATM    8 CL11 UNL     1     -32.271   8.597   0.738  1.00 20.00    -0.130 Cl
ENDBRANCH   1   7
BRANCH   1   9
HETATM    9  C8  UNL     1     -32.644   8.206   4.836  1.00 20.00    -0.017 C 
HETATM   10  C2  UNL     1     -31.828   9.497   4.996  1.00 20.00     0.010 C 
HETATM   11  C3  UNL     1     -33.923   8.343   5.673  1.00 20.00     0.010 C 
ENDBRANCH   1   9
TORSDOF 6
ENDMDL
MODEL 4
REMARK VINA RESULT:      -3.7      1.892      2.203
REMARK  6 active torsions:
REMARK  status: ('A' for Active; 'I' for Inactive)
REMARK    1  A    between atoms: C4_4  and  C6_6 
REMARK    2  A    between atoms: C4_4  and  C9_9 
REMARK    3  A    between atoms: C5_5  and  O10_10 
REMARK    4  A    between atoms: C6_6  and  O10_10 
REMARK    5  A    between atoms: C7_7  and  C9_9 
REMARK    6  A    between atoms: C8_8  and  C9_9 
ROOT
HETATM    1  C9  UNL     1     -33.272   6.623   4.299  1.00 20.00     0.005 C 
ENDROOT
BRANCH   1   2
HETATM    2  C4  UNL     1     -32.777   8.080   4.113  1.00 20.00     0.032 C 
BRANCH   2   3
HETATM    3  C6  UNL     1     -32.217   8.393   2.728  1.00 20.00     0.168 C 
BRANCH   3   4
HETATM    4  O10 UNL     1     -32.861   9.560   2.229  1.00 20.00    -0.391 OA
BRANCH   4   5
HETATM    5  C5  UNL     1     -32.844   9.596   0.809  1.00 20.00     0.163 C 
HETATM    6  C1  UNL     1     -32.134   8.363   0.294  1.00 20.00     0.033 C 
ENDBRANCH   4   5
ENDBRANCH   3   4
ENDBRANCH   2   3
ENDBRANCH   1   2
BRANCH   1   7
HETATM    7  C7  UNL     1     -33.686   5.962   2.966  1.00 20.00     0.119 C 
HETATM    8 CL11 UNL     1     -32.626   4.613   2.490  1.00 20.00    -0.130 Cl
ENDBRANCH   1   7
BRANCH   1   9
HETATM    9  C8  UNL     1     -34.396   6.537   5.385  1.00 20.00    -0.017 C 
HETATM   10  C2  UNL     1     -34.655   5.094   5.841  1.00 20.00     0.010 C 
HETATM   11  C3  UNL     1     -34.076   7.381   6.626  1.00 20.00     0.010 C 
ENDBRANCH   1   9
TORSDOF 6
ENDMDL
MODEL 5
REMARK VINA RESULT:      -3.6     11.103     12.102
REMARK  6 active torsions:
REMARK  status: ('A' for Active; 'I' for Inactive)
REMARK    1  A    between atoms: C4_4  and  C6_6 
REMARK    2  A    between atoms: C4_4  and  C9_9 
REMARK    3  A    between atoms: C5_5  and  O10_10 
REMARK    4  A    between atoms: C6_6  and  O10_10 
REMARK    5  A    between atoms: C7_7  and  C9_9 
REMARK    6  A    between atoms: C8_8  and  C9_9 
ROOT
HETATM    1  C9  UNL     1     -33.689  17.282  -2.833  1.00 20.00     0.005 C 
ENDROOT
BRANCH   1   2
HETATM    2  C4  UNL     1     -33.244  15.848  -3.219  1.00 20.00     0.032 C 
BRANCH   2   3
HETATM    3  C6  UNL     1     -33.949  15.269  -4.443  1.00 20.00     0.168 C 
BRANCH   3   4
HETATM    4  O10 UNL     1     -34.428  13.969  -4.120  1.00 20.00    -0.391 OA
BRANCH   4   5
HETATM    5  C5  UNL     1     -35.716  13.737  -4.674  1.00 20.00     0.163 C 
HETATM    6  C1  UNL     1     -35.997  14.790  -5.724  1.00 20.00     0.033 C 
ENDBRANCH   4   5
ENDBRANCH   3   4
ENDBRANCH   2   3
ENDBRANCH   1   2
BRANCH   1   7
HETATM    7  C7  UNL     1     -33.587  18.273  -4.012  1.00 20.00     0.119 C 
HETATM    8 CL11 UNL     1     -35.171  18.761  -4.660  1.00 20.00    -0.130 Cl
ENDBRANCH   1   7
BRANCH   1   9
HETATM    9  C8  UNL     1     -32.934  17.787  -1.557  1.00 20.00    -0.017 C 
HETATM   10  C2  UNL     1     -32.344  19.192  -1.750  1.00 20.00     0.010 C 
HETATM   11  C3  UNL     1     -33.835  17.813  -0.315  1.00 20.00     0.010 C 
ENDBRANCH   1   9
TORSDOF 6
ENDMDL
MODEL 6
REMARK VINA RESULT:      -3.6      9.621     10.850
REMARK  6 active torsions:
REMARK  status: ('A' for Active; 'I' for Inactive)
REMARK    1  A    between atoms: C4_4  and  C6_6 
REMARK    2  A    between atoms: C4_4  and  C9_9 
REMARK    3  A    between atoms: C5_5  and  O10_10 
REMARK    4  A    between atoms: C6_6  and  O10_10 
REMARK    5  A    between atoms: C7_7  and  C9_9 
REMARK    6  A    between atoms: C8_8  and  C9_9 
ROOT
HETATM    1  C9  UNL     1     -40.926  13.229   5.844  1.00 20.00     0.005 C 
ENDROOT
BRANCH   1   2
HETATM    2  C4  UNL     1     -42.000  12.890   6.909  1.00 20.00     0.032 C 
BRANCH   2   3
HETATM    3  C6  UNL     1     -41.998  13.803   8.132  1.00 20.00     0.168 C 
BRANCH   3   4
HETATM    4  O10 UNL     1     -40.719  13.734   8.750  1.00 20.00    -0.391 OA
BRANCH   4   5
HETATM    5  C5  UNL     1     -40.325  14.995   9.273  1.00 20.00     0.163 C 
HETATM    6  C1  UNL     1     -40.458  16.041   8.187  1.00 20.00     0.033 C 
ENDBRANCH   4   5
ENDBRANCH   3   4
ENDBRANCH   2   3
ENDBRANCH   1   2
BRANCH   1   7
HETATM    7  C7  UNL     1     -41.536  13.795   4.544  1.00 20.00     0.119 C 
HETATM    8 CL11 UNL     1     -42.562  15.225   4.813  1.00 20.00    -0.130 Cl
ENDBRANCH   1   7
BRANCH   1   9
HETATM    9  C8  UNL     1     -39.980  12.010   5.581  1.00 20.00    -0.017 C 
HETATM   10  C2  UNL     1     -39.448  11.986   4.140  1.00 20.00     0.010 C 
HETATM   11  C3  UNL     1     -38.777  11.984   6.534  1.00 20.00     0.010 C 
ENDBRANCH   1   9
TORSDOF 6
ENDMDL
MODEL 7
REMARK VINA RESULT:      -3.6     11.210     12.071
REMARK  6 active torsions:
REMARK  status: ('A' for Active; 'I' for Inactive)
REMARK    1  A    between atoms: C4_4  and  C6_6 
REMARK    2  A    between atoms: C4_4  and  C9_9 
REMARK    3  A    between atoms: C5_5  and  O10_10 
REMARK    4  A    between atoms: C6_6  and  O10_10 
REMARK    5  A    between atoms: C7_7  and  C9_9 
REMARK    6  A    between atoms: C8_8  and  C9_9 
ROOT
HETATM    1  C9  UNL     1     -34.002  18.137  -1.392  1.00 20.00     0.005 C 
ENDROOT
BRANCH   1   2
HETATM    2  C4  UNL     1     -33.329  16.875  -1.989  1.00 20.00     0.032 C 
BRANCH   2   3
HETATM    3  C6  UNL     1     -33.542  16.687  -3.489  1.00 20.00     0.168 C 
BRANCH   3   4
HETATM    4  O10 UNL     1     -32.862  15.507  -3.901  1.00 20.00    -0.391 OA
BRANCH   4   5
HETATM    5  C5  UNL     1     -33.750  14.584  -4.515  1.00 20.00     0.163 C 
HETATM    6  C1  UNL     1     -34.046  15.049  -5.925  1.00 20.00     0.033 C 
ENDBRANCH   4   5
ENDBRANCH   3   4
ENDBRANCH   2   3
ENDBRANCH   1   2
BRANCH   1   7
HETATM    7  C7  UNL     1     -34.647  19.034  -2.471  1.00 20.00     0.119 C 
HETATM    8 CL11 UNL     1     -36.413  18.842  -2.582  1.00 20.00    -0.130 Cl
ENDBRANCH   1   7
BRANCH   1   9
HETATM    9  C8  UNL     1     -33.015  18.926  -0.468  1.00 20.00    -0.017 C 
HETATM   10  C2  UNL     1     -33.417  18.850   1.012  1.00 20.00     0.010 C 
HETATM   11  C3  UNL     1     -31.569  18.430  -0.597  1.00 20.00     0.010 C 
ENDBRANCH   1   9
TORSDOF 6
ENDMDL
MODEL 8
REMARK VINA RESULT:      -3.5     11.268     12.471
REMARK  6 active torsions:
REMARK  status: ('A' for Active; 'I' for Inactive)
REMARK    1  A    between atoms: C4_4  and  C6_6 
REMARK    2  A    between atoms: C4_4  and  C9_9 
REMARK    3  A    between atoms: C5_5  and  O10_10 
REMARK    4  A    between atoms: C6_6  and  O10_10 
REMARK    5  A    between atoms: C7_7  and  C9_9 
REMARK    6  A    between atoms: C8_8  and  C9_9 
ROOT
HETATM    1  C9  UNL     1     -33.795  16.918  -2.905  1.00 20.00     0.005 C 
ENDROOT
BRANCH   1   2
HETATM    2  C4  UNL     1     -32.951  17.396  -1.695  1.00 20.00     0.032 C 
BRANCH   2   3
HETATM    3  C6  UNL     1     -33.763  17.958  -0.532  1.00 20.00     0.168 C 
BRANCH   3   4
HETATM    4  O10 UNL     1     -32.877  18.253   0.542  1.00 20.00    -0.391 OA
BRANCH   4   5
HETATM    5  C5  UNL     1     -31.584  18.601   0.068  1.00 20.00     0.163 C 
HETATM    6  C1  UNL     1     -30.676  18.848   1.253  1.00 20.00     0.033 C 
ENDBRANCH   4   5
ENDBRANCH   3   4
ENDBRANCH   2   3
ENDBRANCH   1   2
BRANCH   1   7
HETATM    7  C7  UNL     1     -33.084  15.823  -3.729  1.00 20.00     0.119 C 
HETATM    8 CL11 UNL     1     -34.099  14.389  -4.017  1.00 20.00    -0.130 Cl
ENDBRANCH   1   7
BRANCH   1   9
HETATM    9  C8  UNL     1     -34.261  18.125  -3.786  1.00 20.00    -0.017 C 
HETATM   10  C2  UNL     1     -33.101  19.064  -4.147  1.00 20.00     0.010 C 
HETATM   11  C3  UNL     1     -34.933  17.673  -5.090  1.00 20.00     0.010 C 
ENDBRANCH   1   9
TORSDOF 6
ENDMDL
MODEL 9
REMARK VINA RESULT:      -3.5     11.031     12.276
REMARK  6 active torsions:
REMARK  status: ('A' for Active; 'I' for Inactive)
REMARK    1  A    between atoms: C4_4  and  C6_6 
REMARK    2  A    between atoms: C4_4  and  C9_9 
REMARK    3  A    between atoms: C5_5  and  O10_10 
REMARK    4  A    between atoms: C6_6  and  O10_10 
REMARK    5  A    between atoms: C7_7  and  C9_9 
REMARK    6  A    between atoms: C8_8  and  C9_9 
ROOT
HETATM    1  C9  UNL     1     -33.830  16.790  -4.180  1.00 20.00     0.005 C 
ENDROOT
BRANCH   1   2
HETATM    2  C4  UNL     1     -33.342  16.403  -2.761  1.00 20.00     0.032 C 
BRANCH   2   3
HETATM    3  C6  UNL     1     -33.668  17.423  -1.674  1.00 20.00     0.168 C 
BRANCH   3   4
HETATM    4  O10 UNL     1     -32.483  18.140  -1.351  1.00 20.00    -0.391 OA
BRANCH   4   5
HETATM    5  C5  UNL     1     -32.433  18.469   0.030  1.00 20.00     0.163 C 
HETATM    6  C1  UNL     1     -30.986  18.609   0.452  1.00 20.00     0.033 C 
ENDBRANCH   4   5
ENDBRANCH   3   4
ENDBRANCH   2   3
ENDBRANCH   1   2
BRANCH   1   7
HETATM    7  C7  UNL     1     -34.669  18.086  -4.187  1.00 20.00     0.119 C 
HETATM    8 CL11 UNL     1     -36.406  17.799  -4.451  1.00 20.00    -0.130 Cl
ENDBRANCH   1   7
BRANCH   1   9
HETATM    9  C8  UNL     1     -34.567  15.595  -4.874  1.00 20.00    -0.017 C 
HETATM   10  C2  UNL     1     -34.213  15.479  -6.364  1.00 20.00     0.010 C 
HETATM   11  C3  UNL     1     -34.260  14.249  -4.204  1.00 20.00     0.010 C 
ENDBRANCH   1   9
TORSDOF 6
ENDMDL
