MODEL 1
REMARK VINA RESULT:      -4.6      0.000      0.000
REMARK  5 active torsions:
REMARK  status: ('A' for Active; 'I' for Inactive)
REMARK    1  A    between atoms: C3_3  and  C6_6 
REMARK    2  A    between atoms: C3_3  and  C7_7 
REMARK    3  A    between atoms: C6_6  and  C10_10 
REMARK    4  A    between atoms: C8_8  and  C9_9 
REMARK    5  A    between atoms: C9_9  and  C10_10 
ROOT
HETATM    1  C6  UNL     1     -34.032   7.476   4.394  1.00 20.00     0.015 C 
ENDROOT
BRANCH   1   2
HETATM    2  C3  UNL     1     -34.203   6.172   5.159  1.00 20.00    -0.027 A 
HETATM    3  C1  UNL     1     -33.427   5.998   6.444  1.00 20.00     0.011 A 
HETATM    4  C2  UNL     1     -34.912   6.221   6.493  1.00 20.00     0.011 A 
BRANCH   2   5
HETATM    5  C7  UNL     1     -34.413   4.961   4.294  1.00 20.00     0.124 C 
HETATM    6 CL11 UNL     1     -33.237   4.926   2.957  1.00 20.00    -0.130 Cl
ENDBRANCH   2   5
ENDBRANCH   1   2
BRANCH   1   7
HETATM    7  C10 UNL     1     -32.561   7.866   4.156  1.00 20.00    -0.018 C 
HETATM    8  C5  UNL     1     -32.217   9.113   4.978  1.00 20.00     0.010 C 
BRANCH   7   9
HETATM    9  C9  UNL     1     -32.177   8.048   2.673  1.00 20.00     0.004 C 
BRANCH   9  10
HETATM   10  C8  UNL     1     -32.825   9.245   1.974  1.00 20.00    -0.004 C 
HETATM   11  C4  UNL     1     -32.645   9.165   0.464  1.00 20.00     0.005 C 
ENDBRANCH   9  10
ENDBRANCH   7   9
ENDBRANCH   1   7
TORSDOF 5
ENDMDL
MODEL 2
REMARK VINA RESULT:      -4.0      1.911      2.608
REMARK  5 active torsions:
REMARK  status: ('A' for Active; 'I' for Inactive)
REMARK    1  A    between atoms: C3_3  and  C6_6 
REMARK    2  A    between atoms: C3_3  and  C7_7 
REMARK    3  A    between atoms: C6_6  and  C10_10 
REMARK    4  A    between atoms: C8_8  and  C9_9 
REMARK    5  A    between atoms: C9_9  and  C10_10 
ROOT
HETATM    1  C6  UNL     1     -32.756   6.424   4.324  1.00 20.00     0.015 C 
ENDROOT
BRANCH   1   2
HETATM    2  C3  UNL     1     -33.997   6.770   5.136  1.00 20.00    -0.027 A 
HETATM    3  C1  UNL     1     -35.284   6.053   4.801  1.00 20.00     0.011 A 
HETATM    4  C2  UNL     1     -34.550   5.715   6.067  1.00 20.00     0.011 A 
BRANCH   2   5
HETATM    5  C7  UNL     1     -34.082   8.207   5.568  1.00 20.00     0.124 C 
HETATM    6 CL11 UNL     1     -32.536   9.044   5.292  1.00 20.00    -0.130 Cl
ENDBRANCH   2   5
ENDBRANCH   1   2
BRANCH   1   7
HETATM    7  C10 UNL     1     -32.992   6.429   2.802  1.00 20.00    -0.018 C 
HETATM    8  C5  UNL     1     -32.852   5.006   2.253  1.00 20.00     0.010 C 
BRANCH   7   9
HETATM    9  C9  UNL     1     -32.107   7.422   2.020  1.00 20.00     0.004 C 
BRANCH   9  10
HETATM   10  C8  UNL     1     -32.673   8.838   1.889  1.00 20.00    -0.004 C 
HETATM   11  C4  UNL     1     -32.692   9.292   0.436  1.00 20.00     0.005 C 
ENDBRANCH   9  10
ENDBRANCH   7   9
ENDBRANCH   1   7
TORSDOF 5
ENDMDL
MODEL 3
REMARK VINA RESULT:      -4.0      1.862      4.372
REMARK  5 active torsions:
REMARK  status: ('A' for Active; 'I' for Inactive)
REMARK    1  A    between atoms: C3_3  and  C6_6 
REMARK    2  A    between atoms: C3_3  and  C7_7 
REMARK    3  A    between atoms: C6_6  and  C10_10 
REMARK    4  A    between atoms: C8_8  and  C9_9 
REMARK    5  A    between atoms: C9_9  and  C10_10 
ROOT
HETATM    1  C6  UNL     1     -32.239   7.190   3.004  1.00 20.00     0.015 C 
ENDROOT
BRANCH   1   2
HETATM    2  C3  UNL     1     -32.665   8.520   3.610  1.00 20.00    -0.027 A 
HETATM    3  C1  UNL     1     -33.373   8.495   4.944  1.00 20.00     0.011 A 
HETATM    4  C2  UNL     1     -31.956   8.986   4.861  1.00 20.00     0.011 A 
BRANCH   2   5
HETATM    5  C7  UNL     1     -33.084   9.559   2.608  1.00 20.00     0.124 C 
HETATM    6 CL11 UNL     1     -32.575   9.097   0.966  1.00 20.00    -0.130 Cl
ENDBRANCH   2   5
ENDBRANCH   1   2
BRANCH   1   7
HETATM    7  C10 UNL     1     -33.019   5.982   3.554  1.00 20.00    -0.018 C 
HETATM    8  C5  UNL     1     -32.895   4.802   2.584  1.00 20.00     0.010 C 
BRANCH   7   9
HETATM    9  C9  UNL     1     -34.494   6.273   3.897  1.00 20.00     0.004 C 
BRANCH   9  10
HETATM   10  C8  UNL     1     -35.146   5.286   4.868  1.00 20.00    -0.004 C 
HETATM   11  C4  UNL     1     -34.505   5.365   6.247  1.00 20.00     0.005 C 
ENDBRANCH   9  10
ENDBRANCH   7   9
ENDBRANCH   1   7
TORSDOF 5
ENDMDL
MODEL 4
REMARK VINA RESULT:      -3.9      1.638      2.129
REMARK  5 active torsions:
REMARK  status: ('A' for Active; 'I' for Inactive)
REMARK    1  A    between atoms: C3_3  and  C6_6 
REMARK    2  A    between atoms: C3_3  and  C7_7 
REMARK    3  A    between atoms: C6_6  and  C10_10 
REMARK    4  A    between atoms: C8_8  and  C9_9 
REMARK    5  A    between atoms: C9_9  and  C10_10 
ROOT
HETATM    1  C6  UNL     1     -34.047   7.611   4.269  1.00 20.00     0.015 C 
ENDROOT
BRANCH   1   2
HETATM    2  C3  UNL     1     -34.344   6.275   4.936  1.00 20.00    -0.027 A 
HETATM    3  C1  UNL     1     -35.565   5.512   4.479  1.00 20.00     0.011 A 
HETATM    4  C2  UNL     1     -34.196   5.021   4.106  1.00 20.00     0.011 A 
BRANCH   2   5
HETATM    5  C7  UNL     1     -33.972   6.206   6.390  1.00 20.00     0.124 C 
HETATM    6 CL11 UNL     1     -34.266   7.766   7.195  1.00 20.00    -0.130 Cl
ENDBRANCH   2   5
ENDBRANCH   1   2
BRANCH   1   7
HETATM    7  C10 UNL     1     -32.550   7.845   3.991  1.00 20.00    -0.018 C 
HETATM    8  C5  UNL     1     -32.060   9.058   4.789  1.00 20.00     0.010 C 
BRANCH   7   9
HETATM    9  C9  UNL     1     -32.188   7.972   2.497  1.00 20.00     0.004 C 
BRANCH   9  10
HETATM   10  C8  UNL     1     -32.753   9.206   1.791  1.00 20.00    -0.004 C 
HETATM   11  C4  UNL     1     -32.653   9.070   0.278  1.00 20.00     0.005 C 
ENDBRANCH   9  10
ENDBRANCH   7   9
ENDBRANCH   1   7
TORSDOF 5
ENDMDL
MODEL 5
REMARK VINA RESULT:      -3.8      1.046      1.409
REMARK  5 active torsions:
REMARK  status: ('A' for Active; 'I' for Inactive)
REMARK    1  A    between atoms: C3_3  and  C6_6 
REMARK    2  A    between atoms: C3_3  and  C7_7 
REMARK    3  A    between atoms: C6_6  and  C10_10 
REMARK    4  A    between atoms: C8_8  and  C9_9 
REMARK    5  A    between atoms: C9_9  and  C10_10 
ROOT
HETATM    1  C6  UNL     1     -34.190   8.032   4.900  1.00 20.00     0.015 C 
ENDROOT
BRANCH   1   2
HETATM    2  C3  UNL     1     -34.413   6.631   5.453  1.00 20.00    -0.027 A 
HETATM    3  C1  UNL     1     -33.387   6.078   6.414  1.00 20.00     0.011 A 
HETATM    4  C2  UNL     1     -34.738   6.493   6.922  1.00 20.00     0.011 A 
BRANCH   2   5
HETATM    5  C7  UNL     1     -35.066   5.677   4.493  1.00 20.00     0.124 C 
HETATM    6 CL11 UNL     1     -34.109   4.184   4.333  1.00 20.00    -0.130 Cl
ENDBRANCH   2   5
ENDBRANCH   1   2
BRANCH   1   7
HETATM    7  C10 UNL     1     -32.773   8.259   4.342  1.00 20.00    -0.018 C 
HETATM    8  C5  UNL     1     -32.009   9.228   5.251  1.00 20.00     0.010 C 
BRANCH   7   9
HETATM    9  C9  UNL     1     -32.729   8.719   2.870  1.00 20.00     0.004 C 
BRANCH   9  10
HETATM   10  C8  UNL     1     -32.195   7.683   1.879  1.00 20.00    -0.004 C 
HETATM   11  C4  UNL     1     -32.292   6.274   2.447  1.00 20.00     0.005 C 
ENDBRANCH   9  10
ENDBRANCH   7   9
ENDBRANCH   1   7
TORSDOF 5
ENDMDL
MODEL 6
REMARK VINA RESULT:      -3.8     11.619     12.399
REMARK  5 active torsions:
REMARK  status: ('A' for Active; 'I' for Inactive)
REMARK    1  A    between atoms: C3_3  and  C6_6 
REMARK    2  A    between atoms: C3_3  and  C7_7 
REMARK    3  A    between atoms: C6_6  and  C10_10 
REMARK    4  A    between atoms: C8_8  and  C9_9 
REMARK    5  A    between atoms: C9_9  and  C10_10 
ROOT
HETATM    1  C6  UNL     1     -33.685  17.033  -1.557  1.00 20.00     0.015 C 
ENDROOT
BRANCH   1   2
HETATM    2  C3  UNL     1     -33.499  18.334  -0.789  1.00 20.00    -0.027 A 
HETATM    3  C1  UNL     1     -34.729  19.155  -0.478  1.00 20.00     0.011 A 
HETATM    4  C2  UNL     1     -34.035  18.405   0.623  1.00 20.00     0.011 A 
BRANCH   2   5
HETATM    5  C7  UNL     1     -32.222  19.066  -1.095  1.00 20.00     0.124 C 
HETATM    6 CL11 UNL     1     -30.855  18.354  -0.205  1.00 20.00    -0.130 Cl
ENDBRANCH   2   5
ENDBRANCH   1   2
BRANCH   1   7
HETATM    7  C10 UNL     1     -33.331  17.143  -3.052  1.00 20.00    -0.018 C 
HETATM    8  C5  UNL     1     -34.480  17.820  -3.807  1.00 20.00     0.010 C 
BRANCH   7   9
HETATM    9  C9  UNL     1     -32.933  15.808  -3.716  1.00 20.00     0.004 C 
BRANCH   9  10
HETATM   10  C8  UNL     1     -34.099  14.973  -4.252  1.00 20.00    -0.004 C 
HETATM   11  C4  UNL     1     -34.063  14.889  -5.772  1.00 20.00     0.005 C 
ENDBRANCH   9  10
ENDBRANCH   7   9
ENDBRANCH   1   7
TORSDOF 5
ENDMDL
MODEL 7
REMARK VINA RESULT:      -3.7     10.308     11.096
REMARK  5 active torsions:
REMARK  status: ('A' for Active; 'I' for Inactive)
REMARK    1  A    between atoms: C3_3  and  C6_6 
REMARK    2  A    between atoms: C3_3  and  C7_7 
REMARK    3  A    between atoms: C6_6  and  C10_10 
REMARK    4  A    between atoms: C8_8  and  C9_9 
REMARK    5  A    between atoms: C9_9  and  C10_10 
ROOT
HETATM    1  C6  UNL     1     -41.715  13.846   7.497  1.00 20.00     0.015 C 
ENDROOT
BRANCH   1   2
HETATM    2  C3  UNL     1     -41.046  14.884   8.387  1.00 20.00    -0.027 A 
HETATM    3  C1  UNL     1     -41.718  15.234   9.694  1.00 20.00     0.011 A 
HETATM    4  C2  UNL     1     -40.458  14.417   9.699  1.00 20.00     0.011 A 
BRANCH   2   5
HETATM    5  C7  UNL     1     -40.333  15.979   7.645  1.00 20.00     0.124 C 
HETATM    6 CL11 UNL     1     -41.495  17.149   6.974  1.00 20.00    -0.130 Cl
ENDBRANCH   2   5
ENDBRANCH   1   2
BRANCH   1   7
HETATM    7  C10 UNL     1     -40.974  13.599   6.170  1.00 20.00    -0.018 C 
HETATM    8  C5  UNL     1     -41.875  13.988   4.994  1.00 20.00     0.010 C 
BRANCH   7   9
HETATM    9  C9  UNL     1     -40.419  12.169   6.002  1.00 20.00     0.004 C 
BRANCH   9  10
HETATM   10  C8  UNL     1     -38.982  12.084   5.482  1.00 20.00    -0.004 C 
HETATM   11  C4  UNL     1     -38.949  11.661   4.020  1.00 20.00     0.005 C 
ENDBRANCH   9  10
ENDBRANCH   7   9
ENDBRANCH   1   7
TORSDOF 5
ENDMDL
MODEL 8
REMARK VINA RESULT:      -3.7     11.773     12.773
REMARK  5 active torsions:
REMARK  status: ('A' for Active; 'I' for Inactive)
REMARK    1  A    between atoms: C3_3  and  C6_6 
REMARK    2  A    between atoms: C3_3  and  C7_7 
REMARK    3  A    between atoms: C6_6  and  C10_10 
REMARK    4  A    between atoms: C8_8  and  C9_9 
REMARK    5  A    between atoms: C9_9  and  C10_10 
ROOT
HETATM    1  C6  UNL     1     -33.224  16.287  -3.346  1.00 20.00     0.015 C 
ENDROOT
BRANCH   1   2
HETATM    2  C3  UNL     1     -34.198  15.832  -4.424  1.00 20.00    -0.027 A 
HETATM    3  C1  UNL     1     -33.681  14.905  -5.499  1.00 20.00     0.011 A 
HETATM    4  C2  UNL     1     -34.607  14.377  -4.441  1.00 20.00     0.011 A 
BRANCH   2   5
HETATM    5  C7  UNL     1     -35.226  16.858  -4.812  1.00 20.00     0.124 C 
HETATM    6 CL11 UNL     1     -34.714  17.750  -6.266  1.00 20.00    -0.130 Cl
ENDBRANCH   2   5
ENDBRANCH   1   2
BRANCH   1   7
HETATM    7  C10 UNL     1     -33.673  17.559  -2.604  1.00 20.00    -0.018 C 
HETATM    8  C5  UNL     1     -32.834  18.753  -3.072  1.00 20.00     0.010 C 
BRANCH   7   9
HETATM    9  C9  UNL     1     -33.670  17.440  -1.066  1.00 20.00     0.004 C 
BRANCH   9  10
HETATM   10  C8  UNL     1     -33.293  18.717  -0.313  1.00 20.00    -0.004 C 
HETATM   11  C4  UNL     1     -32.039  18.515   0.525  1.00 20.00     0.005 C 
ENDBRANCH   9  10
ENDBRANCH   7   9
ENDBRANCH   1   7
TORSDOF 5
ENDMDL
MODEL 9
REMARK VINA RESULT:      -3.7     10.307     11.107
REMARK  5 active torsions:
REMARK  status: ('A' for Active; 'I' for Inactive)
REMARK    1  A    between atoms: C3_3  and  C6_6 
REMARK    2  A    between atoms: C3_3  and  C7_7 
REMARK    3  A    between atoms: C6_6  and  C10_10 
REMARK    4  A    between atoms: C8_8  and  C9_9 
REMARK    5  A    between atoms: C9_9  and  C10_10 
ROOT
HETATM    1  C6  UNL     1     -41.696  13.914   7.547  1.00 20.00     0.015 C 
ENDROOT
BRANCH   1   2
HETATM    2  C3  UNL     1     -41.040  15.008   8.377  1.00 20.00    -0.027 A 
HETATM    3  C1  UNL     1     -40.381  16.153   7.645  1.00 20.00     0.011 A 
HETATM    4  C2  UNL     1     -41.676  16.379   8.371  1.00 20.00     0.011 A 
BRANCH   2   5
HETATM    5  C7  UNL     1     -40.408  14.530   9.654  1.00 20.00     0.124 C 
HETATM    6 CL11 UNL     1     -41.609  13.728  10.694  1.00 20.00    -0.130 Cl
ENDBRANCH   2   5
ENDBRANCH   1   2
BRANCH   1   7
HETATM    7  C10 UNL     1     -40.990  13.650   6.203  1.00 20.00    -0.018 C 
HETATM    8  C5  UNL     1     -41.918  14.038   5.047  1.00 20.00     0.010 C 
BRANCH   7   9
HETATM    9  C9  UNL     1     -40.452  12.215   6.033  1.00 20.00     0.004 C 
BRANCH   9  10
HETATM   10  C8  UNL     1     -39.013  12.114   5.520  1.00 20.00    -0.004 C 
HETATM   11  C4  UNL     1     -38.976  11.644   4.073  1.00 20.00     0.005 C 
ENDBRANCH   9  10
ENDBRANCH   7   9
ENDBRANCH   1   7
TORSDOF 5
ENDMDL
