MODEL 1
REMARK VINA RESULT:      -3.9      0.000      0.000
REMARK  3 active torsions:
REMARK  status: ('A' for Active; 'I' for Inactive)
REMARK    1  A    between atoms: C6_6  and  C8_8 
REMARK    2  A    between atoms: C7_7  and  C8_8 
REMARK    3  A    between atoms: C7_7  and  C9_9 
ROOT
HETATM    1  C8  UNL     1     -32.512  18.777  -1.960  1.00 20.00     0.042 C 
ENDROOT
BRANCH   1   2
HETATM    2  C6  UNL     1     -31.966  18.256  -0.645  1.00 20.00     0.122 C 
HETATM    3  C2  UNL     1     -32.803  18.652   0.559  1.00 20.00     0.034 C 
HETATM    4  C1  UNL     1     -31.779  18.610   1.665  1.00 20.00     0.029 C 
HETATM    5  C5  UNL     1     -30.548  19.156   0.972  1.00 20.00     0.168 C 
HETATM    6  O10 UNL     1     -30.653  18.794  -0.413  1.00 20.00    -0.386 OA
ENDBRANCH   1   2
BRANCH   1   7
HETATM    7  C7  UNL     1     -33.732  18.029  -2.398  1.00 20.00    -0.025 A 
HETATM    8  C3  UNL     1     -35.079  18.673  -2.167  1.00 20.00     0.011 A 
HETATM    9  C4  UNL     1     -34.524  18.583  -3.560  1.00 20.00     0.011 A 
BRANCH   7  10
HETATM   10  C9  UNL     1     -33.632  16.535  -2.262  1.00 20.00     0.124 C 
HETATM   11 CL11 UNL     1     -32.888  15.816  -3.711  1.00 20.00    -0.130 Cl
ENDBRANCH   7  10
ENDBRANCH   1   7
TORSDOF 3
ENDMDL
MODEL 2
REMARK VINA RESULT:      -3.9      2.736      3.861
REMARK  3 active torsions:
REMARK  status: ('A' for Active; 'I' for Inactive)
REMARK    1  A    between atoms: C6_6  and  C8_8 
REMARK    2  A    between atoms: C7_7  and  C8_8 
REMARK    3  A    between atoms: C7_7  and  C9_9 
ROOT
HETATM    1  C8  UNL     1     -34.466  16.785  -4.183  1.00 20.00     0.042 C 
ENDROOT
BRANCH   1   2
HETATM    2  C6  UNL     1     -33.271  17.178  -3.336  1.00 20.00     0.122 C 
HETATM    3  C2  UNL     1     -33.523  17.068  -1.843  1.00 20.00     0.034 C 
HETATM    4  C1  UNL     1     -32.536  18.068  -1.296  1.00 20.00     0.029 C 
HETATM    5  C5  UNL     1     -32.605  19.173  -2.331  1.00 20.00     0.168 C 
HETATM    6  O10 UNL     1     -32.928  18.552  -3.584  1.00 20.00    -0.386 OA
ENDBRANCH   1   2
BRANCH   1   7
HETATM    7  C7  UNL     1     -34.219  15.527  -4.955  1.00 20.00    -0.025 A 
HETATM    8  C3  UNL     1     -33.195  14.554  -4.418  1.00 20.00     0.011 A 
HETATM    9  C4  UNL     1     -34.657  14.218  -4.339  1.00 20.00     0.011 A 
BRANCH   7  10
HETATM   10  C9  UNL     1     -34.334  15.676  -6.448  1.00 20.00     0.124 C 
HETATM   11 CL11 UNL     1     -34.486  17.391  -6.901  1.00 20.00    -0.130 Cl
ENDBRANCH   7  10
ENDBRANCH   1   7
TORSDOF 3
ENDMDL
MODEL 3
REMARK VINA RESULT:      -3.7     12.098     13.063
REMARK  3 active torsions:
REMARK  status: ('A' for Active; 'I' for Inactive)
REMARK    1  A    between atoms: C6_6  and  C8_8 
REMARK    2  A    between atoms: C7_7  and  C8_8 
REMARK    3  A    between atoms: C7_7  and  C9_9 
ROOT
HETATM    1  C8  UNL     1     -41.345  14.143   7.755  1.00 20.00     0.042 C 
ENDROOT
BRANCH   1   2
HETATM    2  C6  UNL     1     -40.358  13.715   6.686  1.00 20.00     0.122 C 
HETATM    3  C2  UNL     1     -41.014  13.357   5.364  1.00 20.00     0.034 C 
HETATM    4  C1  UNL     1     -40.002  12.408   4.773  1.00 20.00     0.029 C 
HETATM    5  C5  UNL     1     -39.538  11.644   5.997  1.00 20.00     0.168 C 
HETATM    6  O10 UNL     1     -39.653  12.537   7.115  1.00 20.00    -0.386 OA
ENDBRANCH   1   2
BRANCH   1   7
HETATM    7  C7  UNL     1     -40.949  15.434   8.402  1.00 20.00    -0.025 A 
HETATM    8  C3  UNL     1     -40.687  16.623   7.508  1.00 20.00     0.011 A 
HETATM    9  C4  UNL     1     -41.930  16.582   8.351  1.00 20.00     0.011 A 
BRANCH   7  10
HETATM   10  C9  UNL     1     -40.106  15.281   9.638  1.00 20.00     0.124 C 
HETATM   11 CL11 UNL     1     -40.802  14.060  10.731  1.00 20.00    -0.130 Cl
ENDBRANCH   7  10
ENDBRANCH   1   7
TORSDOF 3
ENDMDL
MODEL 4
REMARK VINA RESULT:      -3.7      2.554      4.574
REMARK  3 active torsions:
REMARK  status: ('A' for Active; 'I' for Inactive)
REMARK    1  A    between atoms: C6_6  and  C8_8 
REMARK    2  A    between atoms: C7_7  and  C8_8 
REMARK    3  A    between atoms: C7_7  and  C9_9 
ROOT
HETATM    1  C8  UNL     1     -33.691  17.001  -1.525  1.00 20.00     0.042 C 
ENDROOT
BRANCH   1   2
HETATM    2  C6  UNL     1     -33.455  17.052  -3.022  1.00 20.00     0.122 C 
HETATM    3  C2  UNL     1     -34.640  17.589  -3.806  1.00 20.00     0.034 C 
HETATM    4  C1  UNL     1     -34.426  16.947  -5.153  1.00 20.00     0.029 C 
HETATM    5  C5  UNL     1     -33.911  15.576  -4.768  1.00 20.00     0.168 C 
HETATM    6  O10 UNL     1     -33.212  15.726  -3.524  1.00 20.00    -0.386 OA
ENDBRANCH   1   2
BRANCH   1   7
HETATM    7  C7  UNL     1     -33.514  18.342  -0.883  1.00 20.00    -0.025 A 
HETATM    8  C3  UNL     1     -34.739  19.205  -0.693  1.00 20.00     0.011 A 
HETATM    9  C4  UNL     1     -34.096  18.549   0.496  1.00 20.00     0.011 A 
BRANCH   7  10
HETATM   10  C9  UNL     1     -32.213  19.024  -1.208  1.00 20.00     0.124 C 
HETATM   11 CL11 UNL     1     -30.886  18.358  -0.225  1.00 20.00    -0.130 Cl
ENDBRANCH   7  10
ENDBRANCH   1   7
TORSDOF 3
ENDMDL
MODEL 5
REMARK VINA RESULT:      -3.6      3.202      5.328
REMARK  3 active torsions:
REMARK  status: ('A' for Active; 'I' for Inactive)
REMARK    1  A    between atoms: C6_6  and  C8_8 
REMARK    2  A    between atoms: C7_7  and  C8_8 
REMARK    3  A    between atoms: C7_7  and  C9_9 
ROOT
HETATM    1  C8  UNL     1     -33.016  16.800  -3.384  1.00 20.00     0.042 C 
ENDROOT
BRANCH   1   2
HETATM    2  C6  UNL     1     -34.224  16.202  -4.080  1.00 20.00     0.122 C 
HETATM    3  C2  UNL     1     -34.205  14.684  -4.129  1.00 20.00     0.034 C 
HETATM    4  C1  UNL     1     -35.057  14.413  -5.344  1.00 20.00     0.029 C 
HETATM    5  C5  UNL     1     -34.643  15.535  -6.274  1.00 20.00     0.168 C 
HETATM    6  O10 UNL     1     -34.270  16.647  -5.446  1.00 20.00    -0.386 OA
ENDBRANCH   1   2
BRANCH   1   7
HETATM    7  C7  UNL     1     -33.404  17.838  -2.377  1.00 20.00    -0.025 A 
HETATM    8  C3  UNL     1     -33.703  17.383  -0.968  1.00 20.00     0.011 A 
HETATM    9  C4  UNL     1     -32.435  18.136  -1.257  1.00 20.00     0.011 A 
BRANCH   7  10
HETATM   10  C9  UNL     1     -34.210  18.980  -2.935  1.00 20.00     0.124 C 
HETATM   11 CL11 UNL     1     -35.886  18.922  -2.339  1.00 20.00    -0.130 Cl
ENDBRANCH   7  10
ENDBRANCH   1   7
TORSDOF 3
ENDMDL
MODEL 6
REMARK VINA RESULT:      -3.6     12.082     12.705
REMARK  3 active torsions:
REMARK  status: ('A' for Active; 'I' for Inactive)
REMARK    1  A    between atoms: C6_6  and  C8_8 
REMARK    2  A    between atoms: C7_7  and  C8_8 
REMARK    3  A    between atoms: C7_7  and  C9_9 
ROOT
HETATM    1  C8  UNL     1     -40.060  14.087   7.116  1.00 20.00     0.042 C 
ENDROOT
BRANCH   1   2
HETATM    2  C6  UNL     1     -40.866  14.535   8.319  1.00 20.00     0.122 C 
HETATM    3  C2  UNL     1     -40.560  15.957   8.759  1.00 20.00     0.034 C 
HETATM    4  C1  UNL     1     -40.932  15.907  10.219  1.00 20.00     0.029 C 
HETATM    5  C5  UNL     1     -40.462  14.523  10.615  1.00 20.00     0.168 C 
HETATM    6  O10 UNL     1     -40.569  13.695   9.447  1.00 20.00    -0.386 OA
ENDBRANCH   1   2
BRANCH   1   7
HETATM    7  C7  UNL     1     -40.861  13.221   6.194  1.00 20.00    -0.025 A 
HETATM    8  C3  UNL     1     -42.367  13.294   6.282  1.00 20.00     0.011 A 
HETATM    9  C4  UNL     1     -41.659  13.895   5.102  1.00 20.00     0.011 A 
BRANCH   7  10
HETATM   10  C9  UNL     1     -40.236  11.887   5.888  1.00 20.00     0.124 C 
HETATM   11 CL11 UNL     1     -38.577  12.092   5.276  1.00 20.00    -0.130 Cl
ENDBRANCH   7  10
ENDBRANCH   1   7
TORSDOF 3
ENDMDL
MODEL 7
REMARK VINA RESULT:      -3.6     12.413     13.081
REMARK  3 active torsions:
REMARK  status: ('A' for Active; 'I' for Inactive)
REMARK    1  A    between atoms: C6_6  and  C8_8 
REMARK    2  A    between atoms: C7_7  and  C8_8 
REMARK    3  A    between atoms: C7_7  and  C9_9 
ROOT
HETATM    1  C8  UNL     1     -40.198  14.108   7.087  1.00 20.00     0.042 C 
ENDROOT
BRANCH   1   2
HETATM    2  C6  UNL     1     -40.983  14.459   8.336  1.00 20.00     0.122 C 
HETATM    3  C2  UNL     1     -40.982  15.944   8.656  1.00 20.00     0.034 C 
HETATM    4  C1  UNL     1     -41.209  15.931  10.147  1.00 20.00     0.029 C 
HETATM    5  C5  UNL     1     -40.396  14.727  10.576  1.00 20.00     0.168 C 
HETATM    6  O10 UNL     1     -40.404  13.803   9.477  1.00 20.00    -0.386 OA
ENDBRANCH   1   2
BRANCH   1   7
HETATM    7  C7  UNL     1     -40.787  12.936   6.364  1.00 20.00    -0.025 A 
HETATM    8  C3  UNL     1     -40.376  12.709   4.928  1.00 20.00     0.011 A 
HETATM    9  C4  UNL     1     -39.868  11.792   6.004  1.00 20.00     0.011 A 
BRANCH   7  10
HETATM   10  C9  UNL     1     -42.202  12.608   6.753  1.00 20.00     0.124 C 
HETATM   11 CL11 UNL     1     -43.356  13.634   5.866  1.00 20.00    -0.130 Cl
ENDBRANCH   7  10
ENDBRANCH   1   7
TORSDOF 3
ENDMDL
MODEL 8
REMARK VINA RESULT:      -3.6      2.641      3.627
REMARK  3 active torsions:
REMARK  status: ('A' for Active; 'I' for Inactive)
REMARK    1  A    between atoms: C6_6  and  C8_8 
REMARK    2  A    between atoms: C7_7  and  C8_8 
REMARK    3  A    between atoms: C7_7  and  C9_9 
ROOT
HETATM    1  C8  UNL     1     -34.773  17.318  -4.366  1.00 20.00     0.042 C 
ENDROOT
BRANCH   1   2
HETATM    2  C6  UNL     1     -33.495  17.439  -3.560  1.00 20.00     0.122 C 
HETATM    3  C2  UNL     1     -33.672  17.111  -2.088  1.00 20.00     0.034 C 
HETATM    4  C1  UNL     1     -32.546  17.898  -1.466  1.00 20.00     0.029 C 
HETATM    5  C5  UNL     1     -32.547  19.160  -2.305  1.00 20.00     0.168 C 
HETATM    6  O10 UNL     1     -33.010  18.792  -3.613  1.00 20.00    -0.386 OA
ENDBRANCH   1   2
BRANCH   1   7
HETATM    7  C7  UNL     1     -34.646  16.322  -5.476  1.00 20.00    -0.025 A 
HETATM    8  C3  UNL     1     -35.863  16.052  -6.329  1.00 20.00     0.011 A 
HETATM    9  C4  UNL     1     -34.712  16.833  -6.897  1.00 20.00     0.011 A 
BRANCH   7  10
HETATM   10  C9  UNL     1     -33.721  15.173  -5.183  1.00 20.00     0.124 C 
HETATM   11 CL11 UNL     1     -34.483  14.018  -4.063  1.00 20.00    -0.130 Cl
ENDBRANCH   7  10
ENDBRANCH   1   7
TORSDOF 3
ENDMDL
MODEL 9
REMARK VINA RESULT:      -3.5     11.929     12.983
REMARK  3 active torsions:
REMARK  status: ('A' for Active; 'I' for Inactive)
REMARK    1  A    between atoms: C6_6  and  C8_8 
REMARK    2  A    between atoms: C7_7  and  C8_8 
REMARK    3  A    between atoms: C7_7  and  C9_9 
ROOT
HETATM    1  C8  UNL     1     -41.276  14.013   7.882  1.00 20.00     0.042 C 
ENDROOT
BRANCH   1   2
HETATM    2  C6  UNL     1     -40.335  13.654   6.748  1.00 20.00     0.122 C 
HETATM    3  C2  UNL     1     -41.050  13.317   5.451  1.00 20.00     0.034 C 
HETATM    4  C1  UNL     1     -40.042  12.422   4.776  1.00 20.00     0.029 C 
HETATM    5  C5  UNL     1     -39.489  11.634   5.946  1.00 20.00     0.168 C 
HETATM    6  O10 UNL     1     -39.572  12.486   7.099  1.00 20.00    -0.386 OA
ENDBRANCH   1   2
BRANCH   1   7
HETATM    7  C7  UNL     1     -40.900  15.307   8.535  1.00 20.00    -0.025 A 
HETATM    8  C3  UNL     1     -41.584  15.672   9.831  1.00 20.00     0.011 A 
HETATM    9  C4  UNL     1     -40.143  15.248   9.841  1.00 20.00     0.011 A 
BRANCH   7  10
HETATM   10  C9  UNL     1     -40.566  16.417   7.576  1.00 20.00     0.124 C 
HETATM   11 CL11 UNL     1     -42.046  17.106   6.866  1.00 20.00    -0.130 Cl
ENDBRANCH   7  10
ENDBRANCH   1   7
TORSDOF 3
ENDMDL
