MODEL 1
REMARK VINA RESULT:      -3.8      0.000      0.000
REMARK  3 active torsions:
REMARK  status: ('A' for Active; 'I' for Inactive)
REMARK    1  A    between atoms: C6_6  and  C7_7 
REMARK    2  A    between atoms: C6_6  and  C8_8 
REMARK    3  A    between atoms: C8_8  and  O10_10 
ROOT
HETATM    1  C1  UNL     1     -41.096  14.109   7.479  1.00 20.00     0.097 C 
HETATM    2  C4  UNL     1     -42.973  13.944   5.900  1.00 20.00     0.062 C 
HETATM    3  C8  UNL     1     -41.685  13.283   6.409  1.00 20.00     0.144 C 
HETATM    4  N9  UNL     1     -40.631  14.760   8.319  1.00 20.00    -0.194 NA
ENDROOT
BRANCH   3   5
HETATM    5  C6  UNL     1     -40.704  13.095   5.231  1.00 20.00     0.057 C 
BRANCH   5   6
HETATM    6  C7  UNL     1     -39.742  11.882   5.290  1.00 20.00    -0.019 C 
HETATM    7  C2  UNL     1     -39.129  11.656   3.902  1.00 20.00     0.009 C 
HETATM    8  C3  UNL     1     -38.622  12.035   6.318  1.00 20.00     0.009 C 
ENDBRANCH   5   6
ENDBRANCH   3   5
BRANCH   3   9
HETATM    9  O10 UNL     1     -42.043  12.003   6.928  1.00 20.00    -0.371 OA
HETATM   10  C5  UNL     1     -43.416  11.957   7.284  1.00 20.00     0.204 C 
ENDBRANCH   3   9
TORSDOF 3
ENDMDL
MODEL 2
REMARK VINA RESULT:      -3.8     12.504     13.621
REMARK  3 active torsions:
REMARK  status: ('A' for Active; 'I' for Inactive)
REMARK    1  A    between atoms: C6_6  and  C7_7 
REMARK    2  A    between atoms: C6_6  and  C8_8 
REMARK    3  A    between atoms: C8_8  and  O10_10 
ROOT
HETATM    1  C1  UNL     1     -33.973  15.036  -6.205  1.00 20.00     0.097 C 
HETATM    2  C4  UNL     1     -32.437  14.661  -4.323  1.00 20.00     0.062 C 
HETATM    3  C8  UNL     1     -33.881  14.978  -4.735  1.00 20.00     0.144 C 
HETATM    4  N9  UNL     1     -34.046  15.085  -7.362  1.00 20.00    -0.194 NA
ENDROOT
BRANCH   3   5
HETATM    5  C6  UNL     1     -34.320  16.308  -4.084  1.00 20.00     0.057 C 
BRANCH   5   6
HETATM    6  C7  UNL     1     -33.273  17.063  -3.228  1.00 20.00    -0.019 C 
HETATM    7  C2  UNL     1     -33.163  18.510  -3.727  1.00 20.00     0.009 C 
HETATM    8  C3  UNL     1     -33.588  17.067  -1.732  1.00 20.00     0.009 C 
ENDBRANCH   5   6
ENDBRANCH   3   5
BRANCH   3   9
HETATM    9  O10 UNL     1     -34.702  13.921  -4.239  1.00 20.00    -0.371 OA
HETATM   10  C5  UNL     1     -35.999  13.962  -4.815  1.00 20.00     0.204 C 
ENDBRANCH   3   9
TORSDOF 3
ENDMDL
MODEL 3
REMARK VINA RESULT:      -3.8     12.363     13.587
REMARK  3 active torsions:
REMARK  status: ('A' for Active; 'I' for Inactive)
REMARK    1  A    between atoms: C6_6  and  C7_7 
REMARK    2  A    between atoms: C6_6  and  C8_8 
REMARK    3  A    between atoms: C8_8  and  O10_10 
ROOT
HETATM    1  C1  UNL     1     -35.201  14.073  -4.650  1.00 20.00     0.097 C 
HETATM    2  C4  UNL     1     -35.514  16.410  -5.344  1.00 20.00     0.062 C 
HETATM    3  C8  UNL     1     -34.493  15.304  -5.044  1.00 20.00     0.144 C 
HETATM    4  N9  UNL     1     -35.759  13.104  -4.338  1.00 20.00    -0.194 NA
ENDROOT
BRANCH   3   5
HETATM    5  C6  UNL     1     -33.528  15.784  -3.938  1.00 20.00     0.057 C 
BRANCH   5   6
HETATM    6  C7  UNL     1     -33.860  17.122  -3.233  1.00 20.00    -0.019 C 
HETATM    7  C2  UNL     1     -33.563  16.989  -1.733  1.00 20.00     0.009 C 
HETATM    8  C3  UNL     1     -33.095  18.320  -3.795  1.00 20.00     0.009 C 
ENDBRANCH   5   6
ENDBRANCH   3   5
BRANCH   3   9
HETATM    9  O10 UNL     1     -33.754  15.075  -6.243  1.00 20.00    -0.371 OA
HETATM   10  C5  UNL     1     -34.396  15.662  -7.365  1.00 20.00     0.204 C 
ENDBRANCH   3   9
TORSDOF 3
ENDMDL
MODEL 4
REMARK VINA RESULT:      -3.7     12.817     13.747
REMARK  3 active torsions:
REMARK  status: ('A' for Active; 'I' for Inactive)
REMARK    1  A    between atoms: C6_6  and  C7_7 
REMARK    2  A    between atoms: C6_6  and  C8_8 
REMARK    3  A    between atoms: C8_8  and  O10_10 
ROOT
HETATM    1  C1  UNL     1     -35.808  14.184  -5.093  1.00 20.00     0.097 C 
HETATM    2  C4  UNL     1     -36.430  16.128  -6.464  1.00 20.00     0.062 C 
HETATM    3  C8  UNL     1     -35.271  15.329  -5.852  1.00 20.00     0.144 C 
HETATM    4  N9  UNL     1     -36.231  13.285  -4.494  1.00 20.00    -0.194 NA
ENDROOT
BRANCH   3   5
HETATM    5  C6  UNL     1     -34.423  16.258  -4.956  1.00 20.00     0.057 C 
BRANCH   5   6
HETATM    6  C7  UNL     1     -33.723  15.622  -3.729  1.00 20.00    -0.019 C 
HETATM    7  C2  UNL     1     -32.447  14.907  -4.192  1.00 20.00     0.009 C 
HETATM    8  C3  UNL     1     -33.371  16.626  -2.632  1.00 20.00     0.009 C 
ENDBRANCH   5   6
ENDBRANCH   3   5
BRANCH   3   9
HETATM    9  O10 UNL     1     -34.466  14.859  -6.932  1.00 20.00    -0.371 OA
HETATM   10  C5  UNL     1     -34.137  15.911  -7.826  1.00 20.00     0.204 C 
ENDBRANCH   3   9
TORSDOF 3
ENDMDL
MODEL 5
REMARK VINA RESULT:      -3.7      1.974      2.644
REMARK  3 active torsions:
REMARK  status: ('A' for Active; 'I' for Inactive)
REMARK    1  A    between atoms: C6_6  and  C7_7 
REMARK    2  A    between atoms: C6_6  and  C8_8 
REMARK    3  A    between atoms: C8_8  and  O10_10 
ROOT
HETATM    1  C1  UNL     1     -41.837  14.022   4.733  1.00 20.00     0.097 C 
HETATM    2  C4  UNL     1     -42.681  13.155   6.874  1.00 20.00     0.062 C 
HETATM    3  C8  UNL     1     -41.432  13.507   6.054  1.00 20.00     0.144 C 
HETATM    4  N9  UNL     1     -42.156  14.425   3.693  1.00 20.00    -0.194 NA
ENDROOT
BRANCH   3   5
HETATM    5  C6  UNL     1     -40.533  12.258   5.926  1.00 20.00     0.057 C 
BRANCH   5   6
HETATM    6  C7  UNL     1     -39.226  12.400   5.106  1.00 20.00    -0.019 C 
HETATM    7  C2  UNL     1     -38.025  12.125   6.020  1.00 20.00     0.009 C 
HETATM    8  C3  UNL     1     -39.159  11.477   3.890  1.00 20.00     0.009 C 
ENDBRANCH   5   6
ENDBRANCH   3   5
BRANCH   3   9
HETATM    9  O10 UNL     1     -40.727  14.519   6.773  1.00 20.00    -0.371 OA
HETATM   10  C5  UNL     1     -40.552  14.157   8.134  1.00 20.00     0.204 C 
ENDBRANCH   3   9
TORSDOF 3
ENDMDL
MODEL 6
REMARK VINA RESULT:      -3.7     12.681     13.685
REMARK  3 active torsions:
REMARK  status: ('A' for Active; 'I' for Inactive)
REMARK    1  A    between atoms: C6_6  and  C7_7 
REMARK    2  A    between atoms: C6_6  and  C8_8 
REMARK    3  A    between atoms: C8_8  and  O10_10 
ROOT
HETATM    1  C1  UNL     1     -34.098  15.224  -6.400  1.00 20.00     0.097 C 
HETATM    2  C4  UNL     1     -35.216  14.069  -4.541  1.00 20.00     0.062 C 
HETATM    3  C8  UNL     1     -34.642  15.401  -5.041  1.00 20.00     0.144 C 
HETATM    4  N9  UNL     1     -33.668  15.084  -7.469  1.00 20.00    -0.194 NA
ENDROOT
BRANCH   3   5
HETATM    5  C6  UNL     1     -33.560  15.896  -4.056  1.00 20.00     0.057 C 
BRANCH   5   6
HETATM    6  C7  UNL     1     -33.862  17.187  -3.255  1.00 20.00    -0.019 C 
HETATM    7  C2  UNL     1     -33.464  16.975  -1.789  1.00 20.00     0.009 C 
HETATM    8  C3  UNL     1     -33.154  18.428  -3.798  1.00 20.00     0.009 C 
ENDBRANCH   5   6
ENDBRANCH   3   5
BRANCH   3   9
HETATM    9  O10 UNL     1     -35.716  16.340  -5.068  1.00 20.00    -0.371 OA
HETATM   10  C5  UNL     1     -36.840  15.819  -5.759  1.00 20.00     0.204 C 
ENDBRANCH   3   9
TORSDOF 3
ENDMDL
MODEL 7
REMARK VINA RESULT:      -3.6     11.163     12.258
REMARK  3 active torsions:
REMARK  status: ('A' for Active; 'I' for Inactive)
REMARK    1  A    between atoms: C6_6  and  C7_7 
REMARK    2  A    between atoms: C6_6  and  C8_8 
REMARK    3  A    between atoms: C8_8  and  O10_10 
ROOT
HETATM    1  C1  UNL     1     -32.044  18.445  -0.815  1.00 20.00     0.097 C 
HETATM    2  C4  UNL     1     -34.274  19.262  -1.449  1.00 20.00     0.062 C 
HETATM    3  C8  UNL     1     -33.471  18.082  -0.887  1.00 20.00     0.144 C 
HETATM    4  N9  UNL     1     -30.921  18.731  -0.761  1.00 20.00    -0.194 NA
ENDROOT
BRANCH   3   5
HETATM    5  C6  UNL     1     -33.697  16.838  -1.774  1.00 20.00     0.057 C 
BRANCH   5   6
HETATM    6  C7  UNL     1     -33.311  16.949  -3.270  1.00 20.00    -0.019 C 
HETATM    7  C2  UNL     1     -32.960  15.555  -3.806  1.00 20.00     0.009 C 
HETATM    8  C3  UNL     1     -34.404  17.566  -4.143  1.00 20.00     0.009 C 
ENDBRANCH   5   6
ENDBRANCH   3   5
BRANCH   3   9
HETATM    9  O10 UNL     1     -33.970  17.818   0.424  1.00 20.00    -0.371 OA
HETATM   10  C5  UNL     1     -34.041  19.006   1.197  1.00 20.00     0.204 C 
ENDBRANCH   3   9
TORSDOF 3
ENDMDL
MODEL 8
REMARK VINA RESULT:      -3.6     11.378     12.779
REMARK  3 active torsions:
REMARK  status: ('A' for Active; 'I' for Inactive)
REMARK    1  A    between atoms: C6_6  and  C7_7 
REMARK    2  A    between atoms: C6_6  and  C8_8 
REMARK    3  A    between atoms: C8_8  and  O10_10 
ROOT
HETATM    1  C1  UNL     1     -35.245  18.445  -2.909  1.00 20.00     0.097 C 
HETATM    2  C4  UNL     1     -33.034  19.032  -3.807  1.00 20.00     0.062 C 
HETATM    3  C8  UNL     1     -33.897  17.922  -3.193  1.00 20.00     0.144 C 
HETATM    4  N9  UNL     1     -36.306  18.857  -2.684  1.00 20.00    -0.194 NA
ENDROOT
BRANCH   3   5
HETATM    5  C6  UNL     1     -33.214  17.388  -1.915  1.00 20.00     0.057 C 
BRANCH   5   6
HETATM    6  C7  UNL     1     -32.880  18.413  -0.803  1.00 20.00    -0.019 C 
HETATM    7  C2  UNL     1     -33.729  18.106   0.437  1.00 20.00     0.009 C 
HETATM    8  C3  UNL     1     -31.403  18.437  -0.411  1.00 20.00     0.009 C 
ENDBRANCH   5   6
ENDBRANCH   3   5
BRANCH   3   9
HETATM    9  O10 UNL     1     -33.978  16.870  -4.154  1.00 20.00    -0.371 OA
HETATM   10  C5  UNL     1     -33.300  15.707  -3.704  1.00 20.00     0.204 C 
ENDBRANCH   3   9
TORSDOF 3
ENDMDL
MODEL 9
REMARK VINA RESULT:      -3.5     11.726     13.232
REMARK  3 active torsions:
REMARK  status: ('A' for Active; 'I' for Inactive)
REMARK    1  A    between atoms: C6_6  and  C7_7 
REMARK    2  A    between atoms: C6_6  and  C8_8 
REMARK    3  A    between atoms: C8_8  and  O10_10 
ROOT
HETATM    1  C1  UNL     1     -34.003  16.370  -4.161  1.00 20.00     0.097 C 
HETATM    2  C4  UNL     1     -35.152  18.302  -3.165  1.00 20.00     0.062 C 
HETATM    3  C8  UNL     1     -33.821  17.550  -3.296  1.00 20.00     0.144 C 
HETATM    4  N9  UNL     1     -34.147  15.441  -4.841  1.00 20.00    -0.194 NA
ENDROOT
BRANCH   3   5
HETATM    5  C6  UNL     1     -33.316  17.152  -1.892  1.00 20.00     0.057 C 
BRANCH   5   6
HETATM    6  C7  UNL     1     -33.014  18.296  -0.892  1.00 20.00    -0.019 C 
HETATM    7  C2  UNL     1     -33.837  18.081   0.384  1.00 20.00     0.009 C 
HETATM    8  C3  UNL     1     -31.535  18.419  -0.525  1.00 20.00     0.009 C 
ENDBRANCH   5   6
ENDBRANCH   3   5
BRANCH   3   9
HETATM    9  O10 UNL     1     -32.886  18.448  -3.892  1.00 20.00    -0.371 OA
HETATM   10  C5  UNL     1     -33.507  19.263  -4.874  1.00 20.00     0.204 C 
ENDBRANCH   3   9
TORSDOF 3
ENDMDL
