MODEL 1
REMARK VINA RESULT:      -4.1      0.000      0.000
REMARK  5 active torsions:
REMARK  status: ('A' for Active; 'I' for Inactive)
REMARK    1  A    between atoms: C2_2  and  C7_7 
REMARK    2  A    between atoms: C2_2  and  C8_8 
REMARK    3  A    between atoms: C3_3  and  C7_7 
REMARK    4  A    between atoms: C3_3  and  C10_10 
REMARK    5  A    between atoms: C9_9  and  C10_10 
ROOT
HETATM    1  C3  UNL     1     -32.934   8.533   4.443  1.00 20.00     0.134 C 
HETATM    2  O11 UNL     1     -31.925   9.005   4.968  1.00 20.00    -0.297 OA
ENDROOT
BRANCH   1   3
HETATM    3  C7  UNL     1     -34.198   8.218   5.237  1.00 20.00     0.111 C 
BRANCH   3   4
HETATM    4  C2  UNL     1     -34.250   6.769   5.656  1.00 20.00    -0.083 C 
HETATM    5  C1  UNL     1     -33.673   6.381   6.806  1.00 20.00     0.014 C 
BRANCH   4   6
HETATM    6  C8  UNL     1     -34.955   5.840   4.689  1.00 20.00     0.029 C 
HETATM    7  C4  UNL     1     -34.224   4.561   4.296  1.00 20.00     0.010 C 
ENDBRANCH   4   6
ENDBRANCH   3   4
ENDBRANCH   1   3
BRANCH   1   8
HETATM    8  C10 UNL     1     -32.988   8.217   2.949  1.00 20.00     0.051 C 
HETATM    9  C6  UNL     1     -31.980   7.108   2.657  1.00 20.00     0.018 C 
BRANCH   8  10
HETATM   10  C9  UNL     1     -32.697   9.455   2.089  1.00 20.00     0.007 C 
HETATM   11  C5  UNL     1     -32.652   9.135   0.600  1.00 20.00     0.006 C 
ENDBRANCH   8  10
ENDBRANCH   1   8
TORSDOF 5
ENDMDL
MODEL 2
REMARK VINA RESULT:      -4.0      1.671      4.753
REMARK  5 active torsions:
REMARK  status: ('A' for Active; 'I' for Inactive)
REMARK    1  A    between atoms: C2_2  and  C7_7 
REMARK    2  A    between atoms: C2_2  and  C8_8 
REMARK    3  A    between atoms: C3_3  and  C7_7 
REMARK    4  A    between atoms: C3_3  and  C10_10 
REMARK    5  A    between atoms: C9_9  and  C10_10 
ROOT
HETATM    1  C3  UNL     1     -33.083   6.470   3.516  1.00 20.00     0.134 C 
HETATM    2  O11 UNL     1     -33.064   5.427   2.863  1.00 20.00    -0.297 OA
ENDROOT
BRANCH   1   3
HETATM    3  C7  UNL     1     -32.004   7.539   3.382  1.00 20.00     0.111 C 
BRANCH   3   4
HETATM    4  C2  UNL     1     -32.387   8.599   2.377  1.00 20.00    -0.083 C 
HETATM    5  C1  UNL     1     -32.945   9.748   2.793  1.00 20.00     0.014 C 
BRANCH   4   6
HETATM    6  C8  UNL     1     -32.118   8.244   0.928  1.00 20.00     0.029 C 
HETATM    7  C4  UNL     1     -32.850   9.058  -0.133  1.00 20.00     0.010 C 
ENDBRANCH   4   6
ENDBRANCH   3   4
ENDBRANCH   1   3
BRANCH   1   8
HETATM    8  C10 UNL     1     -34.196   6.766   4.521  1.00 20.00     0.051 C 
HETATM    9  C6  UNL     1     -33.593   7.543   5.689  1.00 20.00     0.018 C 
BRANCH   8  10
HETATM   10  C9  UNL     1     -34.879   5.484   5.016  1.00 20.00     0.007 C 
HETATM   11  C5  UNL     1     -34.544   5.167   6.468  1.00 20.00     0.006 C 
ENDBRANCH   8  10
ENDBRANCH   1   8
TORSDOF 5
ENDMDL
MODEL 3
REMARK VINA RESULT:      -4.0      1.366      4.009
REMARK  5 active torsions:
REMARK  status: ('A' for Active; 'I' for Inactive)
REMARK    1  A    between atoms: C2_2  and  C7_7 
REMARK    2  A    between atoms: C2_2  and  C8_8 
REMARK    3  A    between atoms: C3_3  and  C7_7 
REMARK    4  A    between atoms: C3_3  and  C10_10 
REMARK    5  A    between atoms: C9_9  and  C10_10 
ROOT
HETATM    1  C3  UNL     1     -34.295   7.283   5.920  1.00 20.00     0.134 C 
HETATM    2  O11 UNL     1     -34.009   7.815   6.993  1.00 20.00    -0.297 OA
ENDROOT
BRANCH   1   3
HETATM    3  C7  UNL     1     -34.142   8.001   4.584  1.00 20.00     0.111 C 
BRANCH   3   4
HETATM    4  C2  UNL     1     -32.691   8.238   4.239  1.00 20.00    -0.083 C 
HETATM    5  C1  UNL     1     -31.989   9.174   4.898  1.00 20.00     0.014 C 
BRANCH   4   6
HETATM    6  C8  UNL     1     -32.144   7.380   3.115  1.00 20.00     0.029 C 
HETATM    7  C4  UNL     1     -32.174   7.973   1.711  1.00 20.00     0.010 C 
ENDBRANCH   4   6
ENDBRANCH   3   4
ENDBRANCH   1   3
BRANCH   1   8
HETATM    8  C10 UNL     1     -34.837   5.855   5.853  1.00 20.00     0.051 C 
HETATM    9  C6  UNL     1     -33.882   4.943   6.619  1.00 20.00     0.018 C 
BRANCH   8  10
HETATM   10  C9  UNL     1     -35.007   5.372   4.406  1.00 20.00     0.007 C 
HETATM   11  C5  UNL     1     -33.934   4.370   3.996  1.00 20.00     0.006 C 
ENDBRANCH   8  10
ENDBRANCH   1   8
TORSDOF 5
ENDMDL
MODEL 4
REMARK VINA RESULT:      -4.0      1.671      2.523
REMARK  5 active torsions:
REMARK  status: ('A' for Active; 'I' for Inactive)
REMARK    1  A    between atoms: C2_2  and  C7_7 
REMARK    2  A    between atoms: C2_2  and  C8_8 
REMARK    3  A    between atoms: C3_3  and  C7_7 
REMARK    4  A    between atoms: C3_3  and  C10_10 
REMARK    5  A    between atoms: C9_9  and  C10_10 
ROOT
HETATM    1  C3  UNL     1     -32.956   6.321   3.038  1.00 20.00     0.134 C 
HETATM    2  O11 UNL     1     -32.683   5.263   2.471  1.00 20.00    -0.297 OA
ENDROOT
BRANCH   1   3
HETATM    3  C7  UNL     1     -34.190   6.482   3.920  1.00 20.00     0.111 C 
BRANCH   3   4
HETATM    4  C2  UNL     1     -34.278   5.393   4.963  1.00 20.00    -0.083 C 
HETATM    5  C1  UNL     1     -34.132   4.107   4.604  1.00 20.00     0.014 C 
BRANCH   4   6
HETATM    6  C8  UNL     1     -34.562   5.870   6.373  1.00 20.00     0.029 C 
HETATM    7  C4  UNL     1     -34.157   7.299   6.718  1.00 20.00     0.010 C 
ENDBRANCH   4   6
ENDBRANCH   3   4
ENDBRANCH   1   3
BRANCH   1   8
HETATM    8  C10 UNL     1     -32.075   7.561   2.890  1.00 20.00     0.051 C 
HETATM    9  C6  UNL     1     -32.535   8.601   3.908  1.00 20.00     0.018 C 
BRANCH   8  10
HETATM   10  C9  UNL     1     -32.124   8.135   1.467  1.00 20.00     0.007 C 
HETATM   11  C5  UNL     1     -32.845   9.476   1.403  1.00 20.00     0.006 C 
ENDBRANCH   8  10
ENDBRANCH   1   8
TORSDOF 5
ENDMDL
MODEL 5
REMARK VINA RESULT:      -3.9      0.845      4.447
REMARK  5 active torsions:
REMARK  status: ('A' for Active; 'I' for Inactive)
REMARK    1  A    between atoms: C2_2  and  C7_7 
REMARK    2  A    between atoms: C2_2  and  C8_8 
REMARK    3  A    between atoms: C3_3  and  C7_7 
REMARK    4  A    between atoms: C3_3  and  C10_10 
REMARK    5  A    between atoms: C9_9  and  C10_10 
ROOT
HETATM    1  C3  UNL     1     -32.730   8.057   4.538  1.00 20.00     0.134 C 
HETATM    2  O11 UNL     1     -32.221   8.912   5.263  1.00 20.00    -0.297 OA
ENDROOT
BRANCH   1   3
HETATM    3  C7  UNL     1     -32.137   7.672   3.187  1.00 20.00     0.111 C 
BRANCH   3   4
HETATM    4  C2  UNL     1     -32.478   8.681   2.117  1.00 20.00    -0.083 C 
HETATM    5  C1  UNL     1     -33.062   9.844   2.453  1.00 20.00     0.014 C 
BRANCH   4   6
HETATM    6  C8  UNL     1     -32.141   8.263   0.700  1.00 20.00     0.029 C 
HETATM    7  C4  UNL     1     -32.940   8.911  -0.425  1.00 20.00     0.010 C 
ENDBRANCH   4   6
ENDBRANCH   3   4
ENDBRANCH   1   3
BRANCH   1   8
HETATM    8  C10 UNL     1     -34.007   7.321   4.941  1.00 20.00     0.051 C 
HETATM    9  C6  UNL     1     -33.969   7.087   6.450  1.00 20.00     0.018 C 
BRANCH   8  10
HETATM   10  C9  UNL     1     -34.167   5.992   4.190  1.00 20.00     0.007 C 
HETATM   11  C5  UNL     1     -34.615   4.856   5.101  1.00 20.00     0.006 C 
ENDBRANCH   8  10
ENDBRANCH   1   8
TORSDOF 5
ENDMDL
MODEL 6
REMARK VINA RESULT:      -3.8      1.332      1.914
REMARK  5 active torsions:
REMARK  status: ('A' for Active; 'I' for Inactive)
REMARK    1  A    between atoms: C2_2  and  C7_7 
REMARK    2  A    between atoms: C2_2  and  C8_8 
REMARK    3  A    between atoms: C3_3  and  C7_7 
REMARK    4  A    between atoms: C3_3  and  C10_10 
REMARK    5  A    between atoms: C9_9  and  C10_10 
ROOT
HETATM    1  C3  UNL     1     -33.778   7.795   5.035  1.00 20.00     0.134 C 
HETATM    2  O11 UNL     1     -34.032   8.284   6.136  1.00 20.00    -0.297 OA
ENDROOT
BRANCH   1   3
HETATM    3  C7  UNL     1     -34.660   6.731   4.390  1.00 20.00     0.111 C 
BRANCH   3   4
HETATM    4  C2  UNL     1     -34.404   5.363   4.974  1.00 20.00    -0.083 C 
HETATM    5  C1  UNL     1     -34.665   5.126   6.270  1.00 20.00     0.014 C 
BRANCH   4   6
HETATM    6  C8  UNL     1     -33.828   4.344   4.010  1.00 20.00     0.029 C 
HETATM    7  C4  UNL     1     -33.142   4.883   2.759  1.00 20.00     0.010 C 
ENDBRANCH   4   6
ENDBRANCH   3   4
ENDBRANCH   1   3
BRANCH   1   8
HETATM    8  C10 UNL     1     -32.547   8.218   4.235  1.00 20.00     0.051 C 
HETATM    9  C6  UNL     1     -31.827   9.319   5.010  1.00 20.00     0.018 C 
BRANCH   8  10
HETATM   10  C9  UNL     1     -32.915   8.698   2.824  1.00 20.00     0.007 C 
HETATM   11  C5  UNL     1     -32.056   8.051   1.745  1.00 20.00     0.006 C 
ENDBRANCH   8  10
ENDBRANCH   1   8
TORSDOF 5
ENDMDL
MODEL 7
REMARK VINA RESULT:      -3.8      2.126      3.093
REMARK  5 active torsions:
REMARK  status: ('A' for Active; 'I' for Inactive)
REMARK    1  A    between atoms: C2_2  and  C7_7 
REMARK    2  A    between atoms: C2_2  and  C8_8 
REMARK    3  A    between atoms: C3_3  and  C7_7 
REMARK    4  A    between atoms: C3_3  and  C10_10 
REMARK    5  A    between atoms: C9_9  and  C10_10 
ROOT
HETATM    1  C3  UNL     1     -34.044   5.113   3.837  1.00 20.00     0.134 C 
HETATM    2  O11 UNL     1     -34.003   3.939   4.204  1.00 20.00    -0.297 OA
ENDROOT
BRANCH   1   3
HETATM    3  C7  UNL     1     -34.849   6.175   4.580  1.00 20.00     0.111 C 
BRANCH   3   4
HETATM    4  C2  UNL     1     -34.441   6.273   6.030  1.00 20.00    -0.083 C 
HETATM    5  C1  UNL     1     -34.845   5.338   6.906  1.00 20.00     0.014 C 
BRANCH   4   6
HETATM    6  C8  UNL     1     -33.598   7.482   6.386  1.00 20.00     0.029 C 
HETATM    7  C4  UNL     1     -33.548   8.616   5.368  1.00 20.00     0.010 C 
ENDBRANCH   4   6
ENDBRANCH   3   4
ENDBRANCH   1   3
BRANCH   1   8
HETATM    8  C10 UNL     1     -33.292   5.592   2.595  1.00 20.00     0.051 C 
HETATM    9  C6  UNL     1     -32.639   4.381   1.934  1.00 20.00     0.018 C 
BRANCH   8  10
HETATM   10  C9  UNL     1     -32.241   6.658   2.935  1.00 20.00     0.007 C 
HETATM   11  C5  UNL     1     -32.262   7.830   1.962  1.00 20.00     0.006 C 
ENDBRANCH   8  10
ENDBRANCH   1   8
TORSDOF 5
ENDMDL
MODEL 8
REMARK VINA RESULT:      -3.8     11.234     12.136
REMARK  5 active torsions:
REMARK  status: ('A' for Active; 'I' for Inactive)
REMARK    1  A    between atoms: C2_2  and  C7_7 
REMARK    2  A    between atoms: C2_2  and  C8_8 
REMARK    3  A    between atoms: C3_3  and  C7_7 
REMARK    4  A    between atoms: C3_3  and  C10_10 
REMARK    5  A    between atoms: C9_9  and  C10_10 
ROOT
HETATM    1  C3  UNL     1     -34.031  17.814  -2.792  1.00 20.00     0.134 C 
HETATM    2  O11 UNL     1     -34.500  18.952  -2.819  1.00 20.00    -0.297 OA
ENDROOT
BRANCH   1   3
HETATM    3  C7  UNL     1     -33.703  17.095  -1.488  1.00 20.00     0.111 C 
BRANCH   3   4
HETATM    4  C2  UNL     1     -33.172  18.047  -0.442  1.00 20.00    -0.083 C 
HETATM    5  C1  UNL     1     -33.971  18.467   0.552  1.00 20.00     0.014 C 
BRANCH   4   6
HETATM    6  C8  UNL     1     -31.731  18.479  -0.633  1.00 20.00     0.029 C 
HETATM    7  C4  UNL     1     -30.893  18.676   0.625  1.00 20.00     0.010 C 
ENDBRANCH   4   6
ENDBRANCH   3   4
ENDBRANCH   1   3
BRANCH   1   8
HETATM    8  C10 UNL     1     -33.734  17.039  -4.075  1.00 20.00     0.051 C 
HETATM    9  C6  UNL     1     -35.033  16.903  -4.866  1.00 20.00     0.018 C 
BRANCH   8  10
HETATM   10  C9  UNL     1     -33.128  15.659  -3.786  1.00 20.00     0.007 C 
HETATM   11  C5  UNL     1     -34.038  14.518  -4.223  1.00 20.00     0.006 C 
ENDBRANCH   8  10
ENDBRANCH   1   8
TORSDOF 5
ENDMDL
MODEL 9
REMARK VINA RESULT:      -3.8     11.128     12.398
REMARK  5 active torsions:
REMARK  status: ('A' for Active; 'I' for Inactive)
REMARK    1  A    between atoms: C2_2  and  C7_7 
REMARK    2  A    between atoms: C2_2  and  C8_8 
REMARK    3  A    between atoms: C3_3  and  C7_7 
REMARK    4  A    between atoms: C3_3  and  C10_10 
REMARK    5  A    between atoms: C9_9  and  C10_10 
ROOT
HETATM    1  C3  UNL     1     -34.057  14.816  -4.406  1.00 20.00     0.134 C 
HETATM    2  O11 UNL     1     -34.371  13.760  -3.856  1.00 20.00    -0.297 OA
ENDROOT
BRANCH   1   3
HETATM    3  C7  UNL     1     -32.874  15.660  -3.942  1.00 20.00     0.111 C 
BRANCH   3   4
HETATM    4  C2  UNL     1     -33.326  16.934  -3.269  1.00 20.00    -0.083 C 
HETATM    5  C1  UNL     1     -33.422  18.071  -3.979  1.00 20.00     0.014 C 
BRANCH   4   6
HETATM    6  C8  UNL     1     -33.618  16.815  -1.787  1.00 20.00     0.029 C 
HETATM    7  C4  UNL     1     -33.184  17.976  -0.898  1.00 20.00     0.010 C 
ENDBRANCH   4   6
ENDBRANCH   3   4
ENDBRANCH   1   3
BRANCH   1   8
HETATM    8  C10 UNL     1     -34.841  15.363  -5.598  1.00 20.00     0.051 C 
HETATM    9  C6  UNL     1     -36.131  14.557  -5.734  1.00 20.00     0.018 C 
BRANCH   8  10
HETATM   10  C9  UNL     1     -34.026  15.306  -6.898  1.00 20.00     0.007 C 
HETATM   11  C5  UNL     1     -34.252  16.525  -7.783  1.00 20.00     0.006 C 
ENDBRANCH   8  10
ENDBRANCH   1   8
TORSDOF 5
ENDMDL
