MODEL 1
REMARK VINA RESULT:      -3.9      0.000      0.000
REMARK  5 active torsions:
REMARK  status: ('A' for Active; 'I' for Inactive)
REMARK    1  A    between atoms: C2_2  and  C7_7 
REMARK    2  A    between atoms: C2_2  and  C8_8 
REMARK    3  A    between atoms: C3_3  and  C10_10 
REMARK    4  A    between atoms: C8_8  and  C10_10 
REMARK    5  A    between atoms: C9_9  and  C10_10 
ROOT
HETATM    1  C10 UNL     1     -32.556   7.839   3.532  1.00 20.00     0.058 C 
ENDROOT
BRANCH   1   2
HETATM    2  C3  UNL     1     -32.566   8.688   2.260  1.00 20.00     0.127 C 
HETATM    3  C4  UNL     1     -31.987   8.060   1.018  1.00 20.00     0.091 C 
HETATM    4  O11 UNL     1     -32.998   9.841   2.240  1.00 20.00    -0.298 OA
ENDBRANCH   1   2
BRANCH   1   5
HETATM    5  C8  UNL     1     -33.857   7.028   3.694  1.00 20.00     0.045 C 
BRANCH   5   6
HETATM    6  C2  UNL     1     -33.666   5.523   3.644  1.00 20.00    -0.089 C 
HETATM    7  C1  UNL     1     -32.941   4.956   2.666  1.00 20.00     0.014 C 
BRANCH   6   8
HETATM    8  C7  UNL     1     -34.316   4.671   4.711  1.00 20.00     0.029 C 
HETATM    9  C5  UNL     1     -34.676   5.453   5.967  1.00 20.00     0.010 C 
ENDBRANCH   6   8
ENDBRANCH   5   6
ENDBRANCH   1   5
BRANCH   1  10
HETATM   10  C9  UNL     1     -32.249   8.720   4.757  1.00 20.00     0.008 C 
HETATM   11  C6  UNL     1     -33.369   8.817   5.785  1.00 20.00     0.006 C 
ENDBRANCH   1  10
TORSDOF 5
ENDMDL
MODEL 2
REMARK VINA RESULT:      -3.7      2.186      4.218
REMARK  5 active torsions:
REMARK  status: ('A' for Active; 'I' for Inactive)
REMARK    1  A    between atoms: C2_2  and  C7_7 
REMARK    2  A    between atoms: C2_2  and  C8_8 
REMARK    3  A    between atoms: C3_3  and  C10_10 
REMARK    4  A    between atoms: C8_8  and  C10_10 
REMARK    5  A    between atoms: C9_9  and  C10_10 
ROOT
HETATM    1  C10 UNL     1     -33.932   6.415   4.008  1.00 20.00     0.058 C 
ENDROOT
BRANCH   1   2
HETATM    2  C3  UNL     1     -33.672   4.947   3.663  1.00 20.00     0.127 C 
HETATM    3  C4  UNL     1     -32.878   4.674   2.411  1.00 20.00     0.091 C 
HETATM    4  O11 UNL     1     -34.105   4.021   4.350  1.00 20.00    -0.298 OA
ENDBRANCH   1   2
BRANCH   1   5
HETATM    5  C8  UNL     1     -32.622   7.218   4.131  1.00 20.00     0.045 C 
BRANCH   5   6
HETATM    6  C2  UNL     1     -32.500   8.368   3.147  1.00 20.00    -0.089 C 
HETATM    7  C1  UNL     1     -32.636   9.639   3.558  1.00 20.00     0.014 C 
BRANCH   6   8
HETATM    8  C7  UNL     1     -32.231   8.055   1.691  1.00 20.00     0.029 C 
HETATM    9  C5  UNL     1     -32.650   9.176   0.750  1.00 20.00     0.010 C 
ENDBRANCH   6   8
ENDBRANCH   5   6
ENDBRANCH   1   5
BRANCH   1  10
HETATM   10  C9  UNL     1     -34.811   6.516   5.268  1.00 20.00     0.008 C 
HETATM   11  C6  UNL     1     -34.081   6.939   6.537  1.00 20.00     0.006 C 
ENDBRANCH   1  10
TORSDOF 5
ENDMDL
MODEL 3
REMARK VINA RESULT:      -3.7      2.191      4.829
REMARK  5 active torsions:
REMARK  status: ('A' for Active; 'I' for Inactive)
REMARK    1  A    between atoms: C2_2  and  C7_7 
REMARK    2  A    between atoms: C2_2  and  C8_8 
REMARK    3  A    between atoms: C3_3  and  C10_10 
REMARK    4  A    between atoms: C8_8  and  C10_10 
REMARK    5  A    between atoms: C9_9  and  C10_10 
ROOT
HETATM    1  C10 UNL     1     -33.646   6.155   4.574  1.00 20.00     0.058 C 
ENDROOT
BRANCH   1   2
HETATM    2  C3  UNL     1     -34.396   5.828   5.866  1.00 20.00     0.127 C 
HETATM    3  C4  UNL     1     -34.433   6.904   6.922  1.00 20.00     0.091 C 
HETATM    4  O11 UNL     1     -34.927   4.735   6.062  1.00 20.00    -0.298 OA
ENDBRANCH   1   2
BRANCH   1   5
HETATM    5  C8  UNL     1     -33.945   7.585   4.081  1.00 20.00     0.045 C 
BRANCH   5   6
HETATM    6  C2  UNL     1     -32.709   8.420   3.799  1.00 20.00    -0.089 C 
HETATM    7  C1  UNL     1     -32.098   9.097   4.786  1.00 20.00     0.014 C 
BRANCH   6   8
HETATM    8  C7  UNL     1     -32.180   8.484   2.383  1.00 20.00     0.029 C 
HETATM    9  C5  UNL     1     -32.894   9.518   1.523  1.00 20.00     0.010 C 
ENDBRANCH   6   8
ENDBRANCH   5   6
ENDBRANCH   1   5
BRANCH   1  10
HETATM   10  C9  UNL     1     -33.937   5.085   3.506  1.00 20.00     0.008 C 
HETATM   11  C6  UNL     1     -32.872   4.939   2.426  1.00 20.00     0.006 C 
ENDBRANCH   1  10
TORSDOF 5
ENDMDL
MODEL 4
REMARK VINA RESULT:      -3.7     11.337     12.498
REMARK  5 active torsions:
REMARK  status: ('A' for Active; 'I' for Inactive)
REMARK    1  A    between atoms: C2_2  and  C7_7 
REMARK    2  A    between atoms: C2_2  and  C8_8 
REMARK    3  A    between atoms: C3_3  and  C10_10 
REMARK    4  A    between atoms: C8_8  and  C10_10 
REMARK    5  A    between atoms: C9_9  and  C10_10 
ROOT
HETATM    1  C10 UNL     1     -33.535  17.643  -3.174  1.00 20.00     0.058 C 
ENDROOT
BRANCH   1   2
HETATM    2  C3  UNL     1     -33.883  16.626  -4.262  1.00 20.00     0.127 C 
HETATM    3  C4  UNL     1     -33.630  15.174  -3.943  1.00 20.00     0.091 C 
HETATM    4  O11 UNL     1     -34.324  16.961  -5.362  1.00 20.00    -0.298 OA
ENDBRANCH   1   2
BRANCH   1   5
HETATM    5  C8  UNL     1     -33.600  17.022  -1.764  1.00 20.00     0.045 C 
BRANCH   5   6
HETATM    6  C2  UNL     1     -33.087  17.927  -0.659  1.00 20.00    -0.089 C 
HETATM    7  C1  UNL     1     -33.857  18.221   0.401  1.00 20.00     0.014 C 
BRANCH   6   8
HETATM    8  C7  UNL     1     -31.692  18.501  -0.777  1.00 20.00     0.029 C 
HETATM    9  C5  UNL     1     -30.972  18.608   0.561  1.00 20.00     0.010 C 
ENDBRANCH   6   8
ENDBRANCH   5   6
ENDBRANCH   1   5
BRANCH   1  10
HETATM   10  C9  UNL     1     -34.420  18.895  -3.314  1.00 20.00     0.008 C 
HETATM   11  C6  UNL     1     -35.850  18.738  -2.816  1.00 20.00     0.006 C 
ENDBRANCH   1  10
TORSDOF 5
ENDMDL
MODEL 5
REMARK VINA RESULT:      -3.6     11.109     12.545
REMARK  5 active torsions:
REMARK  status: ('A' for Active; 'I' for Inactive)
REMARK    1  A    between atoms: C2_2  and  C7_7 
REMARK    2  A    between atoms: C2_2  and  C8_8 
REMARK    3  A    between atoms: C3_3  and  C10_10 
REMARK    4  A    between atoms: C8_8  and  C10_10 
REMARK    5  A    between atoms: C9_9  and  C10_10 
ROOT
HETATM    1  C10 UNL     1     -33.816  17.039  -3.281  1.00 20.00     0.058 C 
ENDROOT
BRANCH   1   2
HETATM    2  C3  UNL     1     -34.670  17.624  -4.407  1.00 20.00     0.127 C 
HETATM    3  C4  UNL     1     -35.998  18.221  -4.013  1.00 20.00     0.091 C 
HETATM    4  O11 UNL     1     -34.318  17.595  -5.586  1.00 20.00    -0.298 OA
ENDBRANCH   1   2
BRANCH   1   5
HETATM    5  C8  UNL     1     -32.843  18.081  -2.696  1.00 20.00     0.045 C 
BRANCH   5   6
HETATM    6  C2  UNL     1     -32.739  18.059  -1.182  1.00 20.00    -0.089 C 
HETATM    7  C1  UNL     1     -33.787  17.686  -0.428  1.00 20.00     0.014 C 
BRANCH   6   8
HETATM    8  C7  UNL     1     -31.436  18.472  -0.534  1.00 20.00     0.029 C 
HETATM    9  C5  UNL     1     -31.505  18.503   0.987  1.00 20.00     0.010 C 
ENDBRANCH   6   8
ENDBRANCH   5   6
ENDBRANCH   1   5
BRANCH   1  10
HETATM   10  C9  UNL     1     -33.101  15.764  -3.765  1.00 20.00     0.008 C 
HETATM   11  C6  UNL     1     -34.011  14.572  -4.033  1.00 20.00     0.006 C 
ENDBRANCH   1  10
TORSDOF 5
ENDMDL
MODEL 6
REMARK VINA RESULT:      -3.6      1.187      2.695
REMARK  5 active torsions:
REMARK  status: ('A' for Active; 'I' for Inactive)
REMARK    1  A    between atoms: C2_2  and  C7_7 
REMARK    2  A    between atoms: C2_2  and  C8_8 
REMARK    3  A    between atoms: C3_3  and  C10_10 
REMARK    4  A    between atoms: C8_8  and  C10_10 
REMARK    5  A    between atoms: C9_9  and  C10_10 
ROOT
HETATM    1  C10 UNL     1     -33.043   8.201   3.406  1.00 20.00     0.058 C 
ENDROOT
BRANCH   1   2
HETATM    2  C3  UNL     1     -32.740   8.744   4.803  1.00 20.00     0.127 C 
HETATM    3  C4  UNL     1     -33.696   8.360   5.904  1.00 20.00     0.091 C 
HETATM    4  O11 UNL     1     -31.780   9.481   5.031  1.00 20.00    -0.298 OA
ENDBRANCH   1   2
BRANCH   1   5
HETATM    5  C8  UNL     1     -32.315   6.870   3.134  1.00 20.00     0.045 C 
BRANCH   5   6
HETATM    6  C2  UNL     1     -33.220   5.652   3.131  1.00 20.00    -0.089 C 
HETATM    7  C1  UNL     1     -32.894   4.556   2.426  1.00 20.00     0.014 C 
BRANCH   6   8
HETATM    8  C7  UNL     1     -34.504   5.696   3.930  1.00 20.00     0.029 C 
HETATM    9  C5  UNL     1     -34.454   4.848   5.193  1.00 20.00     0.010 C 
ENDBRANCH   6   8
ENDBRANCH   5   6
ENDBRANCH   1   5
BRANCH   1  10
HETATM   10  C9  UNL     1     -32.739   9.273   2.343  1.00 20.00     0.008 C 
HETATM   11  C6  UNL     1     -32.408   8.736   0.956  1.00 20.00     0.006 C 
ENDBRANCH   1  10
TORSDOF 5
ENDMDL
MODEL 7
REMARK VINA RESULT:      -3.5     11.454     12.965
REMARK  5 active torsions:
REMARK  status: ('A' for Active; 'I' for Inactive)
REMARK    1  A    between atoms: C2_2  and  C7_7 
REMARK    2  A    between atoms: C2_2  and  C8_8 
REMARK    3  A    between atoms: C3_3  and  C10_10 
REMARK    4  A    between atoms: C8_8  and  C10_10 
REMARK    5  A    between atoms: C9_9  and  C10_10 
ROOT
HETATM    1  C10 UNL     1     -34.600  15.815  -6.084  1.00 20.00     0.058 C 
ENDROOT
BRANCH   1   2
HETATM    2  C3  UNL     1     -35.661  14.728  -6.271  1.00 20.00     0.127 C 
HETATM    3  C4  UNL     1     -36.170  14.053  -5.023  1.00 20.00     0.091 C 
HETATM    4  O11 UNL     1     -36.071  14.391  -7.383  1.00 20.00    -0.298 OA
ENDBRANCH   1   2
BRANCH   1   5
HETATM    5  C8  UNL     1     -34.654  16.434  -4.674  1.00 20.00     0.045 C 
BRANCH   5   6
HETATM    6  C2  UNL     1     -33.520  16.004  -3.760  1.00 20.00    -0.089 C 
HETATM    7  C1  UNL     1     -32.687  15.015  -4.120  1.00 20.00     0.014 C 
BRANCH   6   8
HETATM    8  C7  UNL     1     -33.351  16.705  -2.430  1.00 20.00     0.029 C 
HETATM    9  C5  UNL     1     -34.209  17.957  -2.298  1.00 20.00     0.010 C 
ENDBRANCH   6   8
ENDBRANCH   5   6
ENDBRANCH   1   5
BRANCH   1  10
HETATM   10  C9  UNL     1     -34.717  16.869  -7.201  1.00 20.00     0.008 C 
HETATM   11  C6  UNL     1     -34.303  18.281  -6.807  1.00 20.00     0.006 C 
ENDBRANCH   1  10
TORSDOF 5
ENDMDL
MODEL 8
REMARK VINA RESULT:      -3.5      9.400     11.222
REMARK  5 active torsions:
REMARK  status: ('A' for Active; 'I' for Inactive)
REMARK    1  A    between atoms: C2_2  and  C7_7 
REMARK    2  A    between atoms: C2_2  and  C8_8 
REMARK    3  A    between atoms: C3_3  and  C10_10 
REMARK    4  A    between atoms: C8_8  and  C10_10 
REMARK    5  A    between atoms: C9_9  and  C10_10 
ROOT
HETATM    1  C10 UNL     1     -40.475  13.614   6.066  1.00 20.00     0.058 C 
ENDROOT
BRANCH   1   2
HETATM    2  C3  UNL     1     -39.571  12.382   5.989  1.00 20.00     0.127 C 
HETATM    3  C4  UNL     1     -39.362  11.775   4.625  1.00 20.00     0.091 C 
HETATM    4  O11 UNL     1     -39.052  11.881   6.988  1.00 20.00    -0.298 OA
ENDBRANCH   1   2
BRANCH   1   5
HETATM    5  C8  UNL     1     -41.153  13.745   7.443  1.00 20.00     0.045 C 
BRANCH   5   6
HETATM    6  C2  UNL     1     -40.606  14.868   8.305  1.00 20.00    -0.089 C 
HETATM    7  C1  UNL     1     -40.316  14.661   9.600  1.00 20.00     0.014 C 
BRANCH   6   8
HETATM    8  C7  UNL     1     -40.400  16.231   7.680  1.00 20.00     0.029 C 
HETATM    9  C5  UNL     1     -41.648  17.103   7.717  1.00 20.00     0.010 C 
ENDBRANCH   6   8
ENDBRANCH   5   6
ENDBRANCH   1   5
BRANCH   1  10
HETATM   10  C9  UNL     1     -41.485  13.604   4.904  1.00 20.00     0.008 C 
HETATM   11  C6  UNL     1     -42.536  14.706   4.948  1.00 20.00     0.006 C 
ENDBRANCH   1  10
TORSDOF 5
ENDMDL
MODEL 9
REMARK VINA RESULT:      -3.5     11.485     13.427
REMARK  5 active torsions:
REMARK  status: ('A' for Active; 'I' for Inactive)
REMARK    1  A    between atoms: C2_2  and  C7_7 
REMARK    2  A    between atoms: C2_2  and  C8_8 
REMARK    3  A    between atoms: C3_3  and  C10_10 
REMARK    4  A    between atoms: C8_8  and  C10_10 
REMARK    5  A    between atoms: C9_9  and  C10_10 
ROOT
HETATM    1  C10 UNL     1     -34.586  15.856  -6.159  1.00 20.00     0.058 C 
ENDROOT
BRANCH   1   2
HETATM    2  C3  UNL     1     -35.590  14.704  -6.243  1.00 20.00     0.127 C 
HETATM    3  C4  UNL     1     -35.981  14.047  -4.943  1.00 20.00     0.091 C 
HETATM    4  O11 UNL     1     -36.047  14.304  -7.314  1.00 20.00    -0.298 OA
ENDBRANCH   1   2
BRANCH   1   5
HETATM    5  C8  UNL     1     -35.028  16.932  -5.149  1.00 20.00     0.045 C 
BRANCH   5   6
HETATM    6  C2  UNL     1     -33.931  17.392  -4.206  1.00 20.00    -0.089 C 
HETATM    7  C1  UNL     1     -33.406  18.624  -4.312  1.00 20.00     0.014 C 
BRANCH   6   8
HETATM    8  C7  UNL     1     -33.431  16.433  -3.148  1.00 20.00     0.029 C 
HETATM    9  C5  UNL     1     -33.494  17.008  -1.739  1.00 20.00     0.010 C 
ENDBRANCH   6   8
ENDBRANCH   5   6
ENDBRANCH   1   5
BRANCH   1  10
HETATM   10  C9  UNL     1     -34.320  16.431  -7.562  1.00 20.00     0.008 C 
HETATM   11  C6  UNL     1     -34.970  17.779  -7.845  1.00 20.00     0.006 C 
ENDBRANCH   1  10
TORSDOF 5
ENDMDL
