MODEL 1
REMARK VINA RESULT:      -4.2      0.000      0.000
REMARK  4 active torsions:
REMARK  status: ('A' for Active; 'I' for Inactive)
REMARK    1  A    between atoms: C3_3  and  C5_5 
REMARK    2  A    between atoms: C4_4  and  C7_7 
REMARK    3  A    between atoms: C5_5  and  C7_7 
REMARK    4  A    between atoms: C6_6  and  C7_7 
ROOT
HETATM    1  C7  UNL     1     -33.453   6.907   4.316  1.00 20.00    -0.001 C 
ENDROOT
BRANCH   1   2
HETATM    2  C4  UNL     1     -33.545   8.423   4.610  1.00 20.00     0.001 C 
HETATM    3  C2  UNL     1     -32.194   9.086   4.839  1.00 20.00     0.005 C 
ENDBRANCH   1   2
BRANCH   1   4
HETATM    4  C5  UNL     1     -34.852   6.247   4.306  1.00 20.00     0.005 C 
BRANCH   4   5
HETATM    5  C3  UNL     1     -35.060   5.101   5.303  1.00 20.00    -0.004 C 
HETATM    6  C1  UNL     1     -34.355   5.316   6.631  1.00 20.00     0.005 C 
ENDBRANCH   4   5
ENDBRANCH   1   4
BRANCH   1   7
HETATM    7  C6  UNL     1     -32.640   6.657   3.031  1.00 20.00     0.119 C 
HETATM    8 CL8  UNL     1     -32.792   4.998   2.404  1.00 20.00    -0.130 Cl
ENDBRANCH   1   7
TORSDOF 4
ENDMDL
MODEL 2
REMARK VINA RESULT:      -4.2      1.374      3.536
REMARK  4 active torsions:
REMARK  status: ('A' for Active; 'I' for Inactive)
REMARK    1  A    between atoms: C3_3  and  C5_5 
REMARK    2  A    between atoms: C4_4  and  C7_7 
REMARK    3  A    between atoms: C5_5  and  C7_7 
REMARK    4  A    between atoms: C6_6  and  C7_7 
ROOT
HETATM    1  C7  UNL     1     -33.817   6.984   4.461  1.00 20.00    -0.001 C 
ENDROOT
BRANCH   1   2
HETATM    2  C4  UNL     1     -33.939   6.968   6.003  1.00 20.00     0.001 C 
HETATM    3  C2  UNL     1     -34.511   5.671   6.559  1.00 20.00     0.005 C 
ENDBRANCH   1   2
BRANCH   1   4
HETATM    4  C5  UNL     1     -32.488   7.630   4.006  1.00 20.00     0.005 C 
BRANCH   4   5
HETATM    5  C3  UNL     1     -32.610   8.779   2.999  1.00 20.00    -0.004 C 
HETATM    6  C1  UNL     1     -32.274   8.376   1.573  1.00 20.00     0.005 C 
ENDBRANCH   4   5
ENDBRANCH   1   4
BRANCH   1   7
HETATM    7  C6  UNL     1     -34.049   5.572   3.889  1.00 20.00     0.119 C 
HETATM    8 CL8  UNL     1     -32.867   5.107   2.642  1.00 20.00    -0.130 Cl
ENDBRANCH   1   7
TORSDOF 4
ENDMDL
MODEL 3
REMARK VINA RESULT:      -4.1      1.319      1.524
REMARK  4 active torsions:
REMARK  status: ('A' for Active; 'I' for Inactive)
REMARK    1  A    between atoms: C3_3  and  C5_5 
REMARK    2  A    between atoms: C4_4  and  C7_7 
REMARK    3  A    between atoms: C5_5  and  C7_7 
REMARK    4  A    between atoms: C6_6  and  C7_7 
ROOT
HETATM    1  C7  UNL     1     -32.664   7.588   4.063  1.00 20.00    -0.001 C 
ENDROOT
BRANCH   1   2
HETATM    2  C4  UNL     1     -32.512   9.074   3.661  1.00 20.00     0.001 C 
HETATM    3  C2  UNL     1     -32.781   9.341   2.186  1.00 20.00     0.005 C 
ENDBRANCH   1   2
BRANCH   1   4
HETATM    4  C5  UNL     1     -34.031   7.321   4.734  1.00 20.00     0.005 C 
BRANCH   4   5
HETATM    5  C3  UNL     1     -33.982   6.812   6.179  1.00 20.00    -0.004 C 
HETATM    6  C1  UNL     1     -34.574   5.424   6.354  1.00 20.00     0.005 C 
ENDBRANCH   4   5
ENDBRANCH   1   4
BRANCH   1   7
HETATM    7  C6  UNL     1     -32.376   6.674   2.856  1.00 20.00     0.119 C 
HETATM    8 CL8  UNL     1     -33.234   5.115   2.924  1.00 20.00    -0.130 Cl
ENDBRANCH   1   7
TORSDOF 4
ENDMDL
MODEL 4
REMARK VINA RESULT:      -4.1      2.022      2.887
REMARK  4 active torsions:
REMARK  status: ('A' for Active; 'I' for Inactive)
REMARK    1  A    between atoms: C3_3  and  C5_5 
REMARK    2  A    between atoms: C4_4  and  C7_7 
REMARK    3  A    between atoms: C5_5  and  C7_7 
REMARK    4  A    between atoms: C6_6  and  C7_7 
ROOT
HETATM    1  C7  UNL     1     -33.084   7.848   3.841  1.00 20.00    -0.001 C 
ENDROOT
BRANCH   1   2
HETATM    2  C4  UNL     1     -32.312   6.769   3.047  1.00 20.00     0.001 C 
HETATM    3  C2  UNL     1     -33.100   5.483   2.834  1.00 20.00     0.005 C 
ENDBRANCH   1   2
BRANCH   1   4
HETATM    4  C5  UNL     1     -32.979   7.611   5.366  1.00 20.00     0.005 C 
BRANCH   4   5
HETATM    5  C3  UNL     1     -34.281   7.222   6.076  1.00 20.00    -0.004 C 
HETATM    6  C1  UNL     1     -34.436   5.725   6.283  1.00 20.00     0.005 C 
ENDBRANCH   4   5
ENDBRANCH   1   4
BRANCH   1   7
HETATM    7  C6  UNL     1     -32.643   9.258   3.401  1.00 20.00     0.119 C 
HETATM    8 CL8  UNL     1     -32.907   9.577   1.670  1.00 20.00    -0.130 Cl
ENDBRANCH   1   7
TORSDOF 4
ENDMDL
MODEL 5
REMARK VINA RESULT:      -4.0      0.941      3.125
REMARK  4 active torsions:
REMARK  status: ('A' for Active; 'I' for Inactive)
REMARK    1  A    between atoms: C3_3  and  C5_5 
REMARK    2  A    between atoms: C4_4  and  C7_7 
REMARK    3  A    between atoms: C5_5  and  C7_7 
REMARK    4  A    between atoms: C6_6  and  C7_7 
ROOT
HETATM    1  C7  UNL     1     -34.748   6.071   4.578  1.00 20.00    -0.001 C 
ENDROOT
BRANCH   1   2
HETATM    2  C4  UNL     1     -34.830   5.967   6.119  1.00 20.00     0.001 C 
HETATM    3  C2  UNL     1     -33.869   4.949   6.717  1.00 20.00     0.005 C 
ENDBRANCH   1   2
BRANCH   1   4
HETATM    4  C5  UNL     1     -34.082   7.395   4.136  1.00 20.00     0.005 C 
BRANCH   4   5
HETATM    5  C3  UNL     1     -33.413   8.214   5.246  1.00 20.00    -0.004 C 
HETATM    6  C1  UNL     1     -32.167   8.953   4.788  1.00 20.00     0.005 C 
ENDBRANCH   4   5
ENDBRANCH   1   4
BRANCH   1   7
HETATM    7  C6  UNL     1     -34.079   4.814   3.990  1.00 20.00     0.119 C 
HETATM    8 CL8  UNL     1     -32.920   5.169   2.686  1.00 20.00    -0.130 Cl
ENDBRANCH   1   7
TORSDOF 4
ENDMDL
MODEL 6
REMARK VINA RESULT:      -3.9      1.358      1.358
REMARK  4 active torsions:
REMARK  status: ('A' for Active; 'I' for Inactive)
REMARK    1  A    between atoms: C3_3  and  C5_5 
REMARK    2  A    between atoms: C4_4  and  C7_7 
REMARK    3  A    between atoms: C5_5  and  C7_7 
REMARK    4  A    between atoms: C6_6  and  C7_7 
ROOT
HETATM    1  C7  UNL     1     -32.917   6.716   3.876  1.00 20.00    -0.001 C 
ENDROOT
BRANCH   1   2
HETATM    2  C4  UNL     1     -33.423   8.124   4.269  1.00 20.00     0.001 C 
HETATM    3  C2  UNL     1     -32.418   8.933   5.076  1.00 20.00     0.005 C 
ENDBRANCH   1   2
BRANCH   1   4
HETATM    4  C5  UNL     1     -34.068   5.683   3.869  1.00 20.00     0.005 C 
BRANCH   4   5
HETATM    5  C3  UNL     1     -35.099   5.819   4.995  1.00 20.00    -0.004 C 
HETATM    6  C1  UNL     1     -34.564   5.415   6.359  1.00 20.00     0.005 C 
ENDBRANCH   4   5
ENDBRANCH   1   4
BRANCH   1   7
HETATM    7  C6  UNL     1     -32.131   6.778   2.551  1.00 20.00     0.119 C 
HETATM    8 CL8  UNL     1     -32.400   8.280   1.634  1.00 20.00    -0.130 Cl
ENDBRANCH   1   7
TORSDOF 4
ENDMDL
MODEL 7
REMARK VINA RESULT:      -3.9      1.899      2.695
REMARK  4 active torsions:
REMARK  status: ('A' for Active; 'I' for Inactive)
REMARK    1  A    between atoms: C3_3  and  C5_5 
REMARK    2  A    between atoms: C4_4  and  C7_7 
REMARK    3  A    between atoms: C5_5  and  C7_7 
REMARK    4  A    between atoms: C6_6  and  C7_7 
ROOT
HETATM    1  C7  UNL     1     -33.981   7.197   4.093  1.00 20.00    -0.001 C 
ENDROOT
BRANCH   1   2
HETATM    2  C4  UNL     1     -32.735   6.669   3.342  1.00 20.00     0.001 C 
HETATM    3  C2  UNL     1     -32.934   5.297   2.714  1.00 20.00     0.005 C 
ENDBRANCH   1   2
BRANCH   1   4
HETATM    4  C5  UNL     1     -34.884   6.037   4.574  1.00 20.00     0.005 C 
BRANCH   4   5
HETATM    5  C3  UNL     1     -34.935   5.811   6.090  1.00 20.00    -0.004 C 
HETATM    6  C1  UNL     1     -33.809   4.932   6.610  1.00 20.00     0.005 C 
ENDBRANCH   4   5
ENDBRANCH   1   4
BRANCH   1   7
HETATM    7  C6  UNL     1     -33.561   8.163   5.217  1.00 20.00     0.119 C 
HETATM    8 CL8  UNL     1     -32.112   9.121   4.828  1.00 20.00    -0.130 Cl
ENDBRANCH   1   7
TORSDOF 4
ENDMDL
MODEL 8
REMARK VINA RESULT:      -3.8      2.130      2.871
REMARK  4 active torsions:
REMARK  status: ('A' for Active; 'I' for Inactive)
REMARK    1  A    between atoms: C3_3  and  C5_5 
REMARK    2  A    between atoms: C4_4  and  C7_7 
REMARK    3  A    between atoms: C5_5  and  C7_7 
REMARK    4  A    between atoms: C6_6  and  C7_7 
ROOT
HETATM    1  C7  UNL     1     -33.959   7.422   5.029  1.00 20.00    -0.001 C 
ENDROOT
BRANCH   1   2
HETATM    2  C4  UNL     1     -32.574   7.988   4.638  1.00 20.00     0.001 C 
HETATM    3  C2  UNL     1     -32.575   8.758   3.324  1.00 20.00     0.005 C 
ENDBRANCH   1   2
BRANCH   1   4
HETATM    4  C5  UNL     1     -34.456   6.382   3.999  1.00 20.00     0.005 C 
BRANCH   4   5
HETATM    5  C3  UNL     1     -33.544   5.169   3.776  1.00 20.00    -0.004 C 
HETATM    6  C1  UNL     1     -32.908   5.134   2.397  1.00 20.00     0.005 C 
ENDBRANCH   4   5
ENDBRANCH   1   4
BRANCH   1   7
HETATM    7  C6  UNL     1     -33.936   6.899   6.478  1.00 20.00     0.119 C 
HETATM    8 CL8  UNL     1     -34.819   5.368   6.696  1.00 20.00    -0.130 Cl
ENDBRANCH   1   7
TORSDOF 4
ENDMDL
MODEL 9
REMARK VINA RESULT:      -3.8      1.797      3.145
REMARK  4 active torsions:
REMARK  status: ('A' for Active; 'I' for Inactive)
REMARK    1  A    between atoms: C3_3  and  C5_5 
REMARK    2  A    between atoms: C4_4  and  C7_7 
REMARK    3  A    between atoms: C5_5  and  C7_7 
REMARK    4  A    between atoms: C6_6  and  C7_7 
ROOT
HETATM    1  C7  UNL     1     -33.404   6.994   5.189  1.00 20.00    -0.001 C 
ENDROOT
BRANCH   1   2
HETATM    2  C4  UNL     1     -34.160   6.876   6.533  1.00 20.00     0.001 C 
HETATM    3  C2  UNL     1     -34.829   5.525   6.743  1.00 20.00     0.005 C 
ENDBRANCH   1   2
BRANCH   1   4
HETATM    4  C5  UNL     1     -34.225   6.395   4.024  1.00 20.00     0.005 C 
BRANCH   4   5
HETATM    5  C3  UNL     1     -33.751   5.034   3.498  1.00 20.00    -0.004 C 
HETATM    6  C1  UNL     1     -32.785   5.138   2.330  1.00 20.00     0.005 C 
ENDBRANCH   4   5
ENDBRANCH   1   4
BRANCH   1   7
HETATM    7  C6  UNL     1     -32.957   8.449   4.949  1.00 20.00     0.119 C 
HETATM    8 CL8  UNL     1     -32.534   8.794   3.255  1.00 20.00    -0.130 Cl
ENDBRANCH   1   7
TORSDOF 4
ENDMDL
