MODEL 1
REMARK VINA RESULT:      -3.9      0.000      0.000
REMARK  4 active torsions:
REMARK  status: ('A' for Active; 'I' for Inactive)
REMARK    1  A    between atoms: C3_3  and  C5_5 
REMARK    2  A    between atoms: C3_3  and  C6_6 
REMARK    3  A    between atoms: C5_5  and  C7_7 
REMARK    4  A    between atoms: C7_7  and  O8_8 
ROOT
HETATM    1  C1  UNL     1     -33.680   5.593   6.515  1.00 20.00     0.011 A 
HETATM    2  C2  UNL     1     -35.162   5.662   6.280  1.00 20.00     0.011 A 
HETATM    3  C3  UNL     1     -34.207   5.865   5.126  1.00 20.00    -0.026 A 
ENDROOT
BRANCH   3   4
HETATM    4  C5  UNL     1     -34.056   7.255   4.574  1.00 20.00     0.037 C 
BRANCH   4   5
HETATM    5  C7  UNL     1     -32.899   8.013   5.221  1.00 20.00     0.167 C 
BRANCH   5   6
HETATM    6  O8  UNL     1     -31.908   8.288   4.240  1.00 20.00    -0.396 OA
HETATM    7  C4  UNL     1     -32.489   8.729   3.021  1.00 20.00     0.201 C 
ENDBRANCH   5   6
ENDBRANCH   4   5
ENDBRANCH   3   4
BRANCH   3   8
HETATM    8  C6  UNL     1     -34.097   4.768   4.103  1.00 20.00     0.124 C 
HETATM    9 CL9  UNL     1     -33.027   5.257   2.766  1.00 20.00    -0.130 Cl
ENDBRANCH   3   8
TORSDOF 4
ENDMDL
MODEL 2
REMARK VINA RESULT:      -3.8      2.100      3.702
REMARK  4 active torsions:
REMARK  status: ('A' for Active; 'I' for Inactive)
REMARK    1  A    between atoms: C3_3  and  C5_5 
REMARK    2  A    between atoms: C3_3  and  C6_6 
REMARK    3  A    between atoms: C5_5  and  C7_7 
REMARK    4  A    between atoms: C7_7  and  O8_8 
ROOT
HETATM    1  C1  UNL     1     -32.962   9.160   3.906  1.00 20.00     0.011 A 
HETATM    2  C2  UNL     1     -32.073   8.493   4.915  1.00 20.00     0.011 A 
HETATM    3  C3  UNL     1     -32.913   7.653   3.981  1.00 20.00    -0.026 A 
ENDROOT
BRANCH   3   4
HETATM    4  C5  UNL     1     -34.103   6.936   4.557  1.00 20.00     0.037 C 
BRANCH   4   5
HETATM    5  C7  UNL     1     -34.198   5.491   4.075  1.00 20.00     0.167 C 
BRANCH   5   6
HETATM    6  O8  UNL     1     -34.678   4.672   5.132  1.00 20.00    -0.396 OA
HETATM    7  C4  UNL     1     -34.558   5.321   6.391  1.00 20.00     0.201 C 
ENDBRANCH   5   6
ENDBRANCH   4   5
ENDBRANCH   3   4
BRANCH   3   8
HETATM    8  C6  UNL     1     -32.210   6.913   2.876  1.00 20.00     0.124 C 
HETATM    9 CL9  UNL     1     -32.104   7.919   1.411  1.00 20.00    -0.130 Cl
ENDBRANCH   3   8
TORSDOF 4
ENDMDL
MODEL 3
REMARK VINA RESULT:      -3.8      1.355      1.367
REMARK  4 active torsions:
REMARK  status: ('A' for Active; 'I' for Inactive)
REMARK    1  A    between atoms: C3_3  and  C5_5 
REMARK    2  A    between atoms: C3_3  and  C6_6 
REMARK    3  A    between atoms: C5_5  and  C7_7 
REMARK    4  A    between atoms: C7_7  and  O8_8 
ROOT
HETATM    1  C1  UNL     1     -33.276   6.272   6.426  1.00 20.00     0.011 A 
HETATM    2  C2  UNL     1     -34.548   6.963   6.824  1.00 20.00     0.011 A 
HETATM    3  C3  UNL     1     -34.194   6.823   5.362  1.00 20.00    -0.026 A 
ENDROOT
BRANCH   3   4
HETATM    4  C5  UNL     1     -33.755   8.057   4.622  1.00 20.00     0.037 C 
BRANCH   4   5
HETATM    5  C7  UNL     1     -32.280   8.006   4.233  1.00 20.00     0.167 C 
BRANCH   5   6
HETATM    6  O8  UNL     1     -32.128   7.215   3.062  1.00 20.00    -0.396 OA
HETATM    7  C4  UNL     1     -32.185   8.010   1.885  1.00 20.00     0.201 C 
ENDBRANCH   5   6
ENDBRANCH   4   5
ENDBRANCH   3   4
BRANCH   3   8
HETATM    8  C6  UNL     1     -34.985   5.846   4.536  1.00 20.00     0.124 C 
HETATM    9 CL9  UNL     1     -34.056   4.352   4.263  1.00 20.00    -0.130 Cl
ENDBRANCH   3   8
TORSDOF 4
ENDMDL
MODEL 4
REMARK VINA RESULT:      -3.3      2.104      2.520
REMARK  4 active torsions:
REMARK  status: ('A' for Active; 'I' for Inactive)
REMARK    1  A    between atoms: C3_3  and  C5_5 
REMARK    2  A    between atoms: C3_3  and  C6_6 
REMARK    3  A    between atoms: C5_5  and  C7_7 
REMARK    4  A    between atoms: C7_7  and  O8_8 
ROOT
HETATM    1  C1  UNL     1     -35.390   6.092   4.476  1.00 20.00     0.011 A 
HETATM    2  C2  UNL     1     -34.621   4.926   5.026  1.00 20.00     0.011 A 
HETATM    3  C3  UNL     1     -33.889   6.181   4.610  1.00 20.00    -0.026 A 
ENDROOT
BRANCH   3   4
HETATM    4  C5  UNL     1     -33.063   6.131   3.354  1.00 20.00     0.037 C 
BRANCH   4   5
HETATM    5  C7  UNL     1     -32.220   7.390   3.166  1.00 20.00     0.167 C 
BRANCH   5   6
HETATM    6  O8  UNL     1     -32.208   7.748   1.790  1.00 20.00    -0.396 OA
HETATM    7  C4  UNL     1     -32.648   9.085   1.595  1.00 20.00     0.201 C 
ENDBRANCH   5   6
ENDBRANCH   4   5
ENDBRANCH   3   4
BRANCH   3   8
HETATM    8  C6  UNL     1     -33.328   7.060   5.694  1.00 20.00     0.124 C 
HETATM    9 CL9  UNL     1     -34.101   8.664   5.669  1.00 20.00    -0.130 Cl
ENDBRANCH   3   8
TORSDOF 4
ENDMDL
MODEL 5
REMARK VINA RESULT:      -3.2     12.713     13.479
REMARK  4 active torsions:
REMARK  status: ('A' for Active; 'I' for Inactive)
REMARK    1  A    between atoms: C3_3  and  C5_5 
REMARK    2  A    between atoms: C3_3  and  C6_6 
REMARK    3  A    between atoms: C5_5  and  C7_7 
REMARK    4  A    between atoms: C7_7  and  O8_8 
ROOT
HETATM    1  C1  UNL     1     -33.723  17.595  -0.717  1.00 20.00     0.011 A 
HETATM    2  C2  UNL     1     -32.428  18.096  -1.289  1.00 20.00     0.011 A 
HETATM    3  C3  UNL     1     -33.529  17.630  -2.214  1.00 20.00    -0.026 A 
ENDROOT
BRANCH   3   4
HETATM    4  C5  UNL     1     -33.339  16.322  -2.932  1.00 20.00     0.037 C 
BRANCH   4   5
HETATM    5  C7  UNL     1     -34.008  16.311  -4.303  1.00 20.00     0.167 C 
BRANCH   5   6
HETATM    6  O8  UNL     1     -33.791  15.051  -4.924  1.00 20.00    -0.396 OA
HETATM    7  C4  UNL     1     -34.071  15.100  -6.317  1.00 20.00     0.201 C 
ENDBRANCH   5   6
ENDBRANCH   4   5
ENDBRANCH   3   4
BRANCH   3   8
HETATM    8  C6  UNL     1     -34.278  18.672  -2.998  1.00 20.00     0.124 C 
HETATM    9 CL9  UNL     1     -35.950  18.827  -2.407  1.00 20.00    -0.130 Cl
ENDBRANCH   3   8
TORSDOF 4
ENDMDL
MODEL 6
REMARK VINA RESULT:      -3.2      2.233      3.392
REMARK  4 active torsions:
REMARK  status: ('A' for Active; 'I' for Inactive)
REMARK    1  A    between atoms: C3_3  and  C5_5 
REMARK    2  A    between atoms: C3_3  and  C6_6 
REMARK    3  A    between atoms: C5_5  and  C7_7 
REMARK    4  A    between atoms: C7_7  and  O8_8 
ROOT
HETATM    1  C1  UNL     1     -32.271   8.414   4.881  1.00 20.00     0.011 A 
HETATM    2  C2  UNL     1     -33.657   8.984   4.971  1.00 20.00     0.011 A 
HETATM    3  C3  UNL     1     -33.446   7.494   5.109  1.00 20.00    -0.026 A 
ENDROOT
BRANCH   3   4
HETATM    4  C5  UNL     1     -33.883   6.612   3.972  1.00 20.00     0.037 C 
BRANCH   4   5
HETATM    5  C7  UNL     1     -32.738   6.293   3.013  1.00 20.00     0.167 C 
BRANCH   5   6
HETATM    6  O8  UNL     1     -32.841   4.941   2.590  1.00 20.00    -0.396 OA
HETATM    7  C4  UNL     1     -33.623   4.169   3.491  1.00 20.00     0.201 C 
ENDBRANCH   5   6
ENDBRANCH   4   5
ENDBRANCH   3   4
BRANCH   3   8
HETATM    8  C6  UNL     1     -33.609   6.883   6.474  1.00 20.00     0.124 C 
HETATM    9 CL9  UNL     1     -34.783   5.545   6.431  1.00 20.00    -0.130 Cl
ENDBRANCH   3   8
TORSDOF 4
ENDMDL
MODEL 7
REMARK VINA RESULT:      -3.2      9.599     10.136
REMARK  4 active torsions:
REMARK  status: ('A' for Active; 'I' for Inactive)
REMARK    1  A    between atoms: C3_3  and  C5_5 
REMARK    2  A    between atoms: C3_3  and  C6_6 
REMARK    3  A    between atoms: C5_5  and  C7_7 
REMARK    4  A    between atoms: C7_7  and  O8_8 
ROOT
HETATM    1  C1  UNL     1     -42.902  13.567   6.263  1.00 20.00     0.011 A 
HETATM    2  C2  UNL     1     -42.762  12.309   7.072  1.00 20.00     0.011 A 
HETATM    3  C3  UNL     1     -41.531  13.094   6.685  1.00 20.00    -0.026 A 
ENDROOT
BRANCH   3   4
HETATM    4  C5  UNL     1     -40.628  12.516   5.630  1.00 20.00     0.037 C 
BRANCH   4   5
HETATM    5  C7  UNL     1     -39.254  12.145   6.182  1.00 20.00     0.167 C 
BRANCH   5   6
HETATM    6  O8  UNL     1     -38.307  12.138   5.123  1.00 20.00    -0.396 OA
HETATM    7  C4  UNL     1     -38.878  11.656   3.915  1.00 20.00     0.201 C 
ENDBRANCH   5   6
ENDBRANCH   4   5
ENDBRANCH   3   4
BRANCH   3   8
HETATM    8  C6  UNL     1     -40.820  13.865   7.763  1.00 20.00     0.124 C 
HETATM    9 CL9  UNL     1     -40.704  15.590   7.336  1.00 20.00    -0.130 Cl
ENDBRANCH   3   8
TORSDOF 4
ENDMDL
MODEL 8
REMARK VINA RESULT:      -3.2      1.780      2.302
REMARK  4 active torsions:
REMARK  status: ('A' for Active; 'I' for Inactive)
REMARK    1  A    between atoms: C3_3  and  C5_5 
REMARK    2  A    between atoms: C3_3  and  C6_6 
REMARK    3  A    between atoms: C5_5  and  C7_7 
REMARK    4  A    between atoms: C7_7  and  O8_8 
ROOT
HETATM    1  C1  UNL     1     -35.463   5.981   4.326  1.00 20.00     0.011 A 
HETATM    2  C2  UNL     1     -34.105   5.448   3.968  1.00 20.00     0.011 A 
HETATM    3  C3  UNL     1     -34.226   6.651   4.875  1.00 20.00    -0.026 A 
ENDROOT
BRANCH   3   4
HETATM    4  C5  UNL     1     -33.844   7.995   4.317  1.00 20.00     0.037 C 
BRANCH   4   5
HETATM    5  C7  UNL     1     -32.402   8.370   4.645  1.00 20.00     0.167 C 
BRANCH   5   6
HETATM    6  O8  UNL     1     -31.541   7.865   3.632  1.00 20.00    -0.396 OA
HETATM    7  C4  UNL     1     -32.121   7.998   2.342  1.00 20.00     0.201 C 
ENDBRANCH   5   6
ENDBRANCH   4   5
ENDBRANCH   3   4
BRANCH   3   8
HETATM    8  C6  UNL     1     -33.912   6.467   6.334  1.00 20.00     0.124 C 
HETATM    9 CL9  UNL     1     -34.832   5.101   7.011  1.00 20.00    -0.130 Cl
ENDBRANCH   3   8
TORSDOF 4
ENDMDL
MODEL 9
REMARK VINA RESULT:      -3.1     12.524     13.167
REMARK  4 active torsions:
REMARK  status: ('A' for Active; 'I' for Inactive)
REMARK    1  A    between atoms: C3_3  and  C5_5 
REMARK    2  A    between atoms: C3_3  and  C6_6 
REMARK    3  A    between atoms: C5_5  and  C7_7 
REMARK    4  A    between atoms: C7_7  and  O8_8 
ROOT
HETATM    1  C1  UNL     1     -34.682  18.854  -0.854  1.00 20.00     0.011 A 
HETATM    2  C2  UNL     1     -34.036  18.057   0.242  1.00 20.00     0.011 A 
HETATM    3  C3  UNL     1     -33.386  18.127  -1.120  1.00 20.00    -0.026 A 
ENDROOT
BRANCH   3   4
HETATM    4  C5  UNL     1     -33.429  16.899  -1.987  1.00 20.00     0.037 C 
BRANCH   4   5
HETATM    5  C7  UNL     1     -33.343  17.235  -3.473  1.00 20.00     0.167 C 
BRANCH   5   6
HETATM    6  O8  UNL     1     -34.040  16.247  -4.221  1.00 20.00    -0.396 OA
HETATM    7  C4  UNL     1     -33.344  15.008  -4.223  1.00 20.00     0.201 C 
ENDBRANCH   5   6
ENDBRANCH   4   5
ENDBRANCH   3   4
BRANCH   3   8
HETATM    8  C6  UNL     1     -32.133  18.948  -1.260  1.00 20.00     0.124 C 
HETATM    9 CL9  UNL     1     -30.856  18.342  -0.177  1.00 20.00    -0.130 Cl
ENDBRANCH   3   8
TORSDOF 4
ENDMDL
