MODEL 1
REMARK VINA RESULT:      -4.1      0.000      0.000
REMARK  5 active torsions:
REMARK  status: ('A' for Active; 'I' for Inactive)
REMARK    1  A    between atoms: C4_4  and  C5_5 
REMARK    2  A    between atoms: C5_5  and  C8_8 
REMARK    3  A    between atoms: C6_6  and  C8_8 
REMARK    4  A    between atoms: C6_6  and  C9_9 
REMARK    5  A    between atoms: C7_7  and  C9_9 
ROOT
HETATM    1  C6  UNL     1     -32.380   6.831   3.371  1.00 20.00     0.009 C 
ENDROOT
BRANCH   1   2
HETATM    2  C8  UNL     1     -33.425   5.746   3.033  1.00 20.00    -0.018 C 
HETATM    3  C2  UNL     1     -32.900   4.740   2.006  1.00 20.00     0.010 C 
BRANCH   2   4
HETATM    4  C5  UNL     1     -33.943   5.038   4.305  1.00 20.00     0.004 C 
BRANCH   4   5
HETATM    5  C4  UNL     1     -35.035   5.783   5.077  1.00 20.00    -0.004 C 
HETATM    6  C1  UNL     1     -34.545   6.203   6.457  1.00 20.00     0.005 C 
ENDBRANCH   4   5
ENDBRANCH   2   4
ENDBRANCH   1   2
BRANCH   1   7
HETATM    7  C9  UNL     1     -32.937   8.255   3.597  1.00 20.00    -0.004 C 
HETATM    8  C3  UNL     1     -32.410   8.807   4.929  1.00 20.00     0.011 C 
BRANCH   7   9
HETATM    9  C7  UNL     1     -32.670   9.236   2.445  1.00 20.00     0.119 C 
HETATM   10 CL10 UNL     1     -32.259   8.435   0.908  1.00 20.00    -0.130 Cl
ENDBRANCH   7   9
ENDBRANCH   1   7
TORSDOF 5
ENDMDL
MODEL 2
REMARK VINA RESULT:      -4.1      1.069      2.865
REMARK  5 active torsions:
REMARK  status: ('A' for Active; 'I' for Inactive)
REMARK    1  A    between atoms: C4_4  and  C5_5 
REMARK    2  A    between atoms: C5_5  and  C8_8 
REMARK    3  A    between atoms: C6_6  and  C8_8 
REMARK    4  A    between atoms: C6_6  and  C9_9 
REMARK    5  A    between atoms: C7_7  and  C9_9 
ROOT
HETATM    1  C6  UNL     1     -33.225   8.066   3.558  1.00 20.00     0.009 C 
ENDROOT
BRANCH   1   2
HETATM    2  C8  UNL     1     -32.863   8.022   5.058  1.00 20.00    -0.018 C 
HETATM    3  C2  UNL     1     -32.202   9.320   5.529  1.00 20.00     0.010 C 
BRANCH   2   4
HETATM    4  C5  UNL     1     -34.088   7.662   5.929  1.00 20.00     0.004 C 
BRANCH   4   5
HETATM    5  C4  UNL     1     -34.166   6.204   6.387  1.00 20.00    -0.004 C 
HETATM    6  C1  UNL     1     -34.920   5.350   5.378  1.00 20.00     0.005 C 
ENDBRANCH   4   5
ENDBRANCH   2   4
ENDBRANCH   1   2
BRANCH   1   7
HETATM    7  C9  UNL     1     -32.270   7.302   2.612  1.00 20.00    -0.004 C 
HETATM    8  C3  UNL     1     -32.690   5.828   2.539  1.00 20.00     0.011 C 
BRANCH   7   9
HETATM    9  C7  UNL     1     -32.137   7.912   1.209  1.00 20.00     0.119 C 
HETATM   10 CL10 UNL     1     -32.788   9.565   1.085  1.00 20.00    -0.130 Cl
ENDBRANCH   7   9
ENDBRANCH   1   7
TORSDOF 5
ENDMDL
MODEL 3
REMARK VINA RESULT:      -4.0      1.796      4.269
REMARK  5 active torsions:
REMARK  status: ('A' for Active; 'I' for Inactive)
REMARK    1  A    between atoms: C4_4  and  C5_5 
REMARK    2  A    between atoms: C5_5  and  C8_8 
REMARK    3  A    between atoms: C6_6  and  C8_8 
REMARK    4  A    between atoms: C6_6  and  C9_9 
REMARK    5  A    between atoms: C7_7  and  C9_9 
ROOT
HETATM    1  C6  UNL     1     -34.169   7.700   4.379  1.00 20.00     0.009 C 
ENDROOT
BRANCH   1   2
HETATM    2  C8  UNL     1     -32.951   8.520   3.905  1.00 20.00    -0.018 C 
HETATM    3  C2  UNL     1     -32.120   9.048   5.077  1.00 20.00     0.010 C 
BRANCH   2   4
HETATM    4  C5  UNL     1     -32.080   7.722   2.909  1.00 20.00     0.004 C 
BRANCH   4   5
HETATM    5  C4  UNL     1     -32.172   8.167   1.447  1.00 20.00    -0.004 C 
HETATM    6  C1  UNL     1     -32.840   9.530   1.329  1.00 20.00     0.005 C 
ENDBRANCH   4   5
ENDBRANCH   2   4
ENDBRANCH   1   2
BRANCH   1   7
HETATM    7  C9  UNL     1     -33.848   6.349   5.059  1.00 20.00    -0.004 C 
HETATM    8  C3  UNL     1     -34.447   6.329   6.472  1.00 20.00     0.011 C 
BRANCH   7   9
HETATM    9  C7  UNL     1     -34.277   5.112   4.256  1.00 20.00     0.119 C 
HETATM   10 CL10 UNL     1     -33.260   4.800   2.828  1.00 20.00    -0.130 Cl
ENDBRANCH   7   9
ENDBRANCH   1   7
TORSDOF 5
ENDMDL
MODEL 4
REMARK VINA RESULT:      -4.0      2.346      4.064
REMARK  5 active torsions:
REMARK  status: ('A' for Active; 'I' for Inactive)
REMARK    1  A    between atoms: C4_4  and  C5_5 
REMARK    2  A    between atoms: C5_5  and  C8_8 
REMARK    3  A    between atoms: C6_6  and  C8_8 
REMARK    4  A    between atoms: C6_6  and  C9_9 
REMARK    5  A    between atoms: C7_7  and  C9_9 
ROOT
HETATM    1  C6  UNL     1     -33.703   7.220   4.003  1.00 20.00     0.009 C 
ENDROOT
BRANCH   1   2
HETATM    2  C8  UNL     1     -32.539   6.615   3.190  1.00 20.00    -0.018 C 
HETATM    3  C2  UNL     1     -32.905   5.258   2.583  1.00 20.00     0.010 C 
BRANCH   2   4
HETATM    4  C5  UNL     1     -32.026   7.597   2.113  1.00 20.00     0.004 C 
BRANCH   4   5
HETATM    5  C4  UNL     1     -32.714   8.964   2.085  1.00 20.00    -0.004 C 
HETATM    6  C1  UNL     1     -32.801   9.507   0.665  1.00 20.00     0.005 C 
ENDBRANCH   4   5
ENDBRANCH   2   4
ENDBRANCH   1   2
BRANCH   1   7
HETATM    7  C9  UNL     1     -33.432   7.432   5.511  1.00 20.00    -0.004 C 
HETATM    8  C3  UNL     1     -33.609   8.915   5.862  1.00 20.00     0.011 C 
BRANCH   7   9
HETATM    9  C7  UNL     1     -34.266   6.537   6.441  1.00 20.00     0.119 C 
HETATM   10 CL10 UNL     1     -34.761   4.998   5.694  1.00 20.00    -0.130 Cl
ENDBRANCH   7   9
ENDBRANCH   1   7
TORSDOF 5
ENDMDL
MODEL 5
REMARK VINA RESULT:      -4.0      0.907      2.615
REMARK  5 active torsions:
REMARK  status: ('A' for Active; 'I' for Inactive)
REMARK    1  A    between atoms: C4_4  and  C5_5 
REMARK    2  A    between atoms: C5_5  and  C8_8 
REMARK    3  A    between atoms: C6_6  and  C8_8 
REMARK    4  A    between atoms: C6_6  and  C9_9 
REMARK    5  A    between atoms: C7_7  and  C9_9 
ROOT
HETATM    1  C6  UNL     1     -34.141   8.019   4.568  1.00 20.00     0.009 C 
ENDROOT
BRANCH   1   2
HETATM    2  C8  UNL     1     -33.978   6.662   5.286  1.00 20.00    -0.018 C 
HETATM    3  C2  UNL     1     -34.355   6.744   6.767  1.00 20.00     0.010 C 
BRANCH   2   4
HETATM    4  C5  UNL     1     -34.757   5.539   4.565  1.00 20.00     0.004 C 
BRANCH   4   5
HETATM    5  C4  UNL     1     -33.904   4.399   4.004  1.00 20.00    -0.004 C 
HETATM    6  C1  UNL     1     -33.230   4.805   2.701  1.00 20.00     0.005 C 
ENDBRANCH   4   5
ENDBRANCH   2   4
ENDBRANCH   1   2
BRANCH   1   7
HETATM    7  C9  UNL     1     -32.848   8.632   3.986  1.00 20.00    -0.004 C 
HETATM    8  C3  UNL     1     -31.990   9.200   5.125  1.00 20.00     0.011 C 
BRANCH   7   9
HETATM    9  C7  UNL     1     -32.032   7.679   3.098  1.00 20.00     0.119 C 
HETATM   10 CL10 UNL     1     -32.126   8.064   1.362  1.00 20.00    -0.130 Cl
ENDBRANCH   7   9
ENDBRANCH   1   7
TORSDOF 5
ENDMDL
MODEL 6
REMARK VINA RESULT:      -3.9      2.337      4.848
REMARK  5 active torsions:
REMARK  status: ('A' for Active; 'I' for Inactive)
REMARK    1  A    between atoms: C4_4  and  C5_5 
REMARK    2  A    between atoms: C5_5  and  C8_8 
REMARK    3  A    between atoms: C6_6  and  C8_8 
REMARK    4  A    between atoms: C6_6  and  C9_9 
REMARK    5  A    between atoms: C7_7  and  C9_9 
ROOT
HETATM    1  C6  UNL     1     -32.899   6.865   4.433  1.00 20.00     0.009 C 
ENDROOT
BRANCH   1   2
HETATM    2  C8  UNL     1     -32.890   8.326   3.932  1.00 20.00    -0.018 C 
HETATM    3  C2  UNL     1     -32.215   9.271   4.929  1.00 20.00     0.010 C 
BRANCH   2   4
HETATM    4  C5  UNL     1     -32.259   8.441   2.527  1.00 20.00     0.004 C 
BRANCH   4   5
HETATM    5  C4  UNL     1     -32.876   9.502   1.611  1.00 20.00    -0.004 C 
HETATM    6  C1  UNL     1     -32.721   9.121   0.145  1.00 20.00     0.005 C 
ENDBRANCH   4   5
ENDBRANCH   2   4
ENDBRANCH   1   2
BRANCH   1   7
HETATM    7  C9  UNL     1     -33.910   5.923   3.740  1.00 20.00    -0.004 C 
HETATM    8  C3  UNL     1     -33.168   5.004   2.761  1.00 20.00     0.011 C 
BRANCH   7   9
HETATM    9  C7  UNL     1     -34.792   5.114   4.703  1.00 20.00     0.119 C 
HETATM   10 CL10 UNL     1     -34.629   5.608   6.406  1.00 20.00    -0.130 Cl
ENDBRANCH   7   9
ENDBRANCH   1   7
TORSDOF 5
ENDMDL
MODEL 7
REMARK VINA RESULT:      -3.8      1.982      3.981
REMARK  5 active torsions:
REMARK  status: ('A' for Active; 'I' for Inactive)
REMARK    1  A    between atoms: C4_4  and  C5_5 
REMARK    2  A    between atoms: C5_5  and  C8_8 
REMARK    3  A    between atoms: C6_6  and  C8_8 
REMARK    4  A    between atoms: C6_6  and  C9_9 
REMARK    5  A    between atoms: C7_7  and  C9_9 
ROOT
HETATM    1  C6  UNL     1     -34.408   6.523   4.023  1.00 20.00     0.009 C 
ENDROOT
BRANCH   1   2
HETATM    2  C8  UNL     1     -32.964   6.223   3.565  1.00 20.00    -0.018 C 
HETATM    3  C2  UNL     1     -32.921   5.176   2.449  1.00 20.00     0.010 C 
BRANCH   2   4
HETATM    4  C5  UNL     1     -32.215   7.512   3.161  1.00 20.00     0.004 C 
BRANCH   4   5
HETATM    5  C4  UNL     1     -32.242   7.850   1.668  1.00 20.00    -0.004 C 
HETATM    6  C1  UNL     1     -32.745   9.268   1.434  1.00 20.00     0.005 C 
ENDBRANCH   4   5
ENDBRANCH   2   4
ENDBRANCH   1   2
BRANCH   1   7
HETATM    7  C9  UNL     1     -34.712   6.244   5.513  1.00 20.00    -0.004 C 
HETATM    8  C3  UNL     1     -34.380   4.781   5.840  1.00 20.00     0.011 C 
BRANCH   7   9
HETATM    9  C7  UNL     1     -34.025   7.203   6.496  1.00 20.00     0.119 C 
HETATM   10 CL10 UNL     1     -33.744   8.830   5.828  1.00 20.00    -0.130 Cl
ENDBRANCH   7   9
ENDBRANCH   1   7
TORSDOF 5
ENDMDL
MODEL 8
REMARK VINA RESULT:      -3.7     11.690     12.612
REMARK  5 active torsions:
REMARK  status: ('A' for Active; 'I' for Inactive)
REMARK    1  A    between atoms: C4_4  and  C5_5 
REMARK    2  A    between atoms: C5_5  and  C8_8 
REMARK    3  A    between atoms: C6_6  and  C8_8 
REMARK    4  A    between atoms: C6_6  and  C9_9 
REMARK    5  A    between atoms: C7_7  and  C9_9 
ROOT
HETATM    1  C6  UNL     1     -33.555  16.991  -1.636  1.00 20.00     0.009 C 
ENDROOT
BRANCH   1   2
HETATM    2  C8  UNL     1     -33.173  18.280  -0.877  1.00 20.00    -0.018 C 
HETATM    3  C2  UNL     1     -33.982  18.452   0.411  1.00 20.00     0.010 C 
BRANCH   2   4
HETATM    4  C5  UNL     1     -31.653  18.350  -0.604  1.00 20.00     0.004 C 
BRANCH   4   5
HETATM    5  C4  UNL     1     -31.240  19.169   0.621  1.00 20.00    -0.004 C 
HETATM    6  C1  UNL     1     -30.638  18.280   1.700  1.00 20.00     0.005 C 
ENDBRANCH   4   5
ENDBRANCH   2   4
ENDBRANCH   1   2
BRANCH   1   7
HETATM    7  C9  UNL     1     -33.139  16.937  -3.123  1.00 20.00    -0.004 C 
HETATM    8  C3  UNL     1     -33.513  15.570  -3.713  1.00 20.00     0.011 C 
BRANCH   7   9
HETATM    9  C7  UNL     1     -33.692  18.083  -3.984  1.00 20.00     0.119 C 
HETATM   10 CL10 UNL     1     -35.443  18.343  -3.785  1.00 20.00    -0.130 Cl
ENDBRANCH   7   9
ENDBRANCH   1   7
TORSDOF 5
ENDMDL
MODEL 9
REMARK VINA RESULT:      -3.5     11.414     12.349
REMARK  5 active torsions:
REMARK  status: ('A' for Active; 'I' for Inactive)
REMARK    1  A    between atoms: C4_4  and  C5_5 
REMARK    2  A    between atoms: C5_5  and  C8_8 
REMARK    3  A    between atoms: C6_6  and  C8_8 
REMARK    4  A    between atoms: C6_6  and  C9_9 
REMARK    5  A    between atoms: C7_7  and  C9_9 
ROOT
HETATM    1  C6  UNL     1     -33.479  17.017  -1.554  1.00 20.00     0.009 C 
ENDROOT
BRANCH   1   2
HETATM    2  C8  UNL     1     -33.707  16.983  -3.081  1.00 20.00    -0.018 C 
HETATM    3  C2  UNL     1     -33.263  18.282  -3.758  1.00 20.00     0.010 C 
BRANCH   2   4
HETATM    4  C5  UNL     1     -33.037  15.750  -3.729  1.00 20.00     0.004 C 
BRANCH   4   5
HETATM    5  C4  UNL     1     -33.996  14.685  -4.268  1.00 20.00    -0.004 C 
HETATM    6  C1  UNL     1     -34.410  14.993  -5.700  1.00 20.00     0.005 C 
ENDBRANCH   4   5
ENDBRANCH   2   4
ENDBRANCH   1   2
BRANCH   1   7
HETATM    7  C9  UNL     1     -33.064  18.385  -0.966  1.00 20.00    -0.004 C 
HETATM    8  C3  UNL     1     -33.962  18.723   0.231  1.00 20.00     0.011 C 
BRANCH   7   9
HETATM    9  C7  UNL     1     -31.577  18.495  -0.594  1.00 20.00     0.119 C 
HETATM   10 CL10 UNL     1     -31.270  18.382   1.156  1.00 20.00    -0.130 Cl
ENDBRANCH   7   9
ENDBRANCH   1   7
TORSDOF 5
ENDMDL
