MODEL 1
REMARK VINA RESULT:      -4.9      0.000      0.000
REMARK  5 active torsions:
REMARK  status: ('A' for Active; 'I' for Inactive)
REMARK    1  A    between atoms: C2_2  and  C4_4 
REMARK    2  A    between atoms: C2_2  and  C5_5 
REMARK    3  A    between atoms: C5_5  and  C6_6 
REMARK    4  A    between atoms: C6_6  and  C7_7 
REMARK    5  A    between atoms: C7_7  and  C8_8 
ROOT
HETATM    1  C5  UNL     1     -34.103   7.733   4.953  1.00 20.00     0.033 C 
ENDROOT
BRANCH   1   2
HETATM    2  C2  UNL     1     -32.760   8.100   4.360  1.00 20.00    -0.090 C 
HETATM    3  C1  UNL     1     -32.056   9.136   4.844  1.00 20.00     0.014 C 
BRANCH   2   4
HETATM    4  C4  UNL     1     -32.229   7.273   3.211  1.00 20.00     0.029 C 
HETATM    5  C3  UNL     1     -32.234   8.022   1.886  1.00 20.00     0.010 C 
ENDBRANCH   2   4
ENDBRANCH   1   2
BRANCH   1   6
HETATM    6  C6  UNL     1     -33.986   7.088   6.338  1.00 20.00     0.005 C 
BRANCH   6   7
HETATM    7  C7  UNL     1     -34.522   5.654   6.328  1.00 20.00     0.015 C 
BRANCH   7   8
HETATM    8  C8  UNL     1     -35.062   5.280   4.955  1.00 20.00     0.114 C 
HETATM    9 CL9  UNL     1     -33.918   4.213   4.107  1.00 20.00    -0.130 Cl
ENDBRANCH   7   8
ENDBRANCH   6   7
ENDBRANCH   1   6
TORSDOF 5
ENDMDL
MODEL 2
REMARK VINA RESULT:      -4.7      2.025      3.519
REMARK  5 active torsions:
REMARK  status: ('A' for Active; 'I' for Inactive)
REMARK    1  A    between atoms: C2_2  and  C4_4 
REMARK    2  A    between atoms: C2_2  and  C5_5 
REMARK    3  A    between atoms: C5_5  and  C6_6 
REMARK    4  A    between atoms: C6_6  and  C7_7 
REMARK    5  A    between atoms: C7_7  and  C8_8 
ROOT
HETATM    1  C5  UNL     1     -34.627   5.967   6.259  1.00 20.00     0.033 C 
ENDROOT
BRANCH   1   2
HETATM    2  C2  UNL     1     -34.860   5.534   4.828  1.00 20.00    -0.090 C 
HETATM    3  C1  UNL     1     -35.919   5.987   4.138  1.00 20.00     0.014 C 
BRANCH   2   4
HETATM    4  C4  UNL     1     -33.874   4.579   4.194  1.00 20.00     0.029 C 
HETATM    5  C3  UNL     1     -33.202   5.153   2.955  1.00 20.00     0.010 C 
ENDBRANCH   2   4
ENDBRANCH   1   2
BRANCH   1   6
HETATM    6  C6  UNL     1     -33.477   6.970   6.398  1.00 20.00     0.005 C 
BRANCH   6   7
HETATM    7  C7  UNL     1     -33.645   8.143   5.428  1.00 20.00     0.015 C 
BRANCH   7   8
HETATM    8  C8  UNL     1     -32.338   8.454   4.712  1.00 20.00     0.114 C 
HETATM    9 CL9  UNL     1     -32.624   8.684   2.971  1.00 20.00    -0.130 Cl
ENDBRANCH   7   8
ENDBRANCH   6   7
ENDBRANCH   1   6
TORSDOF 5
ENDMDL
MODEL 3
REMARK VINA RESULT:      -4.6      1.064      1.874
REMARK  5 active torsions:
REMARK  status: ('A' for Active; 'I' for Inactive)
REMARK    1  A    between atoms: C2_2  and  C4_4 
REMARK    2  A    between atoms: C2_2  and  C5_5 
REMARK    3  A    between atoms: C5_5  and  C6_6 
REMARK    4  A    between atoms: C6_6  and  C7_7 
REMARK    5  A    between atoms: C7_7  and  C8_8 
ROOT
HETATM    1  C5  UNL     1     -32.517   8.259   4.665  1.00 20.00     0.033 C 
ENDROOT
BRANCH   1   2
HETATM    2  C2  UNL     1     -32.490   7.951   3.184  1.00 20.00    -0.090 C 
HETATM    3  C1  UNL     1     -32.325   6.691   2.748  1.00 20.00     0.014 C 
BRANCH   2   4
HETATM    4  C4  UNL     1     -32.651   9.093   2.207  1.00 20.00     0.029 C 
HETATM    5  C3  UNL     1     -32.379   8.686   0.765  1.00 20.00     0.010 C 
ENDBRANCH   2   4
ENDBRANCH   1   2
BRANCH   1   6
HETATM    6  C6  UNL     1     -33.869   7.943   5.314  1.00 20.00     0.005 C 
BRANCH   6   7
HETATM    7  C7  UNL     1     -33.722   6.885   6.412  1.00 20.00     0.015 C 
BRANCH   7   8
HETATM    8  C8  UNL     1     -34.588   5.668   6.121  1.00 20.00     0.114 C 
HETATM    9 CL9  UNL     1     -35.374   5.832   4.532  1.00 20.00    -0.130 Cl
ENDBRANCH   7   8
ENDBRANCH   6   7
ENDBRANCH   1   6
TORSDOF 5
ENDMDL
MODEL 4
REMARK VINA RESULT:      -4.5      2.194      3.722
REMARK  5 active torsions:
REMARK  status: ('A' for Active; 'I' for Inactive)
REMARK    1  A    between atoms: C2_2  and  C4_4 
REMARK    2  A    between atoms: C2_2  and  C5_5 
REMARK    3  A    between atoms: C5_5  and  C6_6 
REMARK    4  A    between atoms: C6_6  and  C7_7 
REMARK    5  A    between atoms: C7_7  and  C8_8 
ROOT
HETATM    1  C5  UNL     1     -34.304   7.087   4.610  1.00 20.00     0.033 C 
ENDROOT
BRANCH   1   2
HETATM    2  C2  UNL     1     -34.357   5.682   5.169  1.00 20.00    -0.090 C 
HETATM    3  C1  UNL     1     -34.649   5.469   6.462  1.00 20.00     0.014 C 
BRANCH   2   4
HETATM    4  C4  UNL     1     -34.073   4.524   4.239  1.00 20.00     0.029 C 
HETATM    5  C3  UNL     1     -33.339   4.944   2.973  1.00 20.00     0.010 C 
ENDBRANCH   2   4
ENDBRANCH   1   2
BRANCH   1   6
HETATM    6  C6  UNL     1     -33.531   8.057   5.509  1.00 20.00     0.005 C 
BRANCH   6   7
HETATM    7  C7  UNL     1     -32.377   8.716   4.748  1.00 20.00     0.015 C 
BRANCH   7   8
HETATM    8  C8  UNL     1     -32.244   8.139   3.346  1.00 20.00     0.114 C 
HETATM    9 CL9  UNL     1     -32.772   9.329   2.133  1.00 20.00    -0.130 Cl
ENDBRANCH   7   8
ENDBRANCH   6   7
ENDBRANCH   1   6
TORSDOF 5
ENDMDL
MODEL 5
REMARK VINA RESULT:      -4.4      1.224      1.707
REMARK  5 active torsions:
REMARK  status: ('A' for Active; 'I' for Inactive)
REMARK    1  A    between atoms: C2_2  and  C4_4 
REMARK    2  A    between atoms: C2_2  and  C5_5 
REMARK    3  A    between atoms: C5_5  and  C6_6 
REMARK    4  A    between atoms: C6_6  and  C7_7 
REMARK    5  A    between atoms: C7_7  and  C8_8 
ROOT
HETATM    1  C5  UNL     1     -32.540   8.082   4.873  1.00 20.00     0.033 C 
ENDROOT
BRANCH   1   2
HETATM    2  C2  UNL     1     -32.479   8.129   3.362  1.00 20.00    -0.090 C 
HETATM    3  C1  UNL     1     -32.894   9.216   2.692  1.00 20.00     0.014 C 
BRANCH   2   4
HETATM    4  C4  UNL     1     -31.939   6.925   2.624  1.00 20.00     0.029 C 
HETATM    5  C3  UNL     1     -32.860   5.715   2.705  1.00 20.00     0.010 C 
ENDBRANCH   2   4
ENDBRANCH   1   2
BRANCH   1   6
HETATM    6  C6  UNL     1     -33.966   7.910   5.406  1.00 20.00     0.005 C 
BRANCH   6   7
HETATM    7  C7  UNL     1     -34.021   6.846   6.506  1.00 20.00     0.015 C 
BRANCH   7   8
HETATM    8  C8  UNL     1     -34.601   5.541   5.979  1.00 20.00     0.114 C 
HETATM    9 CL9  UNL     1     -35.610   5.846   4.545  1.00 20.00    -0.130 Cl
ENDBRANCH   7   8
ENDBRANCH   6   7
ENDBRANCH   1   6
TORSDOF 5
ENDMDL
MODEL 6
REMARK VINA RESULT:      -4.3      2.073      4.299
REMARK  5 active torsions:
REMARK  status: ('A' for Active; 'I' for Inactive)
REMARK    1  A    between atoms: C2_2  and  C4_4 
REMARK    2  A    between atoms: C2_2  and  C5_5 
REMARK    3  A    between atoms: C5_5  and  C6_6 
REMARK    4  A    between atoms: C6_6  and  C7_7 
REMARK    5  A    between atoms: C7_7  and  C8_8 
ROOT
HETATM    1  C5  UNL     1     -33.661   4.849   3.732  1.00 20.00     0.033 C 
ENDROOT
BRANCH   1   2
HETATM    2  C2  UNL     1     -34.694   5.439   4.667  1.00 20.00    -0.090 C 
HETATM    3  C1  UNL     1     -35.834   5.961   4.188  1.00 20.00     0.014 C 
BRANCH   2   4
HETATM    4  C4  UNL     1     -34.413   5.426   6.153  1.00 20.00     0.029 C 
HETATM    5  C3  UNL     1     -34.223   6.820   6.735  1.00 20.00     0.010 C 
ENDBRANCH   2   4
ENDBRANCH   1   2
BRANCH   1   6
HETATM    6  C6  UNL     1     -33.169   5.849   2.681  1.00 20.00     0.005 C 
BRANCH   6   7
HETATM    7  C7  UNL     1     -32.184   6.852   3.288  1.00 20.00     0.015 C 
BRANCH   7   8
HETATM    8  C8  UNL     1     -32.799   8.242   3.372  1.00 20.00     0.114 C 
HETATM    9 CL9  UNL     1     -32.279   9.060   4.864  1.00 20.00    -0.130 Cl
ENDBRANCH   7   8
ENDBRANCH   6   7
ENDBRANCH   1   6
TORSDOF 5
ENDMDL
MODEL 7
REMARK VINA RESULT:      -4.3      1.619      2.121
REMARK  5 active torsions:
REMARK  status: ('A' for Active; 'I' for Inactive)
REMARK    1  A    between atoms: C2_2  and  C4_4 
REMARK    2  A    between atoms: C2_2  and  C5_5 
REMARK    3  A    between atoms: C5_5  and  C6_6 
REMARK    4  A    between atoms: C6_6  and  C7_7 
REMARK    5  A    between atoms: C7_7  and  C8_8 
ROOT
HETATM    1  C5  UNL     1     -32.975   6.125   3.256  1.00 20.00     0.033 C 
ENDROOT
BRANCH   1   2
HETATM    2  C2  UNL     1     -32.381   7.505   3.074  1.00 20.00    -0.090 C 
HETATM    3  C1  UNL     1     -32.128   8.288   4.134  1.00 20.00     0.014 C 
BRANCH   2   4
HETATM    4  C4  UNL     1     -32.080   7.980   1.671  1.00 20.00     0.029 C 
HETATM    5  C3  UNL     1     -32.765   9.295   1.327  1.00 20.00     0.010 C 
ENDBRANCH   2   4
ENDBRANCH   1   2
BRANCH   1   6
HETATM    6  C6  UNL     1     -34.316   6.147   3.998  1.00 20.00     0.005 C 
BRANCH   6   7
HETATM    7  C7  UNL     1     -34.503   4.882   4.840  1.00 20.00     0.015 C 
BRANCH   7   8
HETATM    8  C8  UNL     1     -34.492   5.207   6.327  1.00 20.00     0.114 C 
HETATM    9 CL9  UNL     1     -34.279   6.955   6.578  1.00 20.00    -0.130 Cl
ENDBRANCH   7   8
ENDBRANCH   6   7
ENDBRANCH   1   6
TORSDOF 5
ENDMDL
MODEL 8
REMARK VINA RESULT:      -4.2      2.493      4.556
REMARK  5 active torsions:
REMARK  status: ('A' for Active; 'I' for Inactive)
REMARK    1  A    between atoms: C2_2  and  C4_4 
REMARK    2  A    between atoms: C2_2  and  C5_5 
REMARK    3  A    between atoms: C5_5  and  C6_6 
REMARK    4  A    between atoms: C6_6  and  C7_7 
REMARK    5  A    between atoms: C7_7  and  C8_8 
ROOT
HETATM    1  C5  UNL     1     -33.480   7.247   4.400  1.00 20.00     0.033 C 
ENDROOT
BRANCH   1   2
HETATM    2  C2  UNL     1     -33.741   5.809   4.007  1.00 20.00    -0.090 C 
HETATM    3  C1  UNL     1     -33.171   5.284   2.910  1.00 20.00     0.014 C 
BRANCH   2   4
HETATM    4  C4  UNL     1     -34.657   4.979   4.877  1.00 20.00     0.029 C 
HETATM    5  C3  UNL     1     -34.673   5.434   6.329  1.00 20.00     0.010 C 
ENDBRANCH   2   4
ENDBRANCH   1   2
BRANCH   1   6
HETATM    6  C6  UNL     1     -32.205   7.815   3.769  1.00 20.00     0.005 C 
BRANCH   6   7
HETATM    7  C7  UNL     1     -32.534   8.870   2.709  1.00 20.00     0.015 C 
BRANCH   7   8
HETATM    8  C8  UNL     1     -32.136   8.394   1.319  1.00 20.00     0.114 C 
HETATM    9 CL9  UNL     1     -32.908   9.404   0.073  1.00 20.00    -0.130 Cl
ENDBRANCH   7   8
ENDBRANCH   6   7
ENDBRANCH   1   6
TORSDOF 5
ENDMDL
MODEL 9
REMARK VINA RESULT:      -4.2      1.630      2.541
REMARK  5 active torsions:
REMARK  status: ('A' for Active; 'I' for Inactive)
REMARK    1  A    between atoms: C2_2  and  C4_4 
REMARK    2  A    between atoms: C2_2  and  C5_5 
REMARK    3  A    between atoms: C5_5  and  C6_6 
REMARK    4  A    between atoms: C6_6  and  C7_7 
REMARK    5  A    between atoms: C7_7  and  C8_8 
ROOT
HETATM    1  C5  UNL     1     -33.028   5.922   2.982  1.00 20.00     0.033 C 
ENDROOT
BRANCH   1   2
HETATM    2  C2  UNL     1     -32.329   7.259   2.864  1.00 20.00    -0.090 C 
HETATM    3  C1  UNL     1     -32.201   7.863   1.672  1.00 20.00     0.014 C 
BRANCH   2   4
HETATM    4  C4  UNL     1     -31.778   7.897   4.119  1.00 20.00     0.029 C 
HETATM    5  C3  UNL     1     -32.517   9.169   4.513  1.00 20.00     0.010 C 
ENDBRANCH   2   4
ENDBRANCH   1   2
BRANCH   1   6
HETATM    6  C6  UNL     1     -34.258   5.971   3.895  1.00 20.00     0.005 C 
BRANCH   6   7
HETATM    7  C7  UNL     1     -34.340   4.726   4.782  1.00 20.00     0.015 C 
BRANCH   7   8
HETATM    8  C8  UNL     1     -34.534   5.105   6.243  1.00 20.00     0.114 C 
HETATM    9 CL9  UNL     1     -34.283   6.852   6.469  1.00 20.00    -0.130 Cl
ENDBRANCH   7   8
ENDBRANCH   6   7
ENDBRANCH   1   6
TORSDOF 5
ENDMDL
