MODEL 1
REMARK VINA RESULT:      -4.7      0.000      0.000
REMARK  5 active torsions:
REMARK  status: ('A' for Active; 'I' for Inactive)
REMARK    1  A    between atoms: C5_5  and  C6_6 
REMARK    2  A    between atoms: C6_6  and  C9_9 
REMARK    3  A    between atoms: C7_7  and  O11_11 
REMARK    4  A    between atoms: C8_8  and  C9_9 
REMARK    5  A    between atoms: C8_8  and  O11_11 
ROOT
HETATM    1  C1  UNL     1     -32.679   6.156   2.904  1.00 20.00     0.091 C 
HETATM    2  C8  UNL     1     -32.156   7.474   3.293  1.00 20.00     0.231 C 
HETATM    3  N10 UNL     1     -33.089   5.115   2.597  1.00 20.00    -0.195 NA
ENDROOT
BRANCH   2   4
HETATM    4  C9  UNL     1     -32.539   7.879   4.735  1.00 20.00     0.024 C 
HETATM    5  C4  UNL     1     -32.221   9.353   5.034  1.00 20.00     0.014 C 
BRANCH   4   6
HETATM    6  C6  UNL     1     -34.010   7.586   5.098  1.00 20.00     0.007 C 
BRANCH   6   7
HETATM    7  C5  UNL     1     -34.175   6.748   6.368  1.00 20.00    -0.004 C 
HETATM    8  C2  UNL     1     -34.664   5.344   6.047  1.00 20.00     0.005 C 
ENDBRANCH   6   7
ENDBRANCH   4   6
ENDBRANCH   2   4
BRANCH   2   9
HETATM    9  O11 UNL     1     -32.651   8.470   2.396  1.00 20.00    -0.372 OA
BRANCH   9  10
HETATM   10  C7  UNL     1     -32.107   8.306   1.095  1.00 20.00     0.165 C 
HETATM   11  C3  UNL     1     -32.735   9.324   0.167  1.00 20.00     0.033 C 
ENDBRANCH   9  10
ENDBRANCH   2   9
TORSDOF 5
ENDMDL
MODEL 2
REMARK VINA RESULT:      -3.8      1.356      4.393
REMARK  5 active torsions:
REMARK  status: ('A' for Active; 'I' for Inactive)
REMARK    1  A    between atoms: C5_5  and  C6_6 
REMARK    2  A    between atoms: C6_6  and  C9_9 
REMARK    3  A    between atoms: C7_7  and  O11_11 
REMARK    4  A    between atoms: C8_8  and  C9_9 
REMARK    5  A    between atoms: C8_8  and  O11_11 
ROOT
HETATM    1  C1  UNL     1     -33.188   6.051   3.393  1.00 20.00     0.091 C 
HETATM    2  C8  UNL     1     -33.602   7.161   4.265  1.00 20.00     0.231 C 
HETATM    3  N10 UNL     1     -32.864   5.176   2.705  1.00 20.00    -0.195 NA
ENDROOT
BRANCH   2   4
HETATM    4  C9  UNL     1     -33.020   8.525   3.832  1.00 20.00     0.024 C 
HETATM    5  C4  UNL     1     -32.051   9.108   4.873  1.00 20.00     0.014 C 
BRANCH   4   6
HETATM    6  C6  UNL     1     -32.337   8.503   2.448  1.00 20.00     0.007 C 
BRANCH   6   7
HETATM    7  C5  UNL     1     -32.866   9.565   1.482  1.00 20.00    -0.004 C 
HETATM    8  C2  UNL     1     -32.747   9.107   0.036  1.00 20.00     0.005 C 
ENDBRANCH   6   7
ENDBRANCH   4   6
ENDBRANCH   2   4
BRANCH   2   9
HETATM    9  O11 UNL     1     -33.187   6.896   5.607  1.00 20.00    -0.372 OA
BRANCH   9  10
HETATM   10  C7  UNL     1     -34.303   6.704   6.462  1.00 20.00     0.165 C 
HETATM   11  C3  UNL     1     -34.711   5.247   6.419  1.00 20.00     0.033 C 
ENDBRANCH   9  10
ENDBRANCH   2   9
TORSDOF 5
ENDMDL
MODEL 3
REMARK VINA RESULT:      -3.7     10.170     11.345
REMARK  5 active torsions:
REMARK  status: ('A' for Active; 'I' for Inactive)
REMARK    1  A    between atoms: C5_5  and  C6_6 
REMARK    2  A    between atoms: C6_6  and  C9_9 
REMARK    3  A    between atoms: C7_7  and  O11_11 
REMARK    4  A    between atoms: C8_8  and  C9_9 
REMARK    5  A    between atoms: C8_8  and  O11_11 
ROOT
HETATM    1  C1  UNL     1     -42.660  13.052   8.510  1.00 20.00     0.091 C 
HETATM    2  C8  UNL     1     -41.703  13.825   7.705  1.00 20.00     0.231 C 
HETATM    3  N10 UNL     1     -43.417  12.444   9.145  1.00 20.00    -0.195 NA
ENDROOT
BRANCH   2   4
HETATM    4  C9  UNL     1     -41.382  13.168   6.343  1.00 20.00     0.024 C 
HETATM    5  C4  UNL     1     -41.894  13.999   5.156  1.00 20.00     0.014 C 
BRANCH   4   6
HETATM    6  C6  UNL     1     -39.887  12.846   6.141  1.00 20.00     0.007 C 
BRANCH   6   7
HETATM    7  C5  UNL     1     -39.633  11.500   5.457  1.00 20.00    -0.004 C 
HETATM    8  C2  UNL     1     -39.099  11.688   4.045  1.00 20.00     0.005 C 
ENDBRANCH   6   7
ENDBRANCH   4   6
ENDBRANCH   2   4
BRANCH   2   9
HETATM    9  O11 UNL     1     -40.483  13.982   8.432  1.00 20.00    -0.372 OA
BRANCH   9  10
HETATM   10  C7  UNL     1     -40.422  15.250   9.066  1.00 20.00     0.165 C 
HETATM   11  C3  UNL     1     -40.420  16.332   8.007  1.00 20.00     0.033 C 
ENDBRANCH   9  10
ENDBRANCH   2   9
TORSDOF 5
ENDMDL
MODEL 4
REMARK VINA RESULT:      -3.7     11.371     12.627
REMARK  5 active torsions:
REMARK  status: ('A' for Active; 'I' for Inactive)
REMARK    1  A    between atoms: C5_5  and  C6_6 
REMARK    2  A    between atoms: C6_6  and  C9_9 
REMARK    3  A    between atoms: C7_7  and  O11_11 
REMARK    4  A    between atoms: C8_8  and  C9_9 
REMARK    5  A    between atoms: C8_8  and  O11_11 
ROOT
HETATM    1  C1  UNL     1     -35.326  15.258  -6.463  1.00 20.00     0.091 C 
HETATM    2  C8  UNL     1     -34.555  16.277  -5.734  1.00 20.00     0.231 C 
HETATM    3  N10 UNL     1     -35.932  14.454  -7.039  1.00 20.00    -0.195 NA
ENDROOT
BRANCH   2   4
HETATM    4  C9  UNL     1     -34.149  15.832  -4.312  1.00 20.00     0.024 C 
HETATM    5  C4  UNL     1     -33.465  14.456  -4.301  1.00 20.00     0.014 C 
BRANCH   4   6
HETATM    6  C6  UNL     1     -33.265  16.853  -3.565  1.00 20.00     0.007 C 
BRANCH   6   7
HETATM    7  C5  UNL     1     -33.542  16.925  -2.062  1.00 20.00    -0.004 C 
HETATM    8  C2  UNL     1     -32.655  17.957  -1.383  1.00 20.00     0.005 C 
ENDBRANCH   6   7
ENDBRANCH   4   6
ENDBRANCH   2   4
BRANCH   2   9
HETATM    9  O11 UNL     1     -35.324  17.477  -5.632  1.00 20.00    -0.372 OA
BRANCH   9  10
HETATM   10  C7  UNL     1     -36.559  17.242  -4.974  1.00 20.00     0.165 C 
HETATM   11  C3  UNL     1     -36.841  18.393  -4.031  1.00 20.00     0.033 C 
ENDBRANCH   9  10
ENDBRANCH   2   9
TORSDOF 5
ENDMDL
MODEL 5
REMARK VINA RESULT:      -3.5     11.146     12.112
REMARK  5 active torsions:
REMARK  status: ('A' for Active; 'I' for Inactive)
REMARK    1  A    between atoms: C5_5  and  C6_6 
REMARK    2  A    between atoms: C6_6  and  C9_9 
REMARK    3  A    between atoms: C7_7  and  O11_11 
REMARK    4  A    between atoms: C8_8  and  C9_9 
REMARK    5  A    between atoms: C8_8  and  O11_11 
ROOT
HETATM    1  C1  UNL     1     -34.350  14.622  -4.434  1.00 20.00     0.091 C 
HETATM    2  C8  UNL     1     -34.052  15.948  -4.996  1.00 20.00     0.231 C 
HETATM    3  N10 UNL     1     -34.581  13.575  -3.992  1.00 20.00    -0.195 NA
ENDROOT
BRANCH   2   4
HETATM    4  C9  UNL     1     -33.800  17.024  -3.915  1.00 20.00     0.024 C 
HETATM    5  C4  UNL     1     -35.016  17.939  -3.703  1.00 20.00     0.014 C 
BRANCH   4   6
HETATM    6  C6  UNL     1     -33.342  16.451  -2.557  1.00 20.00     0.007 C 
BRANCH   6   7
HETATM    7  C5  UNL     1     -33.607  17.386  -1.374  1.00 20.00    -0.004 C 
HETATM    8  C2  UNL     1     -32.364  18.184  -1.010  1.00 20.00     0.005 C 
ENDBRANCH   6   7
ENDBRANCH   4   6
ENDBRANCH   2   4
BRANCH   2   9
HETATM    9  O11 UNL     1     -35.141  16.376  -5.816  1.00 20.00    -0.372 OA
BRANCH   9  10
HETATM   10  C7  UNL     1     -35.240  15.587  -6.992  1.00 20.00     0.165 C 
HETATM   11  C3  UNL     1     -34.092  15.934  -7.915  1.00 20.00     0.033 C 
ENDBRANCH   9  10
ENDBRANCH   2   9
TORSDOF 5
ENDMDL
MODEL 6
REMARK VINA RESULT:      -3.5     10.111     11.139
REMARK  5 active torsions:
REMARK  status: ('A' for Active; 'I' for Inactive)
REMARK    1  A    between atoms: C5_5  and  C6_6 
REMARK    2  A    between atoms: C6_6  and  C9_9 
REMARK    3  A    between atoms: C7_7  and  O11_11 
REMARK    4  A    between atoms: C8_8  and  C9_9 
REMARK    5  A    between atoms: C8_8  and  O11_11 
ROOT
HETATM    1  C1  UNL     1     -40.343  14.127   7.926  1.00 20.00     0.091 C 
HETATM    2  C8  UNL     1     -40.520  13.482   6.616  1.00 20.00     0.231 C 
HETATM    3  N10 UNL     1     -40.202  14.638   8.958  1.00 20.00    -0.195 NA
ENDROOT
BRANCH   2   4
HETATM    4  C9  UNL     1     -42.000  13.378   6.184  1.00 20.00     0.024 C 
HETATM    5  C4  UNL     1     -42.779  12.339   7.007  1.00 20.00     0.014 C 
BRANCH   4   6
HETATM    6  C6  UNL     1     -42.755  14.724   6.206  1.00 20.00     0.007 C 
BRANCH   6   7
HETATM    7  C5  UNL     1     -43.350  15.119   4.853  1.00 20.00    -0.004 C 
HETATM    8  C2  UNL     1     -42.420  14.744   3.708  1.00 20.00     0.005 C 
ENDBRANCH   6   7
ENDBRANCH   4   6
ENDBRANCH   2   4
BRANCH   2   9
HETATM    9  O11 UNL     1     -39.963  12.167   6.651  1.00 20.00    -0.372 OA
BRANCH   9  10
HETATM   10  C7  UNL     1     -38.817  12.072   5.820  1.00 20.00     0.165 C 
HETATM   11  C3  UNL     1     -39.255  11.723   4.414  1.00 20.00     0.033 C 
ENDBRANCH   9  10
ENDBRANCH   2   9
TORSDOF 5
ENDMDL
MODEL 7
REMARK VINA RESULT:      -3.5     10.272     11.602
REMARK  5 active torsions:
REMARK  status: ('A' for Active; 'I' for Inactive)
REMARK    1  A    between atoms: C5_5  and  C6_6 
REMARK    2  A    between atoms: C6_6  and  C9_9 
REMARK    3  A    between atoms: C7_7  and  O11_11 
REMARK    4  A    between atoms: C8_8  and  C9_9 
REMARK    5  A    between atoms: C8_8  and  O11_11 
ROOT
HETATM    1  C1  UNL     1     -40.464  15.763   7.515  1.00 20.00     0.091 C 
HETATM    2  C8  UNL     1     -40.247  14.308   7.522  1.00 20.00     0.231 C 
HETATM    3  N10 UNL     1     -40.633  16.910   7.508  1.00 20.00    -0.195 NA
ENDROOT
BRANCH   2   4
HETATM    4  C9  UNL     1     -41.301  13.532   6.700  1.00 20.00     0.024 C 
HETATM    5  C4  UNL     1     -41.906  14.381   5.571  1.00 20.00     0.014 C 
BRANCH   4   6
HETATM    6  C6  UNL     1     -40.784  12.198   6.121  1.00 20.00     0.007 C 
BRANCH   6   7
HETATM    7  C5  UNL     1     -39.313  12.237   5.701  1.00 20.00    -0.004 C 
HETATM    8  C2  UNL     1     -39.126  11.709   4.287  1.00 20.00     0.005 C 
ENDBRANCH   6   7
ENDBRANCH   4   6
ENDBRANCH   2   4
BRANCH   2   9
HETATM    9  O11 UNL     1     -40.275  13.826   8.867  1.00 20.00    -0.372 OA
BRANCH   9  10
HETATM   10  C7  UNL     1     -41.530  14.079   9.477  1.00 20.00     0.165 C 
HETATM   11  C3  UNL     1     -41.333  14.211  10.973  1.00 20.00     0.033 C 
ENDBRANCH   9  10
ENDBRANCH   2   9
TORSDOF 5
ENDMDL
MODEL 8
REMARK VINA RESULT:      -3.5     11.302     12.238
REMARK  5 active torsions:
REMARK  status: ('A' for Active; 'I' for Inactive)
REMARK    1  A    between atoms: C5_5  and  C6_6 
REMARK    2  A    between atoms: C6_6  and  C9_9 
REMARK    3  A    between atoms: C7_7  and  O11_11 
REMARK    4  A    between atoms: C8_8  and  C9_9 
REMARK    5  A    between atoms: C8_8  and  O11_11 
ROOT
HETATM    1  C1  UNL     1     -34.630  18.911   1.015  1.00 20.00     0.091 C 
HETATM    2  C8  UNL     1     -33.618  18.745  -0.039  1.00 20.00     0.231 C 
HETATM    3  N10 UNL     1     -35.429  19.044   1.845  1.00 20.00    -0.195 NA
ENDROOT
BRANCH   2   4
HETATM    4  C9  UNL     1     -34.118  17.906  -1.237  1.00 20.00     0.024 C 
HETATM    5  C4  UNL     1     -34.991  18.724  -2.202  1.00 20.00     0.014 C 
BRANCH   4   6
HETATM    6  C6  UNL     1     -32.991  17.208  -2.027  1.00 20.00     0.007 C 
BRANCH   6   7
HETATM    7  C5  UNL     1     -33.340  16.939  -3.492  1.00 20.00    -0.004 C 
HETATM    8  C2  UNL     1     -33.529  15.452  -3.753  1.00 20.00     0.005 C 
ENDBRANCH   6   7
ENDBRANCH   4   6
ENDBRANCH   2   4
BRANCH   2   9
HETATM    9  O11 UNL     1     -32.459  18.112   0.506  1.00 20.00    -0.372 OA
BRANCH   9  10
HETATM   10  C7  UNL     1     -31.455  19.063   0.824  1.00 20.00     0.165 C 
HETATM   11  C3  UNL     1     -30.584  18.509   1.931  1.00 20.00     0.033 C 
ENDBRANCH   9  10
ENDBRANCH   2   9
TORSDOF 5
ENDMDL
MODEL 9
REMARK VINA RESULT:      -3.5     10.084     11.187
REMARK  5 active torsions:
REMARK  status: ('A' for Active; 'I' for Inactive)
REMARK    1  A    between atoms: C5_5  and  C6_6 
REMARK    2  A    between atoms: C6_6  and  C9_9 
REMARK    3  A    between atoms: C7_7  and  O11_11 
REMARK    4  A    between atoms: C8_8  and  C9_9 
REMARK    5  A    between atoms: C8_8  and  O11_11 
ROOT
HETATM    1  C1  UNL     1     -42.019  14.294   4.685  1.00 20.00     0.091 C 
HETATM    2  C8  UNL     1     -41.153  14.266   5.874  1.00 20.00     0.231 C 
HETATM    3  N10 UNL     1     -42.699  14.316   3.746  1.00 20.00    -0.195 NA
ENDROOT
BRANCH   2   4
HETATM    4  C9  UNL     1     -41.213  12.925   6.639  1.00 20.00     0.024 C 
HETATM    5  C4  UNL     1     -42.655  12.486   6.940  1.00 20.00     0.014 C 
BRANCH   4   6
HETATM    6  C6  UNL     1     -40.458  11.772   5.943  1.00 20.00     0.007 C 
BRANCH   6   7
HETATM    7  C5  UNL     1     -39.087  12.176   5.396  1.00 20.00    -0.004 C 
HETATM    8  C2  UNL     1     -38.893  11.683   3.970  1.00 20.00     0.005 C 
ENDBRANCH   6   7
ENDBRANCH   4   6
ENDBRANCH   2   4
BRANCH   2   9
HETATM    9  O11 UNL     1     -41.530  15.316   6.767  1.00 20.00    -0.372 OA
BRANCH   9  10
HETATM   10  C7  UNL     1     -40.450  15.689   7.608  1.00 20.00     0.165 C 
HETATM   11  C3  UNL     1     -40.946  16.684   8.635  1.00 20.00     0.033 C 
ENDBRANCH   9  10
ENDBRANCH   2   9
TORSDOF 5
ENDMDL
