MODEL 1
REMARK VINA RESULT:      -3.9      0.000      0.000
REMARK  1 active torsions:
REMARK  status: ('A' for Active; 'I' for Inactive)
REMARK    1  A    between atoms: C7_7  and  C9_9 
ROOT
HETATM    1  C1  UNL     1     -41.867   8.284  -0.781  1.00 20.00     0.005 C 
HETATM    2  C2  UNL     1     -43.123   8.040   0.068  1.00 20.00     0.006 C 
HETATM    3  C3  UNL     1     -41.240   7.575   1.403  1.00 20.00     0.010 C 
HETATM    4  C4  UNL     1     -41.015   5.962  -0.341  1.00 20.00     0.015 C 
HETATM    5  C5  UNL     1     -40.791   7.460  -0.051  1.00 20.00    -0.013 C 
HETATM    6  C6  UNL     1     -42.638   7.012   1.109  1.00 20.00    -0.005 C 
HETATM    7  C7  UNL     1     -42.312   5.635   0.449  1.00 20.00    -0.028 C 
HETATM    8  C8  UNL     1     -42.043   4.565   1.526  1.00 20.00     0.016 C 
ENDROOT
BRANCH   7   9
HETATM    9  C9  UNL     1     -43.417   5.102  -0.472  1.00 20.00     0.124 C 
HETATM   10 CL10 UNL     1     -42.698   4.382  -1.920  1.00 20.00    -0.130 Cl
ENDBRANCH   7   9
TORSDOF 1
ENDMDL
MODEL 2
REMARK VINA RESULT:      -3.3      1.737      3.240
REMARK  1 active torsions:
REMARK  status: ('A' for Active; 'I' for Inactive)
REMARK    1  A    between atoms: C7_7  and  C9_9 
ROOT
HETATM    1  C1  UNL     1     -43.417   5.203  -0.236  1.00 20.00     0.005 C 
HETATM    2  C2  UNL     1     -42.119   5.393  -1.032  1.00 20.00     0.006 C 
HETATM    3  C3  UNL     1     -41.542   5.011   1.218  1.00 20.00     0.010 C 
HETATM    4  C4  UNL     1     -42.800   7.034   1.370  1.00 20.00     0.015 C 
HETATM    5  C5  UNL     1     -42.985   5.511   1.209  1.00 20.00    -0.013 C 
HETATM    6  C6  UNL     1     -41.133   5.902   0.036  1.00 20.00    -0.005 C 
HETATM    7  C7  UNL     1     -41.518   7.327   0.543  1.00 20.00    -0.028 C 
HETATM    8  C8  UNL     1     -40.406   7.906   1.441  1.00 20.00     0.016 C 
ENDROOT
BRANCH   7   9
HETATM    9  C9  UNL     1     -41.787   8.341  -0.577  1.00 20.00     0.124 C 
HETATM   10 CL10 UNL     1     -43.416   9.009  -0.405  1.00 20.00    -0.130 Cl
ENDBRANCH   7   9
TORSDOF 1
ENDMDL
MODEL 3
REMARK VINA RESULT:      -3.3     23.656     24.629
REMARK  1 active torsions:
REMARK  status: ('A' for Active; 'I' for Inactive)
REMARK    1  A    between atoms: C7_7  and  C9_9 
ROOT
HETATM    1  C1  UNL     1     -22.637  17.792   8.107  1.00 20.00     0.005 C 
HETATM    2  C2  UNL     1     -22.810  19.262   8.511  1.00 20.00     0.006 C 
HETATM    3  C3  UNL     1     -21.338  18.254  10.048  1.00 20.00     0.010 C 
HETATM    4  C4  UNL     1     -23.337  16.996  10.384  1.00 20.00     0.015 C 
HETATM    5  C5  UNL     1     -22.150  17.130   9.409  1.00 20.00    -0.013 C 
HETATM    6  C6  UNL     1     -22.516  19.239  10.023  1.00 20.00    -0.005 C 
HETATM    7  C7  UNL     1     -23.617  18.463  10.812  1.00 20.00    -0.028 C 
HETATM    8  C8  UNL     1     -23.425  18.637  12.331  1.00 20.00     0.016 C 
ENDROOT
BRANCH   7   9
HETATM    9  C9  UNL     1     -25.051  18.888  10.473  1.00 20.00     0.124 C 
HETATM   10 CL10 UNL     1     -25.986  19.096  11.961  1.00 20.00    -0.130 Cl
ENDBRANCH   7   9
TORSDOF 1
ENDMDL
MODEL 4
REMARK VINA RESULT:      -3.2      1.683      2.633
REMARK  1 active torsions:
REMARK  status: ('A' for Active; 'I' for Inactive)
REMARK    1  A    between atoms: C7_7  and  C9_9 
ROOT
HETATM    1  C1  UNL     1     -41.265   7.988   1.162  1.00 20.00     0.005 C 
HETATM    2  C2  UNL     1     -40.405   6.745   0.895  1.00 20.00     0.006 C 
HETATM    3  C3  UNL     1     -41.442   7.360  -1.127  1.00 20.00     0.010 C 
HETATM    4  C4  UNL     1     -43.321   6.863   0.257  1.00 20.00     0.015 C 
HETATM    5  C5  UNL     1     -42.274   7.966  -0.000  1.00 20.00    -0.013 C 
HETATM    6  C6  UNL     1     -41.101   6.100  -0.319  1.00 20.00    -0.005 C 
HETATM    7  C7  UNL     1     -42.514   5.551   0.054  1.00 20.00    -0.028 C 
HETATM    8  C8  UNL     1     -43.100   4.721  -1.105  1.00 20.00     0.016 C 
ENDROOT
BRANCH   7   9
HETATM    9  C9  UNL     1     -42.536   4.673   1.312  1.00 20.00     0.124 C 
HETATM   10 CL10 UNL     1     -43.415   5.499   2.608  1.00 20.00    -0.130 Cl
ENDBRANCH   7   9
TORSDOF 1
ENDMDL
MODEL 5
REMARK VINA RESULT:      -3.2      8.965     10.415
REMARK  1 active torsions:
REMARK  status: ('A' for Active; 'I' for Inactive)
REMARK    1  A    between atoms: C7_7  and  C9_9 
ROOT
HETATM    1  C1  UNL     1     -41.540  14.025   9.160  1.00 20.00     0.005 C 
HETATM    2  C2  UNL     1     -40.408  14.749   8.417  1.00 20.00     0.006 C 
HETATM    3  C3  UNL     1     -42.433  15.260   7.330  1.00 20.00     0.010 C 
HETATM    4  C4  UNL     1     -42.310  12.893   7.054  1.00 20.00     0.015 C 
HETATM    5  C5  UNL     1     -42.660  13.965   8.106  1.00 20.00    -0.013 C 
HETATM    6  C6  UNL     1     -40.976  14.907   6.994  1.00 20.00    -0.005 C 
HETATM    7  C7  UNL     1     -41.124  13.528   6.277  1.00 20.00    -0.028 C 
HETATM    8  C8  UNL     1     -41.482  13.722   4.791  1.00 20.00     0.016 C 
ENDROOT
BRANCH   7   9
HETATM    9  C9  UNL     1     -39.869  12.648   6.342  1.00 20.00     0.124 C 
HETATM   10 CL10 UNL     1     -39.612  11.849   4.784  1.00 20.00    -0.130 Cl
ENDBRANCH   7   9
TORSDOF 1
ENDMDL
MODEL 6
REMARK VINA RESULT:      -3.1     11.942     13.550
REMARK  1 active torsions:
REMARK  status: ('A' for Active; 'I' for Inactive)
REMARK    1  A    between atoms: C7_7  and  C9_9 
ROOT
HETATM    1  C1  UNL     1     -34.500  17.429  -7.187  1.00 20.00     0.005 C 
HETATM    2  C2  UNL     1     -34.128  16.020  -7.667  1.00 20.00     0.006 C 
HETATM    3  C3  UNL     1     -36.450  16.067  -7.284  1.00 20.00     0.010 C 
HETATM    4  C4  UNL     1     -35.584  16.527  -5.109  1.00 20.00     0.015 C 
HETATM    5  C5  UNL     1     -35.843  17.206  -6.469  1.00 20.00    -0.013 C 
HETATM    6  C6  UNL     1     -35.242  15.146  -7.062  1.00 20.00    -0.005 C 
HETATM    7  C7  UNL     1     -35.148  15.089  -5.504  1.00 20.00    -0.028 C 
HETATM    8  C8  UNL     1     -36.126  14.043  -4.936  1.00 20.00     0.016 C 
ENDROOT
BRANCH   7   9
HETATM    9  C9  UNL     1     -33.748  14.756  -4.971  1.00 20.00     0.124 C 
HETATM   10 CL10 UNL     1     -33.362  15.802  -3.597  1.00 20.00    -0.130 Cl
ENDBRANCH   7   9
TORSDOF 1
ENDMDL
MODEL 7
REMARK VINA RESULT:      -3.1      8.921     10.152
REMARK  1 active torsions:
REMARK  status: ('A' for Active; 'I' for Inactive)
REMARK    1  A    between atoms: C7_7  and  C9_9 
ROOT
HETATM    1  C1  UNL     1     -34.190   4.948   6.014  1.00 20.00     0.005 C 
HETATM    2  C2  UNL     1     -34.476   6.389   6.462  1.00 20.00     0.006 C 
HETATM    3  C3  UNL     1     -35.543   6.046   4.391  1.00 20.00     0.010 C 
HETATM    4  C4  UNL     1     -33.248   5.729   3.820  1.00 20.00     0.015 C 
HETATM    5  C5  UNL     1     -34.431   5.005   4.494  1.00 20.00    -0.013 C 
HETATM    6  C6  UNL     1     -34.729   7.119   5.129  1.00 20.00    -0.005 C 
HETATM    7  C7  UNL     1     -33.431   7.205   4.266  1.00 20.00    -0.028 C 
HETATM    8  C8  UNL     1     -33.647   8.124   3.047  1.00 20.00     0.016 C 
ENDROOT
BRANCH   7   9
HETATM    9  C9  UNL     1     -32.203   7.723   5.027  1.00 20.00     0.124 C 
HETATM   10 CL10 UNL     1     -32.141   9.490   4.938  1.00 20.00    -0.130 Cl
ENDBRANCH   7   9
TORSDOF 1
ENDMDL
MODEL 8
REMARK VINA RESULT:      -3.1     19.966     21.211
REMARK  1 active torsions:
REMARK  status: ('A' for Active; 'I' for Inactive)
REMARK    1  A    between atoms: C7_7  and  C9_9 
ROOT
HETATM    1  C1  UNL     1     -27.668  -0.543  10.395  1.00 20.00     0.005 C 
HETATM    2  C2  UNL     1     -27.889  -2.002   9.974  1.00 20.00     0.006 C 
HETATM    3  C3  UNL     1     -27.827  -1.926  12.327  1.00 20.00     0.010 C 
HETATM    4  C4  UNL     1     -25.644  -1.153  11.752  1.00 20.00     0.015 C 
HETATM    5  C5  UNL     1     -27.108  -0.677  11.824  1.00 20.00    -0.013 C 
HETATM    6  C6  UNL     1     -27.319  -2.794  11.166  1.00 20.00    -0.005 C 
HETATM    7  C7  UNL     1     -25.770  -2.628  11.279  1.00 20.00    -0.028 C 
HETATM    8  C8  UNL     1     -25.193  -3.594  12.332  1.00 20.00     0.016 C 
ENDROOT
BRANCH   7   9
HETATM    9  C9  UNL     1     -25.015  -2.867   9.965  1.00 20.00     0.124 C 
HETATM   10 CL10 UNL     1     -23.270  -2.794  10.251  1.00 20.00    -0.130 Cl
ENDBRANCH   7   9
TORSDOF 1
ENDMDL
MODEL 9
REMARK VINA RESULT:      -3.0      8.679      9.773
REMARK  1 active torsions:
REMARK  status: ('A' for Active; 'I' for Inactive)
REMARK    1  A    between atoms: C7_7  and  C9_9 
ROOT
HETATM    1  C1  UNL     1     -32.126   8.352   5.143  1.00 20.00     0.005 C 
HETATM    2  C2  UNL     1     -32.480   7.960   3.701  1.00 20.00     0.006 C 
HETATM    3  C3  UNL     1     -34.460   8.642   4.777  1.00 20.00     0.010 C 
HETATM    4  C4  UNL     1     -33.818   6.751   6.083  1.00 20.00     0.015 C 
HETATM    5  C5  UNL     1     -33.477   8.240   5.873  1.00 20.00    -0.013 C 
HETATM    6  C6  UNL     1     -33.963   7.558   3.809  1.00 20.00    -0.005 C 
HETATM    7  C7  UNL     1     -34.145   6.253   4.648  1.00 20.00    -0.028 C 
HETATM    8  C8  UNL     1     -35.598   5.748   4.561  1.00 20.00     0.016 C 
ENDROOT
BRANCH   7   9
HETATM    9  C9  UNL     1     -33.225   5.100   4.225  1.00 20.00     0.124 C 
HETATM   10 CL10 UNL     1     -33.104   5.044   2.460  1.00 20.00    -0.130 Cl
ENDBRANCH   7   9
TORSDOF 1
ENDMDL
