MODEL 1
REMARK VINA RESULT:      -3.5      0.000      0.000
REMARK  4 active torsions:
REMARK  status: ('A' for Active; 'I' for Inactive)
REMARK    1  A    between atoms: C6_6  and  C8_8 
REMARK    2  A    between atoms: C6_6  and  C9_9 
REMARK    3  A    between atoms: C7_7  and  O11_11 
REMARK    4  A    between atoms: C8_8  and  O11_11 
ROOT
HETATM    1  C1  UNL     1     -35.077  13.981  -4.612  1.00 20.00     0.091 C 
HETATM    2  C8  UNL     1     -34.080  15.022  -4.912  1.00 20.00     0.228 C 
HETATM    3  N10 UNL     1     -35.862  13.159  -4.377  1.00 20.00    -0.195 NA
ENDROOT
BRANCH   2   4
HETATM    4  C6  UNL     1     -34.772  16.281  -5.458  1.00 20.00     0.055 C 
BRANCH   4   5
HETATM    5  C9  UNL     1     -34.870  16.419  -7.006  1.00 20.00    -0.048 C 
HETATM    6  C3  UNL     1     -34.604  17.896  -7.367  1.00 20.00     0.014 C 
HETATM    7  C4  UNL     1     -33.807  15.554  -7.705  1.00 20.00     0.014 C 
HETATM    8  C5  UNL     1     -36.259  16.037  -7.540  1.00 20.00     0.014 C 
ENDBRANCH   4   5
ENDBRANCH   2   4
BRANCH   2   9
HETATM    9  O11 UNL     1     -33.378  15.345  -3.715  1.00 20.00    -0.372 OA
BRANCH   9  10
HETATM   10  C7  UNL     1     -33.414  16.740  -3.452  1.00 20.00     0.165 C 
HETATM   11  C2  UNL     1     -33.465  16.957  -1.955  1.00 20.00     0.033 C 
ENDBRANCH   9  10
ENDBRANCH   2   9
TORSDOF 4
ENDMDL
MODEL 2
REMARK VINA RESULT:      -3.4      1.229      3.679
REMARK  4 active torsions:
REMARK  status: ('A' for Active; 'I' for Inactive)
REMARK    1  A    between atoms: C6_6  and  C8_8 
REMARK    2  A    between atoms: C6_6  and  C9_9 
REMARK    3  A    between atoms: C7_7  and  O11_11 
REMARK    4  A    between atoms: C8_8  and  O11_11 
ROOT
HETATM    1  C1  UNL     1     -35.210  14.146  -4.637  1.00 20.00     0.091 C 
HETATM    2  C8  UNL     1     -34.508  15.394  -4.983  1.00 20.00     0.228 C 
HETATM    3  N10 UNL     1     -35.765  13.164  -4.366  1.00 20.00    -0.195 NA
ENDROOT
BRANCH   2   4
HETATM    4  C6  UNL     1     -33.624  15.850  -3.811  1.00 20.00     0.055 C 
BRANCH   4   5
HETATM    5  C9  UNL     1     -33.895  17.270  -3.232  1.00 20.00    -0.048 C 
HETATM    6  C3  UNL     1     -33.665  17.210  -1.707  1.00 20.00     0.014 C 
HETATM    7  C4  UNL     1     -32.921  18.302  -3.826  1.00 20.00     0.014 C 
HETATM    8  C5  UNL     1     -35.337  17.737  -3.482  1.00 20.00     0.014 C 
ENDBRANCH   4   5
ENDBRANCH   2   4
BRANCH   2   9
HETATM    9  O11 UNL     1     -33.697  15.163  -6.131  1.00 20.00    -0.372 OA
BRANCH   9  10
HETATM   10  C7  UNL     1     -34.323  15.640  -7.313  1.00 20.00     0.165 C 
HETATM   11  C2  UNL     1     -34.563  17.129  -7.176  1.00 20.00     0.033 C 
ENDBRANCH   9  10
ENDBRANCH   2   9
TORSDOF 4
ENDMDL
MODEL 3
REMARK VINA RESULT:      -3.3     12.216     14.311
REMARK  4 active torsions:
REMARK  status: ('A' for Active; 'I' for Inactive)
REMARK    1  A    between atoms: C6_6  and  C8_8 
REMARK    2  A    between atoms: C6_6  and  C9_9 
REMARK    3  A    between atoms: C7_7  and  O11_11 
REMARK    4  A    between atoms: C8_8  and  O11_11 
ROOT
HETATM    1  C1  UNL     1     -41.639  13.933   4.741  1.00 20.00     0.091 C 
HETATM    2  C8  UNL     1     -41.047  13.395   5.977  1.00 20.00     0.228 C 
HETATM    3  N10 UNL     1     -42.104  14.358   3.766  1.00 20.00    -0.195 NA
ENDROOT
BRANCH   2   4
HETATM    4  C6  UNL     1     -42.100  13.351   7.096  1.00 20.00     0.055 C 
BRANCH   4   5
HETATM    5  C9  UNL     1     -41.890  14.313   8.303  1.00 20.00    -0.048 C 
HETATM    6  C3  UNL     1     -40.372  14.427   8.558  1.00 20.00     0.014 C 
HETATM    7  C4  UNL     1     -42.433  15.717   7.988  1.00 20.00     0.014 C 
HETATM    8  C5  UNL     1     -42.555  13.793   9.587  1.00 20.00     0.014 C 
ENDBRANCH   4   5
ENDBRANCH   2   4
BRANCH   2   9
HETATM    9  O11 UNL     1     -40.566  12.079   5.722  1.00 20.00    -0.372 OA
BRANCH   9  10
HETATM   10  C7  UNL     1     -39.166  12.076   5.481  1.00 20.00     0.165 C 
HETATM   11  C2  UNL     1     -38.914  11.636   4.054  1.00 20.00     0.033 C 
ENDBRANCH   9  10
ENDBRANCH   2   9
TORSDOF 4
ENDMDL
MODEL 4
REMARK VINA RESULT:      -3.3      2.254      2.806
REMARK  4 active torsions:
REMARK  status: ('A' for Active; 'I' for Inactive)
REMARK    1  A    between atoms: C6_6  and  C8_8 
REMARK    2  A    between atoms: C6_6  and  C9_9 
REMARK    3  A    between atoms: C7_7  and  O11_11 
REMARK    4  A    between atoms: C8_8  and  O11_11 
ROOT
HETATM    1  C1  UNL     1     -34.179  15.309  -6.800  1.00 20.00     0.091 C 
HETATM    2  C8  UNL     1     -34.835  15.528  -5.500  1.00 20.00     0.228 C 
HETATM    3  N10 UNL     1     -33.662  15.137  -7.824  1.00 20.00    -0.195 NA
ENDROOT
BRANCH   2   4
HETATM    4  C6  UNL     1     -36.339  15.227  -5.604  1.00 20.00     0.055 C 
BRANCH   4   5
HETATM    5  C9  UNL     1     -37.306  16.448  -5.610  1.00 20.00    -0.048 C 
HETATM    6  C3  UNL     1     -36.600  17.612  -4.882  1.00 20.00     0.014 C 
HETATM    7  C4  UNL     1     -37.618  16.897  -7.048  1.00 20.00     0.014 C 
HETATM    8  C5  UNL     1     -38.624  16.153  -4.878  1.00 20.00     0.014 C 
ENDBRANCH   4   5
ENDBRANCH   2   4
BRANCH   2   9
HETATM    9  O11 UNL     1     -34.242  14.666  -4.534  1.00 20.00    -0.372 OA
BRANCH   9  10
HETATM   10  C7  UNL     1     -33.038  15.215  -4.018  1.00 20.00     0.165 C 
HETATM   11  C2  UNL     1     -33.379  16.329  -3.051  1.00 20.00     0.033 C 
ENDBRANCH   9  10
ENDBRANCH   2   9
TORSDOF 4
ENDMDL
MODEL 5
REMARK VINA RESULT:      -3.3     12.485     14.601
REMARK  4 active torsions:
REMARK  status: ('A' for Active; 'I' for Inactive)
REMARK    1  A    between atoms: C6_6  and  C8_8 
REMARK    2  A    between atoms: C6_6  and  C9_9 
REMARK    3  A    between atoms: C7_7  and  O11_11 
REMARK    4  A    between atoms: C8_8  and  O11_11 
ROOT
HETATM    1  C1  UNL     1     -42.437  12.517   6.931  1.00 20.00     0.091 C 
HETATM    2  C8  UNL     1     -41.578  13.605   6.436  1.00 20.00     0.228 C 
HETATM    3  N10 UNL     1     -43.115  11.659   7.320  1.00 20.00    -0.195 NA
ENDROOT
BRANCH   2   4
HETATM    4  C6  UNL     1     -40.581  14.034   7.524  1.00 20.00     0.055 C 
BRANCH   4   5
HETATM    5  C9  UNL     1     -40.927  15.319   8.333  1.00 20.00    -0.048 C 
HETATM    6  C3  UNL     1     -40.101  15.293   9.637  1.00 20.00     0.014 C 
HETATM    7  C4  UNL     1     -40.545  16.585   7.546  1.00 20.00     0.014 C 
HETATM    8  C5  UNL     1     -42.415  15.389   8.709  1.00 20.00     0.014 C 
ENDBRANCH   4   5
ENDBRANCH   2   4
BRANCH   2   9
HETATM    9  O11 UNL     1     -40.866  13.145   5.291  1.00 20.00    -0.372 OA
BRANCH   9  10
HETATM   10  C7  UNL     1     -39.937  12.126   5.632  1.00 20.00     0.165 C 
HETATM   11  C2  UNL     1     -39.177  11.717   4.388  1.00 20.00     0.033 C 
ENDBRANCH   9  10
ENDBRANCH   2   9
TORSDOF 4
ENDMDL
MODEL 6
REMARK VINA RESULT:      -3.2     13.307     15.031
REMARK  4 active torsions:
REMARK  status: ('A' for Active; 'I' for Inactive)
REMARK    1  A    between atoms: C6_6  and  C8_8 
REMARK    2  A    between atoms: C6_6  and  C9_9 
REMARK    3  A    between atoms: C7_7  and  O11_11 
REMARK    4  A    between atoms: C8_8  and  O11_11 
ROOT
HETATM    1  C1  UNL     1     -40.822  16.000   8.339  1.00 20.00     0.091 C 
HETATM    2  C8  UNL     1     -40.934  14.532   8.293  1.00 20.00     0.228 C 
HETATM    3  N10 UNL     1     -40.735  17.156   8.376  1.00 20.00    -0.195 NA
ENDROOT
BRANCH   2   4
HETATM    4  C6  UNL     1     -40.225  13.982   7.045  1.00 20.00     0.055 C 
BRANCH   4   5
HETATM    5  C9  UNL     1     -41.062  13.066   6.103  1.00 20.00    -0.048 C 
HETATM    6  C3  UNL     1     -40.154  11.903   5.647  1.00 20.00     0.014 C 
HETATM    7  C4  UNL     1     -42.271  12.471   6.844  1.00 20.00     0.014 C 
HETATM    8  C5  UNL     1     -41.554  13.809   4.852  1.00 20.00     0.014 C 
ENDBRANCH   4   5
ENDBRANCH   2   4
BRANCH   2   9
HETATM    9  O11 UNL     1     -40.331  13.988   9.463  1.00 20.00    -0.372 OA
BRANCH   9  10
HETATM   10  C7  UNL     1     -41.156  14.169  10.605  1.00 20.00     0.165 C 
HETATM   11  C2  UNL     1     -40.300  14.640  11.761  1.00 20.00     0.033 C 
ENDBRANCH   9  10
ENDBRANCH   2   9
TORSDOF 4
ENDMDL
MODEL 7
REMARK VINA RESULT:      -3.2     11.134     13.167
REMARK  4 active torsions:
REMARK  status: ('A' for Active; 'I' for Inactive)
REMARK    1  A    between atoms: C6_6  and  C8_8 
REMARK    2  A    between atoms: C6_6  and  C9_9 
REMARK    3  A    between atoms: C7_7  and  O11_11 
REMARK    4  A    between atoms: C8_8  and  O11_11 
ROOT
HETATM    1  C1  UNL     1     -32.137   8.777   4.772  1.00 20.00     0.091 C 
HETATM    2  C8  UNL     1     -32.554   7.559   4.056  1.00 20.00     0.228 C 
HETATM    3  N10 UNL     1     -31.807   9.735   5.337  1.00 20.00    -0.195 NA
ENDROOT
BRANCH   2   4
HETATM    4  C6  UNL     1     -34.071   7.353   4.196  1.00 20.00     0.055 C 
BRANCH   4   5
HETATM    5  C9  UNL     1     -34.550   5.965   4.716  1.00 20.00    -0.048 C 
HETATM    6  C3  UNL     1     -36.022   5.782   4.287  1.00 20.00     0.014 C 
HETATM    7  C4  UNL     1     -33.722   4.828   4.094  1.00 20.00     0.014 C 
HETATM    8  C5  UNL     1     -34.481   5.858   6.247  1.00 20.00     0.014 C 
ENDBRANCH   4   5
ENDBRANCH   2   4
BRANCH   2   9
HETATM    9  O11 UNL     1     -32.216   7.697   2.680  1.00 20.00    -0.372 OA
BRANCH   9  10
HETATM   10  C7  UNL     1     -32.775   8.878   2.123  1.00 20.00     0.165 C 
HETATM   11  C2  UNL     1     -32.475   8.912   0.640  1.00 20.00     0.033 C 
ENDBRANCH   9  10
ENDBRANCH   2   9
TORSDOF 4
ENDMDL
MODEL 8
REMARK VINA RESULT:      -3.2      3.683      5.093
REMARK  4 active torsions:
REMARK  status: ('A' for Active; 'I' for Inactive)
REMARK    1  A    between atoms: C6_6  and  C8_8 
REMARK    2  A    between atoms: C6_6  and  C9_9 
REMARK    3  A    between atoms: C7_7  and  O11_11 
REMARK    4  A    between atoms: C8_8  and  O11_11 
ROOT
HETATM    1  C1  UNL     1     -31.781  18.416  -0.719  1.00 20.00     0.091 C 
HETATM    2  C8  UNL     1     -33.197  18.309  -1.108  1.00 20.00     0.228 C 
HETATM    3  N10 UNL     1     -30.665  18.503  -0.412  1.00 20.00    -0.195 NA
ENDROOT
BRANCH   2   4
HETATM    4  C6  UNL     1     -33.355  17.326  -2.279  1.00 20.00     0.055 C 
BRANCH   4   5
HETATM    5  C9  UNL     1     -34.145  17.829  -3.523  1.00 20.00    -0.048 C 
HETATM    6  C3  UNL     1     -33.286  18.903  -4.226  1.00 20.00     0.014 C 
HETATM    7  C4  UNL     1     -34.394  16.684  -4.519  1.00 20.00     0.014 C 
HETATM    8  C5  UNL     1     -35.490  18.465  -3.142  1.00 20.00     0.014 C 
ENDBRANCH   4   5
ENDBRANCH   2   4
BRANCH   2   9
HETATM    9  O11 UNL     1     -33.947  17.843   0.010  1.00 20.00    -0.372 OA
BRANCH   9  10
HETATM   10  C7  UNL     1     -34.557  18.919   0.710  1.00 20.00     0.165 C 
HETATM   11  C2  UNL     1     -33.710  19.263   1.917  1.00 20.00     0.033 C 
ENDBRANCH   9  10
ENDBRANCH   2   9
TORSDOF 4
ENDMDL
MODEL 9
REMARK VINA RESULT:      -3.1      2.293      4.030
REMARK  4 active torsions:
REMARK  status: ('A' for Active; 'I' for Inactive)
REMARK    1  A    between atoms: C6_6  and  C8_8 
REMARK    2  A    between atoms: C6_6  and  C9_9 
REMARK    3  A    between atoms: C7_7  and  O11_11 
REMARK    4  A    between atoms: C8_8  and  O11_11 
ROOT
HETATM    1  C1  UNL     1     -34.133  15.369  -6.576  1.00 20.00     0.091 C 
HETATM    2  C8  UNL     1     -34.731  15.763  -5.290  1.00 20.00     0.228 C 
HETATM    3  N10 UNL     1     -33.661  15.056  -7.589  1.00 20.00    -0.195 NA
ENDROOT
BRANCH   2   4
HETATM    4  C6  UNL     1     -34.626  17.285  -5.098  1.00 20.00     0.055 C 
BRANCH   4   5
HETATM    5  C9  UNL     1     -34.093  17.790  -3.724  1.00 20.00    -0.048 C 
HETATM    6  C3  UNL     1     -33.463  16.586  -2.991  1.00 20.00     0.014 C 
HETATM    7  C4  UNL     1     -33.006  18.861  -3.915  1.00 20.00     0.014 C 
HETATM    8  C5  UNL     1     -35.211  18.359  -2.838  1.00 20.00     0.014 C 
ENDBRANCH   4   5
ENDBRANCH   2   4
BRANCH   2   9
HETATM    9  O11 UNL     1     -36.100  15.374  -5.280  1.00 20.00    -0.372 OA
BRANCH   9  10
HETATM   10  C7  UNL     1     -36.935  16.398  -5.802  1.00 20.00     0.165 C 
HETATM   11  C2  UNL     1     -38.261  16.372  -5.073  1.00 20.00     0.033 C 
ENDBRANCH   9  10
ENDBRANCH   2   9
TORSDOF 4
ENDMDL
