MODEL 1
REMARK VINA RESULT:      -4.9      0.000      0.000
REMARK  5 active torsions:
REMARK  status: ('A' for Active; 'I' for Inactive)
REMARK    1  A    between atoms: C2_2  and  C8_8 
REMARK    2  A    between atoms: C2_2  and  C9_9 
REMARK    3  A    between atoms: C6_6  and  C10_10 
REMARK    4  A    between atoms: C9_9  and  C10_10 
REMARK    5  A    between atoms: C10_10  and  O11_11 
ROOT
HETATM    1  C10 UNL     1     -32.567   8.026   4.748  1.00 20.00     0.126 C 
ENDROOT
BRANCH   1   2
HETATM    2  C6  UNL     1     -33.824   7.547   5.445  1.00 20.00     0.015 C 
HETATM    3  C4  UNL     1     -33.629   6.582   6.643  1.00 20.00     0.007 C 
HETATM    4  C3  UNL     1     -34.905   5.855   6.170  1.00 20.00     0.001 C 
HETATM    5  C5  UNL     1     -34.603   6.396   4.756  1.00 20.00     0.007 C 
ENDBRANCH   1   2
BRANCH   1   6
HETATM    6  C9  UNL     1     -32.903   8.491   3.326  1.00 20.00     0.065 C 
BRANCH   6   7
HETATM    7  C2  UNL     1     -32.366   7.566   2.249  1.00 20.00    -0.087 C 
HETATM    8  C1  UNL     1     -32.297   6.243   2.476  1.00 20.00     0.014 C 
BRANCH   7   9
HETATM    9  C8  UNL     1     -31.973   8.234   0.947  1.00 20.00     0.029 C 
HETATM   10  C7  UNL     1     -32.776   9.460   0.525  1.00 20.00     0.010 C 
ENDBRANCH   7   9
ENDBRANCH   6   7
ENDBRANCH   1   6
BRANCH   1  11
HETATM   11  O11 UNL     1     -32.036   9.125   5.484  1.00 20.00    -0.395 OA
HETATM   12  H29 UNL     1     -31.164   8.849   5.803  1.00 20.00     0.210 HD
ENDBRANCH   1  11
TORSDOF 5
ENDMDL
MODEL 2
REMARK VINA RESULT:      -4.7      1.765      2.236
REMARK  5 active torsions:
REMARK  status: ('A' for Active; 'I' for Inactive)
REMARK    1  A    between atoms: C2_2  and  C8_8 
REMARK    2  A    between atoms: C2_2  and  C9_9 
REMARK    3  A    between atoms: C6_6  and  C10_10 
REMARK    4  A    between atoms: C9_9  and  C10_10 
REMARK    5  A    between atoms: C10_10  and  O11_11 
ROOT
HETATM    1  C10 UNL     1     -33.548   6.094   3.195  1.00 20.00     0.126 C 
ENDROOT
BRANCH   1   2
HETATM    2  C6  UNL     1     -34.450   6.183   4.408  1.00 20.00     0.015 C 
HETATM    3  C4  UNL     1     -33.857   6.869   5.666  1.00 20.00     0.007 C 
HETATM    4  C3  UNL     1     -34.628   5.829   6.506  1.00 20.00     0.001 C 
HETATM    5  C5  UNL     1     -34.577   4.902   5.273  1.00 20.00     0.007 C 
ENDBRANCH   1   2
BRANCH   1   6
HETATM    6  C9  UNL     1     -32.321   6.993   3.391  1.00 20.00     0.065 C 
BRANCH   6   7
HETATM    7  C2  UNL     1     -32.417   8.310   2.641  1.00 20.00    -0.087 C 
HETATM    8  C1  UNL     1     -32.710   9.441   3.308  1.00 20.00     0.014 C 
BRANCH   7   9
HETATM    9  C8  UNL     1     -32.126   8.242   1.155  1.00 20.00     0.029 C 
HETATM   10  C7  UNL     1     -32.693   9.357   0.284  1.00 20.00     0.010 C 
ENDBRANCH   7   9
ENDBRANCH   6   7
ENDBRANCH   1   6
BRANCH   1  11
HETATM   11  O11 UNL     1     -33.116   4.743   3.054  1.00 20.00    -0.395 OA
HETATM   12  H29 UNL     1     -33.308   4.302   3.896  1.00 20.00     0.210 HD
ENDBRANCH   1  11
TORSDOF 5
ENDMDL
MODEL 3
REMARK VINA RESULT:      -4.6      0.471      1.756
REMARK  5 active torsions:
REMARK  status: ('A' for Active; 'I' for Inactive)
REMARK    1  A    between atoms: C2_2  and  C8_8 
REMARK    2  A    between atoms: C2_2  and  C9_9 
REMARK    3  A    between atoms: C6_6  and  C10_10 
REMARK    4  A    between atoms: C9_9  and  C10_10 
REMARK    5  A    between atoms: C10_10  and  O11_11 
ROOT
HETATM    1  C10 UNL     1     -32.517   8.169   4.834  1.00 20.00     0.126 C 
ENDROOT
BRANCH   1   2
HETATM    2  C6  UNL     1     -33.718   7.675   5.613  1.00 20.00     0.015 C 
HETATM    3  C4  UNL     1     -33.467   6.523   6.620  1.00 20.00     0.007 C 
HETATM    4  C3  UNL     1     -34.850   5.970   6.219  1.00 20.00     0.001 C 
HETATM    5  C5  UNL     1     -34.673   6.703   4.873  1.00 20.00     0.007 C 
ENDBRANCH   1   2
BRANCH   1   6
HETATM    6  C9  UNL     1     -32.960   8.670   3.454  1.00 20.00     0.065 C 
BRANCH   6   7
HETATM    7  C2  UNL     1     -32.391   7.853   2.308  1.00 20.00    -0.087 C 
HETATM    8  C1  UNL     1     -32.279   8.400   1.086  1.00 20.00     0.014 C 
BRANCH   7   9
HETATM    9  C8  UNL     1     -31.945   6.448   2.663  1.00 20.00     0.029 C 
HETATM   10  C7  UNL     1     -32.942   5.320   2.421  1.00 20.00     0.010 C 
ENDBRANCH   7   9
ENDBRANCH   6   7
ENDBRANCH   1   6
BRANCH   1  11
HETATM   11  O11 UNL     1     -31.927   9.249   5.554  1.00 20.00    -0.395 OA
HETATM   12  H29 UNL     1     -32.329   9.245   6.436  1.00 20.00     0.210 HD
ENDBRANCH   1  11
TORSDOF 5
ENDMDL
MODEL 4
REMARK VINA RESULT:      -4.4      1.102      4.437
REMARK  5 active torsions:
REMARK  status: ('A' for Active; 'I' for Inactive)
REMARK    1  A    between atoms: C2_2  and  C8_8 
REMARK    2  A    between atoms: C2_2  and  C9_9 
REMARK    3  A    between atoms: C6_6  and  C10_10 
REMARK    4  A    between atoms: C9_9  and  C10_10 
REMARK    5  A    between atoms: C10_10  and  O11_11 
ROOT
HETATM    1  C10 UNL     1     -32.737   8.037   3.659  1.00 20.00     0.126 C 
ENDROOT
BRANCH   1   2
HETATM    2  C6  UNL     1     -32.222   8.810   2.463  1.00 20.00     0.015 C 
HETATM    3  C4  UNL     1     -33.213   9.801   1.797  1.00 20.00     0.007 C 
HETATM    4  C3  UNL     1     -32.596   9.392   0.443  1.00 20.00     0.001 C 
HETATM    5  C5  UNL     1     -32.201   8.056   1.107  1.00 20.00     0.007 C 
ENDBRANCH   1   2
BRANCH   1   6
HETATM    6  C9  UNL     1     -32.700   6.533   3.364  1.00 20.00     0.065 C 
BRANCH   6   7
HETATM    7  C2  UNL     1     -33.790   5.754   4.078  1.00 20.00    -0.087 C 
HETATM    8  C1  UNL     1     -33.897   4.427   3.892  1.00 20.00     0.014 C 
BRANCH   7   9
HETATM    9  C8  UNL     1     -34.675   6.564   5.005  1.00 20.00     0.029 C 
HETATM   10  C7  UNL     1     -34.429   6.420   6.503  1.00 20.00     0.010 C 
ENDBRANCH   7   9
ENDBRANCH   6   7
ENDBRANCH   1   6
BRANCH   1  11
HETATM   11  O11 UNL     1     -31.890   8.314   4.771  1.00 20.00    -0.395 OA
HETATM   12  H29 UNL     1     -31.402   9.122   4.553  1.00 20.00     0.210 HD
ENDBRANCH   1  11
TORSDOF 5
ENDMDL
MODEL 5
REMARK VINA RESULT:      -4.4      1.520      4.718
REMARK  5 active torsions:
REMARK  status: ('A' for Active; 'I' for Inactive)
REMARK    1  A    between atoms: C2_2  and  C8_8 
REMARK    2  A    between atoms: C2_2  and  C9_9 
REMARK    3  A    between atoms: C6_6  and  C10_10 
REMARK    4  A    between atoms: C9_9  and  C10_10 
REMARK    5  A    between atoms: C10_10  and  O11_11 
ROOT
HETATM    1  C10 UNL     1     -32.308   7.603   3.378  1.00 20.00     0.126 C 
ENDROOT
BRANCH   1   2
HETATM    2  C6  UNL     1     -31.994   8.576   2.262  1.00 20.00     0.015 C 
HETATM    3  C4  UNL     1     -33.104   9.596   1.896  1.00 20.00     0.007 C 
HETATM    4  C3  UNL     1     -32.666   9.434   0.425  1.00 20.00     0.001 C 
HETATM    5  C5  UNL     1     -32.132   8.039   0.813  1.00 20.00     0.007 C 
ENDBRANCH   1   2
BRANCH   1   6
HETATM    6  C9  UNL     1     -33.578   8.047   4.115  1.00 20.00     0.065 C 
BRANCH   6   7
HETATM    7  C2  UNL     1     -34.002   7.085   5.210  1.00 20.00    -0.087 C 
HETATM    8  C1  UNL     1     -33.520   7.234   6.456  1.00 20.00     0.014 C 
BRANCH   7   9
HETATM    9  C8  UNL     1     -35.001   6.021   4.799  1.00 20.00     0.029 C 
HETATM   10  C7  UNL     1     -34.530   4.572   4.839  1.00 20.00     0.010 C 
ENDBRANCH   7   9
ENDBRANCH   6   7
ENDBRANCH   1   6
BRANCH   1  11
HETATM   11  O11 UNL     1     -32.530   6.317   2.803  1.00 20.00    -0.395 OA
HETATM   12  H29 UNL     1     -33.455   6.090   2.981  1.00 20.00     0.210 HD
ENDBRANCH   1  11
TORSDOF 5
ENDMDL
MODEL 6
REMARK VINA RESULT:      -4.4     11.017     11.852
REMARK  5 active torsions:
REMARK  status: ('A' for Active; 'I' for Inactive)
REMARK    1  A    between atoms: C2_2  and  C8_8 
REMARK    2  A    between atoms: C2_2  and  C9_9 
REMARK    3  A    between atoms: C6_6  and  C10_10 
REMARK    4  A    between atoms: C9_9  and  C10_10 
REMARK    5  A    between atoms: C10_10  and  O11_11 
ROOT
HETATM    1  C10 UNL     1     -33.891  18.415   0.027  1.00 20.00     0.126 C 
ENDROOT
BRANCH   1   2
HETATM    2  C6  UNL     1     -32.606  19.134   0.375  1.00 20.00     0.015 C 
HETATM    3  C4  UNL     1     -31.298  18.547  -0.218  1.00 20.00     0.007 C 
HETATM    4  C3  UNL     1     -30.611  18.930   1.110  1.00 20.00     0.001 C 
HETATM    5  C5  UNL     1     -32.002  18.838   1.773  1.00 20.00     0.007 C 
ENDBRANCH   1   2
BRANCH   1   6
HETATM    6  C9  UNL     1     -33.622  17.357  -1.050  1.00 20.00     0.065 C 
BRANCH   6   7
HETATM    7  C2  UNL     1     -34.120  17.761  -2.426  1.00 20.00    -0.087 C 
HETATM    8  C1  UNL     1     -35.112  18.662  -2.542  1.00 20.00     0.014 C 
BRANCH   7   9
HETATM    9  C8  UNL     1     -33.405  17.119  -3.598  1.00 20.00     0.029 C 
HETATM   10  C7  UNL     1     -33.455  15.598  -3.695  1.00 20.00     0.010 C 
ENDBRANCH   7   9
ENDBRANCH   6   7
ENDBRANCH   1   6
BRANCH   1  11
HETATM   11  O11 UNL     1     -34.378  17.769   1.201  1.00 20.00    -0.395 OA
HETATM   12  H29 UNL     1     -35.000  18.385   1.617  1.00 20.00     0.210 HD
ENDBRANCH   1  11
TORSDOF 5
ENDMDL
MODEL 7
REMARK VINA RESULT:      -4.3      1.950      2.861
REMARK  5 active torsions:
REMARK  status: ('A' for Active; 'I' for Inactive)
REMARK    1  A    between atoms: C2_2  and  C8_8 
REMARK    2  A    between atoms: C2_2  and  C9_9 
REMARK    3  A    between atoms: C6_6  and  C10_10 
REMARK    4  A    between atoms: C9_9  and  C10_10 
REMARK    5  A    between atoms: C10_10  and  O11_11 
ROOT
HETATM    1  C10 UNL     1     -33.448   5.792   2.922  1.00 20.00     0.126 C 
ENDROOT
BRANCH   1   2
HETATM    2  C6  UNL     1     -34.422   5.539   4.054  1.00 20.00     0.015 C 
HETATM    3  C4  UNL     1     -34.419   6.568   5.215  1.00 20.00     0.007 C 
HETATM    4  C3  UNL     1     -34.667   5.381   6.169  1.00 20.00     0.001 C 
HETATM    5  C5  UNL     1     -34.002   4.481   5.107  1.00 20.00     0.007 C 
ENDBRANCH   1   2
BRANCH   1   6
HETATM    6  C9  UNL     1     -32.334   6.735   3.392  1.00 20.00     0.065 C 
BRANCH   6   7
HETATM    7  C2  UNL     1     -32.327   8.066   2.662  1.00 20.00    -0.087 C 
HETATM    8  C1  UNL     1     -32.154   8.098   1.329  1.00 20.00     0.014 C 
BRANCH   7   9
HETATM    9  C8  UNL     1     -32.563   9.289   3.525  1.00 20.00     0.029 C 
HETATM   10  C7  UNL     1     -32.218   9.172   5.006  1.00 20.00     0.010 C 
ENDBRANCH   7   9
ENDBRANCH   6   7
ENDBRANCH   1   6
BRANCH   1  11
HETATM   11  O11 UNL     1     -32.871   4.546   2.539  1.00 20.00    -0.395 OA
HETATM   12  H29 UNL     1     -33.111   3.907   3.228  1.00 20.00     0.210 HD
ENDBRANCH   1  11
TORSDOF 5
ENDMDL
MODEL 8
REMARK VINA RESULT:      -4.3     11.271     12.653
REMARK  5 active torsions:
REMARK  status: ('A' for Active; 'I' for Inactive)
REMARK    1  A    between atoms: C2_2  and  C8_8 
REMARK    2  A    between atoms: C2_2  and  C9_9 
REMARK    3  A    between atoms: C6_6  and  C10_10 
REMARK    4  A    between atoms: C9_9  and  C10_10 
REMARK    5  A    between atoms: C10_10  and  O11_11 
ROOT
HETATM    1  C10 UNL     1     -33.416  15.037  -4.882  1.00 20.00     0.126 C 
ENDROOT
BRANCH   1   2
HETATM    2  C6  UNL     1     -34.434  14.855  -5.988  1.00 20.00     0.015 C 
HETATM    3  C4  UNL     1     -34.472  15.952  -7.084  1.00 20.00     0.007 C 
HETATM    4  C3  UNL     1     -36.003  15.770  -7.110  1.00 20.00     0.001 C 
HETATM    5  C5  UNL     1     -35.896  15.258  -5.658  1.00 20.00     0.007 C 
ENDBRANCH   1   2
BRANCH   1   6
HETATM    6  C9  UNL     1     -34.094  15.632  -3.641  1.00 20.00     0.065 C 
BRANCH   6   7
HETATM    7  C2  UNL     1     -33.592  17.021  -3.292  1.00 20.00    -0.087 C 
HETATM    8  C1  UNL     1     -33.754  18.031  -4.165  1.00 20.00     0.014 C 
BRANCH   7   9
HETATM    9  C8  UNL     1     -32.961  17.166  -1.922  1.00 20.00     0.029 C 
HETATM   10  C7  UNL     1     -33.799  17.832  -0.837  1.00 20.00     0.010 C 
ENDBRANCH   7   9
ENDBRANCH   6   7
ENDBRANCH   1   6
BRANCH   1  11
HETATM   11  O11 UNL     1     -32.881  13.758  -4.550  1.00 20.00    -0.395 OA
HETATM   12  H29 UNL     1     -33.409  13.104  -5.031  1.00 20.00     0.210 HD
ENDBRANCH   1  11
TORSDOF 5
ENDMDL
MODEL 9
REMARK VINA RESULT:      -4.3     11.021     12.211
REMARK  5 active torsions:
REMARK  status: ('A' for Active; 'I' for Inactive)
REMARK    1  A    between atoms: C2_2  and  C8_8 
REMARK    2  A    between atoms: C2_2  and  C9_9 
REMARK    3  A    between atoms: C6_6  and  C10_10 
REMARK    4  A    between atoms: C9_9  and  C10_10 
REMARK    5  A    between atoms: C10_10  and  O11_11 
ROOT
HETATM    1  C10 UNL     1     -33.904  17.132  -2.570  1.00 20.00     0.126 C 
ENDROOT
BRANCH   1   2
HETATM    2  C6  UNL     1     -33.430  16.396  -3.805  1.00 20.00     0.015 C 
HETATM    3  C4  UNL     1     -34.340  16.483  -5.058  1.00 20.00     0.007 C 
HETATM    4  C3  UNL     1     -33.955  15.018  -5.349  1.00 20.00     0.001 C 
HETATM    5  C5  UNL     1     -33.679  14.865  -3.839  1.00 20.00     0.007 C 
ENDBRANCH   1   2
BRANCH   1   6
HETATM    6  C9  UNL     1     -32.864  18.180  -2.156  1.00 20.00     0.065 C 
BRANCH   6   7
HETATM    7  C2  UNL     1     -32.636  18.239  -0.656  1.00 20.00    -0.087 C 
HETATM    8  C1  UNL     1     -33.664  18.040   0.186  1.00 20.00     0.014 C 
BRANCH   7   9
HETATM    9  C8  UNL     1     -31.206  18.490  -0.220  1.00 20.00     0.029 C 
HETATM   10  C7  UNL     1     -30.909  18.401   1.273  1.00 20.00     0.010 C 
ENDBRANCH   7   9
ENDBRANCH   6   7
ENDBRANCH   1   6
BRANCH   1  11
HETATM   11  O11 UNL     1     -35.129  17.791  -2.882  1.00 20.00    -0.395 OA
HETATM   12  H29 UNL     1     -35.838  17.155  -2.703  1.00 20.00     0.210 HD
ENDBRANCH   1  11
TORSDOF 5
ENDMDL
