MODEL 1
REMARK VINA RESULT:      -3.9      0.000      0.000
REMARK  5 active torsions:
REMARK  status: ('A' for Active; 'I' for Inactive)
REMARK    1  A    between atoms: C4_4  and  C5_5 
REMARK    2  A    between atoms: C4_4  and  C8_8 
REMARK    3  A    between atoms: C5_5  and  O9_9 
REMARK    4  A    between atoms: C6_6  and  C8_8 
REMARK    5  A    between atoms: C7_7  and  C8_8 
ROOT
HETATM    1  C8  UNL     1     -33.934   6.604   4.176  1.00 20.00     0.005 C 
ENDROOT
BRANCH   1   2
HETATM    2  C4  UNL     1     -32.614   7.388   3.971  1.00 20.00     0.032 C 
BRANCH   2   3
HETATM    3  C5  UNL     1     -32.716   8.573   3.015  1.00 20.00     0.167 C 
BRANCH   3   4
HETATM    4  O9  UNL     1     -32.232   8.173   1.739  1.00 20.00    -0.396 OA
HETATM    5  C3  UNL     1     -32.593   9.105   0.730  1.00 20.00     0.201 C 
ENDBRANCH   3   4
ENDBRANCH   2   3
ENDBRANCH   1   2
BRANCH   1   6
HETATM    6  C6  UNL     1     -33.831   5.142   3.690  1.00 20.00     0.119 C 
HETATM    7 CL10 UNL     1     -32.796   4.948   2.256  1.00 20.00    -0.130 Cl
ENDBRANCH   1   6
BRANCH   1   8
HETATM    8  C7  UNL     1     -34.443   6.725   5.653  1.00 20.00    -0.017 C 
HETATM    9  C1  UNL     1     -34.628   5.354   6.318  1.00 20.00     0.010 C 
HETATM   10  C2  UNL     1     -33.500   7.560   6.530  1.00 20.00     0.010 C 
ENDBRANCH   1   8
TORSDOF 5
ENDMDL
MODEL 2
REMARK VINA RESULT:      -3.6      1.985      2.772
REMARK  5 active torsions:
REMARK  status: ('A' for Active; 'I' for Inactive)
REMARK    1  A    between atoms: C4_4  and  C5_5 
REMARK    2  A    between atoms: C4_4  and  C8_8 
REMARK    3  A    between atoms: C5_5  and  O9_9 
REMARK    4  A    between atoms: C6_6  and  C8_8 
REMARK    5  A    between atoms: C7_7  and  C8_8 
ROOT
HETATM    1  C8  UNL     1     -33.021   6.911   4.235  1.00 20.00     0.005 C 
ENDROOT
BRANCH   1   2
HETATM    2  C4  UNL     1     -32.197   7.706   3.192  1.00 20.00     0.032 C 
BRANCH   2   3
HETATM    3  C5  UNL     1     -32.534   9.192   3.107  1.00 20.00     0.167 C 
BRANCH   3   4
HETATM    4  O9  UNL     1     -32.873   9.507   1.763  1.00 20.00    -0.396 OA
HETATM    5  C3  UNL     1     -32.278   8.596   0.849  1.00 20.00     0.201 C 
ENDBRANCH   3   4
ENDBRANCH   2   3
ENDBRANCH   1   2
BRANCH   1   6
HETATM    6  C6  UNL     1     -33.927   7.824   5.089  1.00 20.00     0.119 C 
HETATM    7 CL10 UNL     1     -34.253   7.173   6.713  1.00 20.00    -0.130 Cl
ENDBRANCH   1   6
BRANCH   1   8
HETATM    8  C7  UNL     1     -33.799   5.729   3.564  1.00 20.00    -0.017 C 
HETATM    9  C1  UNL     1     -32.959   5.013   2.497  1.00 20.00     0.010 C 
HETATM   10  C2  UNL     1     -34.270   4.684   4.584  1.00 20.00     0.010 C 
ENDBRANCH   1   8
TORSDOF 5
ENDMDL
MODEL 3
REMARK VINA RESULT:      -3.5      1.946      2.368
REMARK  5 active torsions:
REMARK  status: ('A' for Active; 'I' for Inactive)
REMARK    1  A    between atoms: C4_4  and  C5_5 
REMARK    2  A    between atoms: C4_4  and  C8_8 
REMARK    3  A    between atoms: C5_5  and  O9_9 
REMARK    4  A    between atoms: C6_6  and  C8_8 
REMARK    5  A    between atoms: C7_7  and  C8_8 
ROOT
HETATM    1  C8  UNL     1     -33.235   6.835   4.398  1.00 20.00     0.005 C 
ENDROOT
BRANCH   1   2
HETATM    2  C4  UNL     1     -32.731   6.704   2.939  1.00 20.00     0.032 C 
BRANCH   2   3
HETATM    3  C5  UNL     1     -31.988   7.926   2.406  1.00 20.00     0.167 C 
BRANCH   3   4
HETATM    4  O9  UNL     1     -32.175   7.994   0.998  1.00 20.00    -0.396 OA
HETATM    5  C3  UNL     1     -32.701   9.254   0.604  1.00 20.00     0.201 C 
ENDBRANCH   3   4
ENDBRANCH   2   3
ENDBRANCH   1   2
BRANCH   1   6
HETATM    6  C6  UNL     1     -33.614   8.287   4.762  1.00 20.00     0.119 C 
HETATM    7 CL10 UNL     1     -32.239   9.246   5.357  1.00 20.00    -0.130 Cl
ENDBRANCH   1   6
BRANCH   1   8
HETATM    8  C7  UNL     1     -34.379   5.809   4.698  1.00 20.00    -0.017 C 
HETATM    9  C1  UNL     1     -34.041   4.398   4.197  1.00 20.00     0.010 C 
HETATM   10  C2  UNL     1     -34.708   5.719   6.195  1.00 20.00     0.010 C 
ENDBRANCH   1   8
TORSDOF 5
ENDMDL
MODEL 4
REMARK VINA RESULT:      -3.4      2.113      3.953
REMARK  5 active torsions:
REMARK  status: ('A' for Active; 'I' for Inactive)
REMARK    1  A    between atoms: C4_4  and  C5_5 
REMARK    2  A    between atoms: C4_4  and  C8_8 
REMARK    3  A    between atoms: C5_5  and  O9_9 
REMARK    4  A    between atoms: C6_6  and  C8_8 
REMARK    5  A    between atoms: C7_7  and  C8_8 
ROOT
HETATM    1  C8  UNL     1     -32.887   6.849   3.894  1.00 20.00     0.005 C 
ENDROOT
BRANCH   1   2
HETATM    2  C4  UNL     1     -34.205   6.965   4.699  1.00 20.00     0.032 C 
BRANCH   2   3
HETATM    3  C5  UNL     1     -35.203   5.836   4.459  1.00 20.00     0.167 C 
BRANCH   3   4
HETATM    4  O9  UNL     1     -34.856   4.736   5.291  1.00 20.00    -0.396 OA
HETATM    5  C3  UNL     1     -34.410   5.170   6.568  1.00 20.00     0.201 C 
ENDBRANCH   3   4
ENDBRANCH   2   3
ENDBRANCH   1   2
BRANCH   1   6
HETATM    6  C6  UNL     1     -33.094   6.178   2.519  1.00 20.00     0.119 C 
HETATM    7 CL10 UNL     1     -32.701   4.442   2.515  1.00 20.00    -0.130 Cl
ENDBRANCH   1   6
BRANCH   1   8
HETATM    8  C7  UNL     1     -32.156   8.231   3.798  1.00 20.00    -0.017 C 
HETATM    9  C1  UNL     1     -32.600   9.039   2.571  1.00 20.00     0.010 C 
HETATM   10  C2  UNL     1     -32.375   9.096   5.047  1.00 20.00     0.010 C 
ENDBRANCH   1   8
TORSDOF 5
ENDMDL
MODEL 5
REMARK VINA RESULT:      -3.4     11.851     12.520
REMARK  5 active torsions:
REMARK  status: ('A' for Active; 'I' for Inactive)
REMARK    1  A    between atoms: C4_4  and  C5_5 
REMARK    2  A    between atoms: C4_4  and  C8_8 
REMARK    3  A    between atoms: C5_5  and  O9_9 
REMARK    4  A    between atoms: C6_6  and  C8_8 
REMARK    5  A    between atoms: C7_7  and  C8_8 
ROOT
HETATM    1  C8  UNL     1     -32.963  18.188  -2.268  1.00 20.00     0.005 C 
ENDROOT
BRANCH   1   2
HETATM    2  C4  UNL     1     -33.398  16.701  -2.307  1.00 20.00     0.032 C 
BRANCH   2   3
HETATM    3  C5  UNL     1     -33.157  15.999  -3.640  1.00 20.00     0.167 C 
BRANCH   3   4
HETATM    4  O9  UNL     1     -33.984  14.844  -3.703  1.00 20.00    -0.396 OA
HETATM    5  C3  UNL     1     -34.647  14.747  -4.956  1.00 20.00     0.201 C 
ENDBRANCH   3   4
ENDBRANCH   2   3
ENDBRANCH   1   2
BRANCH   1   6
HETATM    6  C6  UNL     1     -33.908  19.098  -3.081  1.00 20.00     0.119 C 
HETATM    7 CL10 UNL     1     -35.624  18.653  -2.924  1.00 20.00    -0.130 Cl
ENDBRANCH   1   6
BRANCH   1   8
HETATM    8  C7  UNL     1     -32.753  18.679  -0.796  1.00 20.00    -0.017 C 
HETATM    9  C1  UNL     1     -33.704  17.985   0.190  1.00 20.00     0.010 C 
HETATM   10  C2  UNL     1     -31.315  18.464  -0.306  1.00 20.00     0.010 C 
ENDBRANCH   1   8
TORSDOF 5
ENDMDL
MODEL 6
REMARK VINA RESULT:      -3.4     11.862     12.496
REMARK  5 active torsions:
REMARK  status: ('A' for Active; 'I' for Inactive)
REMARK    1  A    between atoms: C4_4  and  C5_5 
REMARK    2  A    between atoms: C4_4  and  C8_8 
REMARK    3  A    between atoms: C5_5  and  O9_9 
REMARK    4  A    between atoms: C6_6  and  C8_8 
REMARK    5  A    between atoms: C7_7  and  C8_8 
ROOT
HETATM    1  C8  UNL     1     -32.951  17.446  -2.665  1.00 20.00     0.005 C 
ENDROOT
BRANCH   1   2
HETATM    2  C4  UNL     1     -33.634  16.084  -2.947  1.00 20.00     0.032 C 
BRANCH   2   3
HETATM    3  C5  UNL     1     -32.992  15.265  -4.063  1.00 20.00     0.167 C 
BRANCH   3   4
HETATM    4  O9  UNL     1     -33.805  14.127  -4.319  1.00 20.00    -0.396 OA
HETATM    5  C3  UNL     1     -35.024  14.489  -4.953  1.00 20.00     0.201 C 
ENDBRANCH   3   4
ENDBRANCH   2   3
ENDBRANCH   1   2
BRANCH   1   6
HETATM    6  C6  UNL     1     -33.510  18.579  -3.553  1.00 20.00     0.119 C 
HETATM    7 CL10 UNL     1     -35.103  18.206  -4.252  1.00 20.00    -0.130 Cl
ENDBRANCH   1   6
BRANCH   1   8
HETATM    8  C7  UNL     1     -32.982  17.791  -1.138  1.00 20.00    -0.017 C 
HETATM    9  C1  UNL     1     -31.728  18.554  -0.689  1.00 20.00     0.010 C 
HETATM   10  C2  UNL     1     -34.213  18.621  -0.750  1.00 20.00     0.010 C 
ENDBRANCH   1   8
TORSDOF 5
ENDMDL
MODEL 7
REMARK VINA RESULT:      -3.3     11.562     12.681
REMARK  5 active torsions:
REMARK  status: ('A' for Active; 'I' for Inactive)
REMARK    1  A    between atoms: C4_4  and  C5_5 
REMARK    2  A    between atoms: C4_4  and  C8_8 
REMARK    3  A    between atoms: C5_5  and  O9_9 
REMARK    4  A    between atoms: C6_6  and  C8_8 
REMARK    5  A    between atoms: C7_7  and  C8_8 
ROOT
HETATM    1  C8  UNL     1     -33.717  16.670  -3.164  1.00 20.00     0.005 C 
ENDROOT
BRANCH   1   2
HETATM    2  C4  UNL     1     -32.979  15.486  -3.838  1.00 20.00     0.032 C 
BRANCH   2   3
HETATM    3  C5  UNL     1     -33.807  14.717  -4.862  1.00 20.00     0.167 C 
BRANCH   3   4
HETATM    4  O9  UNL     1     -34.658  13.810  -4.173  1.00 20.00    -0.396 OA
HETATM    5  C3  UNL     1     -35.969  13.806  -4.722  1.00 20.00     0.201 C 
ENDBRANCH   3   4
ENDBRANCH   2   3
ENDBRANCH   1   2
BRANCH   1   6
HETATM    6  C6  UNL     1     -32.895  17.300  -2.018  1.00 20.00     0.119 C 
HETATM    7 CL10 UNL     1     -33.874  17.698  -0.586  1.00 20.00    -0.130 Cl
ENDBRANCH   1   6
BRANCH   1   8
HETATM    8  C7  UNL     1     -34.195  17.719  -4.224  1.00 20.00    -0.017 C 
HETATM    9  C1  UNL     1     -35.645  18.164  -3.989  1.00 20.00     0.010 C 
HETATM   10  C2  UNL     1     -33.308  18.971  -4.251  1.00 20.00     0.010 C 
ENDBRANCH   1   8
TORSDOF 5
ENDMDL
MODEL 8
REMARK VINA RESULT:      -3.3      9.930     10.580
REMARK  5 active torsions:
REMARK  status: ('A' for Active; 'I' for Inactive)
REMARK    1  A    between atoms: C4_4  and  C5_5 
REMARK    2  A    between atoms: C4_4  and  C8_8 
REMARK    3  A    between atoms: C5_5  and  O9_9 
REMARK    4  A    between atoms: C6_6  and  C8_8 
REMARK    5  A    between atoms: C7_7  and  C8_8 
ROOT
HETATM    1  C8  UNL     1     -41.353  13.242   6.712  1.00 20.00     0.005 C 
ENDROOT
BRANCH   1   2
HETATM    2  C4  UNL     1     -40.561  12.148   5.955  1.00 20.00     0.032 C 
BRANCH   2   3
HETATM    3  C5  UNL     1     -39.085  12.050   6.330  1.00 20.00     0.167 C 
BRANCH   3   4
HETATM    4  O9  UNL     1     -38.305  12.165   5.147  1.00 20.00    -0.396 OA
HETATM    5  C3  UNL     1     -39.022  11.718   4.005  1.00 20.00     0.201 C 
ENDBRANCH   3   4
ENDBRANCH   2   3
ENDBRANCH   1   2
BRANCH   1   6
HETATM    6  C6  UNL     1     -40.444  14.383   7.218  1.00 20.00     0.119 C 
HETATM    7 CL10 UNL     1     -40.224  14.379   8.983  1.00 20.00    -0.130 Cl
ENDBRANCH   1   6
BRANCH   1   8
HETATM    8  C7  UNL     1     -42.567  13.754   5.864  1.00 20.00    -0.017 C 
HETATM    9  C1  UNL     1     -43.358  14.853   6.587  1.00 20.00     0.010 C 
HETATM   10  C2  UNL     1     -42.137  14.295   4.494  1.00 20.00     0.010 C 
ENDBRANCH   1   8
TORSDOF 5
ENDMDL
MODEL 9
REMARK VINA RESULT:      -3.3     11.689     13.094
REMARK  5 active torsions:
REMARK  status: ('A' for Active; 'I' for Inactive)
REMARK    1  A    between atoms: C4_4  and  C5_5 
REMARK    2  A    between atoms: C4_4  and  C8_8 
REMARK    3  A    between atoms: C5_5  and  O9_9 
REMARK    4  A    between atoms: C6_6  and  C8_8 
REMARK    5  A    between atoms: C7_7  and  C8_8 
ROOT
HETATM    1  C8  UNL     1     -33.145  17.394  -2.923  1.00 20.00     0.005 C 
ENDROOT
BRANCH   1   2
HETATM    2  C4  UNL     1     -32.877  17.773  -1.445  1.00 20.00     0.032 C 
BRANCH   2   3
HETATM    3  C5  UNL     1     -32.073  19.055  -1.248  1.00 20.00     0.167 C 
BRANCH   3   4
HETATM    4  O9  UNL     1     -30.832  18.726  -0.636  1.00 20.00    -0.396 OA
HETATM    5  C3  UNL     1     -30.988  18.475   0.753  1.00 20.00     0.201 C 
ENDBRANCH   3   4
ENDBRANCH   2   3
ENDBRANCH   1   2
BRANCH   1   6
HETATM    6  C6  UNL     1     -33.675  15.952  -3.074  1.00 20.00     0.119 C 
HETATM    7 CL10 UNL     1     -32.774  14.992  -4.272  1.00 20.00    -0.130 Cl
ENDBRANCH   1   6
BRANCH   1   8
HETATM    8  C7  UNL     1     -34.053  18.458  -3.626  1.00 20.00    -0.017 C 
HETATM    9  C1  UNL     1     -33.291  19.262  -4.689  1.00 20.00     0.010 C 
HETATM   10  C2  UNL     1     -35.285  17.829  -4.292  1.00 20.00     0.010 C 
ENDBRANCH   1   8
TORSDOF 5
ENDMDL
