MODEL 1
REMARK VINA RESULT:      -4.0      0.000      0.000
REMARK  5 active torsions:
REMARK  status: ('A' for Active; 'I' for Inactive)
REMARK    1  A    between atoms: C2_2  and  C7_7 
REMARK    2  A    between atoms: C2_2  and  C8_8 
REMARK    3  A    between atoms: C3_3  and  C10_10 
REMARK    4  A    between atoms: C8_8  and  C10_10 
REMARK    5  A    between atoms: C9_9  and  C10_10 
ROOT
HETATM    1  C10 UNL     1     -33.801   6.649   4.199  1.00 20.00     0.058 C 
ENDROOT
BRANCH   1   2
HETATM    2  C3  UNL     1     -34.121   6.691   5.695  1.00 20.00     0.127 C 
HETATM    3  C4  UNL     1     -34.607   5.409   6.321  1.00 20.00     0.091 C 
HETATM    4  O11 UNL     1     -34.019   7.719   6.363  1.00 20.00    -0.298 OA
ENDBRANCH   1   2
BRANCH   1   5
HETATM    5  C8  UNL     1     -32.428   7.276   3.885  1.00 20.00     0.045 C 
BRANCH   5   6
HETATM    6  C2  UNL     1     -32.482   8.437   2.908  1.00 20.00    -0.089 C 
HETATM    7  C1  UNL     1     -32.811   9.670   3.326  1.00 20.00     0.014 C 
BRANCH   6   8
HETATM    8  C7  UNL     1     -32.168   8.177   1.452  1.00 20.00     0.029 C 
HETATM    9  C5  UNL     1     -32.683   9.267   0.523  1.00 20.00     0.010 C 
ENDBRANCH   6   8
ENDBRANCH   5   6
ENDBRANCH   1   5
BRANCH   1  10
HETATM   10  C9  UNL     1     -33.926   5.209   3.669  1.00 20.00     0.008 C 
HETATM   11  C6  UNL     1     -32.934   4.830   2.578  1.00 20.00     0.006 C 
ENDBRANCH   1  10
TORSDOF 5
ENDMDL
MODEL 2
REMARK VINA RESULT:      -3.8      2.085      4.817
REMARK  5 active torsions:
REMARK  status: ('A' for Active; 'I' for Inactive)
REMARK    1  A    between atoms: C2_2  and  C7_7 
REMARK    2  A    between atoms: C2_2  and  C8_8 
REMARK    3  A    between atoms: C3_3  and  C10_10 
REMARK    4  A    between atoms: C8_8  and  C10_10 
REMARK    5  A    between atoms: C9_9  and  C10_10 
ROOT
HETATM    1  C10 UNL     1     -32.824   7.650   3.009  1.00 20.00     0.058 C 
ENDROOT
BRANCH   1   2
HETATM    2  C3  UNL     1     -32.449   8.342   1.697  1.00 20.00     0.127 C 
HETATM    3  C4  UNL     1     -32.988   9.734   1.487  1.00 20.00     0.091 C 
HETATM    4  O11 UNL     1     -31.765   7.794   0.833  1.00 20.00    -0.298 OA
ENDBRANCH   1   2
BRANCH   1   5
HETATM    5  C8  UNL     1     -32.921   6.119   2.847  1.00 20.00     0.045 C 
BRANCH   5   6
HETATM    6  C2  UNL     1     -33.813   5.440   3.870  1.00 20.00    -0.089 C 
HETATM    7  C1  UNL     1     -33.760   4.110   4.050  1.00 20.00     0.014 C 
BRANCH   6   8
HETATM    8  C7  UNL     1     -34.771   6.287   4.678  1.00 20.00     0.029 C 
HETATM    9  C5  UNL     1     -34.569   6.155   6.181  1.00 20.00     0.010 C 
ENDBRANCH   6   8
ENDBRANCH   5   6
ENDBRANCH   1   5
BRANCH   1  10
HETATM   10  C9  UNL     1     -31.848   8.063   4.126  1.00 20.00     0.008 C 
HETATM   11  C6  UNL     1     -32.407   9.045   5.147  1.00 20.00     0.006 C 
ENDBRANCH   1  10
TORSDOF 5
ENDMDL
MODEL 3
REMARK VINA RESULT:      -3.8     11.267     12.483
REMARK  5 active torsions:
REMARK  status: ('A' for Active; 'I' for Inactive)
REMARK    1  A    between atoms: C2_2  and  C7_7 
REMARK    2  A    between atoms: C2_2  and  C8_8 
REMARK    3  A    between atoms: C3_3  and  C10_10 
REMARK    4  A    between atoms: C8_8  and  C10_10 
REMARK    5  A    between atoms: C9_9  and  C10_10 
ROOT
HETATM    1  C10 UNL     1     -33.306  17.040  -3.182  1.00 20.00     0.058 C 
ENDROOT
BRANCH   1   2
HETATM    2  C3  UNL     1     -34.407  17.820  -3.904  1.00 20.00     0.127 C 
HETATM    3  C4  UNL     1     -34.100  18.287  -5.304  1.00 20.00     0.091 C 
HETATM    4  O11 UNL     1     -35.485  18.085  -3.373  1.00 20.00    -0.298 OA
ENDBRANCH   1   2
BRANCH   1   5
HETATM    5  C8  UNL     1     -33.652  16.791  -1.700  1.00 20.00     0.045 C 
BRANCH   5   6
HETATM    6  C2  UNL     1     -33.221  17.905  -0.764  1.00 20.00    -0.089 C 
HETATM    7  C1  UNL     1     -34.002  18.279   0.263  1.00 20.00     0.014 C 
BRANCH   6   8
HETATM    8  C7  UNL     1     -31.898  18.594  -1.013  1.00 20.00     0.029 C 
HETATM    9  C5  UNL     1     -31.008  18.649   0.220  1.00 20.00     0.010 C 
ENDBRANCH   6   8
ENDBRANCH   5   6
ENDBRANCH   1   5
BRANCH   1  10
HETATM   10  C9  UNL     1     -32.992  15.737  -3.940  1.00 20.00     0.008 C 
HETATM   11  C6  UNL     1     -34.133  14.730  -4.002  1.00 20.00     0.006 C 
ENDBRANCH   1  10
TORSDOF 5
ENDMDL
MODEL 4
REMARK VINA RESULT:      -3.8      1.425      4.133
REMARK  5 active torsions:
REMARK  status: ('A' for Active; 'I' for Inactive)
REMARK    1  A    between atoms: C2_2  and  C7_7 
REMARK    2  A    between atoms: C2_2  and  C8_8 
REMARK    3  A    between atoms: C3_3  and  C10_10 
REMARK    4  A    between atoms: C8_8  and  C10_10 
REMARK    5  A    between atoms: C9_9  and  C10_10 
ROOT
HETATM    1  C10 UNL     1     -32.613   7.471   3.773  1.00 20.00     0.058 C 
ENDROOT
BRANCH   1   2
HETATM    2  C3  UNL     1     -32.472   8.941   3.375  1.00 20.00     0.127 C 
HETATM    3  C4  UNL     1     -32.736   9.282   1.931  1.00 20.00     0.091 C 
HETATM    4  O11 UNL     1     -32.134   9.812   4.176  1.00 20.00    -0.298 OA
ENDBRANCH   1   2
BRANCH   1   5
HETATM    5  C8  UNL     1     -34.017   7.154   4.325  1.00 20.00     0.045 C 
BRANCH   5   6
HETATM    6  C2  UNL     1     -34.061   6.926   5.825  1.00 20.00    -0.089 C 
HETATM    7  C1  UNL     1     -33.734   7.911   6.678  1.00 20.00     0.014 C 
BRANCH   6   8
HETATM    8  C7  UNL     1     -34.469   5.565   6.344  1.00 20.00     0.029 C 
HETATM    9  C5  UNL     1     -34.812   4.579   5.236  1.00 20.00     0.010 C 
ENDBRANCH   6   8
ENDBRANCH   5   6
ENDBRANCH   1   5
BRANCH   1  10
HETATM   10  C9  UNL     1     -32.225   6.561   2.593  1.00 20.00     0.008 C 
HETATM   11  C6  UNL     1     -32.928   5.211   2.555  1.00 20.00     0.006 C 
ENDBRANCH   1  10
TORSDOF 5
ENDMDL
MODEL 5
REMARK VINA RESULT:      -3.7      1.354      3.954
REMARK  5 active torsions:
REMARK  status: ('A' for Active; 'I' for Inactive)
REMARK    1  A    between atoms: C2_2  and  C7_7 
REMARK    2  A    between atoms: C2_2  and  C8_8 
REMARK    3  A    between atoms: C3_3  and  C10_10 
REMARK    4  A    between atoms: C8_8  and  C10_10 
REMARK    5  A    between atoms: C9_9  and  C10_10 
ROOT
HETATM    1  C10 UNL     1     -32.710   7.895   3.786  1.00 20.00     0.058 C 
ENDROOT
BRANCH   1   2
HETATM    2  C3  UNL     1     -32.611   8.721   5.070  1.00 20.00     0.127 C 
HETATM    3  C4  UNL     1     -33.727   8.558   6.070  1.00 20.00     0.091 C 
HETATM    4  O11 UNL     1     -31.687   9.506   5.280  1.00 20.00    -0.298 OA
ENDBRANCH   1   2
BRANCH   1   5
HETATM    5  C8  UNL     1     -33.966   7.001   3.770  1.00 20.00     0.045 C 
BRANCH   5   6
HETATM    6  C2  UNL     1     -33.673   5.515   3.667  1.00 20.00    -0.089 C 
HETATM    7  C1  UNL     1     -32.910   5.034   2.672  1.00 20.00     0.014 C 
BRANCH   6   8
HETATM    8  C7  UNL     1     -34.266   4.583   4.700  1.00 20.00     0.029 C 
HETATM    9  C5  UNL     1     -34.668   5.290   5.986  1.00 20.00     0.010 C 
ENDBRANCH   6   8
ENDBRANCH   5   6
ENDBRANCH   1   5
BRANCH   1  10
HETATM   10  C9  UNL     1     -32.625   8.814   2.554  1.00 20.00     0.008 C 
HETATM   11  C6  UNL     1     -32.095   8.155   1.287  1.00 20.00     0.006 C 
ENDBRANCH   1  10
TORSDOF 5
ENDMDL
MODEL 6
REMARK VINA RESULT:      -3.7     11.519     13.300
REMARK  5 active torsions:
REMARK  status: ('A' for Active; 'I' for Inactive)
REMARK    1  A    between atoms: C2_2  and  C7_7 
REMARK    2  A    between atoms: C2_2  and  C8_8 
REMARK    3  A    between atoms: C3_3  and  C10_10 
REMARK    4  A    between atoms: C8_8  and  C10_10 
REMARK    5  A    between atoms: C9_9  and  C10_10 
ROOT
HETATM    1  C10 UNL     1     -35.646  15.805  -5.426  1.00 20.00     0.058 C 
ENDROOT
BRANCH   1   2
HETATM    2  C3  UNL     1     -35.389  15.218  -6.815  1.00 20.00     0.127 C 
HETATM    3  C4  UNL     1     -34.304  15.867  -7.636  1.00 20.00     0.091 C 
HETATM    4  O11 UNL     1     -36.045  14.280  -7.267  1.00 20.00    -0.298 OA
ENDBRANCH   1   2
BRANCH   1   5
HETATM    5  C8  UNL     1     -34.455  16.646  -4.925  1.00 20.00     0.045 C 
BRANCH   5   6
HETATM    6  C2  UNL     1     -33.571  15.935  -3.916  1.00 20.00    -0.089 C 
HETATM    7  C1  UNL     1     -32.994  14.760  -4.218  1.00 20.00     0.014 C 
BRANCH   6   8
HETATM    8  C7  UNL     1     -33.358  16.569  -2.560  1.00 20.00     0.029 C 
HETATM    9  C5  UNL     1     -34.142  17.860  -2.371  1.00 20.00     0.010 C 
ENDBRANCH   6   8
ENDBRANCH   5   6
ENDBRANCH   1   5
BRANCH   1  10
HETATM   10  C9  UNL     1     -36.968  16.594  -5.418  1.00 20.00     0.008 C 
HETATM   11  C6  UNL     1     -36.851  18.055  -5.003  1.00 20.00     0.006 C 
ENDBRANCH   1  10
TORSDOF 5
ENDMDL
MODEL 7
REMARK VINA RESULT:      -3.7      1.603      2.778
REMARK  5 active torsions:
REMARK  status: ('A' for Active; 'I' for Inactive)
REMARK    1  A    between atoms: C2_2  and  C7_7 
REMARK    2  A    between atoms: C2_2  and  C8_8 
REMARK    3  A    between atoms: C3_3  and  C10_10 
REMARK    4  A    between atoms: C8_8  and  C10_10 
REMARK    5  A    between atoms: C9_9  and  C10_10 
ROOT
HETATM    1  C10 UNL     1     -33.573   6.184   4.782  1.00 20.00     0.058 C 
ENDROOT
BRANCH   1   2
HETATM    2  C3  UNL     1     -33.649   4.939   3.895  1.00 20.00     0.127 C 
HETATM    3  C4  UNL     1     -33.017   5.039   2.530  1.00 20.00     0.091 C 
HETATM    4  O11 UNL     1     -34.219   3.909   4.253  1.00 20.00    -0.298 OA
ENDBRANCH   1   2
BRANCH   1   5
HETATM    5  C8  UNL     1     -33.914   7.470   4.003  1.00 20.00     0.045 C 
BRANCH   5   6
HETATM    6  C2  UNL     1     -32.726   8.379   3.747  1.00 20.00    -0.089 C 
HETATM    7  C1  UNL     1     -32.162   9.070   4.752  1.00 20.00     0.014 C 
BRANCH   6   8
HETATM    8  C7  UNL     1     -32.192   8.501   2.338  1.00 20.00     0.029 C 
HETATM    9  C5  UNL     1     -32.912   9.557   1.512  1.00 20.00     0.010 C 
ENDBRANCH   6   8
ENDBRANCH   5   6
ENDBRANCH   1   5
BRANCH   1  10
HETATM   10  C9  UNL     1     -34.453   6.002   6.032  1.00 20.00     0.008 C 
HETATM   11  C6  UNL     1     -34.389   7.139   7.043  1.00 20.00     0.006 C 
ENDBRANCH   1  10
TORSDOF 5
ENDMDL
MODEL 8
REMARK VINA RESULT:      -3.6     11.298     12.694
REMARK  5 active torsions:
REMARK  status: ('A' for Active; 'I' for Inactive)
REMARK    1  A    between atoms: C2_2  and  C7_7 
REMARK    2  A    between atoms: C2_2  and  C8_8 
REMARK    3  A    between atoms: C3_3  and  C10_10 
REMARK    4  A    between atoms: C8_8  and  C10_10 
REMARK    5  A    between atoms: C9_9  and  C10_10 
ROOT
HETATM    1  C10 UNL     1     -33.830  16.750  -3.095  1.00 20.00     0.058 C 
ENDROOT
BRANCH   1   2
HETATM    2  C3  UNL     1     -34.229  17.924  -3.992  1.00 20.00     0.127 C 
HETATM    3  C4  UNL     1     -35.705  18.142  -4.209  1.00 20.00     0.091 C 
HETATM    4  O11 UNL     1     -33.398  18.649  -4.539  1.00 20.00    -0.298 OA
ENDBRANCH   1   2
BRANCH   1   5
HETATM    5  C8  UNL     1     -33.148  15.620  -3.892  1.00 20.00     0.045 C 
BRANCH   5   6
HETATM    6  C2  UNL     1     -34.079  14.862  -4.821  1.00 20.00    -0.089 C 
HETATM    7  C1  UNL     1     -34.980  13.996  -4.331  1.00 20.00     0.014 C 
BRANCH   6   8
HETATM    8  C7  UNL     1     -33.966  15.093  -6.311  1.00 20.00     0.029 C 
HETATM    9  C5  UNL     1     -35.305  15.373  -6.979  1.00 20.00     0.010 C 
ENDBRANCH   6   8
ENDBRANCH   5   6
ENDBRANCH   1   5
BRANCH   1  10
HETATM   10  C9  UNL     1     -32.968  17.247  -1.921  1.00 20.00     0.008 C 
HETATM   11  C6  UNL     1     -33.744  17.782  -0.725  1.00 20.00     0.006 C 
ENDBRANCH   1  10
TORSDOF 5
ENDMDL
MODEL 9
REMARK VINA RESULT:      -3.6     10.027     11.204
REMARK  5 active torsions:
REMARK  status: ('A' for Active; 'I' for Inactive)
REMARK    1  A    between atoms: C2_2  and  C7_7 
REMARK    2  A    between atoms: C2_2  and  C8_8 
REMARK    3  A    between atoms: C3_3  and  C10_10 
REMARK    4  A    between atoms: C8_8  and  C10_10 
REMARK    5  A    between atoms: C9_9  and  C10_10 
ROOT
HETATM    1  C10 UNL     1     -40.492  14.371   8.181  1.00 20.00     0.058 C 
ENDROOT
BRANCH   1   2
HETATM    2  C3  UNL     1     -40.859  14.302   9.665  1.00 20.00     0.127 C 
HETATM    3  C4  UNL     1     -40.177  15.289  10.579  1.00 20.00     0.091 C 
HETATM    4  O11 UNL     1     -41.648  13.470  10.112  1.00 20.00    -0.298 OA
ENDBRANCH   1   2
BRANCH   1   5
HETATM    5  C8  UNL     1     -41.428  13.504   7.314  1.00 20.00     0.045 C 
BRANCH   5   6
HETATM    6  C2  UNL     1     -40.840  13.100   5.975  1.00 20.00    -0.089 C 
HETATM    7  C1  UNL     1     -41.345  13.586   4.829  1.00 20.00     0.014 C 
BRANCH   6   8
HETATM    8  C7  UNL     1     -39.679  12.131   5.953  1.00 20.00     0.029 C 
HETATM    9  C5  UNL     1     -39.251  11.738   4.546  1.00 20.00     0.010 C 
ENDBRANCH   6   8
ENDBRANCH   5   6
ENDBRANCH   1   5
BRANCH   1  10
HETATM   10  C9  UNL     1     -40.446  15.837   7.712  1.00 20.00     0.008 C 
HETATM   11  C6  UNL     1     -41.797  16.458   7.385  1.00 20.00     0.006 C 
ENDBRANCH   1  10
TORSDOF 5
ENDMDL
