MODEL 1
REMARK VINA RESULT:      -4.4      0.000      0.000
REMARK  1 active torsions:
REMARK  status: ('A' for Active; 'I' for Inactive)
REMARK    1  A    between atoms: C5_5  and  C6_6 
ROOT
HETATM    1  C1  UNL     1     -35.278  14.008  -4.696  1.00 20.00     0.218 C 
HETATM    2  C2  UNL     1     -33.879  14.417  -4.310  1.00 20.00     0.110 C 
HETATM    3  C5  UNL     1     -33.781  15.879  -4.784  1.00 20.00     0.026 C 
HETATM    4  C7  UNL     1     -34.746  15.924  -5.995  1.00 20.00     0.030 C 
HETATM    5  C8  UNL     1     -34.017  15.486  -7.277  1.00 20.00     0.038 C 
HETATM    6  C9  UNL     1     -35.415  17.277  -6.240  1.00 20.00     0.038 C 
HETATM    7  N10 UNL     1     -35.732  14.920  -5.642  1.00 20.00    -0.352 N 
HETATM    8  O11 UNL     1     -35.871  13.029  -4.271  1.00 20.00    -0.274 OA
HETATM    9  H26 UNL     1     -36.663  14.886  -6.047  1.00 20.00     0.163 HD
ENDROOT
BRANCH   3  10
HETATM   10  C6  UNL     1     -34.138  16.826  -3.634  1.00 20.00    -0.008 A 
HETATM   11  C3  UNL     1     -33.422  16.714  -2.321  1.00 20.00     0.005 A 
HETATM   12  C4  UNL     1     -33.173  17.895  -3.218  1.00 20.00     0.005 A 
ENDBRANCH   3  10
TORSDOF 1
ENDMDL
MODEL 2
REMARK VINA RESULT:      -4.0      1.172      1.430
REMARK  1 active torsions:
REMARK  status: ('A' for Active; 'I' for Inactive)
REMARK    1  A    between atoms: C5_5  and  C6_6 
ROOT
HETATM    1  C1  UNL     1     -34.342  14.823  -4.201  1.00 20.00     0.218 C 
HETATM    2  C2  UNL     1     -33.157  15.745  -4.059  1.00 20.00     0.110 C 
HETATM    3  C5  UNL     1     -33.773  17.152  -4.162  1.00 20.00     0.026 C 
HETATM    4  C7  UNL     1     -35.012  16.931  -5.065  1.00 20.00     0.030 C 
HETATM    5  C8  UNL     1     -34.616  17.025  -6.549  1.00 20.00     0.038 C 
HETATM    6  C9  UNL     1     -36.182  17.879  -4.802  1.00 20.00     0.038 C 
HETATM    7  N10 UNL     1     -35.380  15.562  -4.756  1.00 20.00    -0.352 N 
HETATM    8  O11 UNL     1     -34.354  13.637  -3.909  1.00 20.00    -0.274 OA
HETATM    9  H26 UNL     1     -36.305  15.181  -4.930  1.00 20.00     0.163 HD
ENDROOT
BRANCH   3  10
HETATM   10  C6  UNL     1     -34.079  17.692  -2.761  1.00 20.00    -0.008 A 
HETATM   11  C3  UNL     1     -33.510  17.008  -1.554  1.00 20.00     0.005 A 
HETATM   12  C4  UNL     1     -33.001  18.362  -1.964  1.00 20.00     0.005 A 
ENDBRANCH   3  10
TORSDOF 1
ENDMDL
MODEL 3
REMARK VINA RESULT:      -3.9      2.416      4.006
REMARK  1 active torsions:
REMARK  status: ('A' for Active; 'I' for Inactive)
REMARK    1  A    between atoms: C5_5  and  C6_6 
ROOT
HETATM    1  C1  UNL     1     -35.787  17.903  -4.143  1.00 20.00     0.218 C 
HETATM    2  C2  UNL     1     -34.605  17.438  -4.955  1.00 20.00     0.110 C 
HETATM    3  C5  UNL     1     -33.583  16.994  -3.891  1.00 20.00     0.026 C 
HETATM    4  C7  UNL     1     -33.917  17.900  -2.681  1.00 20.00     0.030 C 
HETATM    5  C8  UNL     1     -33.175  19.243  -2.796  1.00 20.00     0.038 C 
HETATM    6  C9  UNL     1     -33.623  17.286  -1.312  1.00 20.00     0.038 C 
HETATM    7  N10 UNL     1     -35.340  18.127  -2.847  1.00 20.00    -0.352 N 
HETATM    8  O11 UNL     1     -36.916  18.081  -4.576  1.00 20.00    -0.274 OA
HETATM    9  H26 UNL     1     -35.950  18.422  -2.089  1.00 20.00     0.163 HD
ENDROOT
BRANCH   3  10
HETATM   10  C6  UNL     1     -33.717  15.490  -3.633  1.00 20.00    -0.008 A 
HETATM   11  C3  UNL     1     -34.396  14.614  -4.643  1.00 20.00     0.005 A 
HETATM   12  C4  UNL     1     -32.909  14.517  -4.438  1.00 20.00     0.005 A 
ENDBRANCH   3  10
TORSDOF 1
ENDMDL
MODEL 4
REMARK VINA RESULT:      -3.9     12.096     13.227
REMARK  1 active torsions:
REMARK  status: ('A' for Active; 'I' for Inactive)
REMARK    1  A    between atoms: C5_5  and  C6_6 
ROOT
HETATM    1  C1  UNL     1     -40.653  14.809   7.539  1.00 20.00     0.218 C 
HETATM    2  C2  UNL     1     -40.483  13.311   7.526  1.00 20.00     0.110 C 
HETATM    3  C5  UNL     1     -40.984  12.898   6.129  1.00 20.00     0.026 C 
HETATM    4  C7  UNL     1     -42.040  13.982   5.798  1.00 20.00     0.030 C 
HETATM    5  C8  UNL     1     -43.410  13.591   6.378  1.00 20.00     0.038 C 
HETATM    6  C9  UNL     1     -42.201  14.296   4.310  1.00 20.00     0.038 C 
HETATM    7  N10 UNL     1     -41.533  15.137   6.515  1.00 20.00    -0.352 N 
HETATM    8  O11 UNL     1     -40.133  15.573   8.338  1.00 20.00    -0.274 OA
HETATM    9  H26 UNL     1     -41.796  16.093   6.290  1.00 20.00     0.163 HD
ENDROOT
BRANCH   3  10
HETATM   10  C6  UNL     1     -39.806  12.819   5.153  1.00 20.00    -0.008 A 
HETATM   11  C3  UNL     1     -38.540  12.127   5.561  1.00 20.00     0.005 A 
HETATM   12  C4  UNL     1     -39.440  11.507   4.527  1.00 20.00     0.005 A 
ENDBRANCH   3  10
TORSDOF 1
ENDMDL
MODEL 5
REMARK VINA RESULT:      -3.8      1.666      2.462
REMARK  1 active torsions:
REMARK  status: ('A' for Active; 'I' for Inactive)
REMARK    1  A    between atoms: C5_5  and  C6_6 
ROOT
HETATM    1  C1  UNL     1     -35.814  15.213  -7.249  1.00 20.00     0.218 C 
HETATM    2  C2  UNL     1     -34.367  15.523  -6.956  1.00 20.00     0.110 C 
HETATM    3  C5  UNL     1     -34.437  16.514  -5.779  1.00 20.00     0.026 C 
HETATM    4  C7  UNL     1     -35.790  17.233  -6.003  1.00 20.00     0.030 C 
HETATM    5  C8  UNL     1     -35.611  18.424  -6.962  1.00 20.00     0.038 C 
HETATM    6  C9  UNL     1     -36.482  17.720  -4.729  1.00 20.00     0.038 C 
HETATM    7  N10 UNL     1     -36.581  16.209  -6.658  1.00 20.00    -0.352 N 
HETATM    8  O11 UNL     1     -36.213  14.272  -7.918  1.00 20.00    -0.274 OA
HETATM    9  H26 UNL     1     -37.596  16.220  -6.683  1.00 20.00     0.163 HD
ENDROOT
BRANCH   3  10
HETATM   10  C6  UNL     1     -34.314  15.759  -4.452  1.00 20.00    -0.008 A 
HETATM   11  C3  UNL     1     -33.147  14.850  -4.212  1.00 20.00     0.005 A 
HETATM   12  C4  UNL     1     -33.257  16.149  -3.463  1.00 20.00     0.005 A 
ENDBRANCH   3  10
TORSDOF 1
ENDMDL
MODEL 6
REMARK VINA RESULT:      -3.7      1.949      3.279
REMARK  1 active torsions:
REMARK  status: ('A' for Active; 'I' for Inactive)
REMARK    1  A    between atoms: C5_5  and  C6_6 
ROOT
HETATM    1  C1  UNL     1     -33.988  15.199  -6.788  1.00 20.00     0.218 C 
HETATM    2  C2  UNL     1     -35.425  15.479  -6.424  1.00 20.00     0.110 C 
HETATM    3  C5  UNL     1     -35.334  16.064  -5.002  1.00 20.00     0.026 C 
HETATM    4  C7  UNL     1     -34.065  15.390  -4.423  1.00 20.00     0.030 C 
HETATM    5  C8  UNL     1     -34.417  14.023  -3.811  1.00 20.00     0.038 C 
HETATM    6  C9  UNL     1     -33.307  16.219  -3.386  1.00 20.00     0.038 C 
HETATM    7  N10 UNL     1     -33.254  15.185  -5.608  1.00 20.00    -0.352 N 
HETATM    8  O11 UNL     1     -33.574  14.988  -7.918  1.00 20.00    -0.274 OA
HETATM    9  H26 UNL     1     -32.249  15.045  -5.579  1.00 20.00     0.163 HD
ENDROOT
BRANCH   3  10
HETATM   10  C6  UNL     1     -35.283  17.594  -5.068  1.00 20.00    -0.008 A 
HETATM   11  C3  UNL     1     -36.172  18.332  -6.024  1.00 20.00     0.005 A 
HETATM   12  C4  UNL     1     -36.431  18.403  -4.545  1.00 20.00     0.005 A 
ENDBRANCH   3  10
TORSDOF 1
ENDMDL
MODEL 7
REMARK VINA RESULT:      -3.6      2.198      3.055
REMARK  1 active torsions:
REMARK  status: ('A' for Active; 'I' for Inactive)
REMARK    1  A    between atoms: C5_5  and  C6_6 
ROOT
HETATM    1  C1  UNL     1     -34.397  17.345  -6.483  1.00 20.00     0.218 C 
HETATM    2  C2  UNL     1     -35.118  17.716  -5.211  1.00 20.00     0.110 C 
HETATM    3  C5  UNL     1     -34.665  16.639  -4.208  1.00 20.00     0.026 C 
HETATM    4  C7  UNL     1     -34.389  15.410  -5.108  1.00 20.00     0.030 C 
HETATM    5  C8  UNL     1     -35.685  14.613  -5.339  1.00 20.00     0.038 C 
HETATM    6  C9  UNL     1     -33.306  14.460  -4.594  1.00 20.00     0.038 C 
HETATM    7  N10 UNL     1     -33.981  16.026  -6.357  1.00 20.00    -0.352 N 
HETATM    8  O11 UNL     1     -34.250  18.077  -7.450  1.00 20.00    -0.274 OA
HETATM    9  H26 UNL     1     -33.444  15.540  -7.069  1.00 20.00     0.163 HD
ENDROOT
BRANCH   3  10
HETATM   10  C6  UNL     1     -33.458  17.142  -3.409  1.00 20.00    -0.008 A 
HETATM   11  C3  UNL     1     -33.568  18.398  -2.597  1.00 20.00     0.005 A 
HETATM   12  C4  UNL     1     -33.465  17.063  -1.912  1.00 20.00     0.005 A 
ENDBRANCH   3  10
TORSDOF 1
ENDMDL
MODEL 8
REMARK VINA RESULT:      -3.6     13.015     14.169
REMARK  1 active torsions:
REMARK  status: ('A' for Active; 'I' for Inactive)
REMARK    1  A    between atoms: C5_5  and  C6_6 
ROOT
HETATM    1  C1  UNL     1     -42.727  12.824   8.109  1.00 20.00     0.218 C 
HETATM    2  C2  UNL     1     -42.545  12.576   6.633  1.00 20.00     0.110 C 
HETATM    3  C5  UNL     1     -41.447  13.576   6.226  1.00 20.00     0.026 C 
HETATM    4  C7  UNL     1     -41.645  14.744   7.224  1.00 20.00     0.030 C 
HETATM    5  C8  UNL     1     -42.702  15.728   6.694  1.00 20.00     0.038 C 
HETATM    6  C9  UNL     1     -40.374  15.519   7.574  1.00 20.00     0.038 C 
HETATM    7  N10 UNL     1     -42.171  14.066   8.394  1.00 20.00    -0.352 N 
HETATM    8  O11 UNL     1     -43.296  12.074   8.887  1.00 20.00    -0.274 OA
HETATM    9  H26 UNL     1     -42.136  14.460   9.330  1.00 20.00     0.163 HD
ENDROOT
BRANCH   3  10
HETATM   10  C6  UNL     1     -40.075  12.898   6.284  1.00 20.00    -0.008 A 
HETATM   11  C3  UNL     1     -39.939  11.449   5.924  1.00 20.00     0.005 A 
HETATM   12  C4  UNL     1     -39.378  12.508   5.016  1.00 20.00     0.005 A 
ENDBRANCH   3  10
TORSDOF 1
ENDMDL
MODEL 9
REMARK VINA RESULT:      -3.6      3.261      4.573
REMARK  1 active torsions:
REMARK  status: ('A' for Active; 'I' for Inactive)
REMARK    1  A    between atoms: C5_5  and  C6_6 
ROOT
HETATM    1  C1  UNL     1     -32.515  18.413  -1.783  1.00 20.00     0.218 C 
HETATM    2  C2  UNL     1     -33.290  17.121  -1.716  1.00 20.00     0.110 C 
HETATM    3  C5  UNL     1     -34.198  17.174  -2.958  1.00 20.00     0.026 C 
HETATM    4  C7  UNL     1     -34.425  18.692  -3.165  1.00 20.00     0.030 C 
HETATM    5  C8  UNL     1     -35.609  19.178  -2.310  1.00 20.00     0.038 C 
HETATM    6  C9  UNL     1     -34.650  19.121  -4.616  1.00 20.00     0.038 C 
HETATM    7  N10 UNL     1     -33.197  19.263  -2.645  1.00 20.00    -0.352 N 
HETATM    8  O11 UNL     1     -31.497  18.660  -1.155  1.00 20.00    -0.274 OA
HETATM    9  H26 UNL     1     -32.868  20.193  -2.888  1.00 20.00     0.163 HD
ENDROOT
BRANCH   3  10
HETATM   10  C6  UNL     1     -33.525  16.453  -4.130  1.00 20.00    -0.008 A 
HETATM   11  C3  UNL     1     -33.260  14.979  -4.050  1.00 20.00     0.005 A 
HETATM   12  C4  UNL     1     -34.316  15.506  -4.981  1.00 20.00     0.005 A 
ENDBRANCH   3  10
TORSDOF 1
ENDMDL
