MODEL 1
REMARK VINA RESULT:      -4.0      0.000      0.000
REMARK  2 active torsions:
REMARK  status: ('A' for Active; 'I' for Inactive)
REMARK    1  A    between atoms: C4_4  and  C7_7 
REMARK    2  A    between atoms: C7_7  and  C8_8 
ROOT
HETATM    1  C1  UNL     1     -33.473  16.490  -3.309  1.00 20.00     0.218 C 
HETATM    2  C2  UNL     1     -33.421  16.937  -1.867  1.00 20.00     0.113 C 
HETATM    3  C3  UNL     1     -32.966  18.790  -3.327  1.00 20.00     0.132 C 
HETATM    4  C4  UNL     1     -33.557  18.470  -1.951  1.00 20.00    -0.020 C 
HETATM    5  C5  UNL     1     -35.036  18.884  -1.888  1.00 20.00     0.017 C 
HETATM    6  N9  UNL     1     -33.210  17.601  -4.098  1.00 20.00    -0.360 N 
HETATM    7  O10 UNL     1     -33.672  15.346  -3.687  1.00 20.00    -0.274 OA
HETATM    8  H25 UNL     1     -33.193  17.577  -5.112  1.00 20.00     0.162 HD
ENDROOT
BRANCH   4   9
HETATM    9  C7  UNL     1     -32.782  19.164  -0.831  1.00 20.00     0.011 C 
BRANCH   9  10
HETATM   10  C8  UNL     1     -31.461  18.460  -0.569  1.00 20.00    -0.004 C 
HETATM   11  C6  UNL     1     -31.094  18.524   0.906  1.00 20.00     0.005 C 
ENDBRANCH   9  10
ENDBRANCH   4   9
TORSDOF 2
ENDMDL
MODEL 2
REMARK VINA RESULT:      -4.0      2.855      4.217
REMARK  2 active torsions:
REMARK  status: ('A' for Active; 'I' for Inactive)
REMARK    1  A    between atoms: C4_4  and  C7_7 
REMARK    2  A    between atoms: C7_7  and  C8_8 
ROOT
HETATM    1  C1  UNL     1     -31.407  18.804   0.343  1.00 20.00     0.218 C 
HETATM    2  C2  UNL     1     -31.584  18.020  -0.935  1.00 20.00     0.113 C 
HETATM    3  C3  UNL     1     -33.673  18.168   0.244  1.00 20.00     0.132 C 
HETATM    4  C4  UNL     1     -33.107  18.043  -1.173  1.00 20.00    -0.020 C 
HETATM    5  C5  UNL     1     -33.501  19.262  -2.024  1.00 20.00     0.017 C 
HETATM    6  N9  UNL     1     -32.643  18.860   0.971  1.00 20.00    -0.360 N 
HETATM    7  O10 UNL     1     -30.350  19.263   0.749  1.00 20.00    -0.274 OA
HETATM    8  H25 UNL     1     -32.804  19.340   1.851  1.00 20.00     0.162 HD
ENDROOT
BRANCH   4   9
HETATM    9  C7  UNL     1     -33.587  16.763  -1.859  1.00 20.00     0.011 C 
BRANCH   9  10
HETATM   10  C8  UNL     1     -33.313  16.815  -3.354  1.00 20.00    -0.004 C 
HETATM   11  C6  UNL     1     -33.162  15.414  -3.926  1.00 20.00     0.005 C 
ENDBRANCH   9  10
ENDBRANCH   4   9
TORSDOF 2
ENDMDL
MODEL 3
REMARK VINA RESULT:      -3.7     12.367     13.128
REMARK  2 active torsions:
REMARK  status: ('A' for Active; 'I' for Inactive)
REMARK    1  A    between atoms: C4_4  and  C7_7 
REMARK    2  A    between atoms: C7_7  and  C8_8 
ROOT
HETATM    1  C1  UNL     1     -41.530  14.501   8.141  1.00 20.00     0.218 C 
HETATM    2  C2  UNL     1     -40.435  13.902   7.291  1.00 20.00     0.113 C 
HETATM    3  C3  UNL     1     -42.456  12.622   7.064  1.00 20.00     0.132 C 
HETATM    4  C4  UNL     1     -41.192  13.009   6.289  1.00 20.00    -0.020 C 
HETATM    5  C5  UNL     1     -41.555  13.806   5.025  1.00 20.00     0.017 C 
HETATM    6  N9  UNL     1     -42.667  13.725   7.962  1.00 20.00    -0.360 N 
HETATM    7  O10 UNL     1     -41.405  15.469   8.876  1.00 20.00    -0.274 OA
HETATM    8  H25 UNL     1     -43.554  13.917   8.415  1.00 20.00     0.162 HD
ENDROOT
BRANCH   4   9
HETATM    9  C7  UNL     1     -40.372  11.779   5.901  1.00 20.00     0.011 C 
BRANCH   9  10
HETATM   10  C8  UNL     1     -39.029  12.187   5.317  1.00 20.00    -0.004 C 
HETATM   11  C6  UNL     1     -38.859  11.635   3.910  1.00 20.00     0.005 C 
ENDBRANCH   9  10
ENDBRANCH   4   9
TORSDOF 2
ENDMDL
MODEL 4
REMARK VINA RESULT:      -3.7     11.864     12.640
REMARK  2 active torsions:
REMARK  status: ('A' for Active; 'I' for Inactive)
REMARK    1  A    between atoms: C4_4  and  C7_7 
REMARK    2  A    between atoms: C7_7  and  C8_8 
ROOT
HETATM    1  C1  UNL     1     -41.949  15.212   5.877  1.00 20.00     0.218 C 
HETATM    2  C2  UNL     1     -41.770  13.858   5.233  1.00 20.00     0.113 C 
HETATM    3  C3  UNL     1     -40.739  13.889   7.404  1.00 20.00     0.132 C 
HETATM    4  C4  UNL     1     -41.412  12.934   6.414  1.00 20.00    -0.020 C 
HETATM    5  C5  UNL     1     -42.684  12.326   7.028  1.00 20.00     0.017 C 
HETATM    6  N9  UNL     1     -41.341  15.164   7.124  1.00 20.00    -0.360 N 
HETATM    7  O10 UNL     1     -42.498  16.173   5.359  1.00 20.00    -0.274 OA
HETATM    8  H25 UNL     1     -41.325  15.946   7.770  1.00 20.00     0.162 HD
ENDROOT
BRANCH   4   9
HETATM    9  C7  UNL     1     -40.466  11.813   5.982  1.00 20.00     0.011 C 
BRANCH   9  10
HETATM   10  C8  UNL     1     -39.204  12.381   5.354  1.00 20.00    -0.004 C 
HETATM   11  C6  UNL     1     -38.876  11.666   4.053  1.00 20.00     0.005 C 
ENDBRANCH   9  10
ENDBRANCH   4   9
TORSDOF 2
ENDMDL
MODEL 5
REMARK VINA RESULT:      -3.7      3.087      4.599
REMARK  2 active torsions:
REMARK  status: ('A' for Active; 'I' for Inactive)
REMARK    1  A    between atoms: C4_4  and  C7_7 
REMARK    2  A    between atoms: C7_7  and  C8_8 
ROOT
HETATM    1  C1  UNL     1     -36.739  15.588  -5.367  1.00 20.00     0.218 C 
HETATM    2  C2  UNL     1     -35.489  16.390  -5.092  1.00 20.00     0.113 C 
HETATM    3  C3  UNL     1     -35.147  14.087  -4.495  1.00 20.00     0.132 C 
HETATM    4  C4  UNL     1     -34.383  15.321  -4.983  1.00 20.00    -0.020 C 
HETATM    5  C5  UNL     1     -33.751  15.057  -6.360  1.00 20.00     0.017 C 
HETATM    6  N9  UNL     1     -36.477  14.273  -5.010  1.00 20.00    -0.360 N 
HETATM    7  O10 UNL     1     -37.791  16.043  -5.789  1.00 20.00    -0.274 OA
HETATM    8  H25 UNL     1     -37.152  13.521  -5.103  1.00 20.00     0.162 HD
ENDROOT
BRANCH   4   9
HETATM    9  C7  UNL     1     -33.296  15.738  -3.993  1.00 20.00     0.011 C 
BRANCH   9  10
HETATM   10  C8  UNL     1     -33.629  17.077  -3.354  1.00 20.00    -0.004 C 
HETATM   11  C6  UNL     1     -33.506  17.002  -1.840  1.00 20.00     0.005 C 
ENDBRANCH   9  10
ENDBRANCH   4   9
TORSDOF 2
ENDMDL
MODEL 6
REMARK VINA RESULT:      -3.6      3.391      4.681
REMARK  2 active torsions:
REMARK  status: ('A' for Active; 'I' for Inactive)
REMARK    1  A    between atoms: C4_4  and  C7_7 
REMARK    2  A    between atoms: C7_7  and  C8_8 
ROOT
HETATM    1  C1  UNL     1     -35.302  13.876  -4.610  1.00 20.00     0.218 C 
HETATM    2  C2  UNL     1     -35.751  15.146  -5.294  1.00 20.00     0.113 C 
HETATM    3  C3  UNL     1     -33.437  15.314  -4.665  1.00 20.00     0.132 C 
HETATM    4  C4  UNL     1     -34.432  15.825  -5.712  1.00 20.00    -0.020 C 
HETATM    5  C5  UNL     1     -34.015  15.371  -7.121  1.00 20.00     0.017 C 
HETATM    6  N9  UNL     1     -33.963  14.032  -4.280  1.00 20.00    -0.360 N 
HETATM    7  O10 UNL     1     -36.016  12.915  -4.368  1.00 20.00    -0.274 OA
HETATM    8  H25 UNL     1     -33.413  13.317  -3.816  1.00 20.00     0.162 HD
ENDROOT
BRANCH   4   9
HETATM    9  C7  UNL     1     -34.550  17.349  -5.679  1.00 20.00     0.011 C 
BRANCH   9  10
HETATM   10  C8  UNL     1     -34.233  17.887  -4.293  1.00 20.00    -0.004 C 
HETATM   11  C6  UNL     1     -33.292  19.079  -4.376  1.00 20.00     0.005 C 
ENDBRANCH   9  10
ENDBRANCH   4   9
TORSDOF 2
ENDMDL
MODEL 7
REMARK VINA RESULT:      -3.6      2.901      3.797
REMARK  2 active torsions:
REMARK  status: ('A' for Active; 'I' for Inactive)
REMARK    1  A    between atoms: C4_4  and  C7_7 
REMARK    2  A    between atoms: C7_7  and  C8_8 
ROOT
HETATM    1  C1  UNL     1     -35.476  15.313  -6.542  1.00 20.00     0.218 C 
HETATM    2  C2  UNL     1     -34.959  15.552  -5.142  1.00 20.00     0.113 C 
HETATM    3  C3  UNL     1     -34.603  17.500  -6.503  1.00 20.00     0.132 C 
HETATM    4  C4  UNL     1     -34.846  17.086  -5.049  1.00 20.00    -0.020 C 
HETATM    5  C5  UNL     1     -36.158  17.692  -4.524  1.00 20.00     0.017 C 
HETATM    6  N9  UNL     1     -35.249  16.471  -7.272  1.00 20.00    -0.360 N 
HETATM    7  O10 UNL     1     -35.965  14.269  -6.945  1.00 20.00    -0.274 OA
HETATM    8  H25 UNL     1     -35.511  16.580  -8.246  1.00 20.00     0.162 HD
ENDROOT
BRANCH   4   9
HETATM    9  C7  UNL     1     -33.689  17.508  -4.143  1.00 20.00     0.011 C 
BRANCH   9  10
HETATM   10  C8  UNL     1     -33.432  16.464  -3.069  1.00 20.00    -0.004 C 
HETATM   11  C6  UNL     1     -33.565  17.069  -1.680  1.00 20.00     0.005 C 
ENDBRANCH   9  10
ENDBRANCH   4   9
TORSDOF 2
ENDMDL
MODEL 8
REMARK VINA RESULT:      -3.6      2.430      3.922
REMARK  2 active torsions:
REMARK  status: ('A' for Active; 'I' for Inactive)
REMARK    1  A    between atoms: C4_4  and  C7_7 
REMARK    2  A    between atoms: C7_7  and  C8_8 
ROOT
HETATM    1  C1  UNL     1     -33.716  18.163  -0.563  1.00 20.00     0.218 C 
HETATM    2  C2  UNL     1     -33.138  17.351  -1.698  1.00 20.00     0.113 C 
HETATM    3  C3  UNL     1     -35.064  18.575  -2.450  1.00 20.00     0.132 C 
HETATM    4  C4  UNL     1     -33.739  18.001  -2.960  1.00 20.00    -0.020 C 
HETATM    5  C5  UNL     1     -32.825  19.125  -3.475  1.00 20.00     0.017 C 
HETATM    6  N9  UNL     1     -34.815  18.849  -1.061  1.00 20.00    -0.360 N 
HETATM    7  O10 UNL     1     -33.299  18.169   0.585  1.00 20.00    -0.274 OA
HETATM    8  H25 UNL     1     -35.383  19.478  -0.503  1.00 20.00     0.162 HD
ENDROOT
BRANCH   4   9
HETATM    9  C7  UNL     1     -33.961  16.973  -4.069  1.00 20.00     0.011 C 
BRANCH   9  10
HETATM   10  C8  UNL     1     -33.257  15.665  -3.745  1.00 20.00    -0.004 C 
HETATM   11  C6  UNL     1     -34.070  14.476  -4.232  1.00 20.00     0.005 C 
ENDBRANCH   9  10
ENDBRANCH   4   9
TORSDOF 2
ENDMDL
MODEL 9
REMARK VINA RESULT:      -3.5     12.234     13.043
REMARK  2 active torsions:
REMARK  status: ('A' for Active; 'I' for Inactive)
REMARK    1  A    between atoms: C4_4  and  C7_7 
REMARK    2  A    between atoms: C7_7  and  C8_8 
ROOT
HETATM    1  C1  UNL     1     -42.031  15.654   7.489  1.00 20.00     0.218 C 
HETATM    2  C2  UNL     1     -42.172  14.947   6.162  1.00 20.00     0.113 C 
HETATM    3  C3  UNL     1     -40.447  13.910   7.476  1.00 20.00     0.132 C 
HETATM    4  C4  UNL     1     -41.481  13.588   6.393  1.00 20.00    -0.020 C 
HETATM    5  C5  UNL     1     -42.494  12.549   6.903  1.00 20.00     0.017 C 
HETATM    6  N9  UNL     1     -41.030  15.007   8.200  1.00 20.00    -0.360 N 
HETATM    7  O10 UNL     1     -42.666  16.638   7.835  1.00 20.00    -0.274 OA
HETATM    8  H25 UNL     1     -40.740  15.279   9.134  1.00 20.00     0.162 HD
ENDROOT
BRANCH   4   9
HETATM    9  C7  UNL     1     -40.817  13.072   5.117  1.00 20.00     0.011 C 
BRANCH   9  10
HETATM   10  C8  UNL     1     -39.793  11.995   5.437  1.00 20.00    -0.004 C 
HETATM   11  C6  UNL     1     -38.996  11.618   4.198  1.00 20.00     0.005 C 
ENDBRANCH   9  10
ENDBRANCH   4   9
TORSDOF 2
ENDMDL
