MODEL 1
REMARK VINA RESULT:      -4.2      0.000      0.000
REMARK  1 active torsions:
REMARK  status: ('A' for Active; 'I' for Inactive)
REMARK    1  A    between atoms: C3_3  and  C8_8 
ROOT
HETATM    1  C1  UNL     1     -33.021   5.903   3.171  1.00 20.00     0.218 C 
HETATM    2  C2  UNL     1     -34.361   6.236   3.780  1.00 20.00     0.109 C 
HETATM    3  C3  UNL     1     -34.054   7.423   4.713  1.00 20.00     0.021 C 
HETATM    4  C4  UNL     1     -32.851   8.113   4.022  1.00 20.00     0.029 C 
HETATM    5  C5  UNL     1     -31.886   8.831   4.967  1.00 20.00     0.038 C 
HETATM    6  C6  UNL     1     -33.346   9.110   2.959  1.00 20.00     0.038 C 
HETATM    7  N9  UNL     1     -32.192   7.002   3.362  1.00 20.00    -0.352 N 
HETATM    8  O10 UNL     1     -32.749   4.865   2.589  1.00 20.00    -0.274 OA
HETATM    9  H25 UNL     1     -31.220   7.024   3.068  1.00 20.00     0.163 HD
ENDROOT
BRANCH   3  10
HETATM   10  C8  UNL     1     -33.782   6.914   6.132  1.00 20.00     0.003 C 
HETATM   11  C7  UNL     1     -34.525   5.650   6.422  1.00 20.00     0.005 C 
ENDBRANCH   3  10
TORSDOF 1
ENDMDL
MODEL 2
REMARK VINA RESULT:      -3.7     11.933     13.195
REMARK  1 active torsions:
REMARK  status: ('A' for Active; 'I' for Inactive)
REMARK    1  A    between atoms: C3_3  and  C8_8 
ROOT
HETATM    1  C1  UNL     1     -35.750  17.413  -4.771  1.00 20.00     0.218 C 
HETATM    2  C2  UNL     1     -34.310  17.819  -4.579  1.00 20.00     0.109 C 
HETATM    3  C3  UNL     1     -33.609  16.505  -4.182  1.00 20.00     0.021 C 
HETATM    4  C4  UNL     1     -34.460  15.423  -4.892  1.00 20.00     0.029 C 
HETATM    5  C5  UNL     1     -34.505  14.067  -4.185  1.00 20.00     0.038 C 
HETATM    6  C6  UNL     1     -33.969  15.218  -6.336  1.00 20.00     0.038 C 
HETATM    7  N9  UNL     1     -35.777  16.032  -4.919  1.00 20.00    -0.352 N 
HETATM    8  O10 UNL     1     -36.699  18.180  -4.822  1.00 20.00    -0.274 OA
HETATM    9  H25 UNL     1     -36.635  15.501  -5.034  1.00 20.00     0.163 HD
ENDROOT
BRANCH   3  10
HETATM   10  C8  UNL     1     -33.550  16.386  -2.656  1.00 20.00     0.003 C 
HETATM   11  C7  UNL     1     -32.970  17.611  -2.024  1.00 20.00     0.005 C 
ENDBRANCH   3  10
TORSDOF 1
ENDMDL
MODEL 3
REMARK VINA RESULT:      -3.7     12.291     13.620
REMARK  1 active torsions:
REMARK  status: ('A' for Active; 'I' for Inactive)
REMARK    1  A    between atoms: C3_3  and  C8_8 
ROOT
HETATM    1  C1  UNL     1     -34.024  15.567  -6.747  1.00 20.00     0.218 C 
HETATM    2  C2  UNL     1     -34.557  15.037  -5.439  1.00 20.00     0.109 C 
HETATM    3  C3  UNL     1     -34.539  16.267  -4.511  1.00 20.00     0.021 C 
HETATM    4  C4  UNL     1     -34.740  17.451  -5.491  1.00 20.00     0.029 C 
HETATM    5  C5  UNL     1     -34.089  18.766  -5.059  1.00 20.00     0.038 C 
HETATM    6  C6  UNL     1     -36.239  17.692  -5.739  1.00 20.00     0.038 C 
HETATM    7  N9  UNL     1     -34.130  16.952  -6.709  1.00 20.00    -0.352 N 
HETATM    8  O10 UNL     1     -33.614  14.882  -7.671  1.00 20.00    -0.274 OA
HETATM    9  H25 UNL     1     -33.811  17.556  -7.461  1.00 20.00     0.163 HD
ENDROOT
BRANCH   3  10
HETATM   10  C8  UNL     1     -33.232  16.300  -3.713  1.00 20.00     0.003 C 
HETATM   11  C7  UNL     1     -33.466  16.636  -2.275  1.00 20.00     0.005 C 
ENDBRANCH   3  10
TORSDOF 1
ENDMDL
MODEL 4
REMARK VINA RESULT:      -3.6     11.826     13.085
REMARK  1 active torsions:
REMARK  status: ('A' for Active; 'I' for Inactive)
REMARK    1  A    between atoms: C3_3  and  C8_8 
ROOT
HETATM    1  C1  UNL     1     -33.172  15.880  -3.901  1.00 20.00     0.218 C 
HETATM    2  C2  UNL     1     -33.613  16.359  -2.539  1.00 20.00     0.109 C 
HETATM    3  C3  UNL     1     -33.871  17.863  -2.746  1.00 20.00     0.021 C 
HETATM    4  C4  UNL     1     -34.291  17.948  -4.235  1.00 20.00     0.029 C 
HETATM    5  C5  UNL     1     -33.937  19.262  -4.934  1.00 20.00     0.038 C 
HETATM    6  C6  UNL     1     -35.802  17.695  -4.380  1.00 20.00     0.038 C 
HETATM    7  N9  UNL     1     -33.564  16.840  -4.826  1.00 20.00    -0.352 N 
HETATM    8  O10 UNL     1     -32.609  14.821  -4.128  1.00 20.00    -0.274 OA
HETATM    9  H25 UNL     1     -33.360  16.772  -5.819  1.00 20.00     0.163 HD
ENDROOT
BRANCH   3  10
HETATM   10  C8  UNL     1     -32.617  18.663  -2.380  1.00 20.00     0.003 C 
HETATM   11  C7  UNL     1     -32.121  18.324  -1.010  1.00 20.00     0.005 C 
ENDBRANCH   3  10
TORSDOF 1
ENDMDL
MODEL 5
REMARK VINA RESULT:      -3.6     11.494     12.595
REMARK  1 active torsions:
REMARK  status: ('A' for Active; 'I' for Inactive)
REMARK    1  A    between atoms: C3_3  and  C8_8 
ROOT
HETATM    1  C1  UNL     1     -35.402  14.035  -4.596  1.00 20.00     0.218 C 
HETATM    2  C2  UNL     1     -35.109  14.871  -5.818  1.00 20.00     0.109 C 
HETATM    3  C3  UNL     1     -34.314  16.067  -5.259  1.00 20.00     0.021 C 
HETATM    4  C4  UNL     1     -33.599  15.468  -4.022  1.00 20.00     0.029 C 
HETATM    5  C5  UNL     1     -33.331  16.458  -2.887  1.00 20.00     0.038 C 
HETATM    6  C6  UNL     1     -32.271  14.812  -4.438  1.00 20.00     0.038 C 
HETATM    7  N9  UNL     1     -34.526  14.437  -3.596  1.00 20.00    -0.352 N 
HETATM    8  O10 UNL     1     -36.237  13.145  -4.534  1.00 20.00    -0.274 OA
HETATM    9  H25 UNL     1     -34.535  14.048  -2.658  1.00 20.00     0.163 HD
ENDROOT
BRANCH   3  10
HETATM   10  C8  UNL     1     -35.263  17.231  -4.960  1.00 20.00     0.003 C 
HETATM   11  C7  UNL     1     -34.842  18.486  -5.656  1.00 20.00     0.005 C 
ENDBRANCH   3  10
TORSDOF 1
ENDMDL
MODEL 6
REMARK VINA RESULT:      -3.5     11.930     13.008
REMARK  1 active torsions:
REMARK  status: ('A' for Active; 'I' for Inactive)
REMARK    1  A    between atoms: C3_3  and  C8_8 
ROOT
HETATM    1  C1  UNL     1     -34.047  17.891  -1.330  1.00 20.00     0.218 C 
HETATM    2  C2  UNL     1     -32.837  17.290  -2.002  1.00 20.00     0.109 C 
HETATM    3  C3  UNL     1     -33.345  16.925  -3.410  1.00 20.00     0.021 C 
HETATM    4  C4  UNL     1     -34.457  17.973  -3.667  1.00 20.00     0.029 C 
HETATM    5  C5  UNL     1     -35.593  17.503  -4.577  1.00 20.00     0.038 C 
HETATM    6  C6  UNL     1     -33.851  19.263  -4.248  1.00 20.00     0.038 C 
HETATM    7  N9  UNL     1     -34.948  18.239  -2.328  1.00 20.00    -0.352 N 
HETATM    8  O10 UNL     1     -34.172  18.065  -0.127  1.00 20.00    -0.274 OA
HETATM    9  H25 UNL     1     -35.862  18.640  -2.138  1.00 20.00     0.163 HD
ENDROOT
BRANCH   3  10
HETATM   10  C8  UNL     1     -33.811  15.466  -3.435  1.00 20.00     0.003 C 
HETATM   11  C7  UNL     1     -33.156  14.690  -4.532  1.00 20.00     0.005 C 
ENDBRANCH   3  10
TORSDOF 1
ENDMDL
MODEL 7
REMARK VINA RESULT:      -3.5      9.164     10.330
REMARK  1 active torsions:
REMARK  status: ('A' for Active; 'I' for Inactive)
REMARK    1  A    between atoms: C3_3  and  C8_8 
ROOT
HETATM    1  C1  UNL     1     -41.308   7.817   0.174  1.00 20.00     0.218 C 
HETATM    2  C2  UNL     1     -42.571   7.570  -0.614  1.00 20.00     0.109 C 
HETATM    3  C3  UNL     1     -42.959   6.127  -0.239  1.00 20.00     0.021 C 
HETATM    4  C4  UNL     1     -42.398   5.972   1.197  1.00 20.00     0.029 C 
HETATM    5  C5  UNL     1     -41.978   4.551   1.579  1.00 20.00     0.038 C 
HETATM    6  C6  UNL     1     -43.417   6.487   2.229  1.00 20.00     0.038 C 
HETATM    7  N9  UNL     1     -41.250   6.859   1.179  1.00 20.00    -0.352 N 
HETATM    8  O10 UNL     1     -40.516   8.724  -0.029  1.00 20.00    -0.274 OA
HETATM    9  H25 UNL     1     -40.478   6.787   1.835  1.00 20.00     0.163 HD
ENDROOT
BRANCH   3  10
HETATM   10  C8  UNL     1     -42.387   5.148  -1.268  1.00 20.00     0.003 C 
HETATM   11  C7  UNL     1     -43.395   4.126  -1.685  1.00 20.00     0.005 C 
ENDBRANCH   3  10
TORSDOF 1
ENDMDL
MODEL 8
REMARK VINA RESULT:      -3.5     10.646     11.323
REMARK  1 active torsions:
REMARK  status: ('A' for Active; 'I' for Inactive)
REMARK    1  A    between atoms: C3_3  and  C8_8 
ROOT
HETATM    1  C1  UNL     1     -40.681  14.406   8.329  1.00 20.00     0.218 C 
HETATM    2  C2  UNL     1     -40.272  14.501   6.880  1.00 20.00     0.109 C 
HETATM    3  C3  UNL     1     -41.178  13.471   6.177  1.00 20.00     0.021 C 
HETATM    4  C4  UNL     1     -42.451  13.460   7.060  1.00 20.00     0.029 C 
HETATM    5  C5  UNL     1     -43.205  12.129   7.092  1.00 20.00     0.038 C 
HETATM    6  C6  UNL     1     -43.417  14.573   6.621  1.00 20.00     0.038 C 
HETATM    7  N9  UNL     1     -41.920  13.780   8.372  1.00 20.00    -0.352 N 
HETATM    8  O10 UNL     1     -40.040  14.841   9.273  1.00 20.00    -0.274 OA
HETATM    9  H25 UNL     1     -42.407  13.568   9.238  1.00 20.00     0.163 HD
ENDROOT
BRANCH   3  10
HETATM   10  C8  UNL     1     -40.453  12.127   6.066  1.00 20.00     0.003 C 
HETATM   11  C7  UNL     1     -39.581  12.063   4.852  1.00 20.00     0.005 C 
ENDBRANCH   3  10
TORSDOF 1
ENDMDL
MODEL 9
REMARK VINA RESULT:      -3.4     11.998     13.213
REMARK  1 active torsions:
REMARK  status: ('A' for Active; 'I' for Inactive)
REMARK    1  A    between atoms: C3_3  and  C8_8 
ROOT
HETATM    1  C1  UNL     1     -32.900  14.988  -4.512  1.00 20.00     0.218 C 
HETATM    2  C2  UNL     1     -33.792  15.891  -3.696  1.00 20.00     0.109 C 
HETATM    3  C3  UNL     1     -34.738  16.512  -4.740  1.00 20.00     0.021 C 
HETATM    4  C4  UNL     1     -34.827  15.416  -5.832  1.00 20.00     0.029 C 
HETATM    5  C5  UNL     1     -35.066  15.934  -7.252  1.00 20.00     0.038 C 
HETATM    6  C6  UNL     1     -35.926  14.398  -5.479  1.00 20.00     0.038 C 
HETATM    7  N9  UNL     1     -33.531  14.771  -5.731  1.00 20.00    -0.352 N 
HETATM    8  O10 UNL     1     -31.840  14.514  -4.135  1.00 20.00    -0.274 OA
HETATM    9  H25 UNL     1     -33.124  14.217  -6.478  1.00 20.00     0.163 HD
ENDROOT
BRANCH   3  10
HETATM   10  C8  UNL     1     -34.181  17.857  -5.216  1.00 20.00     0.003 C 
HETATM   11  C7  UNL     1     -33.491  18.595  -4.113  1.00 20.00     0.005 C 
ENDBRANCH   3  10
TORSDOF 1
ENDMDL
