MODEL 1
REMARK VINA RESULT:      -4.1      0.000      0.000
REMARK  1 active torsions:
REMARK  status: ('A' for Active; 'I' for Inactive)
REMARK    1  A    between atoms: C4_4  and  C8_8 
ROOT
HETATM    1  C1  UNL     1     -32.735   8.075   4.307  1.00 20.00     0.218 C 
HETATM    2  C2  UNL     1     -33.616   7.345   5.294  1.00 20.00     0.114 C 
HETATM    3  C3  UNL     1     -32.898   5.843   3.562  1.00 20.00     0.088 C 
HETATM    4  C4  UNL     1     -34.090   6.100   4.510  1.00 20.00    -0.016 C 
HETATM    5  C5  UNL     1     -33.201   5.099   2.272  1.00 20.00     0.033 C 
HETATM    6  C6  UNL     1     -35.403   6.422   3.772  1.00 20.00     0.018 C 
HETATM    7  N9  UNL     1     -32.380   7.168   3.318  1.00 20.00    -0.356 N 
HETATM    8  O10 UNL     1     -32.381   9.240   4.405  1.00 20.00    -0.274 OA
HETATM    9  H25 UNL     1     -31.815   7.410   2.509  1.00 20.00     0.162 HD
ENDROOT
BRANCH   4  10
HETATM   10  C8  UNL     1     -34.323   4.915   5.452  1.00 20.00     0.007 C 
HETATM   11  C7  UNL     1     -34.713   5.370   6.819  1.00 20.00     0.006 C 
ENDBRANCH   4  10
TORSDOF 1
ENDMDL
MODEL 2
REMARK VINA RESULT:      -4.0     12.393     13.688
REMARK  1 active torsions:
REMARK  status: ('A' for Active; 'I' for Inactive)
REMARK    1  A    between atoms: C4_4  and  C8_8 
ROOT
HETATM    1  C1  UNL     1     -35.355  13.971  -4.615  1.00 20.00     0.218 C 
HETATM    2  C2  UNL     1     -35.581  14.723  -5.906  1.00 20.00     0.114 C 
HETATM    3  C3  UNL     1     -33.902  15.829  -4.590  1.00 20.00     0.088 C 
HETATM    4  C4  UNL     1     -35.021  16.133  -5.610  1.00 20.00    -0.016 C 
HETATM    5  C5  UNL     1     -33.518  16.954  -3.643  1.00 20.00     0.033 C 
HETATM    6  C6  UNL     1     -36.142  17.026  -5.044  1.00 20.00     0.018 C 
HETATM    7  N9  UNL     1     -34.403  14.672  -3.887  1.00 20.00    -0.356 N 
HETATM    8  O10 UNL     1     -35.894  12.919  -4.308  1.00 20.00    -0.274 OA
HETATM    9  H25 UNL     1     -34.092  14.400  -2.959  1.00 20.00     0.162 HD
ENDROOT
BRANCH   4  10
HETATM   10  C8  UNL     1     -34.461  16.778  -6.882  1.00 20.00     0.007 C 
HETATM   11  C7  UNL     1     -34.034  15.750  -7.875  1.00 20.00     0.006 C 
ENDBRANCH   4  10
TORSDOF 1
ENDMDL
MODEL 3
REMARK VINA RESULT:      -3.7      9.706     10.836
REMARK  1 active torsions:
REMARK  status: ('A' for Active; 'I' for Inactive)
REMARK    1  A    between atoms: C4_4  and  C8_8 
ROOT
HETATM    1  C1  UNL     1     -39.528  12.682   5.983  1.00 20.00     0.218 C 
HETATM    2  C2  UNL     1     -40.778  12.904   5.165  1.00 20.00     0.114 C 
HETATM    3  C3  UNL     1     -40.858  14.227   7.169  1.00 20.00     0.088 C 
HETATM    4  C4  UNL     1     -41.786  13.480   6.186  1.00 20.00    -0.016 C 
HETATM    5  C5  UNL     1     -41.379  14.422   8.583  1.00 20.00     0.033 C 
HETATM    6  C6  UNL     1     -42.574  12.329   6.840  1.00 20.00     0.018 C 
HETATM    7  N9  UNL     1     -39.646  13.443   7.139  1.00 20.00    -0.356 N 
HETATM    8  O10 UNL     1     -38.581  11.985   5.650  1.00 20.00    -0.274 OA
HETATM    9  H25 UNL     1     -38.954  13.449   7.882  1.00 20.00     0.162 HD
ENDROOT
BRANCH   4  10
HETATM   10  C8  UNL     1     -42.769  14.437   5.506  1.00 20.00     0.007 C 
HETATM   11  C7  UNL     1     -42.439  14.627   4.063  1.00 20.00     0.006 C 
ENDBRANCH   4  10
TORSDOF 1
ENDMDL
MODEL 4
REMARK VINA RESULT:      -3.6     10.045     10.907
REMARK  1 active torsions:
REMARK  status: ('A' for Active; 'I' for Inactive)
REMARK    1  A    between atoms: C4_4  and  C8_8 
ROOT
HETATM    1  C1  UNL     1     -41.912  14.147   4.412  1.00 20.00     0.218 C 
HETATM    2  C2  UNL     1     -42.269  14.576   5.816  1.00 20.00     0.114 C 
HETATM    3  C3  UNL     1     -40.333  13.154   5.856  1.00 20.00     0.088 C 
HETATM    4  C4  UNL     1     -41.565  13.528   6.709  1.00 20.00    -0.016 C 
HETATM    5  C5  UNL     1     -39.728  11.781   6.099  1.00 20.00     0.033 C 
HETATM    6  C6  UNL     1     -42.517  12.345   6.966  1.00 20.00     0.018 C 
HETATM    7  N9  UNL     1     -40.811  13.305   4.502  1.00 20.00    -0.356 N 
HETATM    8  O10 UNL     1     -42.478  14.518   3.396  1.00 20.00    -0.274 OA
HETATM    9  H25 UNL     1     -40.387  12.846   3.702  1.00 20.00     0.162 HD
ENDROOT
BRANCH   4  10
HETATM   10  C8  UNL     1     -41.152  14.140   8.051  1.00 20.00     0.007 C 
HETATM   11  C7  UNL     1     -40.384  15.406   7.863  1.00 20.00     0.006 C 
ENDBRANCH   4  10
TORSDOF 1
ENDMDL
MODEL 5
REMARK VINA RESULT:      -3.5     12.424     13.621
REMARK  1 active torsions:
REMARK  status: ('A' for Active; 'I' for Inactive)
REMARK    1  A    between atoms: C4_4  and  C8_8 
ROOT
HETATM    1  C1  UNL     1     -35.692  13.945  -4.633  1.00 20.00     0.218 C 
HETATM    2  C2  UNL     1     -34.455  14.808  -4.541  1.00 20.00     0.114 C 
HETATM    3  C3  UNL     1     -36.312  16.109  -5.336  1.00 20.00     0.088 C 
HETATM    4  C4  UNL     1     -34.776  16.006  -5.464  1.00 20.00    -0.016 C 
HETATM    5  C5  UNL     1     -37.051  16.755  -6.497  1.00 20.00     0.033 C 
HETATM    6  C6  UNL     1     -34.298  15.699  -6.896  1.00 20.00     0.018 C 
HETATM    7  N9  UNL     1     -36.718  14.740  -5.126  1.00 20.00    -0.356 N 
HETATM    8  O10 UNL     1     -35.762  12.774  -4.292  1.00 20.00    -0.274 OA
HETATM    9  H25 UNL     1     -37.654  14.396  -5.318  1.00 20.00     0.162 HD
ENDROOT
BRANCH   4  10
HETATM   10  C8  UNL     1     -34.086  17.281  -4.968  1.00 20.00     0.007 C 
HETATM   11  C7  UNL     1     -33.491  17.089  -3.613  1.00 20.00     0.006 C 
ENDBRANCH   4  10
TORSDOF 1
ENDMDL
MODEL 6
REMARK VINA RESULT:      -3.5     12.437     13.523
REMARK  1 active torsions:
REMARK  status: ('A' for Active; 'I' for Inactive)
REMARK    1  A    between atoms: C4_4  and  C8_8 
ROOT
HETATM    1  C1  UNL     1     -33.614  15.963  -3.769  1.00 20.00     0.218 C 
HETATM    2  C2  UNL     1     -33.329  16.648  -2.453  1.00 20.00     0.114 C 
HETATM    3  C3  UNL     1     -35.086  17.799  -3.617  1.00 20.00     0.088 C 
HETATM    4  C4  UNL     1     -33.918  18.064  -2.642  1.00 20.00    -0.016 C 
HETATM    5  C5  UNL     1     -35.532  18.968  -4.481  1.00 20.00     0.033 C 
HETATM    6  C6  UNL     1     -32.839  19.002  -3.217  1.00 20.00     0.018 C 
HETATM    7  N9  UNL     1     -34.610  16.689  -4.408  1.00 20.00    -0.356 N 
HETATM    8  O10 UNL     1     -33.080  14.936  -4.161  1.00 20.00    -0.274 OA
HETATM    9  H25 UNL     1     -34.967  16.463  -5.331  1.00 20.00     0.162 HD
ENDROOT
BRANCH   4  10
HETATM   10  C8  UNL     1     -34.418  18.633  -1.310  1.00 20.00     0.007 C 
HETATM   11  C7  UNL     1     -33.777  17.949  -0.149  1.00 20.00     0.006 C 
ENDBRANCH   4  10
TORSDOF 1
ENDMDL
MODEL 7
REMARK VINA RESULT:      -3.5     10.247     11.027
REMARK  1 active torsions:
REMARK  status: ('A' for Active; 'I' for Inactive)
REMARK    1  A    between atoms: C4_4  and  C8_8 
ROOT
HETATM    1  C1  UNL     1     -40.587  15.106   7.491  1.00 20.00     0.218 C 
HETATM    2  C2  UNL     1     -42.055  14.788   7.328  1.00 20.00     0.114 C 
HETATM    3  C3  UNL     1     -40.722  12.955   6.533  1.00 20.00     0.088 C 
HETATM    4  C4  UNL     1     -42.070  13.660   6.272  1.00 20.00    -0.016 C 
HETATM    5  C5  UNL     1     -40.114  12.194   5.367  1.00 20.00     0.033 C 
HETATM    6  C6  UNL     1     -42.180  14.273   4.862  1.00 20.00     0.018 C 
HETATM    7  N9  UNL     1     -39.870  14.028   6.986  1.00 20.00    -0.356 N 
HETATM    8  O10 UNL     1     -40.136  16.116   8.010  1.00 20.00    -0.274 OA
HETATM    9  H25 UNL     1     -38.856  13.998   6.942  1.00 20.00     0.162 HD
ENDROOT
BRANCH   4  10
HETATM   10  C8  UNL     1     -43.253  12.713   6.499  1.00 20.00     0.007 C 
HETATM   11  C7  UNL     1     -43.366  12.312   7.932  1.00 20.00     0.006 C 
ENDBRANCH   4  10
TORSDOF 1
ENDMDL
MODEL 8
REMARK VINA RESULT:      -3.4     10.321     11.191
REMARK  1 active torsions:
REMARK  status: ('A' for Active; 'I' for Inactive)
REMARK    1  A    between atoms: C4_4  and  C8_8 
ROOT
HETATM    1  C1  UNL     1     -41.126  15.380   7.515  1.00 20.00     0.218 C 
HETATM    2  C2  UNL     1     -40.422  14.064   7.277  1.00 20.00     0.114 C 
HETATM    3  C3  UNL     1     -41.857  14.578   5.421  1.00 20.00     0.088 C 
HETATM    4  C4  UNL     1     -41.292  13.373   6.203  1.00 20.00    -0.016 C 
HETATM    5  C5  UNL     1     -43.170  14.359   4.688  1.00 20.00     0.033 C 
HETATM    6  C6  UNL     1     -42.377  12.520   6.887  1.00 20.00     0.018 C 
HETATM    7  N9  UNL     1     -41.962  15.606   6.429  1.00 20.00    -0.356 N 
HETATM    8  O10 UNL     1     -40.947  16.113   8.476  1.00 20.00    -0.274 OA
HETATM    9  H25 UNL     1     -42.579  16.408   6.352  1.00 20.00     0.162 HD
ENDROOT
BRANCH   4  10
HETATM   10  C8  UNL     1     -40.439  12.471   5.305  1.00 20.00     0.007 C 
HETATM   11  C7  UNL     1     -39.248  11.942   6.032  1.00 20.00     0.006 C 
ENDBRANCH   4  10
TORSDOF 1
ENDMDL
MODEL 9
REMARK VINA RESULT:      -3.3     12.424     13.631
REMARK  1 active torsions:
REMARK  status: ('A' for Active; 'I' for Inactive)
REMARK    1  A    between atoms: C4_4  and  C8_8 
ROOT
HETATM    1  C1  UNL     1     -33.807  16.391  -3.386  1.00 20.00     0.218 C 
HETATM    2  C2  UNL     1     -33.427  15.448  -4.505  1.00 20.00     0.114 C 
HETATM    3  C3  UNL     1     -35.345  16.749  -5.138  1.00 20.00     0.088 C 
HETATM    4  C4  UNL     1     -34.712  15.358  -5.359  1.00 20.00    -0.016 C 
HETATM    5  C5  UNL     1     -36.850  16.850  -5.321  1.00 20.00     0.033 C 
HETATM    6  C6  UNL     1     -35.589  14.197  -4.853  1.00 20.00     0.018 C 
HETATM    7  N9  UNL     1     -34.935  17.088  -3.796  1.00 20.00    -0.356 N 
HETATM    8  O10 UNL     1     -33.195  16.524  -2.338  1.00 20.00    -0.274 OA
HETATM    9  H25 UNL     1     -35.420  17.765  -3.215  1.00 20.00     0.162 HD
ENDROOT
BRANCH   4  10
HETATM   10  C8  UNL     1     -34.374  15.123  -6.835  1.00 20.00     0.007 C 
HETATM   11  C7  UNL     1     -34.173  16.411  -7.561  1.00 20.00     0.006 C 
ENDBRANCH   4  10
TORSDOF 1
ENDMDL
