MODEL 1
REMARK VINA RESULT:      -4.0      0.000      0.000
REMARK  1 active torsions:
REMARK  status: ('A' for Active; 'I' for Inactive)
REMARK    1  A    between atoms: C3_3  and  C8_8 
ROOT
HETATM    1  C1  UNL     1     -33.881  15.731  -4.973  1.00 20.00     0.218 C 
HETATM    2  C2  UNL     1     -33.665  15.593  -3.487  1.00 20.00     0.109 C 
HETATM    3  C3  UNL     1     -33.226  17.003  -3.067  1.00 20.00     0.021 C 
HETATM    4  C4  UNL     1     -33.959  17.926  -4.067  1.00 20.00     0.029 C 
HETATM    5  C5  UNL     1     -33.159  19.201  -4.345  1.00 20.00     0.038 C 
HETATM    6  C6  UNL     1     -35.388  18.293  -3.645  1.00 20.00     0.038 C 
HETATM    7  N9  UNL     1     -34.012  17.087  -5.251  1.00 20.00    -0.352 N 
HETATM    8  O10 UNL     1     -33.958  14.804  -5.765  1.00 20.00    -0.274 OA
HETATM    9  H25 UNL     1     -34.135  17.455  -6.190  1.00 20.00     0.163 HD
ENDROOT
BRANCH   3  10
HETATM   10  C8  UNL     1     -33.474  17.274  -1.591  1.00 20.00     0.003 C 
HETATM   11  C7  UNL     1     -32.392  18.113  -0.989  1.00 20.00     0.005 C 
ENDBRANCH   3  10
TORSDOF 1
ENDMDL
MODEL 2
REMARK VINA RESULT:      -3.8     12.526     13.758
REMARK  1 active torsions:
REMARK  status: ('A' for Active; 'I' for Inactive)
REMARK    1  A    between atoms: C3_3  and  C8_8 
ROOT
HETATM    1  C1  UNL     1     -32.923   8.164   4.691  1.00 20.00     0.218 C 
HETATM    2  C2  UNL     1     -32.658   7.137   3.620  1.00 20.00     0.109 C 
HETATM    3  C3  UNL     1     -33.187   5.838   4.245  1.00 20.00     0.021 C 
HETATM    4  C4  UNL     1     -34.341   6.316   5.155  1.00 20.00     0.029 C 
HETATM    5  C5  UNL     1     -34.508   5.406   6.374  1.00 20.00     0.038 C 
HETATM    6  C6  UNL     1     -35.686   6.463   4.431  1.00 20.00     0.038 C 
HETATM    7  N9  UNL     1     -33.870   7.629   5.557  1.00 20.00    -0.352 N 
HETATM    8  O10 UNL     1     -32.413   9.273   4.748  1.00 20.00    -0.274 OA
HETATM    9  H25 UNL     1     -34.201   8.110   6.388  1.00 20.00     0.163 HD
ENDROOT
BRANCH   3  10
HETATM   10  C8  UNL     1     -33.539   4.790   3.199  1.00 20.00     0.003 C 
HETATM   11  C7  UNL     1     -32.842   5.043   1.901  1.00 20.00     0.005 C 
ENDBRANCH   3  10
TORSDOF 1
ENDMDL
MODEL 3
REMARK VINA RESULT:      -3.7      1.869      2.490
REMARK  1 active torsions:
REMARK  status: ('A' for Active; 'I' for Inactive)
REMARK    1  A    between atoms: C3_3  and  C8_8 
ROOT
HETATM    1  C1  UNL     1     -35.336  14.007  -4.626  1.00 20.00     0.218 C 
HETATM    2  C2  UNL     1     -34.358  14.731  -3.736  1.00 20.00     0.109 C 
HETATM    3  C3  UNL     1     -33.844  15.865  -4.635  1.00 20.00     0.021 C 
HETATM    4  C4  UNL     1     -35.046  16.174  -5.555  1.00 20.00     0.029 C 
HETATM    5  C5  UNL     1     -34.590  16.670  -6.929  1.00 20.00     0.038 C 
HETATM    6  C6  UNL     1     -36.052  17.165  -4.955  1.00 20.00     0.038 C 
HETATM    7  N9  UNL     1     -35.672  14.868  -5.665  1.00 20.00    -0.352 N 
HETATM    8  O10 UNL     1     -35.769  12.881  -4.431  1.00 20.00    -0.274 OA
HETATM    9  H25 UNL     1     -36.294  14.610  -6.425  1.00 20.00     0.163 HD
ENDROOT
BRANCH   3  10
HETATM   10  C8  UNL     1     -33.286  17.033  -3.836  1.00 20.00     0.003 C 
HETATM   11  C7  UNL     1     -33.358  16.785  -2.363  1.00 20.00     0.005 C 
ENDBRANCH   3  10
TORSDOF 1
ENDMDL
MODEL 4
REMARK VINA RESULT:      -3.5      2.487      3.418
REMARK  1 active torsions:
REMARK  status: ('A' for Active; 'I' for Inactive)
REMARK    1  A    between atoms: C3_3  and  C8_8 
ROOT
HETATM    1  C1  UNL     1     -35.773  18.803  -2.170  1.00 20.00     0.218 C 
HETATM    2  C2  UNL     1     -34.749  19.080  -1.098  1.00 20.00     0.109 C 
HETATM    3  C3  UNL     1     -33.720  17.959  -1.303  1.00 20.00     0.021 C 
HETATM    4  C4  UNL     1     -33.785  17.679  -2.822  1.00 20.00     0.029 C 
HETATM    5  C5  UNL     1     -33.466  16.215  -3.137  1.00 20.00     0.038 C 
HETATM    6  C6  UNL     1     -32.889  18.597  -3.664  1.00 20.00     0.038 C 
HETATM    7  N9  UNL     1     -35.177  17.974  -3.113  1.00 20.00    -0.352 N 
HETATM    8  O10 UNL     1     -36.905  19.263  -2.202  1.00 20.00    -0.274 OA
HETATM    9  H25 UNL     1     -35.665  17.611  -3.926  1.00 20.00     0.163 HD
ENDROOT
BRANCH   3  10
HETATM   10  C8  UNL     1     -32.352  18.315  -0.740  1.00 20.00     0.003 C 
HETATM   11  C7  UNL     1     -32.401  18.541   0.738  1.00 20.00     0.005 C 
ENDBRANCH   3  10
TORSDOF 1
ENDMDL
MODEL 5
REMARK VINA RESULT:      -3.5     12.258     13.228
REMARK  1 active torsions:
REMARK  status: ('A' for Active; 'I' for Inactive)
REMARK    1  A    between atoms: C3_3  and  C8_8 
ROOT
HETATM    1  C1  UNL     1     -42.429  14.722   4.875  1.00 20.00     0.218 C 
HETATM    2  C2  UNL     1     -41.380  13.693   4.533  1.00 20.00     0.109 C 
HETATM    3  C3  UNL     1     -40.752  13.370   5.896  1.00 20.00     0.021 C 
HETATM    4  C4  UNL     1     -41.918  13.574   6.891  1.00 20.00     0.029 C 
HETATM    5  C5  UNL     1     -41.413  14.038   8.259  1.00 20.00     0.038 C 
HETATM    6  C6  UNL     1     -42.815  12.341   7.061  1.00 20.00     0.038 C 
HETATM    7  N9  UNL     1     -42.675  14.628   6.240  1.00 20.00    -0.352 N 
HETATM    8  O10 UNL     1     -42.975  15.467   4.075  1.00 20.00    -0.274 OA
HETATM    9  H25 UNL     1     -43.321  15.237   6.733  1.00 20.00     0.163 HD
ENDROOT
BRANCH   3  10
HETATM   10  C8  UNL     1     -40.076  12.007   5.917  1.00 20.00     0.003 C 
HETATM   11  C7  UNL     1     -39.319  11.743   4.655  1.00 20.00     0.005 C 
ENDBRANCH   3  10
TORSDOF 1
ENDMDL
MODEL 6
REMARK VINA RESULT:      -3.4      2.633      3.686
REMARK  1 active torsions:
REMARK  status: ('A' for Active; 'I' for Inactive)
REMARK    1  A    between atoms: C3_3  and  C8_8 
ROOT
HETATM    1  C1  UNL     1     -34.142  18.508  -1.157  1.00 20.00     0.218 C 
HETATM    2  C2  UNL     1     -33.379  17.252  -1.495  1.00 20.00     0.109 C 
HETATM    3  C3  UNL     1     -33.986  16.828  -2.840  1.00 20.00     0.021 C 
HETATM    4  C4  UNL     1     -34.393  18.167  -3.494  1.00 20.00     0.029 C 
HETATM    5  C5  UNL     1     -35.615  18.002  -4.401  1.00 20.00     0.038 C 
HETATM    6  C6  UNL     1     -33.260  18.851  -4.272  1.00 20.00     0.038 C 
HETATM    7  N9  UNL     1     -34.725  18.971  -2.331  1.00 20.00    -0.352 N 
HETATM    8  O10 UNL     1     -34.194  19.027  -0.052  1.00 20.00    -0.274 OA
HETATM    9  H25 UNL     1     -35.323  19.790  -2.372  1.00 20.00     0.163 HD
ENDROOT
BRANCH   3  10
HETATM   10  C8  UNL     1     -33.051  15.938  -3.646  1.00 20.00     0.003 C 
HETATM   11  C7  UNL     1     -33.757  14.736  -4.188  1.00 20.00     0.005 C 
ENDBRANCH   3  10
TORSDOF 1
ENDMDL
MODEL 7
REMARK VINA RESULT:      -3.4     11.986     12.856
REMARK  1 active torsions:
REMARK  status: ('A' for Active; 'I' for Inactive)
REMARK    1  A    between atoms: C3_3  and  C8_8 
ROOT
HETATM    1  C1  UNL     1     -40.044  12.507   5.063  1.00 20.00     0.218 C 
HETATM    2  C2  UNL     1     -39.632  12.734   6.496  1.00 20.00     0.109 C 
HETATM    3  C3  UNL     1     -40.412  13.997   6.886  1.00 20.00     0.021 C 
HETATM    4  C4  UNL     1     -41.698  13.909   6.034  1.00 20.00     0.029 C 
HETATM    5  C5  UNL     1     -42.233  15.298   5.677  1.00 20.00     0.038 C 
HETATM    6  C6  UNL     1     -42.815  13.074   6.675  1.00 20.00     0.038 C 
HETATM    7  N9  UNL     1     -41.214  13.226   4.847  1.00 20.00    -0.352 N 
HETATM    8  O10 UNL     1     -39.460  11.790   4.265  1.00 20.00    -0.274 OA
HETATM    9  H25 UNL     1     -41.685  13.269   3.949  1.00 20.00     0.163 HD
ENDROOT
BRANCH   3  10
HETATM   10  C8  UNL     1     -40.605  14.121   8.390  1.00 20.00     0.003 C 
HETATM   11  C7  UNL     1     -40.254  15.487   8.886  1.00 20.00     0.005 C 
ENDBRANCH   3  10
TORSDOF 1
ENDMDL
MODEL 8
REMARK VINA RESULT:      -3.4     13.030     14.057
REMARK  1 active torsions:
REMARK  status: ('A' for Active; 'I' for Inactive)
REMARK    1  A    between atoms: C3_3  and  C8_8 
ROOT
HETATM    1  C1  UNL     1     -40.940  14.615   8.304  1.00 20.00     0.218 C 
HETATM    2  C2  UNL     1     -40.097  14.184   7.130  1.00 20.00     0.109 C 
HETATM    3  C3  UNL     1     -40.854  12.964   6.587  1.00 20.00     0.021 C 
HETATM    4  C4  UNL     1     -42.331  13.274   6.921  1.00 20.00     0.029 C 
HETATM    5  C5  UNL     1     -43.132  11.994   7.171  1.00 20.00     0.038 C 
HETATM    6  C6  UNL     1     -43.043  14.131   5.866  1.00 20.00     0.038 C 
HETATM    7  N9  UNL     1     -42.197  14.042   8.147  1.00 20.00    -0.352 N 
HETATM    8  O10 UNL     1     -40.576  15.362   9.199  1.00 20.00    -0.274 OA
HETATM    9  H25 UNL     1     -42.948  14.149   8.822  1.00 20.00     0.163 HD
ENDROOT
BRANCH   3  10
HETATM   10  C8  UNL     1     -40.536  12.685   5.126  1.00 20.00     0.003 C 
HETATM   11  C7  UNL     1     -39.288  11.876   4.972  1.00 20.00     0.005 C 
ENDBRANCH   3  10
TORSDOF 1
ENDMDL
MODEL 9
REMARK VINA RESULT:      -3.3     12.454     13.513
REMARK  1 active torsions:
REMARK  status: ('A' for Active; 'I' for Inactive)
REMARK    1  A    between atoms: C3_3  and  C8_8 
ROOT
HETATM    1  C1  UNL     1     -32.949   5.287   2.931  1.00 20.00     0.218 C 
HETATM    2  C2  UNL     1     -32.526   6.644   3.435  1.00 20.00     0.109 C 
HETATM    3  C3  UNL     1     -33.806   7.190   4.081  1.00 20.00     0.021 C 
HETATM    4  C4  UNL     1     -34.528   5.921   4.589  1.00 20.00     0.029 C 
HETATM    5  C5  UNL     1     -36.048   6.095   4.573  1.00 20.00     0.038 C 
HETATM    6  C6  UNL     1     -34.074   5.461   5.981  1.00 20.00     0.038 C 
HETATM    7  N9  UNL     1     -34.114   4.938   3.604  1.00 20.00    -0.352 N 
HETATM    8  O10 UNL     1     -32.343   4.619   2.107  1.00 20.00    -0.274 OA
HETATM    9  H25 UNL     1     -34.626   4.079   3.425  1.00 20.00     0.163 HD
ENDROOT
BRANCH   3  10
HETATM   10  C8  UNL     1     -33.522   8.267   5.118  1.00 20.00     0.003 C 
HETATM   11  C7  UNL     1     -32.219   8.955   4.863  1.00 20.00     0.005 C 
ENDBRANCH   3  10
TORSDOF 1
ENDMDL
