MODEL 1
REMARK VINA RESULT:      -3.6      0.000      0.000
REMARK  4 active torsions:
REMARK  status: ('A' for Active; 'I' for Inactive)
REMARK    1  A    between atoms: C5_5  and  C6_6 
REMARK    2  A    between atoms: C6_6  and  S10_10 
REMARK    3  A    between atoms: C7_7  and  C8_8 
REMARK    4  A    between atoms: C7_7  and  S10_10 
ROOT
HETATM    1  C1  UNL     1     -34.043   7.122   5.725  1.00 20.00     0.074 C 
HETATM    2  C7  UNL     1     -33.811   7.103   4.270  1.00 20.00     0.157 C 
HETATM    3  N9  UNL     1     -34.231   7.137   6.870  1.00 20.00    -0.196 NA
ENDROOT
BRANCH   2   4
HETATM    4  C8  UNL     1     -34.035   5.707   3.637  1.00 20.00     0.005 C 
HETATM    5  C3  UNL     1     -34.335   4.658   4.717  1.00 20.00     0.011 C 
HETATM    6  C4  UNL     1     -32.882   5.211   2.753  1.00 20.00     0.011 C 
ENDBRANCH   2   4
BRANCH   2   7
HETATM    7  S10 UNL     1     -32.147   7.768   3.883  1.00 20.00    -0.149 SA
BRANCH   7   8
HETATM    8  C6  UNL     1     -32.642   8.932   2.595  1.00 20.00     0.075 C 
BRANCH   8   9
HETATM    9  C5  UNL     1     -32.143   8.465   1.232  1.00 20.00     0.006 C 
HETATM   10  C2  UNL     1     -32.862   9.194   0.106  1.00 20.00     0.006 C 
ENDBRANCH   8   9
ENDBRANCH   7   8
ENDBRANCH   2   7
TORSDOF 4
ENDMDL
MODEL 2
REMARK VINA RESULT:      -3.5      9.848     10.919
REMARK  4 active torsions:
REMARK  status: ('A' for Active; 'I' for Inactive)
REMARK    1  A    between atoms: C5_5  and  C6_6 
REMARK    2  A    between atoms: C6_6  and  S10_10 
REMARK    3  A    between atoms: C7_7  and  C8_8 
REMARK    4  A    between atoms: C7_7  and  S10_10 
ROOT
HETATM    1  C1  UNL     1     -41.532  13.904   4.475  1.00 20.00     0.074 C 
HETATM    2  C7  UNL     1     -40.935  13.362   5.708  1.00 20.00     0.157 C 
HETATM    3  N9  UNL     1     -41.997  14.333   3.502  1.00 20.00    -0.196 NA
ENDROOT
BRANCH   2   4
HETATM    4  C8  UNL     1     -40.065  12.104   5.460  1.00 20.00     0.005 C 
HETATM    5  C3  UNL     1     -39.001  11.950   6.557  1.00 20.00     0.011 C 
HETATM    6  C4  UNL     1     -39.389  12.053   4.084  1.00 20.00     0.011 C 
ENDBRANCH   2   4
BRANCH   2   7
HETATM    7  S10 UNL     1     -42.235  13.055   6.963  1.00 20.00    -0.149 SA
BRANCH   7   8
HETATM    8  C6  UNL     1     -42.149  14.651   7.801  1.00 20.00     0.075 C 
BRANCH   8   9
HETATM    9  C5  UNL     1     -40.704  15.120   7.911  1.00 20.00     0.006 C 
HETATM   10  C2  UNL     1     -40.178  14.950   9.329  1.00 20.00     0.006 C 
ENDBRANCH   8   9
ENDBRANCH   7   8
ENDBRANCH   2   7
TORSDOF 4
ENDMDL
MODEL 3
REMARK VINA RESULT:      -3.5     11.454     12.033
REMARK  4 active torsions:
REMARK  status: ('A' for Active; 'I' for Inactive)
REMARK    1  A    between atoms: C5_5  and  C6_6 
REMARK    2  A    between atoms: C6_6  and  S10_10 
REMARK    3  A    between atoms: C7_7  and  C8_8 
REMARK    4  A    between atoms: C7_7  and  S10_10 
ROOT
HETATM    1  C1  UNL     1     -34.607  18.733   1.129  1.00 20.00     0.074 C 
HETATM    2  C7  UNL     1     -33.458  18.300   0.316  1.00 20.00     0.157 C 
HETATM    3  N9  UNL     1     -35.511  19.071   1.774  1.00 20.00    -0.196 NA
ENDROOT
BRANCH   2   4
HETATM    4  C8  UNL     1     -32.129  18.983   0.728  1.00 20.00     0.005 C 
HETATM    5  C3  UNL     1     -30.971  18.509  -0.162  1.00 20.00     0.011 C 
HETATM    6  C4  UNL     1     -31.745  18.802   2.202  1.00 20.00     0.011 C 
ENDBRANCH   2   4
BRANCH   2   7
HETATM    7  S10 UNL     1     -33.817  18.529  -1.467  1.00 20.00    -0.149 SA
BRANCH   7   8
HETATM    8  C6  UNL     1     -33.556  16.822  -1.992  1.00 20.00     0.075 C 
BRANCH   8   9
HETATM    9  C5  UNL     1     -33.672  16.704  -3.506  1.00 20.00     0.006 C 
HETATM   10  C2  UNL     1     -33.163  15.355  -3.993  1.00 20.00     0.006 C 
ENDBRANCH   8   9
ENDBRANCH   7   8
ENDBRANCH   2   7
TORSDOF 4
ENDMDL
MODEL 4
REMARK VINA RESULT:      -3.4      1.868      2.517
REMARK  4 active torsions:
REMARK  status: ('A' for Active; 'I' for Inactive)
REMARK    1  A    between atoms: C5_5  and  C6_6 
REMARK    2  A    between atoms: C6_6  and  S10_10 
REMARK    3  A    between atoms: C7_7  and  C8_8 
REMARK    4  A    between atoms: C7_7  and  S10_10 
ROOT
HETATM    1  C1  UNL     1     -32.949   5.793   3.094  1.00 20.00     0.074 C 
HETATM    2  C7  UNL     1     -33.000   6.648   4.292  1.00 20.00     0.157 C 
HETATM    3  N9  UNL     1     -32.908   5.115   2.153  1.00 20.00    -0.196 NA
ENDROOT
BRANCH   2   4
HETATM    4  C8  UNL     1     -34.325   6.507   5.084  1.00 20.00     0.005 C 
HETATM    5  C3  UNL     1     -34.177   7.073   6.503  1.00 20.00     0.011 C 
HETATM    6  C4  UNL     1     -34.877   5.078   5.161  1.00 20.00     0.011 C 
ENDBRANCH   2   4
BRANCH   2   7
HETATM    7  S10 UNL     1     -32.657   8.392   3.844  1.00 20.00    -0.149 SA
BRANCH   7   8
HETATM    8  C6  UNL     1     -32.267   8.126   2.102  1.00 20.00     0.075 C 
BRANCH   8   9
HETATM    9  C5  UNL     1     -32.647   9.350   1.277  1.00 20.00     0.006 C 
HETATM   10  C2  UNL     1     -32.965   8.964  -0.160  1.00 20.00     0.006 C 
ENDBRANCH   8   9
ENDBRANCH   7   8
ENDBRANCH   2   7
TORSDOF 4
ENDMDL
MODEL 5
REMARK VINA RESULT:      -3.4      1.387      1.545
REMARK  4 active torsions:
REMARK  status: ('A' for Active; 'I' for Inactive)
REMARK    1  A    between atoms: C5_5  and  C6_6 
REMARK    2  A    between atoms: C6_6  and  S10_10 
REMARK    3  A    between atoms: C7_7  and  C8_8 
REMARK    4  A    between atoms: C7_7  and  S10_10 
ROOT
HETATM    1  C1  UNL     1     -33.596   7.872   4.981  1.00 20.00     0.074 C 
HETATM    2  C7  UNL     1     -34.077   6.778   4.120  1.00 20.00     0.157 C 
HETATM    3  N9  UNL     1     -33.223   8.736   5.660  1.00 20.00    -0.196 NA
ENDROOT
BRANCH   2   4
HETATM    4  C8  UNL     1     -34.654   5.583   4.921  1.00 20.00     0.005 C 
HETATM    5  C3  UNL     1     -34.487   5.804   6.431  1.00 20.00     0.011 C 
HETATM    6  C4  UNL     1     -34.073   4.215   4.540  1.00 20.00     0.011 C 
ENDBRANCH   2   4
BRANCH   2   7
HETATM    7  S10 UNL     1     -32.756   6.248   2.965  1.00 20.00    -0.149 SA
BRANCH   7   8
HETATM    8  C6  UNL     1     -32.129   7.887   2.542  1.00 20.00     0.075 C 
BRANCH   8   9
HETATM    9  C5  UNL     1     -32.099   8.074   1.030  1.00 20.00     0.006 C 
HETATM   10  C2  UNL     1     -32.733   9.398   0.629  1.00 20.00     0.006 C 
ENDBRANCH   8   9
ENDBRANCH   7   8
ENDBRANCH   2   7
TORSDOF 4
ENDMDL
MODEL 6
REMARK VINA RESULT:      -3.4     10.445     11.478
REMARK  4 active torsions:
REMARK  status: ('A' for Active; 'I' for Inactive)
REMARK    1  A    between atoms: C5_5  and  C6_6 
REMARK    2  A    between atoms: C6_6  and  S10_10 
REMARK    3  A    between atoms: C7_7  and  C8_8 
REMARK    4  A    between atoms: C7_7  and  S10_10 
ROOT
HETATM    1  C1  UNL     1     -42.441  15.509   5.835  1.00 20.00     0.074 C 
HETATM    2  C7  UNL     1     -41.993  14.755   7.019  1.00 20.00     0.157 C 
HETATM    3  N9  UNL     1     -42.795  16.107   4.906  1.00 20.00    -0.196 NA
ENDROOT
BRANCH   2   4
HETATM    4  C8  UNL     1     -40.658  15.280   7.605  1.00 20.00     0.005 C 
HETATM    5  C3  UNL     1     -40.262  14.488   8.860  1.00 20.00     0.011 C 
HETATM    6  C4  UNL     1     -40.643  16.780   7.926  1.00 20.00     0.011 C 
ENDBRANCH   2   4
BRANCH   2   7
HETATM    7  S10 UNL     1     -41.914  12.963   6.641  1.00 20.00    -0.149 SA
BRANCH   7   8
HETATM    8  C6  UNL     1     -40.670  13.043   5.336  1.00 20.00     0.075 C 
BRANCH   8   9
HETATM    9  C5  UNL     1     -39.707  11.867   5.443  1.00 20.00     0.006 C 
HETATM   10  C2  UNL     1     -38.962  11.647   4.134  1.00 20.00     0.006 C 
ENDBRANCH   8   9
ENDBRANCH   7   8
ENDBRANCH   2   7
TORSDOF 4
ENDMDL
MODEL 7
REMARK VINA RESULT:      -3.3     11.808     12.935
REMARK  4 active torsions:
REMARK  status: ('A' for Active; 'I' for Inactive)
REMARK    1  A    between atoms: C5_5  and  C6_6 
REMARK    2  A    between atoms: C6_6  and  S10_10 
REMARK    3  A    between atoms: C7_7  and  C8_8 
REMARK    4  A    between atoms: C7_7  and  S10_10 
ROOT
HETATM    1  C1  UNL     1     -36.701  16.306  -5.569  1.00 20.00     0.074 C 
HETATM    2  C7  UNL     1     -35.311  16.775  -5.443  1.00 20.00     0.157 C 
HETATM    3  N9  UNL     1     -37.796  15.935  -5.673  1.00 20.00    -0.196 NA
ENDROOT
BRANCH   2   4
HETATM    4  C8  UNL     1     -34.280  15.618  -5.396  1.00 20.00     0.005 C 
HETATM    5  C3  UNL     1     -33.886  15.180  -6.814  1.00 20.00     0.011 C 
HETATM    6  C4  UNL     1     -34.729  14.392  -4.591  1.00 20.00     0.011 C 
ENDBRANCH   2   4
BRANCH   2   7
HETATM    7  S10 UNL     1     -35.144  17.893  -4.000  1.00 20.00    -0.149 SA
BRANCH   7   8
HETATM    8  C6  UNL     1     -33.425  17.519  -3.596  1.00 20.00     0.075 C 
BRANCH   8   9
HETATM    9  C5  UNL     1     -33.313  16.993  -2.170  1.00 20.00     0.006 C 
HETATM   10  C2  UNL     1     -32.582  17.983  -1.276  1.00 20.00     0.006 C 
ENDBRANCH   8   9
ENDBRANCH   7   8
ENDBRANCH   2   7
TORSDOF 4
ENDMDL
MODEL 8
REMARK VINA RESULT:      -3.3      1.653      4.393
REMARK  4 active torsions:
REMARK  status: ('A' for Active; 'I' for Inactive)
REMARK    1  A    between atoms: C5_5  and  C6_6 
REMARK    2  A    between atoms: C6_6  and  S10_10 
REMARK    3  A    between atoms: C7_7  and  C8_8 
REMARK    4  A    between atoms: C7_7  and  S10_10 
ROOT
HETATM    1  C1  UNL     1     -32.369   8.157   4.154  1.00 20.00     0.074 C 
HETATM    2  C7  UNL     1     -32.172   7.446   2.879  1.00 20.00     0.157 C 
HETATM    3  N9  UNL     1     -32.521   8.720   5.157  1.00 20.00    -0.196 NA
ENDROOT
BRANCH   2   4
HETATM    4  C8  UNL     1     -32.724   8.223   1.657  1.00 20.00     0.005 C 
HETATM    5  C3  UNL     1     -31.802   8.057   0.441  1.00 20.00     0.011 C 
HETATM    6  C4  UNL     1     -32.973   9.716   1.906  1.00 20.00     0.011 C 
ENDBRANCH   2   4
BRANCH   2   7
HETATM    7  S10 UNL     1     -32.866   5.753   2.980  1.00 20.00    -0.149 SA
BRANCH   7   8
HETATM    8  C6  UNL     1     -34.341   6.149   3.943  1.00 20.00     0.075 C 
BRANCH   8   9
HETATM    9  C5  UNL     1     -34.599   5.075   4.993  1.00 20.00     0.006 C 
HETATM   10  C2  UNL     1     -34.484   5.645   6.399  1.00 20.00     0.006 C 
ENDBRANCH   8   9
ENDBRANCH   7   8
ENDBRANCH   2   7
TORSDOF 4
ENDMDL
MODEL 9
REMARK VINA RESULT:      -3.3     11.712     12.859
REMARK  4 active torsions:
REMARK  status: ('A' for Active; 'I' for Inactive)
REMARK    1  A    between atoms: C5_5  and  C6_6 
REMARK    2  A    between atoms: C6_6  and  S10_10 
REMARK    3  A    between atoms: C7_7  and  C8_8 
REMARK    4  A    between atoms: C7_7  and  S10_10 
ROOT
HETATM    1  C1  UNL     1     -35.562  15.223  -6.901  1.00 20.00     0.074 C 
HETATM    2  C7  UNL     1     -34.810  15.814  -5.780  1.00 20.00     0.157 C 
HETATM    3  N9  UNL     1     -36.150  14.755  -7.785  1.00 20.00    -0.196 NA
ENDROOT
BRANCH   2   4
HETATM    4  C8  UNL     1     -34.690  14.864  -4.561  1.00 20.00     0.005 C 
HETATM    5  C3  UNL     1     -33.240  14.396  -4.374  1.00 20.00     0.011 C 
HETATM    6  C4  UNL     1     -35.617  13.642  -4.606  1.00 20.00     0.011 C 
ENDBRANCH   2   4
BRANCH   2   7
HETATM    7  S10 UNL     1     -35.532  17.433  -5.313  1.00 20.00    -0.149 SA
BRANCH   7   8
HETATM    8  C6  UNL     1     -34.148  18.042  -4.327  1.00 20.00     0.075 C 
BRANCH   8   9
HETATM    9  C5  UNL     1     -34.537  18.129  -2.856  1.00 20.00     0.006 C 
HETATM   10  C2  UNL     1     -33.609  17.287  -1.993  1.00 20.00     0.006 C 
ENDBRANCH   8   9
ENDBRANCH   7   8
ENDBRANCH   2   7
TORSDOF 4
ENDMDL
