MODEL 1
REMARK VINA RESULT:      -4.8      0.000      0.000
REMARK  1 active torsions:
REMARK  status: ('A' for Active; 'I' for Inactive)
REMARK    1  A    between atoms: C3_3  and  C6_6 
ROOT
HETATM    1  C1  UNL     1     -34.148   5.606   4.104  1.00 20.00     0.131 A 
HETATM    2  C2  UNL     1     -34.711   5.287   6.199  1.00 20.00     0.166 A 
HETATM    3  C3  UNL     1     -33.724   6.814   4.617  1.00 20.00     0.005 A 
HETATM    4  N7  UNL     1     -34.714   4.730   5.008  1.00 20.00    -0.265 NA
HETATM    5  S8  UNL     1     -34.044   6.865   6.302  1.00 20.00    -0.085 SA
ENDROOT
BRANCH   3   6
HETATM    6  C6  UNL     1     -33.068   7.990   3.920  1.00 20.00     0.019 C 
HETATM    7  C4  UNL     1     -32.139   7.532   2.794  1.00 20.00     0.015 C 
HETATM    8  C5  UNL     1     -32.322   8.887   4.912  1.00 20.00     0.015 C 
ENDBRANCH   3   6
TORSDOF 1
ENDMDL
MODEL 2
REMARK VINA RESULT:      -4.4      1.316      1.473
REMARK  1 active torsions:
REMARK  status: ('A' for Active; 'I' for Inactive)
REMARK    1  A    between atoms: C3_3  and  C6_6 
ROOT
HETATM    1  C1  UNL     1     -33.994   7.015   6.170  1.00 20.00     0.131 A 
HETATM    2  C2  UNL     1     -34.745   5.027   5.631  1.00 20.00     0.166 A 
HETATM    3  C3  UNL     1     -33.677   7.032   4.828  1.00 20.00     0.005 A 
HETATM    4  N7  UNL     1     -34.606   5.868   6.633  1.00 20.00    -0.265 NA
HETATM    5  S8  UNL     1     -34.161   5.553   4.106  1.00 20.00    -0.085 SA
ENDROOT
BRANCH   3   6
HETATM    6  C6  UNL     1     -33.011   8.114   4.000  1.00 20.00     0.019 C 
HETATM    7  C4  UNL     1     -32.155   7.519   2.879  1.00 20.00     0.015 C 
HETATM    8  C5  UNL     1     -32.183   9.061   4.873  1.00 20.00     0.015 C 
ENDBRANCH   3   6
TORSDOF 1
ENDMDL
MODEL 3
REMARK VINA RESULT:      -4.3      2.226      3.890
REMARK  1 active torsions:
REMARK  status: ('A' for Active; 'I' for Inactive)
REMARK    1  A    between atoms: C3_3  and  C6_6 
ROOT
HETATM    1  C1  UNL     1     -33.408   8.052   5.396  1.00 20.00     0.131 A 
HETATM    2  C2  UNL     1     -32.035   8.438   3.730  1.00 20.00     0.166 A 
HETATM    3  C3  UNL     1     -33.637   6.903   4.669  1.00 20.00     0.005 A 
HETATM    4  N7  UNL     1     -32.490   8.933   4.860  1.00 20.00    -0.265 NA
HETATM    5  S8  UNL     1     -32.670   6.917   3.252  1.00 20.00    -0.085 SA
ENDROOT
BRANCH   3   6
HETATM    6  C6  UNL     1     -34.565   5.738   4.959  1.00 20.00     0.019 C 
HETATM    7  C4  UNL     1     -34.720   5.501   6.462  1.00 20.00     0.015 C 
HETATM    8  C5  UNL     1     -34.102   4.461   4.251  1.00 20.00     0.015 C 
ENDBRANCH   3   6
TORSDOF 1
ENDMDL
MODEL 4
REMARK VINA RESULT:      -4.2      1.870      3.640
REMARK  1 active torsions:
REMARK  status: ('A' for Active; 'I' for Inactive)
REMARK    1  A    between atoms: C3_3  and  C6_6 
ROOT
HETATM    1  C1  UNL     1     -32.800   6.860   3.377  1.00 20.00     0.131 A 
HETATM    2  C2  UNL     1     -32.339   8.790   4.311  1.00 20.00     0.166 A 
HETATM    3  C3  UNL     1     -33.615   6.754   4.484  1.00 20.00     0.005 A 
HETATM    4  N7  UNL     1     -32.068   8.026   3.275  1.00 20.00    -0.265 NA
HETATM    5  S8  UNL     1     -33.465   8.167   5.445  1.00 20.00    -0.085 SA
ENDROOT
BRANCH   3   6
HETATM    6  C6  UNL     1     -34.542   5.630   4.905  1.00 20.00     0.019 C 
HETATM    7  C4  UNL     1     -34.674   5.547   6.428  1.00 20.00     0.015 C 
HETATM    8  C5  UNL     1     -34.096   4.285   4.323  1.00 20.00     0.015 C 
ENDBRANCH   3   6
TORSDOF 1
ENDMDL
MODEL 5
REMARK VINA RESULT:      -3.9      2.017      3.426
REMARK  1 active torsions:
REMARK  status: ('A' for Active; 'I' for Inactive)
REMARK    1  A    between atoms: C3_3  and  C6_6 
ROOT
HETATM    1  C1  UNL     1     -33.433   5.621   3.378  1.00 20.00     0.131 A 
HETATM    2  C2  UNL     1     -32.124   7.241   2.691  1.00 20.00     0.166 A 
HETATM    3  C3  UNL     1     -33.660   6.518   4.400  1.00 20.00     0.005 A 
HETATM    4  N7  UNL     1     -32.553   6.033   2.397  1.00 20.00    -0.265 NA
HETATM    5  S8  UNL     1     -32.738   7.940   4.133  1.00 20.00    -0.085 SA
ENDROOT
BRANCH   3   6
HETATM    6  C6  UNL     1     -34.553   6.395   5.620  1.00 20.00     0.019 C 
HETATM    7  C4  UNL     1     -34.141   7.375   6.722  1.00 20.00     0.015 C 
HETATM    8  C5  UNL     1     -34.586   4.960   6.152  1.00 20.00     0.015 C 
ENDBRANCH   3   6
TORSDOF 1
ENDMDL
MODEL 6
REMARK VINA RESULT:      -3.9      1.394      1.774
REMARK  1 active torsions:
REMARK  status: ('A' for Active; 'I' for Inactive)
REMARK    1  A    between atoms: C3_3  and  C6_6 
ROOT
HETATM    1  C1  UNL     1     -34.495   5.199   4.967  1.00 20.00     0.131 A 
HETATM    2  C2  UNL     1     -34.414   6.615   6.639  1.00 20.00     0.166 A 
HETATM    3  C3  UNL     1     -33.789   6.209   4.348  1.00 20.00     0.005 A 
HETATM    4  N7  UNL     1     -34.854   5.429   6.280  1.00 20.00    -0.265 NA
HETATM    5  S8  UNL     1     -33.561   7.507   5.446  1.00 20.00    -0.085 SA
ENDROOT
BRANCH   3   6
HETATM    6  C6  UNL     1     -33.244   6.289   2.935  1.00 20.00     0.019 C 
HETATM    7  C4  UNL     1     -32.787   4.919   2.427  1.00 20.00     0.015 C 
HETATM    8  C5  UNL     1     -32.112   7.315   2.826  1.00 20.00     0.015 C 
ENDBRANCH   3   6
TORSDOF 1
ENDMDL
MODEL 7
REMARK VINA RESULT:      -3.6      1.817      2.333
REMARK  1 active torsions:
REMARK  status: ('A' for Active; 'I' for Inactive)
REMARK    1  A    between atoms: C3_3  and  C6_6 
ROOT
HETATM    1  C1  UNL     1     -32.718   6.442   3.137  1.00 20.00     0.131 A 
HETATM    2  C2  UNL     1     -33.729   4.502   3.290  1.00 20.00     0.166 A 
HETATM    3  C3  UNL     1     -33.515   6.710   4.230  1.00 20.00     0.005 A 
HETATM    4  N7  UNL     1     -32.839   5.178   2.596  1.00 20.00    -0.265 NA
HETATM    5  S8  UNL     1     -34.460   5.328   4.604  1.00 20.00    -0.085 SA
ENDROOT
BRANCH   3   6
HETATM    6  C6  UNL     1     -33.636   7.975   5.058  1.00 20.00     0.019 C 
HETATM    7  C4  UNL     1     -32.391   8.856   4.928  1.00 20.00     0.015 C 
HETATM    8  C5  UNL     1     -33.928   7.659   6.528  1.00 20.00     0.015 C 
ENDBRANCH   3   6
TORSDOF 1
ENDMDL
MODEL 8
REMARK VINA RESULT:      -3.4     15.715     16.663
REMARK  1 active torsions:
REMARK  status: ('A' for Active; 'I' for Inactive)
REMARK    1  A    between atoms: C3_3  and  C6_6 
ROOT
HETATM    1  C1  UNL     1     -23.996  18.863   8.832  1.00 20.00     0.131 A 
HETATM    2  C2  UNL     1     -22.119  18.390   7.802  1.00 20.00     0.166 A 
HETATM    3  C3  UNL     1     -23.336  18.253   9.877  1.00 20.00     0.005 A 
HETATM    4  N7  UNL     1     -23.301  18.943   7.642  1.00 20.00    -0.265 NA
HETATM    5  S8  UNL     1     -21.779  17.753   9.359  1.00 20.00    -0.085 SA
ENDROOT
BRANCH   3   6
HETATM    6  C6  UNL     1     -23.793  17.999  11.301  1.00 20.00     0.019 C 
HETATM    7  C4  UNL     1     -22.690  18.315  12.313  1.00 20.00     0.015 C 
HETATM    8  C5  UNL     1     -24.304  16.566  11.481  1.00 20.00     0.015 C 
ENDBRANCH   3   6
TORSDOF 1
ENDMDL
MODEL 9
REMARK VINA RESULT:      -3.4     15.415     15.885
REMARK  1 active torsions:
REMARK  status: ('A' for Active; 'I' for Inactive)
REMARK    1  A    between atoms: C3_3  and  C6_6 
ROOT
HETATM    1  C1  UNL     1     -23.841  16.948  10.571  1.00 20.00     0.131 A 
HETATM    2  C2  UNL     1     -25.317  17.183  12.176  1.00 20.00     0.166 A 
HETATM    3  C3  UNL     1     -24.147  18.278  10.376  1.00 20.00     0.005 A 
HETATM    4  N7  UNL     1     -24.510  16.318  11.601  1.00 20.00    -0.265 NA
HETATM    5  S8  UNL     1     -25.322  18.771  11.525  1.00 20.00    -0.085 SA
ENDROOT
BRANCH   3   6
HETATM    6  C6  UNL     1     -23.609  19.260   9.353  1.00 20.00     0.019 C 
HETATM    7  C4  UNL     1     -24.453  19.263   8.076  1.00 20.00     0.015 C 
HETATM    8  C5  UNL     1     -22.137  18.988   9.033  1.00 20.00     0.015 C 
ENDBRANCH   3   6
TORSDOF 1
ENDMDL
