MODEL 1
REMARK VINA RESULT:      -4.4      0.000      0.000
REMARK  0 active torsions:
REMARK  status: ('A' for Active; 'I' for Inactive)
ROOT
HETATM    1  C1  UNL     1     -35.031  18.087  -4.070  1.00 20.00     0.010 A 
HETATM    2  C2  UNL     1     -34.585  18.532  -2.824  1.00 20.00     0.019 A 
HETATM    3  C3  UNL     1     -33.333  16.475  -2.482  1.00 20.00     0.026 A 
HETATM    4  C4  UNL     1     -34.615  16.840  -4.509  1.00 20.00    -0.033 A 
HETATM    5  C5  UNL     1     -33.770  16.044  -3.724  1.00 20.00    -0.049 A 
HETATM    6  C6  UNL     1     -33.743  17.732  -2.036  1.00 20.00     0.011 A 
HETATM    7  C7  UNL     1     -33.492  14.735  -4.395  1.00 20.00     0.041 C 
HETATM    8  C8  UNL     1     -33.878  15.063  -5.847  1.00 20.00     0.030 C 
HETATM    9  C9  UNL     1     -34.978  16.139  -5.783  1.00 20.00     0.116 C 
HETATM   10 CL10 UNL     1     -36.591  15.410  -5.646  1.00 20.00    -0.120 Cl
HETATM   11 BR11 UNL     1     -33.165  18.362  -0.348  1.00 20.00    -0.051 Br
ENDROOT
TORSDOF 0
ENDMDL
MODEL 2
REMARK VINA RESULT:      -4.2     16.854     18.328
REMARK  0 active torsions:
REMARK  status: ('A' for Active; 'I' for Inactive)
ROOT
HETATM    1  C1  UNL     1     -24.516  19.190   9.474  1.00 20.00     0.010 A 
HETATM    2  C2  UNL     1     -25.779  19.263  10.064  1.00 20.00     0.019 A 
HETATM    3  C3  UNL     1     -24.859  18.635  12.227  1.00 20.00     0.026 A 
HETATM    4  C4  UNL     1     -23.437  18.845  10.273  1.00 20.00    -0.033 A 
HETATM    5  C5  UNL     1     -23.607  18.575  11.637  1.00 20.00    -0.049 A 
HETATM    6  C6  UNL     1     -25.949  18.987  11.430  1.00 20.00     0.011 A 
HETATM    7  C7  UNL     1     -22.307  18.193  12.274  1.00 20.00     0.041 C 
HETATM    8  C8  UNL     1     -21.305  18.735  11.240  1.00 20.00     0.030 C 
HETATM    9  C9  UNL     1     -22.004  18.674   9.870  1.00 20.00     0.116 C 
HETATM   10 CL10 UNL     1     -21.768  17.095   9.091  1.00 20.00    -0.120 Cl
HETATM   11 BR11 UNL     1     -27.677  19.086  12.196  1.00 20.00    -0.051 Br
ENDROOT
TORSDOF 0
ENDMDL
MODEL 3
REMARK VINA RESULT:      -4.1      3.094      4.514
REMARK  0 active torsions:
REMARK  status: ('A' for Active; 'I' for Inactive)
ROOT
HETATM    1  C1  UNL     1     -33.292  15.587  -3.418  1.00 20.00     0.010 A 
HETATM    2  C2  UNL     1     -33.949  15.059  -4.532  1.00 20.00     0.019 A 
HETATM    3  C3  UNL     1     -34.799  17.257  -5.134  1.00 20.00     0.026 A 
HETATM    4  C4  UNL     1     -33.394  16.948  -3.181  1.00 20.00    -0.033 A 
HETATM    5  C5  UNL     1     -34.136  17.776  -4.034  1.00 20.00    -0.049 A 
HETATM    6  C6  UNL     1     -34.697  15.888  -5.383  1.00 20.00     0.011 A 
HETATM    7  C7  UNL     1     -34.124  19.192  -3.551  1.00 20.00     0.041 C 
HETATM    8  C8  UNL     1     -32.911  19.168  -2.605  1.00 20.00     0.030 C 
HETATM    9  C9  UNL     1     -32.810  17.736  -2.048  1.00 20.00     0.116 C 
HETATM   10 CL10 UNL     1     -33.800  17.538  -0.587  1.00 20.00    -0.120 Cl
HETATM   11 BR11 UNL     1     -35.582  15.138  -6.878  1.00 20.00    -0.051 Br
ENDROOT
TORSDOF 0
ENDMDL
MODEL 4
REMARK VINA RESULT:      -4.0     12.216     13.239
REMARK  0 active torsions:
REMARK  status: ('A' for Active; 'I' for Inactive)
ROOT
HETATM    1  C1  UNL     1     -33.242   8.269   4.770  1.00 20.00     0.010 A 
HETATM    2  C2  UNL     1     -32.658   8.649   3.560  1.00 20.00     0.019 A 
HETATM    3  C3  UNL     1     -33.018   6.429   2.632  1.00 20.00     0.026 A 
HETATM    4  C4  UNL     1     -33.712   6.971   4.893  1.00 20.00    -0.033 A 
HETATM    5  C5  UNL     1     -33.606   6.062   3.832  1.00 20.00    -0.049 A 
HETATM    6  C6  UNL     1     -32.547   7.736   2.500  1.00 20.00     0.011 A 
HETATM    7  C7  UNL     1     -34.151   4.722   4.217  1.00 20.00     0.041 C 
HETATM    8  C8  UNL     1     -35.007   5.096   5.439  1.00 20.00     0.030 C 
HETATM    9  C9  UNL     1     -34.345   6.325   6.088  1.00 20.00     0.116 C 
HETATM   10 CL10 UNL     1     -33.099   5.847   7.259  1.00 20.00    -0.120 Cl
HETATM   11 BR11 UNL     1     -31.742   8.282   0.876  1.00 20.00    -0.051 Br
ENDROOT
TORSDOF 0
ENDMDL
MODEL 5
REMARK VINA RESULT:      -4.0      1.464      2.516
REMARK  0 active torsions:
REMARK  status: ('A' for Active; 'I' for Inactive)
ROOT
HETATM    1  C1  UNL     1     -33.605  15.268  -4.291  1.00 20.00     0.010 A 
HETATM    2  C2  UNL     1     -33.280  16.005  -3.151  1.00 20.00     0.019 A 
HETATM    3  C3  UNL     1     -34.735  17.825  -3.852  1.00 20.00     0.026 A 
HETATM    4  C4  UNL     1     -34.498  15.819  -5.196  1.00 20.00    -0.033 A 
HETATM    5  C5  UNL     1     -35.061  17.083  -4.975  1.00 20.00    -0.049 A 
HETATM    6  C6  UNL     1     -33.840  17.274  -2.933  1.00 20.00     0.011 A 
HETATM    7  C7  UNL     1     -35.963  17.472  -6.105  1.00 20.00     0.041 C 
HETATM    8  C8  UNL     1     -36.224  16.103  -6.756  1.00 20.00     0.030 C 
HETATM    9  C9  UNL     1     -34.975  15.241  -6.494  1.00 20.00     0.116 C 
HETATM   10 CL10 UNL     1     -33.750  15.473  -7.758  1.00 20.00    -0.120 Cl
HETATM   11 BR11 UNL     1     -33.370  18.250  -1.382  1.00 20.00    -0.051 Br
ENDROOT
TORSDOF 0
ENDMDL
MODEL 6
REMARK VINA RESULT:      -3.6     12.399     13.443
REMARK  0 active torsions:
REMARK  status: ('A' for Active; 'I' for Inactive)
ROOT
HETATM    1  C1  UNL     1     -42.106  14.539   5.710  1.00 20.00     0.010 A 
HETATM    2  C2  UNL     1     -41.395  13.602   4.959  1.00 20.00     0.019 A 
HETATM    3  C3  UNL     1     -39.874  13.196   6.814  1.00 20.00     0.026 A 
HETATM    4  C4  UNL     1     -41.694  14.789   7.010  1.00 20.00    -0.033 A 
HETATM    5  C5  UNL     1     -40.592  14.119   7.557  1.00 20.00    -0.049 A 
HETATM    6  C6  UNL     1     -40.287  12.936   5.507  1.00 20.00     0.011 A 
HETATM    7  C7  UNL     1     -40.324  14.583   8.955  1.00 20.00     0.041 C 
HETATM    8  C8  UNL     1     -41.672  15.234   9.310  1.00 20.00     0.030 C 
HETATM    9  C9  UNL     1     -42.271  15.760   7.993  1.00 20.00     0.116 C 
HETATM   10 CL10 UNL     1     -41.707  17.406   7.636  1.00 20.00    -0.120 Cl
HETATM   11 BR11 UNL     1     -39.339  11.678   4.458  1.00 20.00    -0.051 Br
ENDROOT
TORSDOF 0
ENDMDL
MODEL 7
REMARK VINA RESULT:      -3.5      3.271      4.187
REMARK  0 active torsions:
REMARK  status: ('A' for Active; 'I' for Inactive)
ROOT
HETATM    1  C1  UNL     1     -35.363  18.637  -4.644  1.00 20.00     0.010 A 
HETATM    2  C2  UNL     1     -35.771  18.092  -5.862  1.00 20.00     0.019 A 
HETATM    3  C3  UNL     1     -34.560  16.032  -5.402  1.00 20.00     0.026 A 
HETATM    4  C4  UNL     1     -34.562  17.868  -3.815  1.00 20.00    -0.033 A 
HETATM    5  C5  UNL     1     -34.169  16.576  -4.190  1.00 20.00    -0.049 A 
HETATM    6  C6  UNL     1     -35.372  16.799  -6.239  1.00 20.00     0.011 A 
HETATM    7  C7  UNL     1     -33.282  15.964  -3.150  1.00 20.00     0.041 C 
HETATM    8  C8  UNL     1     -33.599  16.853  -1.935  1.00 20.00     0.030 C 
HETATM    9  C9  UNL     1     -33.979  18.239  -2.486  1.00 20.00     0.116 C 
HETATM   10 CL10 UNL     1     -32.545  19.263  -2.708  1.00 20.00    -0.120 Cl
HETATM   11 BR11 UNL     1     -35.935  16.094  -7.902  1.00 20.00    -0.051 Br
ENDROOT
TORSDOF 0
ENDMDL
MODEL 8
REMARK VINA RESULT:      -3.4     11.587     12.809
REMARK  0 active torsions:
REMARK  status: ('A' for Active; 'I' for Inactive)
ROOT
HETATM    1  C1  UNL     1     -32.954   5.678   2.969  1.00 20.00     0.010 A 
HETATM    2  C2  UNL     1     -32.542   6.405   1.850  1.00 20.00     0.019 A 
HETATM    3  C3  UNL     1     -32.897   8.506   3.025  1.00 20.00     0.026 A 
HETATM    4  C4  UNL     1     -33.327   6.376   4.106  1.00 20.00    -0.033 A 
HETATM    5  C5  UNL     1     -33.294   7.777   4.135  1.00 20.00    -0.049 A 
HETATM    6  C6  UNL     1     -32.515   7.808   1.879  1.00 20.00     0.011 A 
HETATM    7  C7  UNL     1     -33.773   8.297   5.454  1.00 20.00     0.041 C 
HETATM    8  C8  UNL     1     -33.630   7.042   6.332  1.00 20.00     0.030 C 
HETATM    9  C9  UNL     1     -33.827   5.827   5.407  1.00 20.00     0.116 C 
HETATM   10 CL10 UNL     1     -35.542   5.388   5.271  1.00 20.00    -0.120 Cl
HETATM   11 BR11 UNL     1     -31.961   8.764   0.342  1.00 20.00    -0.051 Br
ENDROOT
TORSDOF 0
ENDMDL
MODEL 9
REMARK VINA RESULT:      -3.3     24.612     25.708
REMARK  0 active torsions:
REMARK  status: ('A' for Active; 'I' for Inactive)
ROOT
HETATM    1  C1  UNL     1     -25.108  -0.998  11.967  1.00 20.00     0.010 A 
HETATM    2  C2  UNL     1     -24.086  -1.921  12.194  1.00 20.00     0.019 A 
HETATM    3  C3  UNL     1     -25.326  -3.658  11.026  1.00 20.00     0.026 A 
HETATM    4  C4  UNL     1     -26.227  -1.417  11.265  1.00 20.00    -0.033 A 
HETATM    5  C5  UNL     1     -26.332  -2.733  10.795  1.00 20.00    -0.049 A 
HETATM    6  C6  UNL     1     -24.194  -3.241  11.728  1.00 20.00     0.011 A 
HETATM    7  C7  UNL     1     -27.641  -2.951  10.102  1.00 20.00     0.041 C 
HETATM    8  C8  UNL     1     -28.062  -1.501   9.810  1.00 20.00     0.030 C 
HETATM    9  C9  UNL     1     -27.455  -0.629  10.924  1.00 20.00     0.116 C 
HETATM   10 CL10 UNL     1     -28.533  -0.532  12.332  1.00 20.00    -0.120 Cl
HETATM   11 BR11 UNL     1     -22.794  -4.469  12.062  1.00 20.00    -0.051 Br
ENDROOT
TORSDOF 0
ENDMDL
