MODEL 1
REMARK VINA RESULT:      -4.4      0.000      0.000
REMARK  4 active torsions:
REMARK  status: ('A' for Active; 'I' for Inactive)
REMARK    1  A    between atoms: C1_1  and  C4_4 
REMARK    2  A    between atoms: C1_1  and  O11_11 
REMARK    3  A    between atoms: C5_5  and  C8_8 
REMARK    4  A    between atoms: C8_8  and  C9_9 
ROOT
HETATM    1  C2  UNL     1     -34.029  17.874  -0.128  1.00 20.00     0.019 C 
HETATM    2  C3  UNL     1     -33.266  19.263  -1.582  1.00 20.00     0.019 C 
HETATM    3  C4  UNL     1     -32.973  19.002  -0.088  1.00 20.00     0.086 C 
HETATM    4  C5  UNL     1     -33.944  17.877  -1.671  1.00 20.00    -0.013 C 
ENDROOT
BRANCH   3   5
HETATM    5  C1  UNL     1     -31.582  18.562   0.222  1.00 20.00     0.262 C 
HETATM    6  O10 UNL     1     -30.671  18.542  -0.594  1.00 20.00    -0.265 OA
BRANCH   5   7
HETATM    7  O11 UNL     1     -31.502  18.196   1.534  1.00 20.00    -0.326 OA
HETATM    8  C7  UNL     1     -30.290  18.562   2.201  1.00 20.00     0.213 C 
ENDBRANCH   5   7
ENDBRANCH   3   5
BRANCH   4   9
HETATM    9  C8  UNL     1     -33.118  16.765  -2.299  1.00 20.00     0.004 C 
BRANCH   9  10
HETATM   10  C9  UNL     1     -33.646  16.379  -3.681  1.00 20.00    -0.004 C 
HETATM   11  C6  UNL     1     -33.110  15.029  -4.130  1.00 20.00     0.005 C 
ENDBRANCH   9  10
ENDBRANCH   4   9
TORSDOF 4
ENDMDL
MODEL 2
REMARK VINA RESULT:      -4.1     12.480     13.363
REMARK  4 active torsions:
REMARK  status: ('A' for Active; 'I' for Inactive)
REMARK    1  A    between atoms: C1_1  and  C4_4 
REMARK    2  A    between atoms: C1_1  and  O11_11 
REMARK    3  A    between atoms: C5_5  and  C8_8 
REMARK    4  A    between atoms: C8_8  and  C9_9 
ROOT
HETATM    1  C2  UNL     1     -35.163   7.000   4.822  1.00 20.00     0.019 C 
HETATM    2  C3  UNL     1     -34.319   6.031   6.546  1.00 20.00     0.019 C 
HETATM    3  C4  UNL     1     -35.022   5.527   5.267  1.00 20.00     0.086 C 
HETATM    4  C5  UNL     1     -34.085   7.394   5.857  1.00 20.00    -0.013 C 
ENDROOT
BRANCH   3   5
HETATM    5  C1  UNL     1     -34.190   4.669   4.375  1.00 20.00     0.262 C 
HETATM    6  O10 UNL     1     -33.733   3.581   4.702  1.00 20.00    -0.265 OA
BRANCH   5   7
HETATM    7  O11 UNL     1     -34.030   5.285   3.169  1.00 20.00    -0.326 OA
HETATM    8  C7  UNL     1     -32.737   5.143   2.573  1.00 20.00     0.213 C 
ENDBRANCH   5   7
ENDBRANCH   3   5
BRANCH   4   9
HETATM    9  C8  UNL     1     -32.687   7.638   5.308  1.00 20.00     0.004 C 
BRANCH   9  10
HETATM   10  C9  UNL     1     -32.583   8.993   4.608  1.00 20.00    -0.004 C 
HETATM   11  C6  UNL     1     -32.494   8.840   3.098  1.00 20.00     0.005 C 
ENDBRANCH   9  10
ENDBRANCH   4   9
TORSDOF 4
ENDMDL
MODEL 3
REMARK VINA RESULT:      -4.0     11.340     12.605
REMARK  4 active torsions:
REMARK  status: ('A' for Active; 'I' for Inactive)
REMARK    1  A    between atoms: C1_1  and  C4_4 
REMARK    2  A    between atoms: C1_1  and  O11_11 
REMARK    3  A    between atoms: C5_5  and  C8_8 
REMARK    4  A    between atoms: C8_8  and  C9_9 
ROOT
HETATM    1  C2  UNL     1     -42.208  12.294   6.646  1.00 20.00     0.019 C 
HETATM    2  C3  UNL     1     -41.506  14.220   5.995  1.00 20.00     0.019 C 
HETATM    3  C4  UNL     1     -42.441  13.744   7.128  1.00 20.00     0.086 C 
HETATM    4  C5  UNL     1     -40.969  12.777   5.859  1.00 20.00    -0.013 C 
ENDROOT
BRANCH   3   5
HETATM    5  C1  UNL     1     -41.970  14.038   8.512  1.00 20.00     0.262 C 
HETATM    6  O10 UNL     1     -42.128  13.286   9.464  1.00 20.00    -0.265 OA
BRANCH   5   7
HETATM    7  O11 UNL     1     -41.353  15.254   8.534  1.00 20.00    -0.326 OA
HETATM    8  C7  UNL     1     -40.143  15.315   9.296  1.00 20.00     0.213 C 
ENDBRANCH   5   7
ENDBRANCH   3   5
BRANCH   4   9
HETATM    9  C8  UNL     1     -39.618  12.500   6.500  1.00 20.00     0.004 C 
BRANCH   9  10
HETATM   10  C9  UNL     1     -38.576  12.077   5.464  1.00 20.00    -0.004 C 
HETATM   11  C6  UNL     1     -39.224  11.660   4.153  1.00 20.00     0.005 C 
ENDBRANCH   9  10
ENDBRANCH   4   9
TORSDOF 4
ENDMDL
MODEL 4
REMARK VINA RESULT:      -3.8     11.394     12.646
REMARK  4 active torsions:
REMARK  status: ('A' for Active; 'I' for Inactive)
REMARK    1  A    between atoms: C1_1  and  C4_4 
REMARK    2  A    between atoms: C1_1  and  O11_11 
REMARK    3  A    between atoms: C5_5  and  C8_8 
REMARK    4  A    between atoms: C8_8  and  C9_9 
ROOT
HETATM    1  C2  UNL     1     -42.073  12.509   6.863  1.00 20.00     0.019 C 
HETATM    2  C3  UNL     1     -41.021  14.189   6.028  1.00 20.00     0.019 C 
HETATM    3  C4  UNL     1     -41.878  13.979   7.296  1.00 20.00     0.086 C 
HETATM    4  C5  UNL     1     -40.875  12.656   5.897  1.00 20.00    -0.013 C 
ENDROOT
BRANCH   3   5
HETATM    5  C1  UNL     1     -41.163  14.173   8.590  1.00 20.00     0.262 C 
HETATM    6  O10 UNL     1     -40.201  14.916   8.737  1.00 20.00    -0.265 OA
BRANCH   5   7
HETATM    7  O11 UNL     1     -41.746  13.403   9.552  1.00 20.00    -0.326 OA
HETATM    8  C7  UNL     1     -42.838  14.011  10.249  1.00 20.00     0.213 C 
ENDBRANCH   5   7
ENDBRANCH   3   5
BRANCH   4   9
HETATM    9  C8  UNL     1     -39.556  12.065   6.371  1.00 20.00     0.004 C 
BRANCH   9  10
HETATM   10  C9  UNL     1     -38.517  12.030   5.251  1.00 20.00    -0.004 C 
HETATM   11  C6  UNL     1     -39.130  11.592   3.929  1.00 20.00     0.005 C 
ENDBRANCH   9  10
ENDBRANCH   4   9
TORSDOF 4
ENDMDL
MODEL 5
REMARK VINA RESULT:      -3.8     10.984     11.775
REMARK  4 active torsions:
REMARK  status: ('A' for Active; 'I' for Inactive)
REMARK    1  A    between atoms: C1_1  and  C4_4 
REMARK    2  A    between atoms: C1_1  and  O11_11 
REMARK    3  A    between atoms: C5_5  and  C8_8 
REMARK    4  A    between atoms: C8_8  and  C9_9 
ROOT
HETATM    1  C2  UNL     1     -32.213   7.786   4.790  1.00 20.00     0.019 C 
HETATM    2  C3  UNL     1     -34.114   8.693   4.351  1.00 20.00     0.019 C 
HETATM    3  C4  UNL     1     -32.680   8.885   3.809  1.00 20.00     0.086 C 
HETATM    4  C5  UNL     1     -33.683   7.336   4.952  1.00 20.00    -0.013 C 
ENDROOT
BRANCH   3   5
HETATM    5  C1  UNL     1     -32.495   8.569   2.363  1.00 20.00     0.262 C 
HETATM    6  O10 UNL     1     -32.032   7.516   1.946  1.00 20.00    -0.265 OA
BRANCH   5   7
HETATM    7  O11 UNL     1     -32.917   9.624   1.609  1.00 20.00    -0.326 OA
HETATM    8  C7  UNL     1     -32.816   9.446   0.193  1.00 20.00     0.213 C 
ENDBRANCH   5   7
ENDBRANCH   3   5
BRANCH   4   9
HETATM    9  C8  UNL     1     -34.094   6.096   4.172  1.00 20.00     0.004 C 
BRANCH   9  10
HETATM   10  C9  UNL     1     -34.776   5.063   5.070  1.00 20.00    -0.004 C 
HETATM   11  C6  UNL     1     -34.606   5.400   6.543  1.00 20.00     0.005 C 
ENDBRANCH   9  10
ENDBRANCH   4   9
TORSDOF 4
ENDMDL
MODEL 6
REMARK VINA RESULT:      -3.8     11.258     12.073
REMARK  4 active torsions:
REMARK  status: ('A' for Active; 'I' for Inactive)
REMARK    1  A    between atoms: C1_1  and  C4_4 
REMARK    2  A    between atoms: C1_1  and  O11_11 
REMARK    3  A    between atoms: C5_5  and  C8_8 
REMARK    4  A    between atoms: C8_8  and  C9_9 
ROOT
HETATM    1  C2  UNL     1     -32.140   8.806   4.867  1.00 20.00     0.019 C 
HETATM    2  C3  UNL     1     -34.177   8.453   4.271  1.00 20.00     0.019 C 
HETATM    3  C4  UNL     1     -32.846   8.619   3.504  1.00 20.00     0.086 C 
HETATM    4  C5  UNL     1     -33.375   8.195   5.567  1.00 20.00    -0.013 C 
ENDROOT
BRANCH   3   5
HETATM    5  C1  UNL     1     -32.409   7.430   2.718  1.00 20.00     0.262 C 
HETATM    6  O10 UNL     1     -32.564   6.272   3.084  1.00 20.00    -0.265 OA
BRANCH   5   7
HETATM    7  O11 UNL     1     -31.823   7.841   1.558  1.00 20.00    -0.326 OA
HETATM    8  C7  UNL     1     -32.541   8.840   0.827  1.00 20.00     0.213 C 
ENDBRANCH   5   7
ENDBRANCH   3   5
BRANCH   4   9
HETATM    9  C8  UNL     1     -33.249   6.742   6.000  1.00 20.00     0.004 C 
BRANCH   9  10
HETATM   10  C9  UNL     1     -34.614   6.120   6.298  1.00 20.00    -0.004 C 
HETATM   11  C6  UNL     1     -34.989   5.068   5.266  1.00 20.00     0.005 C 
ENDBRANCH   9  10
ENDBRANCH   4   9
TORSDOF 4
ENDMDL
MODEL 7
REMARK VINA RESULT:      -3.7     11.156     11.922
REMARK  4 active torsions:
REMARK  status: ('A' for Active; 'I' for Inactive)
REMARK    1  A    between atoms: C1_1  and  C4_4 
REMARK    2  A    between atoms: C1_1  and  O11_11 
REMARK    3  A    between atoms: C5_5  and  C8_8 
REMARK    4  A    between atoms: C8_8  and  C9_9 
ROOT
HETATM    1  C2  UNL     1     -34.180   8.653   4.058  1.00 20.00     0.019 C 
HETATM    2  C3  UNL     1     -32.299   8.710   5.100  1.00 20.00     0.019 C 
HETATM    3  C4  UNL     1     -33.730   8.275   5.487  1.00 20.00     0.086 C 
HETATM    4  C5  UNL     1     -32.701   8.634   3.609  1.00 20.00    -0.013 C 
ENDROOT
BRANCH   3   5
HETATM    5  C1  UNL     1     -33.886   6.835   5.844  1.00 20.00     0.262 C 
HETATM    6  O10 UNL     1     -33.275   6.284   6.750  1.00 20.00    -0.265 OA
BRANCH   5   7
HETATM    7  O11 UNL     1     -34.798   6.256   5.012  1.00 20.00    -0.326 OA
HETATM    8  C7  UNL     1     -34.525   4.898   4.651  1.00 20.00     0.213 C 
ENDBRANCH   5   7
ENDBRANCH   3   5
BRANCH   4   9
HETATM    9  C8  UNL     1     -32.246   7.395   2.854  1.00 20.00     0.004 C 
BRANCH   9  10
HETATM   10  C9  UNL     1     -32.084   7.672   1.359  1.00 20.00    -0.004 C 
HETATM   11  C6  UNL     1     -32.553   9.072   0.993  1.00 20.00     0.005 C 
ENDBRANCH   9  10
ENDBRANCH   4   9
TORSDOF 4
ENDMDL
MODEL 8
REMARK VINA RESULT:      -3.7      4.561      7.020
REMARK  4 active torsions:
REMARK  status: ('A' for Active; 'I' for Inactive)
REMARK    1  A    between atoms: C1_1  and  C4_4 
REMARK    2  A    between atoms: C1_1  and  O11_11 
REMARK    3  A    between atoms: C5_5  and  C8_8 
REMARK    4  A    between atoms: C8_8  and  C9_9 
ROOT
HETATM    1  C2  UNL     1     -35.294  14.276  -4.908  1.00 20.00     0.019 C 
HETATM    2  C3  UNL     1     -34.099  15.199  -6.440  1.00 20.00     0.019 C 
HETATM    3  C4  UNL     1     -35.586  14.794  -6.335  1.00 20.00     0.086 C 
HETATM    4  C5  UNL     1     -33.982  15.093  -4.903  1.00 20.00    -0.013 C 
ENDROOT
BRANCH   3   5
HETATM    5  C1  UNL     1     -36.562  15.918  -6.417  1.00 20.00     0.262 C 
HETATM    6  O10 UNL     1     -36.398  16.920  -7.099  1.00 20.00    -0.265 OA
BRANCH   5   7
HETATM    7  O11 UNL     1     -37.638  15.646  -5.624  1.00 20.00    -0.326 OA
HETATM    8  C7  UNL     1     -38.213  16.775  -4.959  1.00 20.00     0.213 C 
ENDBRANCH   5   7
ENDBRANCH   3   5
BRANCH   4   9
HETATM    9  C8  UNL     1     -34.013  16.405  -4.135  1.00 20.00     0.004 C 
BRANCH   9  10
HETATM   10  C9  UNL     1     -33.140  16.348  -2.881  1.00 20.00    -0.004 C 
HETATM   11  C6  UNL     1     -33.673  17.255  -1.783  1.00 20.00     0.005 C 
ENDBRANCH   9  10
ENDBRANCH   4   9
TORSDOF 4
ENDMDL
MODEL 9
REMARK VINA RESULT:      -3.6     12.312     13.043
REMARK  4 active torsions:
REMARK  status: ('A' for Active; 'I' for Inactive)
REMARK    1  A    between atoms: C1_1  and  C4_4 
REMARK    2  A    between atoms: C1_1  and  O11_11 
REMARK    3  A    between atoms: C5_5  and  C8_8 
REMARK    4  A    between atoms: C8_8  and  C9_9 
ROOT
HETATM    1  C2  UNL     1     -34.574   4.884   6.061  1.00 20.00     0.019 C 
HETATM    2  C3  UNL     1     -35.277   6.061   4.403  1.00 20.00     0.019 C 
HETATM    3  C4  UNL     1     -34.884   6.385   5.862  1.00 20.00     0.086 C 
HETATM    4  C5  UNL     1     -34.538   4.710   4.525  1.00 20.00    -0.013 C 
ENDROOT
BRANCH   3   5
HETATM    5  C1  UNL     1     -33.720   7.303   6.021  1.00 20.00     0.262 C 
HETATM    6  O10 UNL     1     -32.889   7.207   6.914  1.00 20.00    -0.265 OA
BRANCH   5   7
HETATM    7  O11 UNL     1     -33.740   8.241   5.031  1.00 20.00    -0.326 OA
HETATM    8  C7  UNL     1     -32.505   8.928   4.810  1.00 20.00     0.213 C 
ENDBRANCH   5   7
ENDBRANCH   3   5
BRANCH   4   9
HETATM    9  C8  UNL     1     -33.158   4.640   3.891  1.00 20.00     0.004 C 
BRANCH   9  10
HETATM   10  C9  UNL     1     -33.142   5.273   2.499  1.00 20.00    -0.004 C 
HETATM   11  C6  UNL     1     -32.266   6.515   2.457  1.00 20.00     0.005 C 
ENDBRANCH   9  10
ENDBRANCH   4   9
TORSDOF 4
ENDMDL
