MODEL 1
REMARK VINA RESULT:      -3.8      0.000      0.000
REMARK  1 active torsions:
REMARK  status: ('A' for Active; 'I' for Inactive)
REMARK    1  A    between atoms: C4_4  and  C5_5 
ROOT
HETATM    1  C3  UNL     1     -34.392  15.245  -5.830  1.00 20.00     0.116 C 
HETATM    2  C5  UNL     1     -33.178  16.340  -3.774  1.00 20.00     0.286 C 
HETATM    3  C6  UNL     1     -34.661  16.745  -5.648  1.00 20.00     0.160 C 
HETATM    4  C7  UNL     1     -34.594  17.453  -7.011  1.00 20.00     0.049 C 
HETATM    5  C8  UNL     1     -36.048  17.009  -5.036  1.00 20.00     0.049 C 
HETATM    6  N9  UNL     1     -33.581  17.291  -4.812  1.00 20.00     0.107 N 
HETATM    7  S10 UNL     1     -33.750  14.687  -4.237  1.00 20.00    -0.131 SA
HETATM    8  H25 UNL     1     -33.935  18.141  -4.353  1.00 20.00     0.318 HD
ENDROOT
BRANCH   2   9
HETATM    9  C4  UNL     1     -33.683  16.713  -2.413  1.00 20.00     0.029 A 
HETATM   10  C1  UNL     1     -32.857  17.590  -1.513  1.00 20.00     0.008 A 
HETATM   11  C2  UNL     1     -34.121  18.123  -2.129  1.00 20.00     0.008 A 
ENDBRANCH   2   9
TORSDOF 1
ENDMDL
MODEL 2
REMARK VINA RESULT:      -3.7     12.389     13.708
REMARK  1 active torsions:
REMARK  status: ('A' for Active; 'I' for Inactive)
REMARK    1  A    between atoms: C4_4  and  C5_5 
ROOT
HETATM    1  C3  UNL     1     -42.389  14.493   7.778  1.00 20.00     0.116 C 
HETATM    2  C5  UNL     1     -40.916  13.333   5.939  1.00 20.00     0.286 C 
HETATM    3  C6  UNL     1     -40.888  14.799   7.868  1.00 20.00     0.160 C 
HETATM    4  C7  UNL     1     -40.678  16.296   8.147  1.00 20.00     0.049 C 
HETATM    5  C8  UNL     1     -40.204  14.000   8.992  1.00 20.00     0.049 C 
HETATM    6  N9  UNL     1     -40.296  14.508   6.552  1.00 20.00     0.107 N 
HETATM    7  S10 UNL     1     -42.506  13.016   6.744  1.00 20.00    -0.131 SA
HETATM    8  H25 UNL     1     -39.295  14.311   6.692  1.00 20.00     0.318 HD
ENDROOT
BRANCH   2   9
HETATM    9  C4  UNL     1     -40.043  12.116   5.995  1.00 20.00     0.029 A 
HETATM   10  C1  UNL     1     -39.449  11.551   4.735  1.00 20.00     0.008 A 
HETATM   11  C2  UNL     1     -38.565  12.232   5.742  1.00 20.00     0.008 A 
ENDBRANCH   2   9
TORSDOF 1
ENDMDL
MODEL 3
REMARK VINA RESULT:      -3.5      1.826      3.971
REMARK  1 active torsions:
REMARK  status: ('A' for Active; 'I' for Inactive)
REMARK    1  A    between atoms: C4_4  and  C5_5 
ROOT
HETATM    1  C3  UNL     1     -34.761  19.103  -2.819  1.00 20.00     0.116 C 
HETATM    2  C5  UNL     1     -34.247  17.302  -4.662  1.00 20.00     0.286 C 
HETATM    3  C6  UNL     1     -33.495  18.270  -2.571  1.00 20.00     0.160 C 
HETATM    4  C7  UNL     1     -32.357  19.186  -2.094  1.00 20.00     0.049 C 
HETATM    5  C8  UNL     1     -33.721  17.186  -1.501  1.00 20.00     0.049 C 
HETATM    6  N9  UNL     1     -33.086  17.690  -3.860  1.00 20.00     0.107 N 
HETATM    7  S10 UNL     1     -35.711  18.160  -4.033  1.00 20.00    -0.131 SA
HETATM    8  H25 UNL     1     -32.530  16.847  -3.665  1.00 20.00     0.318 HD
ENDROOT
BRANCH   2   9
HETATM    9  C4  UNL     1     -34.471  15.820  -4.684  1.00 20.00     0.029 A 
HETATM   10  C1  UNL     1     -33.986  14.999  -5.847  1.00 20.00     0.008 A 
HETATM   11  C2  UNL     1     -33.314  14.877  -4.507  1.00 20.00     0.008 A 
ENDBRANCH   2   9
TORSDOF 1
ENDMDL
MODEL 4
REMARK VINA RESULT:      -3.5      2.789      3.969
REMARK  1 active torsions:
REMARK  status: ('A' for Active; 'I' for Inactive)
REMARK    1  A    between atoms: C4_4  and  C5_5 
ROOT
HETATM    1  C3  UNL     1     -35.169  18.517  -2.495  1.00 20.00     0.116 C 
HETATM    2  C5  UNL     1     -33.624  18.188  -0.395  1.00 20.00     0.286 C 
HETATM    3  C6  UNL     1     -33.789  17.915  -2.798  1.00 20.00     0.160 C 
HETATM    4  C7  UNL     1     -33.937  16.756  -3.796  1.00 20.00     0.049 C 
HETATM    5  C8  UNL     1     -32.830  18.954  -3.405  1.00 20.00     0.049 C 
HETATM    6  N9  UNL     1     -33.265  17.354  -1.543  1.00 20.00     0.107 N 
HETATM    7  S10 UNL     1     -35.005  19.263  -0.857  1.00 20.00    -0.131 SA
HETATM    8  H25 UNL     1     -32.238  17.325  -1.614  1.00 20.00     0.318 HD
ENDROOT
BRANCH   2   9
HETATM    9  C4  UNL     1     -32.473  18.998   0.120  1.00 20.00     0.029 A 
HETATM   10  C1  UNL     1     -31.680  18.518   1.304  1.00 20.00     0.008 A 
HETATM   11  C2  UNL     1     -31.062  18.513  -0.067  1.00 20.00     0.008 A 
ENDBRANCH   2   9
TORSDOF 1
ENDMDL
MODEL 5
REMARK VINA RESULT:      -3.5     12.783     13.923
REMARK  1 active torsions:
REMARK  status: ('A' for Active; 'I' for Inactive)
REMARK    1  A    between atoms: C4_4  and  C5_5 
ROOT
HETATM    1  C3  UNL     1     -43.189  14.574   6.552  1.00 20.00     0.116 C 
HETATM    2  C5  UNL     1     -40.810  13.717   5.840  1.00 20.00     0.286 C 
HETATM    3  C6  UNL     1     -42.570  13.534   7.496  1.00 20.00     0.160 C 
HETATM    4  C7  UNL     1     -42.798  13.958   8.956  1.00 20.00     0.049 C 
HETATM    5  C8  UNL     1     -43.189  12.138   7.298  1.00 20.00     0.049 C 
HETATM    6  N9  UNL     1     -41.118  13.528   7.258  1.00 20.00     0.107 N 
HETATM    7  S10 UNL     1     -42.256  14.424   5.012  1.00 20.00    -0.131 SA
HETATM    8  H25 UNL     1     -40.754  12.610   7.549  1.00 20.00     0.318 HD
ENDROOT
BRANCH   2   9
HETATM    9  C4  UNL     1     -40.378  12.452   5.162  1.00 20.00     0.029 A 
HETATM   10  C1  UNL     1     -38.920  12.194   4.900  1.00 20.00     0.008 A 
HETATM   11  C2  UNL     1     -39.651  11.389   5.938  1.00 20.00     0.008 A 
ENDBRANCH   2   9
TORSDOF 1
ENDMDL
MODEL 6
REMARK VINA RESULT:      -3.3     12.751     14.108
REMARK  1 active torsions:
REMARK  status: ('A' for Active; 'I' for Inactive)
REMARK    1  A    between atoms: C4_4  and  C5_5 
ROOT
HETATM    1  C3  UNL     1     -42.226  15.763   7.592  1.00 20.00     0.116 C 
HETATM    2  C5  UNL     1     -40.548  14.176   6.341  1.00 20.00     0.286 C 
HETATM    3  C6  UNL     1     -41.252  15.007   8.506  1.00 20.00     0.160 C 
HETATM    4  C7  UNL     1     -40.707  15.958   9.584  1.00 20.00     0.049 C 
HETATM    5  C8  UNL     1     -41.931  13.818   9.211  1.00 20.00     0.049 C 
HETATM    6  N9  UNL     1     -40.114  14.575   7.680  1.00 20.00     0.107 N 
HETATM    7  S10 UNL     1     -42.191  14.866   6.024  1.00 20.00    -0.131 SA
HETATM    8  H25 UNL     1     -39.682  13.760   8.137  1.00 20.00     0.318 HD
ENDROOT
BRANCH   2   9
HETATM    9  C4  UNL     1     -40.552  12.690   6.147  1.00 20.00     0.029 A 
HETATM   10  C1  UNL     1     -39.859  12.079   4.961  1.00 20.00     0.008 A 
HETATM   11  C2  UNL     1     -39.288  11.898   6.340  1.00 20.00     0.008 A 
ENDBRANCH   2   9
TORSDOF 1
ENDMDL
MODEL 7
REMARK VINA RESULT:      -3.3      1.851      2.396
REMARK  1 active torsions:
REMARK  status: ('A' for Active; 'I' for Inactive)
REMARK    1  A    between atoms: C4_4  and  C5_5 
ROOT
HETATM    1  C3  UNL     1     -35.409  17.722  -6.486  1.00 20.00     0.116 C 
HETATM    2  C5  UNL     1     -34.546  18.117  -4.037  1.00 20.00     0.286 C 
HETATM    3  C6  UNL     1     -35.558  16.516  -5.548  1.00 20.00     0.160 C 
HETATM    4  C7  UNL     1     -36.937  15.867  -5.751  1.00 20.00     0.049 C 
HETATM    5  C8  UNL     1     -34.481  15.448  -5.811  1.00 20.00     0.049 C 
HETATM    6  N9  UNL     1     -35.504  17.019  -4.167  1.00 20.00     0.107 N 
HETATM    7  S10 UNL     1     -34.204  18.798  -5.679  1.00 20.00    -0.131 SA
HETATM    8  H25 UNL     1     -35.196  16.246  -3.560  1.00 20.00     0.318 HD
ENDROOT
BRANCH   2   9
HETATM    9  C4  UNL     1     -33.274  17.705  -3.360  1.00 20.00     0.029 A 
HETATM   10  C1  UNL     1     -33.029  18.070  -1.922  1.00 20.00     0.008 A 
HETATM   11  C2  UNL     1     -33.293  16.638  -2.300  1.00 20.00     0.008 A 
ENDBRANCH   2   9
TORSDOF 1
ENDMDL
MODEL 8
REMARK VINA RESULT:      -3.2     12.637     13.616
REMARK  1 active torsions:
REMARK  status: ('A' for Active; 'I' for Inactive)
REMARK    1  A    between atoms: C4_4  and  C5_5 
ROOT
HETATM    1  C3  UNL     1     -42.006  12.403   6.729  1.00 20.00     0.116 C 
HETATM    2  C5  UNL     1     -41.143  14.569   7.937  1.00 20.00     0.286 C 
HETATM    3  C6  UNL     1     -41.022  13.249   5.909  1.00 20.00     0.160 C 
HETATM    4  C7  UNL     1     -40.002  12.332   5.215  1.00 20.00     0.049 C 
HETATM    5  C8  UNL     1     -41.740  14.076   4.827  1.00 20.00     0.049 C 
HETATM    6  N9  UNL     1     -40.282  14.104   6.850  1.00 20.00     0.107 N 
HETATM    7  S10 UNL     1     -42.605  13.507   8.027  1.00 20.00    -0.131 SA
HETATM    8  H25 UNL     1     -39.942  14.925   6.330  1.00 20.00     0.318 HD
ENDROOT
BRANCH   2   9
HETATM    9  C4  UNL     1     -41.541  16.007   7.792  1.00 20.00     0.029 A 
HETATM   10  C1  UNL     1     -41.124  17.017   8.824  1.00 20.00     0.008 A 
HETATM   11  C2  UNL     1     -40.510  17.047   7.452  1.00 20.00     0.008 A 
ENDBRANCH   2   9
TORSDOF 1
ENDMDL
MODEL 9
REMARK VINA RESULT:      -3.2     24.963     25.985
REMARK  1 active torsions:
REMARK  status: ('A' for Active; 'I' for Inactive)
REMARK    1  A    between atoms: C4_4  and  C5_5 
ROOT
HETATM    1  C3  UNL     1     -24.077  -2.223  11.332  1.00 20.00     0.116 C 
HETATM    2  C5  UNL     1     -26.619  -1.922  10.745  1.00 20.00     0.286 C 
HETATM    3  C6  UNL     1     -24.597  -3.152  10.226  1.00 20.00     0.160 C 
HETATM    4  C7  UNL     1     -23.575  -3.216   9.079  1.00 20.00     0.049 C 
HETATM    5  C8  UNL     1     -24.832  -4.583  10.742  1.00 20.00     0.049 C 
HETATM    6  N9  UNL     1     -25.829  -2.554   9.689  1.00 20.00     0.107 N 
HETATM    7  S10 UNL     1     -25.557  -1.630  12.181  1.00 20.00    -0.131 SA
HETATM    8  H25 UNL     1     -26.391  -3.309   9.271  1.00 20.00     0.318 HD
ENDROOT
BRANCH   2   9
HETATM    9  C4  UNL     1     -27.824  -2.725  11.133  1.00 20.00     0.029 A 
HETATM   10  C1  UNL     1     -29.206  -2.199  10.857  1.00 20.00     0.008 A 
HETATM   11  C2  UNL     1     -28.676  -3.369  10.075  1.00 20.00     0.008 A 
ENDBRANCH   2   9
TORSDOF 1
ENDMDL
