MODEL 1
REMARK VINA RESULT:      -4.1      0.000      0.000
REMARK  1 active torsions:
REMARK  status: ('A' for Active; 'I' for Inactive)
REMARK    1  A    between atoms: C2_2  and  C6_6 
ROOT
HETATM    1  C1  UNL     1     -33.579   7.582   5.424  1.00 20.00     0.111 C 
HETATM    2  C2  UNL     1     -34.068   6.682   4.291  1.00 20.00     0.231 C 
HETATM    3  C3  UNL     1     -32.090   7.476   3.250  1.00 20.00     0.278 C 
HETATM    4  C4  UNL     1     -32.506   8.140   1.942  1.00 20.00     0.054 C 
HETATM    5  N7  UNL     1     -32.890   6.269   3.506  1.00 20.00     0.102 N 
HETATM    6  S8  UNL     1     -32.321   8.619   4.644  1.00 20.00    -0.132 SA
HETATM    7  H21 UNL     1     -32.332   5.636   4.080  1.00 20.00     0.317 HD
ENDROOT
BRANCH   2   8
HETATM    8  C6  UNL     1     -34.801   5.457   4.829  1.00 20.00     0.032 C 
HETATM    9  C5  UNL     1     -34.649   5.326   6.310  1.00 20.00     0.007 C 
ENDBRANCH   2   8
TORSDOF 1
ENDMDL
MODEL 2
REMARK VINA RESULT:      -3.6      1.929      3.490
REMARK  1 active torsions:
REMARK  status: ('A' for Active; 'I' for Inactive)
REMARK    1  A    between atoms: C2_2  and  C6_6 
ROOT
HETATM    1  C1  UNL     1     -33.822   7.174   6.451  1.00 20.00     0.111 C 
HETATM    2  C2  UNL     1     -33.086   7.222   5.113  1.00 20.00     0.231 C 
HETATM    3  C3  UNL     1     -34.663   5.539   4.561  1.00 20.00     0.278 C 
HETATM    4  C4  UNL     1     -33.874   4.303   4.140  1.00 20.00     0.054 C 
HETATM    5  N7  UNL     1     -34.023   6.767   4.070  1.00 20.00     0.102 N 
HETATM    6  S8  UNL     1     -34.768   5.637   6.374  1.00 20.00    -0.132 SA
HETATM    7  H21 UNL     1     -34.746   7.479   3.961  1.00 20.00     0.317 HD
ENDROOT
BRANCH   2   8
HETATM    8  C6  UNL     1     -32.588   8.629   4.800  1.00 20.00     0.032 C 
HETATM    9  C5  UNL     1     -32.524   8.879   3.329  1.00 20.00     0.007 C 
ENDBRANCH   2   8
TORSDOF 1
ENDMDL
MODEL 3
REMARK VINA RESULT:      -3.5      9.678     10.364
REMARK  1 active torsions:
REMARK  status: ('A' for Active; 'I' for Inactive)
REMARK    1  A    between atoms: C2_2  and  C6_6 
ROOT
HETATM    1  C1  UNL     1     -41.672  12.560   6.476  1.00 20.00     0.111 C 
HETATM    2  C2  UNL     1     -40.220  12.999   6.296  1.00 20.00     0.231 C 
HETATM    3  C3  UNL     1     -40.786  14.452   8.083  1.00 20.00     0.278 C 
HETATM    4  C4  UNL     1     -40.527  15.877   7.603  1.00 20.00     0.054 C 
HETATM    5  N7  UNL     1     -39.751  13.534   7.588  1.00 20.00     0.102 N 
HETATM    6  S8  UNL     1     -42.401  13.866   7.489  1.00 20.00    -0.132 SA
HETATM    7  H21 UNL     1     -39.678  12.756   8.245  1.00 20.00     0.317 HD
ENDROOT
BRANCH   2   8
HETATM    8  C6  UNL     1     -39.337  11.838   5.852  1.00 20.00     0.032 C 
HETATM    9  C5  UNL     1     -39.221  11.767   4.364  1.00 20.00     0.007 C 
ENDBRANCH   2   8
TORSDOF 1
ENDMDL
MODEL 4
REMARK VINA RESULT:      -3.4      1.592      1.946
REMARK  1 active torsions:
REMARK  status: ('A' for Active; 'I' for Inactive)
REMARK    1  A    between atoms: C2_2  and  C6_6 
ROOT
HETATM    1  C1  UNL     1     -33.062   5.931   3.134  1.00 20.00     0.111 C 
HETATM    2  C2  UNL     1     -33.592   6.280   4.523  1.00 20.00     0.231 C 
HETATM    3  C3  UNL     1     -33.002   8.472   3.836  1.00 20.00     0.278 C 
HETATM    4  C4  UNL     1     -32.010   9.012   4.860  1.00 20.00     0.054 C 
HETATM    5  N7  UNL     1     -34.054   7.680   4.488  1.00 20.00     0.102 N 
HETATM    6  S8  UNL     1     -32.153   7.408   2.630  1.00 20.00    -0.132 SA
HETATM    7  H21 UNL     1     -34.891   7.723   3.904  1.00 20.00     0.317 HD
ENDROOT
BRANCH   2   8
HETATM    8  C6  UNL     1     -34.735   5.356   4.932  1.00 20.00     0.032 C 
HETATM    9  C5  UNL     1     -34.819   5.203   6.416  1.00 20.00     0.007 C 
ENDBRANCH   2   8
TORSDOF 1
ENDMDL
MODEL 5
REMARK VINA RESULT:      -3.4     12.008     12.639
REMARK  1 active torsions:
REMARK  status: ('A' for Active; 'I' for Inactive)
REMARK    1  A    between atoms: C2_2  and  C6_6 
ROOT
HETATM    1  C1  UNL     1     -34.158  17.311  -4.329  1.00 20.00     0.111 C 
HETATM    2  C2  UNL     1     -33.314  16.279  -3.584  1.00 20.00     0.231 C 
HETATM    3  C3  UNL     1     -33.761  17.721  -1.755  1.00 20.00     0.278 C 
HETATM    4  C4  UNL     1     -32.414  18.172  -1.198  1.00 20.00     0.054 C 
HETATM    5  N7  UNL     1     -33.716  16.311  -2.165  1.00 20.00     0.102 N 
HETATM    6  S8  UNL     1     -34.216  18.722  -3.202  1.00 20.00    -0.132 SA
HETATM    7  H21 UNL     1     -34.661  15.931  -2.095  1.00 20.00     0.317 HD
ENDROOT
BRANCH   2   8
HETATM    8  C6  UNL     1     -33.509  14.879  -4.157  1.00 20.00     0.032 C 
HETATM    9  C5  UNL     1     -34.734  14.796  -5.010  1.00 20.00     0.007 C 
ENDBRANCH   2   8
TORSDOF 1
ENDMDL
MODEL 6
REMARK VINA RESULT:      -3.4     15.793     16.508
REMARK  1 active torsions:
REMARK  status: ('A' for Active; 'I' for Inactive)
REMARK    1  A    between atoms: C2_2  and  C6_6 
ROOT
HETATM    1  C1  UNL     1     -23.405  18.760   8.687  1.00 20.00     0.111 C 
HETATM    2  C2  UNL     1     -22.312  18.042   9.476  1.00 20.00     0.231 C 
HETATM    3  C3  UNL     1     -24.104  17.669  10.983  1.00 20.00     0.278 C 
HETATM    4  C4  UNL     1     -23.692  18.260  12.327  1.00 20.00     0.054 C 
HETATM    5  N7  UNL     1     -22.963  17.023  10.319  1.00 20.00     0.102 N 
HETATM    6  S8  UNL     1     -24.741  18.971   9.885  1.00 20.00    -0.132 SA
HETATM    7  H21 UNL     1     -23.326  16.291   9.707  1.00 20.00     0.317 HD
ENDROOT
BRANCH   2   8
HETATM    8  C6  UNL     1     -21.293  17.389   8.548  1.00 20.00     0.032 C 
HETATM    9  C5  UNL     1     -21.300  18.012   7.190  1.00 20.00     0.007 C 
ENDBRANCH   2   8
TORSDOF 1
ENDMDL
MODEL 7
REMARK VINA RESULT:      -3.3     12.234     13.110
REMARK  1 active torsions:
REMARK  status: ('A' for Active; 'I' for Inactive)
REMARK    1  A    between atoms: C2_2  and  C6_6 
ROOT
HETATM    1  C1  UNL     1     -33.385  15.142  -4.194  1.00 20.00     0.111 C 
HETATM    2  C2  UNL     1     -33.587  16.572  -3.698  1.00 20.00     0.231 C 
HETATM    3  C3  UNL     1     -35.200  16.595  -5.436  1.00 20.00     0.278 C 
HETATM    4  C4  UNL     1     -34.829  17.734  -6.380  1.00 20.00     0.054 C 
HETATM    5  N7  UNL     1     -34.965  16.973  -4.035  1.00 20.00     0.102 N 
HETATM    6  S8  UNL     1     -34.206  15.118  -5.803  1.00 20.00    -0.132 SA
HETATM    7  H21 UNL     1     -35.604  16.433  -3.450  1.00 20.00     0.317 HD
ENDROOT
BRANCH   2   8
HETATM    8  C6  UNL     1     -33.358  16.679  -2.194  1.00 20.00     0.032 C 
HETATM    9  C5  UNL     1     -34.045  17.871  -1.612  1.00 20.00     0.007 C 
ENDBRANCH   2   8
TORSDOF 1
ENDMDL
MODEL 8
REMARK VINA RESULT:      -3.2     12.546     13.343
REMARK  1 active torsions:
REMARK  status: ('A' for Active; 'I' for Inactive)
REMARK    1  A    between atoms: C2_2  and  C6_6 
ROOT
HETATM    1  C1  UNL     1     -34.197  17.712  -4.835  1.00 20.00     0.111 C 
HETATM    2  C2  UNL     1     -34.075  16.317  -4.225  1.00 20.00     0.231 C 
HETATM    3  C3  UNL     1     -34.453  15.663  -6.474  1.00 20.00     0.278 C 
HETATM    4  C4  UNL     1     -35.692  14.773  -6.481  1.00 20.00     0.054 C 
HETATM    5  N7  UNL     1     -33.623  15.402  -5.290  1.00 20.00     0.102 N 
HETATM    6  S8  UNL     1     -34.933  17.417  -6.458  1.00 20.00    -0.132 SA
HETATM    7  H21 UNL     1     -32.657  15.638  -5.522  1.00 20.00     0.317 HD
ENDROOT
BRANCH   2   8
HETATM    8  C6  UNL     1     -33.090  16.301  -3.061  1.00 20.00     0.032 C 
HETATM    9  C5  UNL     1     -33.595  17.090  -1.897  1.00 20.00     0.007 C 
ENDBRANCH   2   8
TORSDOF 1
ENDMDL
MODEL 9
REMARK VINA RESULT:      -3.2      9.987     10.709
REMARK  1 active torsions:
REMARK  status: ('A' for Active; 'I' for Inactive)
REMARK    1  A    between atoms: C2_2  and  C6_6 
ROOT
HETATM    1  C1  UNL     1     -41.156  13.518   5.012  1.00 20.00     0.111 C 
HETATM    2  C2  UNL     1     -40.750  12.682   6.225  1.00 20.00     0.231 C 
HETATM    3  C3  UNL     1     -43.019  13.042   6.816  1.00 20.00     0.278 C 
HETATM    4  C4  UNL     1     -43.026  13.721   8.182  1.00 20.00     0.054 C 
HETATM    5  N7  UNL     1     -41.964  12.021   6.740  1.00 20.00     0.102 N 
HETATM    6  S8  UNL     1     -42.727  14.263   5.502  1.00 20.00    -0.132 SA
HETATM    7  H21 UNL     1     -42.254  11.317   6.060  1.00 20.00     0.317 HD
ENDROOT
BRANCH   2   8
HETATM    8  C6  UNL     1     -39.697  11.642   5.859  1.00 20.00     0.032 C 
HETATM    9  C5  UNL     1     -39.261  11.772   4.435  1.00 20.00     0.007 C 
ENDBRANCH   2   8
TORSDOF 1
ENDMDL
