MODEL 1
REMARK VINA RESULT:      -3.6      0.000      0.000
REMARK  1 active torsions:
REMARK  status: ('A' for Active; 'I' for Inactive)
REMARK    1  A    between atoms: C3_3  and  C7_7 
ROOT
HETATM    1  C1  UNL     1     -33.910   4.429   4.460  1.00 20.00     0.111 C 
HETATM    2  C2  UNL     1     -34.673   5.575   5.124  1.00 20.00     0.227 C 
HETATM    3  C3  UNL     1     -33.475   6.863   3.552  1.00 20.00     0.285 C 
HETATM    4  C4  UNL     1     -34.933   5.293   6.599  1.00 20.00     0.043 C 
HETATM    5  N8  UNL     1     -33.858   6.793   4.969  1.00 20.00     0.102 N 
HETATM    6  S9  UNL     1     -33.254   5.162   2.945  1.00 20.00    -0.131 SA
HETATM    7  H24 UNL     1     -34.389   7.619   5.238  1.00 20.00     0.317 HD
ENDROOT
BRANCH   3   8
HETATM    8  C7  UNL     1     -32.198   7.673   3.368  1.00 20.00     0.021 C 
HETATM    9  C5  UNL     1     -32.078   8.178   1.930  1.00 20.00     0.012 C 
HETATM   10  C6  UNL     1     -32.152   8.845   4.348  1.00 20.00     0.012 C 
ENDBRANCH   3   8
TORSDOF 1
ENDMDL
MODEL 2
REMARK VINA RESULT:      -3.6     10.058     10.536
REMARK  1 active torsions:
REMARK  status: ('A' for Active; 'I' for Inactive)
REMARK    1  A    between atoms: C3_3  and  C7_7 
ROOT
HETATM    1  C1  UNL     1     -42.086  13.930   7.993  1.00 20.00     0.111 C 
HETATM    2  C2  UNL     1     -41.052  14.907   7.433  1.00 20.00     0.227 C 
HETATM    3  C3  UNL     1     -40.680  13.147   5.906  1.00 20.00     0.285 C 
HETATM    4  C4  UNL     1     -40.457  15.781   8.531  1.00 20.00     0.043 C 
HETATM    5  N8  UNL     1     -39.998  14.107   6.784  1.00 20.00     0.102 N 
HETATM    6  S9  UNL     1     -42.252  12.682   6.697  1.00 20.00    -0.131 SA
HETATM    7  H24 UNL     1     -39.372  14.704   6.247  1.00 20.00     0.317 HD
ENDROOT
BRANCH   3   8
HETATM    8  C7  UNL     1     -39.816  11.919   5.658  1.00 20.00     0.021 C 
HETATM    9  C5  UNL     1     -39.368  11.855   4.197  1.00 20.00     0.012 C 
HETATM   10  C6  UNL     1     -38.601  11.912   6.587  1.00 20.00     0.012 C 
ENDBRANCH   3   8
TORSDOF 1
ENDMDL
MODEL 3
REMARK VINA RESULT:      -3.5     10.571     11.102
REMARK  1 active torsions:
REMARK  status: ('A' for Active; 'I' for Inactive)
REMARK    1  A    between atoms: C3_3  and  C7_7 
ROOT
HETATM    1  C1  UNL     1     -41.184  13.410   4.950  1.00 20.00     0.111 C 
HETATM    2  C2  UNL     1     -40.282  12.466   5.745  1.00 20.00     0.227 C 
HETATM    3  C3  UNL     1     -40.753  13.991   7.483  1.00 20.00     0.285 C 
HETATM    4  C4  UNL     1     -39.208  11.842   4.863  1.00 20.00     0.043 C 
HETATM    5  N8  UNL     1     -39.664  13.257   6.826  1.00 20.00     0.102 N 
HETATM    6  S9  UNL     1     -41.991  14.413   6.217  1.00 20.00    -0.131 SA
HETATM    7  H24 UNL     1     -39.188  12.649   7.490  1.00 20.00     0.317 HD
ENDROOT
BRANCH   3   8
HETATM    8  C7  UNL     1     -40.233  15.246   8.170  1.00 20.00     0.021 C 
HETATM    9  C5  UNL     1     -41.068  16.466   7.776  1.00 20.00     0.012 C 
HETATM   10  C6  UNL     1     -40.229  15.074   9.689  1.00 20.00     0.012 C 
ENDBRANCH   3   8
TORSDOF 1
ENDMDL
MODEL 4
REMARK VINA RESULT:      -3.5     12.239     13.069
REMARK  1 active torsions:
REMARK  status: ('A' for Active; 'I' for Inactive)
REMARK    1  A    between atoms: C3_3  and  C7_7 
ROOT
HETATM    1  C1  UNL     1     -33.648  19.074  -2.093  1.00 20.00     0.111 C 
HETATM    2  C2  UNL     1     -33.224  17.908  -1.201  1.00 20.00     0.227 C 
HETATM    3  C3  UNL     1     -33.262  16.739  -3.249  1.00 20.00     0.285 C 
HETATM    4  C4  UNL     1     -33.812  18.033   0.200  1.00 20.00     0.043 C 
HETATM    5  N8  UNL     1     -33.691  16.668  -1.846  1.00 20.00     0.102 N 
HETATM    6  S9  UNL     1     -33.322  18.482  -3.768  1.00 20.00    -0.131 SA
HETATM    7  H24 UNL     1     -33.291  15.851  -1.388  1.00 20.00     0.317 HD
ENDROOT
BRANCH   3   8
HETATM    8  C7  UNL     1     -34.149  15.879  -4.139  1.00 20.00     0.021 C 
HETATM    9  C5  UNL     1     -34.505  16.620  -5.429  1.00 20.00     0.012 C 
HETATM   10  C6  UNL     1     -33.470  14.548  -4.461  1.00 20.00     0.012 C 
ENDBRANCH   3   8
TORSDOF 1
ENDMDL
MODEL 5
REMARK VINA RESULT:      -3.5      1.550      4.056
REMARK  1 active torsions:
REMARK  status: ('A' for Active; 'I' for Inactive)
REMARK    1  A    between atoms: C3_3  and  C7_7 
ROOT
HETATM    1  C1  UNL     1     -32.374   8.292   4.826  1.00 20.00     0.111 C 
HETATM    2  C2  UNL     1     -32.922   7.995   3.431  1.00 20.00     0.227 C 
HETATM    3  C3  UNL     1     -34.478   6.715   4.658  1.00 20.00     0.285 C 
HETATM    4  C4  UNL     1     -31.813   7.982   2.385  1.00 20.00     0.043 C 
HETATM    5  N8  UNL     1     -33.587   6.681   3.491  1.00 20.00     0.102 N 
HETATM    6  S9  UNL     1     -33.689   7.742   5.936  1.00 20.00    -0.131 SA
HETATM    7  H24 UNL     1     -34.118   6.507   2.639  1.00 20.00     0.317 HD
ENDROOT
BRANCH   3   8
HETATM    8  C7  UNL     1     -34.749   5.312   5.184  1.00 20.00     0.021 C 
HETATM    9  C5  UNL     1     -33.973   4.271   4.376  1.00 20.00     0.012 C 
HETATM   10  C6  UNL     1     -34.391   5.208   6.667  1.00 20.00     0.012 C 
ENDBRANCH   3   8
TORSDOF 1
ENDMDL
MODEL 6
REMARK VINA RESULT:      -3.5      2.104      3.501
REMARK  1 active torsions:
REMARK  status: ('A' for Active; 'I' for Inactive)
REMARK    1  A    between atoms: C3_3  and  C7_7 
ROOT
HETATM    1  C1  UNL     1     -33.454   7.391   6.458  1.00 20.00     0.111 C 
HETATM    2  C2  UNL     1     -33.440   8.192   5.156  1.00 20.00     0.227 C 
HETATM    3  C3  UNL     1     -34.390   6.211   4.296  1.00 20.00     0.285 C 
HETATM    4  C4  UNL     1     -32.264   9.160   5.107  1.00 20.00     0.043 C 
HETATM    5  N8  UNL     1     -33.357   7.225   4.046  1.00 20.00     0.102 N 
HETATM    6  S9  UNL     1     -34.538   5.992   6.096  1.00 20.00    -0.131 SA
HETATM    7  H24 UNL     1     -33.517   7.688   3.153  1.00 20.00     0.317 HD
ENDROOT
BRANCH   3   8
HETATM    8  C7  UNL     1     -34.042   4.893   3.618  1.00 20.00     0.021 C 
HETATM    9  C5  UNL     1     -32.920   5.088   2.597  1.00 20.00     0.012 C 
HETATM   10  C6  UNL     1     -33.643   3.839   4.651  1.00 20.00     0.012 C 
ENDBRANCH   3   8
TORSDOF 1
ENDMDL
MODEL 7
REMARK VINA RESULT:      -3.5     12.210     13.364
REMARK  1 active torsions:
REMARK  status: ('A' for Active; 'I' for Inactive)
REMARK    1  A    between atoms: C3_3  and  C7_7 
ROOT
HETATM    1  C1  UNL     1     -34.159  17.995  -4.079  1.00 20.00     0.111 C 
HETATM    2  C2  UNL     1     -33.455  16.810  -3.419  1.00 20.00     0.227 C 
HETATM    3  C3  UNL     1     -34.414  15.638  -5.228  1.00 20.00     0.285 C 
HETATM    4  C4  UNL     1     -33.388  16.972  -1.905  1.00 20.00     0.043 C 
HETATM    5  N8  UNL     1     -34.212  15.597  -3.773  1.00 20.00     0.102 N 
HETATM    6  S9  UNL     1     -34.603  17.380  -5.718  1.00 20.00    -0.131 SA
HETATM    7  H24 UNL     1     -33.697  14.760  -3.506  1.00 20.00     0.317 HD
ENDROOT
BRANCH   3   8
HETATM    8  C7  UNL     1     -35.636  14.827  -5.636  1.00 20.00     0.021 C 
HETATM    9  C5  UNL     1     -35.883  13.683  -4.651  1.00 20.00     0.012 C 
HETATM   10  C6  UNL     1     -36.874  15.719  -5.735  1.00 20.00     0.012 C 
ENDBRANCH   3   8
TORSDOF 1
ENDMDL
MODEL 8
REMARK VINA RESULT:      -3.4     12.330     13.717
REMARK  1 active torsions:
REMARK  status: ('A' for Active; 'I' for Inactive)
REMARK    1  A    between atoms: C3_3  and  C7_7 
ROOT
HETATM    1  C1  UNL     1     -36.738  16.728  -5.497  1.00 20.00     0.111 C 
HETATM    2  C2  UNL     1     -36.611  17.948  -4.584  1.00 20.00     0.227 C 
HETATM    3  C3  UNL     1     -34.362  17.245  -4.483  1.00 20.00     0.285 C 
HETATM    4  C4  UNL     1     -37.897  18.200  -3.806  1.00 20.00     0.043 C 
HETATM    5  N8  UNL     1     -35.493  17.690  -3.659  1.00 20.00     0.102 N 
HETATM    6  S9  UNL     1     -35.028  16.297  -5.886  1.00 20.00    -0.131 SA
HETATM    7  H24 UNL     1     -35.251  18.533  -3.142  1.00 20.00     0.317 HD
ENDROOT
BRANCH   3   8
HETATM    8  C7  UNL     1     -33.390  16.398  -3.672  1.00 20.00     0.021 C 
HETATM    9  C5  UNL     1     -33.469  16.755  -2.187  1.00 20.00     0.012 C 
HETATM   10  C6  UNL     1     -33.665  14.908  -3.876  1.00 20.00     0.012 C 
ENDBRANCH   3   8
TORSDOF 1
ENDMDL
MODEL 9
REMARK VINA RESULT:      -3.3      1.910      3.610
REMARK  1 active torsions:
REMARK  status: ('A' for Active; 'I' for Inactive)
REMARK    1  A    between atoms: C3_3  and  C7_7 
ROOT
HETATM    1  C1  UNL     1     -32.220   6.804   3.011  1.00 20.00     0.111 C 
HETATM    2  C2  UNL     1     -33.275   5.748   2.687  1.00 20.00     0.227 C 
HETATM    3  C3  UNL     1     -34.371   6.733   4.529  1.00 20.00     0.285 C 
HETATM    4  C4  UNL     1     -32.645   4.484   2.114  1.00 20.00     0.043 C 
HETATM    5  N8  UNL     1     -33.990   5.443   3.940  1.00 20.00     0.102 N 
HETATM    6  S9  UNL     1     -33.069   7.939   4.131  1.00 20.00    -0.131 SA
HETATM    7  H24 UNL     1     -34.815   4.875   3.755  1.00 20.00     0.317 HD
ENDROOT
BRANCH   3   8
HETATM    8  C7  UNL     1     -34.556   6.615   6.036  1.00 20.00     0.021 C 
HETATM    9  C5  UNL     1     -34.440   5.158   6.485  1.00 20.00     0.012 C 
HETATM   10  C6  UNL     1     -33.538   7.482   6.778  1.00 20.00     0.012 C 
ENDBRANCH   3   8
TORSDOF 1
ENDMDL
