MODEL 1
REMARK VINA RESULT:      -3.9      0.000      0.000
REMARK  2 active torsions:
REMARK  status: ('A' for Active; 'I' for Inactive)
REMARK    1  A    between atoms: C3_3  and  C6_6 
REMARK    2  A    between atoms: C6_6  and  C7_7 
ROOT
HETATM    1  C1  UNL     1     -33.491   7.595   5.415  1.00 20.00     0.285 C 
HETATM    2  C2  UNL     1     -34.371   6.462   4.888  1.00 20.00     0.073 C 
HETATM    3  C3  UNL     1     -32.320   7.215   3.408  1.00 20.00     0.282 C 
HETATM    4  C4  UNL     1     -34.716   5.440   5.957  1.00 20.00     0.023 C 
HETATM    5  N8  UNL     1     -32.910   8.261   4.246  1.00 20.00     0.098 N 
HETATM    6  S9  UNL     1     -33.371   5.735   3.559  1.00 20.00    -0.128 SA
HETATM    7  H24 UNL     1     -33.664   8.716   3.730  1.00 20.00     0.317 HD
ENDROOT
BRANCH   3   8
HETATM    8  C6  UNL     1     -32.237   7.680   1.962  1.00 20.00     0.046 C 
BRANCH   8   9
HETATM    9  C7  UNL     1     -32.726   9.118   1.810  1.00 20.00    -0.002 C 
HETATM   10  C5  UNL     1     -32.785   9.534   0.349  1.00 20.00     0.005 C 
ENDBRANCH   8   9
ENDBRANCH   3   8
TORSDOF 2
ENDMDL
MODEL 2
REMARK VINA RESULT:      -3.8     11.260     11.749
REMARK  2 active torsions:
REMARK  status: ('A' for Active; 'I' for Inactive)
REMARK    1  A    between atoms: C3_3  and  C6_6 
REMARK    2  A    between atoms: C6_6  and  C7_7 
ROOT
HETATM    1  C1  UNL     1     -32.092  19.263   2.663  1.00 20.00     0.285 C 
HETATM    2  C2  UNL     1     -30.835  18.571   2.136  1.00 20.00     0.073 C 
HETATM    3  C3  UNL     1     -32.840  18.923   0.456  1.00 20.00     0.282 C 
HETATM    4  C4  UNL     1     -29.556  19.262   2.576  1.00 20.00     0.023 C 
HETATM    5  N8  UNL     1     -33.216  18.768   1.863  1.00 20.00     0.098 N 
HETATM    6  S9  UNL     1     -31.046  18.629   0.334  1.00 20.00    -0.128 SA
HETATM    7  H24 UNL     1     -33.342  17.777   2.068  1.00 20.00     0.317 HD
ENDROOT
BRANCH   3   8
HETATM    8  C6  UNL     1     -33.613  17.941  -0.409  1.00 20.00     0.046 C 
BRANCH   8   9
HETATM    9  C7  UNL     1     -32.916  17.707  -1.747  1.00 20.00    -0.002 C 
HETATM   10  C5  UNL     1     -33.509  16.515  -2.482  1.00 20.00     0.005 C 
ENDBRANCH   8   9
ENDBRANCH   3   8
TORSDOF 2
ENDMDL
MODEL 3
REMARK VINA RESULT:      -3.6     11.363     12.422
REMARK  2 active torsions:
REMARK  status: ('A' for Active; 'I' for Inactive)
REMARK    1  A    between atoms: C3_3  and  C6_6 
REMARK    2  A    between atoms: C6_6  and  C7_7 
ROOT
HETATM    1  C1  UNL     1     -35.986  14.521  -5.715  1.00 20.00     0.285 C 
HETATM    2  C2  UNL     1     -36.363  16.001  -5.684  1.00 20.00     0.073 C 
HETATM    3  C3  UNL     1     -33.936  15.334  -4.891  1.00 20.00     0.282 C 
HETATM    4  C4  UNL     1     -37.090  16.449  -6.940  1.00 20.00     0.023 C 
HETATM    5  N8  UNL     1     -34.971  14.319  -4.679  1.00 20.00     0.098 N 
HETATM    6  S9  UNL     1     -34.764  16.839  -5.497  1.00 20.00    -0.128 SA
HETATM    7  H24 UNL     1     -35.406  14.472  -3.769  1.00 20.00     0.317 HD
ENDROOT
BRANCH   3   8
HETATM    8  C6  UNL     1     -33.189  15.606  -3.595  1.00 20.00     0.046 C 
BRANCH   8   9
HETATM    9  C7  UNL     1     -33.350  17.059  -3.154  1.00 20.00    -0.002 C 
HETATM   10  C5  UNL     1     -33.566  17.164  -1.653  1.00 20.00     0.005 C 
ENDBRANCH   8   9
ENDBRANCH   3   8
TORSDOF 2
ENDMDL
MODEL 4
REMARK VINA RESULT:      -3.6     15.445     15.970
REMARK  2 active torsions:
REMARK  status: ('A' for Active; 'I' for Inactive)
REMARK    1  A    between atoms: C3_3  and  C6_6 
REMARK    2  A    between atoms: C6_6  and  C7_7 
ROOT
HETATM    1  C1  UNL     1     -24.680  16.454  12.099  1.00 20.00     0.285 C 
HETATM    2  C2  UNL     1     -25.313  17.830  12.307  1.00 20.00     0.073 C 
HETATM    3  C3  UNL     1     -23.320  17.641  10.587  1.00 20.00     0.282 C 
HETATM    4  C4  UNL     1     -26.831  17.780  12.332  1.00 20.00     0.023 C 
HETATM    5  N8  UNL     1     -23.290  16.683  11.695  1.00 20.00     0.098 N 
HETATM    6  S9  UNL     1     -24.695  18.795  10.899  1.00 20.00    -0.128 SA
HETATM    7  H24 UNL     1     -22.792  17.099  12.482  1.00 20.00     0.317 HD
ENDROOT
BRANCH   3   8
HETATM    8  C6  UNL     1     -21.996  18.383  10.495  1.00 20.00     0.046 C 
BRANCH   8   9
HETATM    9  C7  UNL     1     -21.852  19.101   9.155  1.00 20.00    -0.002 C 
HETATM   10  C5  UNL     1     -21.971  18.132   7.989  1.00 20.00     0.005 C 
ENDBRANCH   8   9
ENDBRANCH   3   8
TORSDOF 2
ENDMDL
MODEL 5
REMARK VINA RESULT:      -3.6     11.413     12.332
REMARK  2 active torsions:
REMARK  status: ('A' for Active; 'I' for Inactive)
REMARK    1  A    between atoms: C3_3  and  C6_6 
REMARK    2  A    between atoms: C6_6  and  C7_7 
ROOT
HETATM    1  C1  UNL     1     -34.442  14.978  -4.823  1.00 20.00     0.285 C 
HETATM    2  C2  UNL     1     -35.146  16.268  -5.242  1.00 20.00     0.073 C 
HETATM    3  C3  UNL     1     -33.327  16.424  -3.336  1.00 20.00     0.282 C 
HETATM    4  C4  UNL     1     -35.261  16.413  -6.750  1.00 20.00     0.023 C 
HETATM    5  N8  UNL     1     -34.041  15.148  -3.424  1.00 20.00     0.098 N 
HETATM    6  S9  UNL     1     -34.107  17.570  -4.519  1.00 20.00    -0.128 SA
HETATM    7  H24 UNL     1     -34.885  15.198  -2.853  1.00 20.00     0.317 HD
ENDROOT
BRANCH   3   8
HETATM    8  C6  UNL     1     -33.397  16.972  -1.920  1.00 20.00     0.046 C 
BRANCH   8   9
HETATM    9  C7  UNL     1     -32.738  18.346  -1.820  1.00 20.00    -0.002 C 
HETATM   10  C5  UNL     1     -31.811  18.432  -0.619  1.00 20.00     0.005 C 
ENDBRANCH   8   9
ENDBRANCH   3   8
TORSDOF 2
ENDMDL
MODEL 6
REMARK VINA RESULT:      -3.5     10.379     11.048
REMARK  2 active torsions:
REMARK  status: ('A' for Active; 'I' for Inactive)
REMARK    1  A    between atoms: C3_3  and  C6_6 
REMARK    2  A    between atoms: C6_6  and  C7_7 
ROOT
HETATM    1  C1  UNL     1     -40.221  14.929   8.692  1.00 20.00     0.285 C 
HETATM    2  C2  UNL     1     -40.639  16.157   7.883  1.00 20.00     0.073 C 
HETATM    3  C3  UNL     1     -41.200  13.778   6.887  1.00 20.00     0.282 C 
HETATM    4  C4  UNL     1     -41.280  17.235   8.740  1.00 20.00     0.023 C 
HETATM    5  N8  UNL     1     -40.007  13.842   7.734  1.00 20.00     0.098 N 
HETATM    6  S9  UNL     1     -41.806  15.482   6.667  1.00 20.00    -0.128 SA
HETATM    7  H24 UNL     1     -39.200  14.078   7.157  1.00 20.00     0.317 HD
ENDROOT
BRANCH   3   8
HETATM    8  C6  UNL     1     -40.864  13.142   5.547  1.00 20.00     0.046 C 
BRANCH   8   9
HETATM    9  C7  UNL     1     -39.847  12.014   5.705  1.00 20.00    -0.002 C 
HETATM   10  C5  UNL     1     -39.159  11.697   4.387  1.00 20.00     0.005 C 
ENDBRANCH   8   9
ENDBRANCH   3   8
TORSDOF 2
ENDMDL
MODEL 7
REMARK VINA RESULT:      -3.5     11.525     12.886
REMARK  2 active torsions:
REMARK  status: ('A' for Active; 'I' for Inactive)
REMARK    1  A    between atoms: C3_3  and  C6_6 
REMARK    2  A    between atoms: C6_6  and  C7_7 
ROOT
HETATM    1  C1  UNL     1     -34.710  17.316  -6.468  1.00 20.00     0.285 C 
HETATM    2  C2  UNL     1     -34.591  15.825  -6.782  1.00 20.00     0.073 C 
HETATM    3  C3  UNL     1     -34.297  16.579  -4.270  1.00 20.00     0.282 C 
HETATM    4  C4  UNL     1     -35.675  15.334  -7.726  1.00 20.00     0.023 C 
HETATM    5  N8  UNL     1     -33.896  17.566  -5.276  1.00 20.00     0.098 N 
HETATM    6  S9  UNL     1     -34.713  15.039  -5.150  1.00 20.00    -0.128 SA
HETATM    7  H24 UNL     1     -32.917  17.414  -5.520  1.00 20.00     0.317 HD
ENDROOT
BRANCH   3   8
HETATM    8  C6  UNL     1     -33.170  16.351  -3.275  1.00 20.00     0.046 C 
BRANCH   8   9
HETATM    9  C7  UNL     1     -33.514  16.923  -1.902  1.00 20.00    -0.002 C 
HETATM   10  C5  UNL     1     -32.549  18.028  -1.503  1.00 20.00     0.005 C 
ENDBRANCH   8   9
ENDBRANCH   3   8
TORSDOF 2
ENDMDL
MODEL 8
REMARK VINA RESULT:      -3.3     15.814     16.175
REMARK  2 active torsions:
REMARK  status: ('A' for Active; 'I' for Inactive)
REMARK    1  A    between atoms: C3_3  and  C6_6 
REMARK    2  A    between atoms: C6_6  and  C7_7 
ROOT
HETATM    1  C1  UNL     1     -25.022  19.049  10.075  1.00 20.00     0.285 C 
HETATM    2  C2  UNL     1     -24.882  17.986  11.164  1.00 20.00     0.073 C 
HETATM    3  C3  UNL     1     -22.669  19.008  10.152  1.00 20.00     0.282 C 
HETATM    4  C4  UNL     1     -25.835  18.206  12.326  1.00 20.00     0.023 C 
HETATM    5  N8  UNL     1     -23.818  18.967   9.244  1.00 20.00     0.098 N 
HETATM    6  S9  UNL     1     -23.147  18.135  11.679  1.00 20.00    -0.128 SA
HETATM    7  H24 UNL     1     -23.825  18.071   8.756  1.00 20.00     0.317 HD
ENDROOT
BRANCH   3   8
HETATM    8  C6  UNL     1     -21.460  18.350   9.505  1.00 20.00     0.046 C 
BRANCH   8   9
HETATM    9  C7  UNL     1     -21.877  17.374   8.408  1.00 20.00    -0.002 C 
HETATM   10  C5  UNL     1     -21.293  17.768   7.061  1.00 20.00     0.005 C 
ENDBRANCH   8   9
ENDBRANCH   3   8
TORSDOF 2
ENDMDL
MODEL 9
REMARK VINA RESULT:      -3.3     11.199     12.721
REMARK  2 active torsions:
REMARK  status: ('A' for Active; 'I' for Inactive)
REMARK    1  A    between atoms: C3_3  and  C6_6 
REMARK    2  A    between atoms: C6_6  and  C7_7 
ROOT
HETATM    1  C1  UNL     1     -33.395  14.687  -4.135  1.00 20.00     0.285 C 
HETATM    2  C2  UNL     1     -33.307  16.193  -3.889  1.00 20.00     0.073 C 
HETATM    3  C3  UNL     1     -34.772  15.363  -5.922  1.00 20.00     0.282 C 
HETATM    4  C4  UNL     1     -33.461  16.559  -2.423  1.00 20.00     0.023 C 
HETATM    5  N8  UNL     1     -33.639  14.505  -5.569  1.00 20.00     0.098 N 
HETATM    6  S9  UNL     1     -34.661  16.864  -4.895  1.00 20.00    -0.128 SA
HETATM    7  H24 UNL     1     -32.812  14.818  -6.077  1.00 20.00     0.317 HD
ENDROOT
BRANCH   3   8
HETATM    8  C6  UNL     1     -34.730  15.711  -7.401  1.00 20.00     0.046 C 
BRANCH   8   9
HETATM    9  C7  UNL     1     -35.583  16.939  -7.710  1.00 20.00    -0.002 C 
HETATM   10  C5  UNL     1     -37.042  16.565  -7.918  1.00 20.00     0.005 C 
ENDBRANCH   8   9
ENDBRANCH   3   8
TORSDOF 2
ENDMDL
