MODEL 1
REMARK VINA RESULT:      -4.6      0.000      0.000
REMARK  2 active torsions:
REMARK  status: ('A' for Active; 'I' for Inactive)
REMARK    1  A    between atoms: C3_3  and  C7_7 
REMARK    2  A    between atoms: C7_7  and  C8_8 
ROOT
HETATM    1  C1  UNL     1     -33.302  16.835  -2.423  1.00 20.00     0.012 C 
HETATM    2  C2  UNL     1     -33.459  15.909  -3.170  1.00 20.00    -0.116 C 
HETATM    3  C8  UNL     1     -33.643  14.772  -4.078  1.00 20.00     0.113 C 
ENDROOT
BRANCH   3   4
HETATM    4  C7  UNL     1     -34.731  15.079  -5.145  1.00 20.00     0.058 C 
HETATM    5  C5  UNL     1     -34.224  15.113  -6.622  1.00 20.00     0.021 C 
HETATM    6  C4  UNL     1     -35.082  16.369  -6.851  1.00 20.00     0.003 C 
HETATM    7  C6  UNL     1     -35.076  16.591  -5.328  1.00 20.00     0.021 C 
BRANCH   4   8
HETATM    8  C3  UNL     1     -35.962  14.192  -4.943  1.00 20.00     0.182 C 
HETATM    9  O9  UNL     1     -37.054  14.691  -5.331  1.00 20.00    -0.647 OA
HETATM   10  O10 UNL     1     -35.725  13.071  -4.413  1.00 20.00    -0.647 OA
ENDBRANCH   4   8
ENDBRANCH   3   4
TORSDOF 2
ENDMDL
MODEL 2
REMARK VINA RESULT:      -4.5     12.246     13.174
REMARK  2 active torsions:
REMARK  status: ('A' for Active; 'I' for Inactive)
REMARK    1  A    between atoms: C3_3  and  C7_7 
REMARK    2  A    between atoms: C7_7  and  C8_8 
ROOT
HETATM    1  C1  UNL     1     -39.082  11.788   3.812  1.00 20.00     0.012 C 
HETATM    2  C2  UNL     1     -39.371  11.897   4.972  1.00 20.00    -0.116 C 
HETATM    3  C8  UNL     1     -39.717  12.022   6.392  1.00 20.00     0.113 C 
ENDROOT
BRANCH   3   4
HETATM    4  C7  UNL     1     -40.837  13.079   6.603  1.00 20.00     0.058 C 
HETATM    5  C5  UNL     1     -42.268  12.495   6.829  1.00 20.00     0.021 C 
HETATM    6  C4  UNL     1     -42.821  13.578   5.886  1.00 20.00     0.003 C 
HETATM    7  C6  UNL     1     -41.406  13.716   5.296  1.00 20.00     0.021 C 
BRANCH   4   8
HETATM    8  C3  UNL     1     -40.426  14.111   7.656  1.00 20.00     0.182 C 
HETATM    9  O9  UNL     1     -40.264  15.286   7.225  1.00 20.00    -0.647 OA
HETATM   10  O10 UNL     1     -40.301  13.652   8.826  1.00 20.00    -0.647 OA
ENDBRANCH   4   8
ENDBRANCH   3   4
TORSDOF 2
ENDMDL
MODEL 3
REMARK VINA RESULT:      -4.3      0.998      1.207
REMARK  2 active torsions:
REMARK  status: ('A' for Active; 'I' for Inactive)
REMARK    1  A    between atoms: C3_3  and  C7_7 
REMARK    2  A    between atoms: C7_7  and  C8_8 
ROOT
HETATM    1  C1  UNL     1     -33.280  16.647  -2.532  1.00 20.00     0.012 C 
HETATM    2  C2  UNL     1     -33.577  15.916  -3.436  1.00 20.00    -0.116 C 
HETATM    3  C8  UNL     1     -33.933  15.016  -4.537  1.00 20.00     0.113 C 
ENDROOT
BRANCH   3   4
HETATM    4  C7  UNL     1     -34.973  15.675  -5.485  1.00 20.00     0.058 C 
HETATM    5  C5  UNL     1     -34.369  16.495  -6.670  1.00 20.00     0.021 C 
HETATM    6  C4  UNL     1     -35.420  17.585  -6.406  1.00 20.00     0.003 C 
HETATM    7  C6  UNL     1     -35.571  17.026  -4.980  1.00 20.00     0.021 C 
BRANCH   4   8
HETATM    8  C3  UNL     1     -36.035  14.663  -5.922  1.00 20.00     0.182 C 
HETATM    9  O9  UNL     1     -35.923  14.243  -7.107  1.00 20.00    -0.647 OA
HETATM   10  O10 UNL     1     -36.890  14.378  -5.038  1.00 20.00    -0.647 OA
ENDBRANCH   4   8
ENDBRANCH   3   4
TORSDOF 2
ENDMDL
MODEL 4
REMARK VINA RESULT:      -4.3     12.007     13.213
REMARK  2 active torsions:
REMARK  status: ('A' for Active; 'I' for Inactive)
REMARK    1  A    between atoms: C3_3  and  C7_7 
REMARK    2  A    between atoms: C7_7  and  C8_8 
ROOT
HETATM    1  C1  UNL     1     -32.196   9.314   5.188  1.00 20.00     0.012 C 
HETATM    2  C2  UNL     1     -32.566   8.427   4.470  1.00 20.00    -0.116 C 
HETATM    3  C8  UNL     1     -33.015   7.348   3.584  1.00 20.00     0.113 C 
ENDROOT
BRANCH   3   4
HETATM    4  C7  UNL     1     -33.736   6.229   4.387  1.00 20.00     0.058 C 
HETATM    5  C5  UNL     1     -35.221   6.531   4.765  1.00 20.00     0.021 C 
HETATM    6  C4  UNL     1     -34.943   5.961   6.166  1.00 20.00     0.003 C 
HETATM    7  C6  UNL     1     -33.446   6.218   5.921  1.00 20.00     0.021 C 
BRANCH   4   8
HETATM    8  C3  UNL     1     -33.542   4.865   3.719  1.00 20.00     0.182 C 
HETATM    9  O9  UNL     1     -34.016   3.883   4.355  1.00 20.00    -0.647 OA
HETATM   10  O10 UNL     1     -32.931   4.897   2.615  1.00 20.00    -0.647 OA
ENDBRANCH   4   8
ENDBRANCH   3   4
TORSDOF 2
ENDMDL
MODEL 5
REMARK VINA RESULT:      -4.1      2.027      2.521
REMARK  2 active torsions:
REMARK  status: ('A' for Active; 'I' for Inactive)
REMARK    1  A    between atoms: C3_3  and  C7_7 
REMARK    2  A    between atoms: C7_7  and  C8_8 
ROOT
HETATM    1  C1  UNL     1     -33.287  16.680  -2.588  1.00 20.00     0.012 C 
HETATM    2  C2  UNL     1     -33.405  15.939  -3.525  1.00 20.00    -0.116 C 
HETATM    3  C8  UNL     1     -33.541  15.027  -4.665  1.00 20.00     0.113 C 
ENDROOT
BRANCH   3   4
HETATM    4  C7  UNL     1     -34.683  15.486  -5.615  1.00 20.00     0.058 C 
HETATM    5  C5  UNL     1     -35.651  16.559  -5.023  1.00 20.00     0.021 C 
HETATM    6  C4  UNL     1     -36.830  15.779  -5.629  1.00 20.00     0.003 C 
HETATM    7  C6  UNL     1     -35.921  14.538  -5.674  1.00 20.00     0.021 C 
BRANCH   4   8
HETATM    8  C3  UNL     1     -34.132  15.857  -6.994  1.00 20.00     0.182 C 
HETATM    9  O9  UNL     1     -34.258  17.071  -7.316  1.00 20.00    -0.647 OA
HETATM   10  O10 UNL     1     -33.620  14.898  -7.636  1.00 20.00    -0.647 OA
ENDBRANCH   4   8
ENDBRANCH   3   4
TORSDOF 2
ENDMDL
MODEL 6
REMARK VINA RESULT:      -4.0     11.553     12.770
REMARK  2 active torsions:
REMARK  status: ('A' for Active; 'I' for Inactive)
REMARK    1  A    between atoms: C3_3  and  C7_7 
REMARK    2  A    between atoms: C7_7  and  C8_8 
ROOT
HETATM    1  C1  UNL     1     -34.738   5.164   6.675  1.00 20.00     0.012 C 
HETATM    2  C2  UNL     1     -34.758   5.725   5.614  1.00 20.00    -0.116 C 
HETATM    3  C8  UNL     1     -34.791   6.406   4.316  1.00 20.00     0.113 C 
ENDROOT
BRANCH   3   4
HETATM    4  C7  UNL     1     -33.491   7.224   4.080  1.00 20.00     0.058 C 
HETATM    5  C5  UNL     1     -32.640   7.507   5.360  1.00 20.00     0.021 C 
HETATM    6  C4  UNL     1     -32.436   8.948   4.863  1.00 20.00     0.003 C 
HETATM    7  C6  UNL     1     -33.686   8.771   3.984  1.00 20.00     0.021 C 
BRANCH   4   8
HETATM    8  C3  UNL     1     -32.677   6.639   2.924  1.00 20.00     0.182 C 
HETATM    9  O9  UNL     1     -32.107   7.487   2.183  1.00 20.00    -0.647 OA
HETATM   10  O10 UNL     1     -32.680   5.378   2.860  1.00 20.00    -0.647 OA
ENDBRANCH   4   8
ENDBRANCH   3   4
TORSDOF 2
ENDMDL
MODEL 7
REMARK VINA RESULT:      -4.0     12.493     13.348
REMARK  2 active torsions:
REMARK  status: ('A' for Active; 'I' for Inactive)
REMARK    1  A    between atoms: C3_3  and  C7_7 
REMARK    2  A    between atoms: C7_7  and  C8_8 
ROOT
HETATM    1  C1  UNL     1     -39.337  11.673   4.497  1.00 20.00     0.012 C 
HETATM    2  C2  UNL     1     -39.608  12.307   5.479  1.00 20.00    -0.116 C 
HETATM    3  C8  UNL     1     -39.929  13.081   6.683  1.00 20.00     0.113 C 
ENDROOT
BRANCH   3   4
HETATM    4  C7  UNL     1     -41.362  13.676   6.600  1.00 20.00     0.058 C 
HETATM    5  C5  UNL     1     -41.881  13.964   5.155  1.00 20.00     0.021 C 
HETATM    6  C4  UNL     1     -42.444  15.303   5.661  1.00 20.00     0.003 C 
HETATM    7  C6  UNL     1     -41.458  15.216   6.839  1.00 20.00     0.021 C 
BRANCH   4   8
HETATM    8  C3  UNL     1     -42.343  12.865   7.449  1.00 20.00     0.182 C 
HETATM    9  O9  UNL     1     -43.006  11.993   6.822  1.00 20.00    -0.647 OA
HETATM   10  O10 UNL     1     -42.363  13.173   8.674  1.00 20.00    -0.647 OA
ENDBRANCH   4   8
ENDBRANCH   3   4
TORSDOF 2
ENDMDL
MODEL 8
REMARK VINA RESULT:      -4.0     11.522     12.790
REMARK  2 active torsions:
REMARK  status: ('A' for Active; 'I' for Inactive)
REMARK    1  A    between atoms: C3_3  and  C7_7 
REMARK    2  A    between atoms: C7_7  and  C8_8 
ROOT
HETATM    1  C1  UNL     1     -32.002   8.114   1.870  1.00 20.00     0.012 C 
HETATM    2  C2  UNL     1     -32.366   7.210   2.570  1.00 20.00    -0.116 C 
HETATM    3  C8  UNL     1     -32.805   6.098   3.420  1.00 20.00     0.113 C 
ENDROOT
BRANCH   3   4
HETATM    4  C7  UNL     1     -33.797   6.587   4.512  1.00 20.00     0.058 C 
HETATM    5  C5  UNL     1     -34.176   8.100   4.439  1.00 20.00     0.021 C 
HETATM    6  C4  UNL     1     -34.031   8.175   5.968  1.00 20.00     0.003 C 
HETATM    7  C6  UNL     1     -33.155   6.912   5.897  1.00 20.00     0.021 C 
BRANCH   4   8
HETATM    8  C3  UNL     1     -35.011   5.658   4.605  1.00 20.00     0.182 C 
HETATM    9  O9  UNL     1     -34.805   4.561   5.194  1.00 20.00    -0.647 OA
HETATM   10  O10 UNL     1     -36.065   6.111   4.078  1.00 20.00    -0.647 OA
ENDBRANCH   4   8
ENDBRANCH   3   4
TORSDOF 2
ENDMDL
MODEL 9
REMARK VINA RESULT:      -3.9      1.906      2.561
REMARK  2 active torsions:
REMARK  status: ('A' for Active; 'I' for Inactive)
REMARK    1  A    between atoms: C3_3  and  C7_7 
REMARK    2  A    between atoms: C7_7  and  C8_8 
ROOT
HETATM    1  C1  UNL     1     -33.551  16.983  -1.829  1.00 20.00     0.012 C 
HETATM    2  C2  UNL     1     -33.395  16.361  -2.844  1.00 20.00    -0.116 C 
HETATM    3  C8  UNL     1     -33.195  15.597  -4.079  1.00 20.00     0.113 C 
ENDROOT
BRANCH   3   4
HETATM    4  C7  UNL     1     -34.369  15.823  -5.073  1.00 20.00     0.058 C 
HETATM    5  C5  UNL     1     -35.554  14.813  -4.946  1.00 20.00     0.021 C 
HETATM    6  C4  UNL     1     -35.602  14.730  -6.481  1.00 20.00     0.003 C 
HETATM    7  C6  UNL     1     -34.150  15.241  -6.505  1.00 20.00     0.021 C 
BRANCH   4   8
HETATM    8  C3  UNL     1     -34.814  17.288  -5.071  1.00 20.00     0.182 C 
HETATM    9  O9  UNL     1     -34.024  18.091  -5.639  1.00 20.00    -0.647 OA
HETATM   10  O10 UNL     1     -35.919  17.504  -4.499  1.00 20.00    -0.647 OA
ENDBRANCH   4   8
ENDBRANCH   3   4
TORSDOF 2
ENDMDL
