MODEL 1
REMARK VINA RESULT:      -4.9      0.000      0.000
REMARK  0 active torsions:
REMARK  status: ('A' for Active; 'I' for Inactive)
ROOT
HETATM    1  C1  UNL     1     -34.654   5.832   5.788  1.00 20.00     0.019 A 
HETATM    2  C2  UNL     1     -34.052   7.118   6.014  1.00 20.00     0.031 A 
HETATM    3  C3  UNL     1     -34.381   5.159   4.665  1.00 20.00     0.094 A 
HETATM    4  C4  UNL     1     -33.220   7.652   5.112  1.00 20.00     0.102 A 
HETATM    5  C5  UNL     1     -32.899   6.915   3.845  1.00 20.00     0.268 A 
HETATM    6  C6  UNL     1     -33.270   4.883   2.501  1.00 20.00     0.159 C 
HETATM    7  N7  UNL     1     -33.526   5.668   3.702  1.00 20.00    -0.328 N 
HETATM    8  O8  UNL     1     -32.132   7.410   3.019  1.00 20.00    -0.266 OA
HETATM    9 CL9  UNL     1     -32.487   9.188   5.360  1.00 20.00    -0.078 Cl
ENDROOT
TORSDOF 0
ENDMDL
MODEL 2
REMARK VINA RESULT:      -4.8      2.105      2.951
REMARK  0 active torsions:
REMARK  status: ('A' for Active; 'I' for Inactive)
ROOT
HETATM    1  C1  UNL     1     -34.622   5.931   5.855  1.00 20.00     0.019 A 
HETATM    2  C2  UNL     1     -34.377   5.159   4.666  1.00 20.00     0.031 A 
HETATM    3  C3  UNL     1     -34.036   7.125   6.003  1.00 20.00     0.094 A 
HETATM    4  C4  UNL     1     -33.569   5.620   3.704  1.00 20.00     0.102 A 
HETATM    5  C5  UNL     1     -32.902   6.956   3.849  1.00 20.00     0.268 A 
HETATM    6  C6  UNL     1     -32.588   8.953   5.259  1.00 20.00     0.159 C 
HETATM    7  N7  UNL     1     -33.193   7.646   5.036  1.00 20.00    -0.328 N 
HETATM    8  O8  UNL     1     -32.160   7.376   2.961  1.00 20.00    -0.266 OA
HETATM    9 CL9  UNL     1     -33.262   4.715   2.275  1.00 20.00    -0.078 Cl
ENDROOT
TORSDOF 0
ENDMDL
MODEL 3
REMARK VINA RESULT:      -4.7      1.978      2.601
REMARK  0 active torsions:
REMARK  status: ('A' for Active; 'I' for Inactive)
ROOT
HETATM    1  C1  UNL     1     -32.470   8.140   4.054  1.00 20.00     0.019 A 
HETATM    2  C2  UNL     1     -33.250   7.908   5.239  1.00 20.00     0.031 A 
HETATM    3  C3  UNL     1     -32.397   7.194   3.110  1.00 20.00     0.094 A 
HETATM    4  C4  UNL     1     -33.905   6.754   5.412  1.00 20.00     0.102 A 
HETATM    5  C5  UNL     1     -33.839   5.678   4.367  1.00 20.00     0.268 A 
HETATM    6  C6  UNL     1     -32.938   4.997   2.177  1.00 20.00     0.159 C 
HETATM    7  N7  UNL     1     -33.058   5.985   3.242  1.00 20.00    -0.328 N 
HETATM    8  O8  UNL     1     -34.444   4.619   4.531  1.00 20.00    -0.266 OA
HETATM    9 CL9  UNL     1     -34.845   6.453   6.821  1.00 20.00    -0.078 Cl
ENDROOT
TORSDOF 0
ENDMDL
MODEL 4
REMARK VINA RESULT:      -4.6      1.565      2.525
REMARK  0 active torsions:
REMARK  status: ('A' for Active; 'I' for Inactive)
ROOT
HETATM    1  C1  UNL     1     -32.679   6.124   2.677  1.00 20.00     0.019 A 
HETATM    2  C2  UNL     1     -32.209   7.388   3.176  1.00 20.00     0.031 A 
HETATM    3  C3  UNL     1     -33.574   5.424   3.383  1.00 20.00     0.094 A 
HETATM    4  C4  UNL     1     -32.657   7.875   4.340  1.00 20.00     0.102 A 
HETATM    5  C5  UNL     1     -33.661   7.107   5.148  1.00 20.00     0.268 A 
HETATM    6  C6  UNL     1     -35.043   5.072   5.310  1.00 20.00     0.159 C 
HETATM    7  N7  UNL     1     -34.068   5.884   4.591  1.00 20.00    -0.328 N 
HETATM    8  O8  UNL     1     -34.070   7.558   6.217  1.00 20.00    -0.266 OA
HETATM    9 CL9  UNL     1     -32.110   9.384   4.956  1.00 20.00    -0.078 Cl
ENDROOT
TORSDOF 0
ENDMDL
MODEL 5
REMARK VINA RESULT:      -4.6      2.472      3.588
REMARK  0 active torsions:
REMARK  status: ('A' for Active; 'I' for Inactive)
ROOT
HETATM    1  C1  UNL     1     -32.288   8.294   4.062  1.00 20.00     0.019 A 
HETATM    2  C2  UNL     1     -32.264   7.285   3.037  1.00 20.00     0.031 A 
HETATM    3  C3  UNL     1     -33.001   8.092   5.176  1.00 20.00     0.094 A 
HETATM    4  C4  UNL     1     -32.948   6.144   3.184  1.00 20.00     0.102 A 
HETATM    5  C5  UNL     1     -33.754   5.896   4.425  1.00 20.00     0.268 A 
HETATM    6  C6  UNL     1     -34.479   6.771   6.612  1.00 20.00     0.159 C 
HETATM    7  N7  UNL     1     -33.724   6.929   5.375  1.00 20.00    -0.328 N 
HETATM    8  O8  UNL     1     -34.381   4.845   4.555  1.00 20.00    -0.266 OA
HETATM    9 CL9  UNL     1     -32.935   4.924   1.973  1.00 20.00    -0.078 Cl
ENDROOT
TORSDOF 0
ENDMDL
MODEL 6
REMARK VINA RESULT:      -4.5      2.451      3.540
REMARK  0 active torsions:
REMARK  status: ('A' for Active; 'I' for Inactive)
ROOT
HETATM    1  C1  UNL     1     -32.585   6.230   2.672  1.00 20.00     0.019 A 
HETATM    2  C2  UNL     1     -33.555   5.457   3.400  1.00 20.00     0.031 A 
HETATM    3  C3  UNL     1     -32.174   7.407   3.157  1.00 20.00     0.094 A 
HETATM    4  C4  UNL     1     -34.053   5.901   4.560  1.00 20.00     0.102 A 
HETATM    5  C5  UNL     1     -33.607   7.218   5.124  1.00 20.00     0.268 A 
HETATM    6  C6  UNL     1     -32.169   9.198   4.826  1.00 20.00     0.159 C 
HETATM    7  N7  UNL     1     -32.659   7.909   4.352  1.00 20.00    -0.328 N 
HETATM    8  O8  UNL     1     -34.068   7.622   6.191  1.00 20.00    -0.266 OA
HETATM    9 CL9  UNL     1     -35.213   4.994   5.449  1.00 20.00    -0.078 Cl
ENDROOT
TORSDOF 0
ENDMDL
MODEL 7
REMARK VINA RESULT:      -4.5      2.185      2.786
REMARK  0 active torsions:
REMARK  status: ('A' for Active; 'I' for Inactive)
ROOT
HETATM    1  C1  UNL     1     -33.049   8.646   5.525  1.00 20.00     0.019 A 
HETATM    2  C2  UNL     1     -33.818   7.554   6.059  1.00 20.00     0.031 A 
HETATM    3  C3  UNL     1     -32.516   8.547   4.302  1.00 20.00     0.094 A 
HETATM    4  C4  UNL     1     -34.007   6.437   5.346  1.00 20.00     0.102 A 
HETATM    5  C5  UNL     1     -33.419   6.304   3.972  1.00 20.00     0.268 A 
HETATM    6  C6  UNL     1     -32.079   7.370   2.200  1.00 20.00     0.159 C 
HETATM    7  N7  UNL     1     -32.685   7.414   3.525  1.00 20.00    -0.328 N 
HETATM    8  O8  UNL     1     -33.597   5.275   3.320  1.00 20.00    -0.266 OA
HETATM    9 CL9  UNL     1     -34.923   5.119   5.963  1.00 20.00    -0.078 Cl
ENDROOT
TORSDOF 0
ENDMDL
MODEL 8
REMARK VINA RESULT:      -4.2      1.672      2.780
REMARK  0 active torsions:
REMARK  status: ('A' for Active; 'I' for Inactive)
ROOT
HETATM    1  C1  UNL     1     -33.904   4.597   3.788  1.00 20.00     0.019 A 
HETATM    2  C2  UNL     1     -33.174   5.403   2.846  1.00 20.00     0.031 A 
HETATM    3  C3  UNL     1     -34.267   5.118   4.965  1.00 20.00     0.094 A 
HETATM    4  C4  UNL     1     -32.852   6.669   3.133  1.00 20.00     0.102 A 
HETATM    5  C5  UNL     1     -33.249   7.275   4.447  1.00 20.00     0.268 A 
HETATM    6  C6  UNL     1     -34.385   6.930   6.607  1.00 20.00     0.159 C 
HETATM    7  N7  UNL     1     -33.959   6.423   5.308  1.00 20.00    -0.328 N 
HETATM    8  O8  UNL     1     -32.951   8.441   4.706  1.00 20.00    -0.266 OA
HETATM    9 CL9  UNL     1     -31.980   7.652   2.023  1.00 20.00    -0.078 Cl
ENDROOT
TORSDOF 0
ENDMDL
MODEL 9
REMARK VINA RESULT:      -3.4     12.942     13.636
REMARK  0 active torsions:
REMARK  status: ('A' for Active; 'I' for Inactive)
ROOT
HETATM    1  C1  UNL     1     -33.994  17.785  -1.686  1.00 20.00     0.019 A 
HETATM    2  C2  UNL     1     -33.346  16.642  -2.269  1.00 20.00     0.031 A 
HETATM    3  C3  UNL     1     -34.855  18.504  -2.416  1.00 20.00     0.094 A 
HETATM    4  C4  UNL     1     -33.593  16.286  -3.536  1.00 20.00     0.102 A 
HETATM    5  C5  UNL     1     -34.555  17.077  -4.373  1.00 20.00     0.268 A 
HETATM    6  C6  UNL     1     -36.094  19.000  -4.468  1.00 20.00     0.159 C 
HETATM    7  N7  UNL     1     -35.145  18.176  -3.729  1.00 20.00    -0.328 N 
HETATM    8  O8  UNL     1     -34.780  16.745  -5.537  1.00 20.00    -0.266 OA
HETATM    9 CL9  UNL     1     -32.831  14.923  -4.254  1.00 20.00    -0.078 Cl
ENDROOT
TORSDOF 0
ENDMDL
