MODEL 1
REMARK VINA RESULT:      -3.9      0.000      0.000
REMARK  3 active torsions:
REMARK  status: ('A' for Active; 'I' for Inactive)
REMARK    1  A    between atoms: C3_3  and  C6_6 
REMARK    2  A    between atoms: C6_6  and  C8_8 
REMARK    3  A    between atoms: C7_7  and  C8_8 
ROOT
HETATM    1  C1  UNL     1     -36.037  14.012  -5.109  1.00 20.00     0.285 C 
HETATM    2  C2  UNL     1     -36.028  15.191  -6.084  1.00 20.00     0.073 C 
HETATM    3  C3  UNL     1     -33.797  14.655  -4.762  1.00 20.00     0.282 C 
HETATM    4  C4  UNL     1     -36.739  16.425  -5.537  1.00 20.00     0.023 C 
HETATM    5  N9  UNL     1     -35.035  14.280  -4.075  1.00 20.00     0.098 N 
HETATM    6  S10 UNL     1     -34.255  15.540  -6.288  1.00 20.00    -0.128 SA
HETATM    7  H27 UNL     1     -35.354  15.060  -3.503  1.00 20.00     0.317 HD
ENDROOT
BRANCH   3   8
HETATM    8  C6  UNL     1     -32.940  15.531  -3.862  1.00 20.00     0.046 C 
BRANCH   8   9
HETATM    9  C8  UNL     1     -33.714  16.752  -3.370  1.00 20.00     0.002 C 
BRANCH   9  10
HETATM   10  C7  UNL     1     -33.547  16.944  -1.862  1.00 20.00    -0.004 C 
HETATM   11  C5  UNL     1     -32.542  18.040  -1.547  1.00 20.00     0.005 C 
ENDBRANCH   9  10
ENDBRANCH   8   9
ENDBRANCH   3   8
TORSDOF 3
ENDMDL
MODEL 2
REMARK VINA RESULT:      -3.7      2.092      2.993
REMARK  3 active torsions:
REMARK  status: ('A' for Active; 'I' for Inactive)
REMARK    1  A    between atoms: C3_3  and  C6_6 
REMARK    2  A    between atoms: C6_6  and  C8_8 
REMARK    3  A    between atoms: C7_7  and  C8_8 
ROOT
HETATM    1  C1  UNL     1     -33.946  15.889  -4.516  1.00 20.00     0.285 C 
HETATM    2  C2  UNL     1     -34.384  17.299  -4.917  1.00 20.00     0.073 C 
HETATM    3  C3  UNL     1     -33.151  16.996  -2.593  1.00 20.00     0.282 C 
HETATM    4  C4  UNL     1     -35.882  17.531  -4.749  1.00 20.00     0.023 C 
HETATM    5  N9  UNL     1     -33.913  15.832  -3.052  1.00 20.00     0.098 N 
HETATM    6  S10 UNL     1     -33.461  18.358  -3.764  1.00 20.00    -0.128 SA
HETATM    7  H27 UNL     1     -34.867  15.891  -2.700  1.00 20.00     0.317 HD
ENDROOT
BRANCH   3   8
HETATM    8  C6  UNL     1     -33.577  17.382  -1.185  1.00 20.00     0.046 C 
BRANCH   8   9
HETATM    9  C8  UNL     1     -32.902  18.674  -0.733  1.00 20.00     0.002 C 
BRANCH   9  10
HETATM   10  C7  UNL     1     -31.412  18.458  -0.465  1.00 20.00    -0.004 C 
HETATM   11  C5  UNL     1     -31.102  18.492   1.023  1.00 20.00     0.005 C 
ENDBRANCH   9  10
ENDBRANCH   8   9
ENDBRANCH   3   8
TORSDOF 3
ENDMDL
MODEL 3
REMARK VINA RESULT:      -3.7      3.586      6.380
REMARK  3 active torsions:
REMARK  status: ('A' for Active; 'I' for Inactive)
REMARK    1  A    between atoms: C3_3  and  C6_6 
REMARK    2  A    between atoms: C6_6  and  C8_8 
REMARK    3  A    between atoms: C7_7  and  C8_8 
ROOT
HETATM    1  C1  UNL     1     -33.101  19.263   1.559  1.00 20.00     0.285 C 
HETATM    2  C2  UNL     1     -31.667  19.262   1.026  1.00 20.00     0.073 C 
HETATM    3  C3  UNL     1     -33.585  18.376  -0.570  1.00 20.00     0.282 C 
HETATM    4  C4  UNL     1     -30.819  18.128   1.593  1.00 20.00     0.023 C 
HETATM    5  N9  UNL     1     -33.837  18.204   0.863  1.00 20.00     0.098 N 
HETATM    6  S10 UNL     1     -31.895  19.030  -0.762  1.00 20.00    -0.128 SA
HETATM    7  H27 UNL     1     -33.474  17.301   1.164  1.00 20.00     0.317 HD
ENDROOT
BRANCH   3   8
HETATM    8  C6  UNL     1     -33.740  17.048  -1.295  1.00 20.00     0.046 C 
BRANCH   8   9
HETATM    9  C8  UNL     1     -33.015  17.058  -2.638  1.00 20.00     0.002 C 
BRANCH   9  10
HETATM   10  C7  UNL     1     -33.801  16.287  -3.699  1.00 20.00    -0.004 C 
HETATM   11  C5  UNL     1     -33.042  15.059  -4.174  1.00 20.00     0.005 C 
ENDBRANCH   9  10
ENDBRANCH   8   9
ENDBRANCH   3   8
TORSDOF 3
ENDMDL
MODEL 4
REMARK VINA RESULT:      -3.7      1.490      1.984
REMARK  3 active torsions:
REMARK  status: ('A' for Active; 'I' for Inactive)
REMARK    1  A    between atoms: C3_3  and  C6_6 
REMARK    2  A    between atoms: C6_6  and  C8_8 
REMARK    3  A    between atoms: C7_7  and  C8_8 
ROOT
HETATM    1  C1  UNL     1     -34.203  15.084  -6.378  1.00 20.00     0.285 C 
HETATM    2  C2  UNL     1     -35.683  14.909  -6.029  1.00 20.00     0.073 C 
HETATM    3  C3  UNL     1     -34.459  17.101  -5.188  1.00 20.00     0.282 C 
HETATM    4  C4  UNL     1     -35.916  13.910  -4.900  1.00 20.00     0.023 C 
HETATM    5  N9  UNL     1     -33.598  15.927  -5.345  1.00 20.00     0.098 N 
HETATM    6  S10 UNL     1     -36.177  16.574  -5.493  1.00 20.00    -0.128 SA
HETATM    7  H27 UNL     1     -33.573  15.406  -4.470  1.00 20.00     0.317 HD
ENDROOT
BRANCH   3   8
HETATM    8  C6  UNL     1     -34.310  17.682  -3.790  1.00 20.00     0.046 C 
BRANCH   8   9
HETATM    9  C8  UNL     1     -33.537  16.736  -2.873  1.00 20.00     0.002 C 
BRANCH   9  10
HETATM   10  C7  UNL     1     -33.539  17.239  -1.428  1.00 20.00    -0.004 C 
HETATM   11  C5  UNL     1     -32.371  18.174  -1.162  1.00 20.00     0.005 C 
ENDBRANCH   9  10
ENDBRANCH   8   9
ENDBRANCH   3   8
TORSDOF 3
ENDMDL
MODEL 5
REMARK VINA RESULT:      -3.6      1.308      1.882
REMARK  3 active torsions:
REMARK  status: ('A' for Active; 'I' for Inactive)
REMARK    1  A    between atoms: C3_3  and  C6_6 
REMARK    2  A    between atoms: C6_6  and  C8_8 
REMARK    3  A    between atoms: C7_7  and  C8_8 
ROOT
HETATM    1  C1  UNL     1     -34.491  14.946  -5.239  1.00 20.00     0.285 C 
HETATM    2  C2  UNL     1     -35.108  16.291  -5.628  1.00 20.00     0.073 C 
HETATM    3  C3  UNL     1     -33.418  16.245  -3.591  1.00 20.00     0.282 C 
HETATM    4  C4  UNL     1     -36.556  16.439  -5.172  1.00 20.00     0.023 C 
HETATM    5  N9  UNL     1     -34.162  15.003  -3.812  1.00 20.00     0.098 N 
HETATM    6  S10 UNL     1     -34.060  17.492  -4.756  1.00 20.00    -0.128 SA
HETATM    7  H27 UNL     1     -35.029  15.028  -3.277  1.00 20.00     0.317 HD
ENDROOT
BRANCH   3   8
HETATM    8  C6  UNL     1     -33.582  16.709  -2.152  1.00 20.00     0.046 C 
BRANCH   8   9
HETATM    9  C8  UNL     1     -32.862  18.033  -1.907  1.00 20.00     0.002 C 
BRANCH   9  10
HETATM   10  C7  UNL     1     -32.641  18.276  -0.413  1.00 20.00    -0.004 C 
HETATM   11  C5  UNL     1     -31.183  18.579  -0.108  1.00 20.00     0.005 C 
ENDBRANCH   9  10
ENDBRANCH   8   9
ENDBRANCH   3   8
TORSDOF 3
ENDMDL
MODEL 6
REMARK VINA RESULT:      -3.6     12.446     13.637
REMARK  3 active torsions:
REMARK  status: ('A' for Active; 'I' for Inactive)
REMARK    1  A    between atoms: C3_3  and  C6_6 
REMARK    2  A    between atoms: C6_6  and  C8_8 
REMARK    3  A    between atoms: C7_7  and  C8_8 
ROOT
HETATM    1  C1  UNL     1     -40.374  15.237   9.301  1.00 20.00     0.285 C 
HETATM    2  C2  UNL     1     -41.393  16.240   8.754  1.00 20.00     0.073 C 
HETATM    3  C3  UNL     1     -41.196  13.889   7.552  1.00 20.00     0.282 C 
HETATM    4  C4  UNL     1     -40.752  17.358   7.939  1.00 20.00     0.023 C 
HETATM    5  N9  UNL     1     -39.970  14.364   8.196  1.00 20.00     0.098 N 
HETATM    6  S10 UNL     1     -42.440  15.215   7.679  1.00 20.00    -0.128 SA
HETATM    7  H27 UNL     1     -39.427  14.911   7.528  1.00 20.00     0.317 HD
ENDROOT
BRANCH   3   8
HETATM    8  C6  UNL     1     -40.925  13.536   6.097  1.00 20.00     0.046 C 
BRANCH   8   9
HETATM    9  C8  UNL     1     -40.414  12.104   5.956  1.00 20.00     0.002 C 
BRANCH   9  10
HETATM   10  C7  UNL     1     -38.986  12.076   5.410  1.00 20.00    -0.004 C 
HETATM   11  C5  UNL     1     -38.953  11.636   3.956  1.00 20.00     0.005 C 
ENDBRANCH   9  10
ENDBRANCH   8   9
ENDBRANCH   3   8
TORSDOF 3
ENDMDL
MODEL 7
REMARK VINA RESULT:      -3.6      2.189      4.855
REMARK  3 active torsions:
REMARK  status: ('A' for Active; 'I' for Inactive)
REMARK    1  A    between atoms: C3_3  and  C6_6 
REMARK    2  A    between atoms: C6_6  and  C8_8 
REMARK    3  A    between atoms: C7_7  and  C8_8 
ROOT
HETATM    1  C1  UNL     1     -34.008  17.895  -0.877  1.00 20.00     0.285 C 
HETATM    2  C2  UNL     1     -32.922  18.856  -1.366  1.00 20.00     0.073 C 
HETATM    3  C3  UNL     1     -33.761  16.979  -3.034  1.00 20.00     0.282 C 
HETATM    4  C4  UNL     1     -31.544  18.542  -0.792  1.00 20.00     0.023 C 
HETATM    5  N9  UNL     1     -33.855  16.638  -1.613  1.00 20.00     0.098 N 
HETATM    6  S10 UNL     1     -32.918  18.590  -3.164  1.00 20.00    -0.128 SA
HETATM    7  H27 UNL     1     -32.991  16.187  -1.316  1.00 20.00     0.317 HD
ENDROOT
BRANCH   3   8
HETATM    8  C6  UNL     1     -32.994  15.902  -3.786  1.00 20.00     0.046 C 
BRANCH   8   9
HETATM    9  C8  UNL     1     -33.855  14.663  -4.018  1.00 20.00     0.002 C 
BRANCH   9  10
HETATM   10  C7  UNL     1     -34.808  14.862  -5.197  1.00 20.00    -0.004 C 
HETATM   11  C5  UNL     1     -34.050  15.140  -6.485  1.00 20.00     0.005 C 
ENDBRANCH   9  10
ENDBRANCH   8   9
ENDBRANCH   3   8
TORSDOF 3
ENDMDL
MODEL 8
REMARK VINA RESULT:      -3.5      1.245      1.932
REMARK  3 active torsions:
REMARK  status: ('A' for Active; 'I' for Inactive)
REMARK    1  A    between atoms: C3_3  and  C6_6 
REMARK    2  A    between atoms: C6_6  and  C8_8 
REMARK    3  A    between atoms: C7_7  and  C8_8 
ROOT
HETATM    1  C1  UNL     1     -37.102  16.247  -5.678  1.00 20.00     0.285 C 
HETATM    2  C2  UNL     1     -36.354  17.544  -5.997  1.00 20.00     0.073 C 
HETATM    3  C3  UNL     1     -34.981  15.280  -6.025  1.00 20.00     0.282 C 
HETATM    4  C4  UNL     1     -36.057  18.383  -4.758  1.00 20.00     0.023 C 
HETATM    5  N9  UNL     1     -36.133  15.300  -5.121  1.00 20.00     0.098 N 
HETATM    6  S10 UNL     1     -34.800  16.952  -6.730  1.00 20.00    -0.128 SA
HETATM    7  H27 UNL     1     -35.839  15.633  -4.204  1.00 20.00     0.317 HD
ENDROOT
BRANCH   3   8
HETATM    8  C6  UNL     1     -33.726  14.870  -5.270  1.00 20.00     0.046 C 
BRANCH   8   9
HETATM    9  C8  UNL     1     -33.864  15.133  -3.773  1.00 20.00     0.002 C 
BRANCH   9  10
HETATM   10  C7  UNL     1     -33.089  16.383  -3.355  1.00 20.00    -0.004 C 
HETATM   11  C5  UNL     1     -33.521  16.874  -1.983  1.00 20.00     0.005 C 
ENDBRANCH   9  10
ENDBRANCH   8   9
ENDBRANCH   3   8
TORSDOF 3
ENDMDL
MODEL 9
REMARK VINA RESULT:      -3.5     12.641     13.599
REMARK  3 active torsions:
REMARK  status: ('A' for Active; 'I' for Inactive)
REMARK    1  A    between atoms: C3_3  and  C6_6 
REMARK    2  A    between atoms: C6_6  and  C8_8 
REMARK    3  A    between atoms: C7_7  and  C8_8 
ROOT
HETATM    1  C1  UNL     1     -43.217  13.128   8.114  1.00 20.00     0.285 C 
HETATM    2  C2  UNL     1     -42.555  14.458   8.481  1.00 20.00     0.073 C 
HETATM    3  C3  UNL     1     -42.158  13.505   6.042  1.00 20.00     0.282 C 
HETATM    4  C4  UNL     1     -41.329  14.290   9.372  1.00 20.00     0.023 C 
HETATM    5  N9  UNL     1     -42.400  12.495   7.075  1.00 20.00     0.098 N 
HETATM    6  S10 UNL     1     -42.059  15.128   6.866  1.00 20.00    -0.128 SA
HETATM    7  H27 UNL     1     -41.511  12.211   7.485  1.00 20.00     0.317 HD
ENDROOT
BRANCH   3   8
HETATM    8  C6  UNL     1     -40.871  13.196   5.294  1.00 20.00     0.046 C 
BRANCH   8   9
HETATM    9  C8  UNL     1     -39.830  12.560   6.212  1.00 20.00     0.002 C 
BRANCH   9  10
HETATM   10  C7  UNL     1     -38.628  12.047   5.418  1.00 20.00    -0.004 C 
HETATM   11  C5  UNL     1     -39.022  11.656   4.003  1.00 20.00     0.005 C 
ENDBRANCH   9  10
ENDBRANCH   8   9
ENDBRANCH   3   8
TORSDOF 3
ENDMDL
