MODEL 1
REMARK VINA RESULT:      -3.8      0.000      0.000
REMARK  0 active torsions:
REMARK  status: ('A' for Active; 'I' for Inactive)
ROOT
HETATM    1  C1  UNL     1     -22.179  17.492   8.605  1.00 20.00     0.125 C 
HETATM    2  C2  UNL     1     -24.157  18.102  10.091  1.00 20.00     0.074 A 
HETATM    3  C3  UNL     1     -22.891  18.513  11.881  1.00 20.00     0.167 A 
HETATM    4  C4  UNL     1     -22.831  17.897   9.791  1.00 20.00     0.156 A 
HETATM    5  C5  UNL     1     -24.196  18.502  11.448  1.00 20.00     0.059 A 
HETATM    6  N6  UNL     1     -21.644  17.161   7.630  1.00 20.00    -0.189 NA
HETATM    7  O7  UNL     1     -22.052  18.146  10.877  1.00 20.00    -0.310 OA
HETATM    8 CL8  UNL     1     -25.589  18.883  12.332  1.00 20.00    -0.082 Cl
ENDROOT
TORSDOF 0
ENDMDL
MODEL 2
REMARK VINA RESULT:      -3.5     15.882     16.352
REMARK  0 active torsions:
REMARK  status: ('A' for Active; 'I' for Inactive)
ROOT
HETATM    1  C1  UNL     1     -34.262   6.097   5.868  1.00 20.00     0.125 C 
HETATM    2  C2  UNL     1     -33.294   6.654   3.577  1.00 20.00     0.074 A 
HETATM    3  C3  UNL     1     -32.342   8.551   4.263  1.00 20.00     0.167 A 
HETATM    4  C4  UNL     1     -33.543   6.853   4.915  1.00 20.00     0.156 A 
HETATM    5  C5  UNL     1     -32.514   7.756   3.154  1.00 20.00     0.059 A 
HETATM    6  N6  UNL     1     -34.852   5.476   6.651  1.00 20.00    -0.189 NA
HETATM    7  O7  UNL     1     -32.966   8.007   5.341  1.00 20.00    -0.310 OA
HETATM    8 CL8  UNL     1     -31.926   8.014   1.588  1.00 20.00    -0.082 Cl
ENDROOT
TORSDOF 0
ENDMDL
MODEL 3
REMARK VINA RESULT:      -3.5     12.597     13.153
REMARK  0 active torsions:
REMARK  status: ('A' for Active; 'I' for Inactive)
ROOT
HETATM    1  C1  UNL     1     -30.157  18.644   2.186  1.00 20.00     0.125 C 
HETATM    2  C2  UNL     1     -32.460  18.556   1.098  1.00 20.00     0.074 A 
HETATM    3  C3  UNL     1     -31.660  18.702  -0.979  1.00 20.00     0.167 A 
HETATM    4  C4  UNL     1     -31.087  18.637   1.123  1.00 20.00     0.156 A 
HETATM    5  C5  UNL     1     -32.832  18.597  -0.266  1.00 20.00     0.059 A 
HETATM    6  N6  UNL     1     -29.393  18.648   3.060  1.00 20.00    -0.189 NA
HETATM    7  O7  UNL     1     -30.592  18.726  -0.139  1.00 20.00    -0.310 OA
HETATM    8 CL8  UNL     1     -34.413  18.530  -0.868  1.00 20.00    -0.082 Cl
ENDROOT
TORSDOF 0
ENDMDL
MODEL 4
REMARK VINA RESULT:      -3.5     18.751     19.235
REMARK  0 active torsions:
REMARK  status: ('A' for Active; 'I' for Inactive)
ROOT
HETATM    1  C1  UNL     1     -35.463  15.017  -6.657  1.00 20.00     0.125 C 
HETATM    2  C2  UNL     1     -34.671  16.415  -4.679  1.00 20.00     0.074 A 
HETATM    3  C3  UNL     1     -33.006  15.026  -4.159  1.00 20.00     0.167 A 
HETATM    4  C4  UNL     1     -34.649  15.352  -5.552  1.00 20.00     0.156 A 
HETATM    5  C5  UNL     1     -33.603  16.203  -3.775  1.00 20.00     0.059 A 
HETATM    6  N6  UNL     1     -36.130  14.742  -7.566  1.00 20.00    -0.189 NA
HETATM    7  O7  UNL     1     -33.636  14.501  -5.242  1.00 20.00    -0.310 OA
HETATM    8 CL8  UNL     1     -33.175  17.216  -2.488  1.00 20.00    -0.082 Cl
ENDROOT
TORSDOF 0
ENDMDL
MODEL 5
REMARK VINA RESULT:      -3.4      9.543     10.072
REMARK  0 active torsions:
REMARK  status: ('A' for Active; 'I' for Inactive)
ROOT
HETATM    1  C1  UNL     1     -28.006  18.537   4.154  1.00 20.00     0.125 C 
HETATM    2  C2  UNL     1     -29.866  18.433   2.415  1.00 20.00     0.074 A 
HETATM    3  C3  UNL     1     -31.414  19.262   3.790  1.00 20.00     0.167 A 
HETATM    4  C4  UNL     1     -29.315  18.698   3.647  1.00 20.00     0.156 A 
HETATM    5  C5  UNL     1     -31.229  18.800   2.508  1.00 20.00     0.059 A 
HETATM    6  N6  UNL     1     -26.930  18.407   4.569  1.00 20.00    -0.189 NA
HETATM    7  O7  UNL     1     -30.252  19.204   4.491  1.00 20.00    -0.310 OA
HETATM    8 CL8  UNL     1     -32.377  18.681   1.269  1.00 20.00    -0.082 Cl
ENDROOT
TORSDOF 0
ENDMDL
MODEL 6
REMARK VINA RESULT:      -3.4     18.296     18.921
REMARK  0 active torsions:
REMARK  status: ('A' for Active; 'I' for Inactive)
ROOT
HETATM    1  C1  UNL     1     -41.856  13.725   7.396  1.00 20.00     0.125 C 
HETATM    2  C2  UNL     1     -40.787  12.929   5.224  1.00 20.00     0.074 A 
HETATM    3  C3  UNL     1     -39.054  11.963   6.245  1.00 20.00     0.167 A 
HETATM    4  C4  UNL     1     -40.890  13.087   6.587  1.00 20.00     0.156 A 
HETATM    5  C5  UNL     1     -39.595  12.199   5.003  1.00 20.00     0.059 A 
HETATM    6  N6  UNL     1     -42.651  14.247   8.062  1.00 20.00    -0.189 NA
HETATM    7  O7  UNL     1     -39.838  12.501   7.216  1.00 20.00    -0.310 OA
HETATM    8 CL8  UNL     1     -38.986  11.726   3.496  1.00 20.00    -0.082 Cl
ENDROOT
TORSDOF 0
ENDMDL
MODEL 7
REMARK VINA RESULT:      -3.4     15.734     16.110
REMARK  0 active torsions:
REMARK  status: ('A' for Active; 'I' for Inactive)
ROOT
HETATM    1  C1  UNL     1     -32.372   7.717   2.435  1.00 20.00     0.125 C 
HETATM    2  C2  UNL     1     -33.680   6.269   4.074  1.00 20.00     0.074 A 
HETATM    3  C3  UNL     1     -33.360   7.649   5.796  1.00 20.00     0.167 A 
HETATM    4  C4  UNL     1     -32.935   7.356   3.679  1.00 20.00     0.156 A 
HETATM    5  C5  UNL     1     -33.956   6.460   5.448  1.00 20.00     0.059 A 
HETATM    6  N6  UNL     1     -31.911   8.015   1.413  1.00 20.00    -0.189 NA
HETATM    7  O7  UNL     1     -32.736   8.202   4.724  1.00 20.00    -0.310 OA
HETATM    8 CL8  UNL     1     -34.846   5.413   6.438  1.00 20.00    -0.082 Cl
ENDROOT
TORSDOF 0
ENDMDL
MODEL 8
REMARK VINA RESULT:      -3.3     15.781     16.238
REMARK  0 active torsions:
REMARK  status: ('A' for Active; 'I' for Inactive)
ROOT
HETATM    1  C1  UNL     1     -34.540   5.539   4.802  1.00 20.00     0.125 C 
HETATM    2  C2  UNL     1     -33.424   7.769   5.327  1.00 20.00     0.074 A 
HETATM    3  C3  UNL     1     -32.178   7.764   3.477  1.00 20.00     0.167 A 
HETATM    4  C4  UNL     1     -33.674   6.636   4.590  1.00 20.00     0.156 A 
HETATM    5  C5  UNL     1     -32.453   8.502   4.604  1.00 20.00     0.059 A 
HETATM    6  N6  UNL     1     -35.252   4.639   4.975  1.00 20.00    -0.189 NA
HETATM    7  O7  UNL     1     -32.919   6.625   3.460  1.00 20.00    -0.310 OA
HETATM    8 CL8  UNL     1     -31.783   9.987   5.064  1.00 20.00    -0.082 Cl
ENDROOT
TORSDOF 0
ENDMDL
MODEL 9
REMARK VINA RESULT:      -3.3     18.842     19.312
REMARK  0 active torsions:
REMARK  status: ('A' for Active; 'I' for Inactive)
ROOT
HETATM    1  C1  UNL     1     -35.499  14.995  -6.446  1.00 20.00     0.125 C 
HETATM    2  C2  UNL     1     -34.175  15.487  -4.325  1.00 20.00     0.074 A 
HETATM    3  C3  UNL     1     -34.490  17.691  -4.448  1.00 20.00     0.167 A 
HETATM    4  C4  UNL     1     -34.928  15.797  -5.433  1.00 20.00     0.156 A 
HETATM    5  C5  UNL     1     -33.891  16.716  -3.685  1.00 20.00     0.059 A 
HETATM    6  N6  UNL     1     -35.969  14.336  -7.278  1.00 20.00    -0.189 NA
HETATM    7  O7  UNL     1     -35.125  17.140  -5.515  1.00 20.00    -0.310 OA
HETATM    8 CL8  UNL     1     -32.990  16.913  -2.266  1.00 20.00    -0.082 Cl
ENDROOT
TORSDOF 0
ENDMDL
