MODEL 1
REMARK VINA RESULT:      -3.8      0.000      0.000
REMARK  1 active torsions:
REMARK  status: ('A' for Active; 'I' for Inactive)
REMARK    1  A    between atoms: C4_4  and  C7_7 
ROOT
HETATM    1  C1  UNL     1     -32.035   7.184   2.776  1.00 20.00     0.109 C 
HETATM    2  C2  UNL     1     -32.924   8.222   5.151  1.00 20.00     0.109 C 
HETATM    3  C3  UNL     1     -33.208   6.210   2.936  1.00 20.00     0.226 C 
HETATM    4  C4  UNL     1     -33.999   7.135   5.051  1.00 20.00     0.230 C 
HETATM    5  C5  UNL     1     -32.870   4.877   2.265  1.00 20.00     0.043 C 
HETATM    6  N8  UNL     1     -33.522   5.941   4.344  1.00 20.00     0.093 N 
HETATM    7  S9  UNL     1     -32.406   8.803   3.510  1.00 20.00    -0.165 SA
HETATM    8  H24 UNL     1     -34.234   5.212   4.396  1.00 20.00     0.316 HD
ENDROOT
BRANCH   4   9
HETATM    9  C7  UNL     1     -34.437   6.709   6.454  1.00 20.00     0.032 C 
HETATM   10  C6  UNL     1     -34.540   5.225   6.569  1.00 20.00     0.007 C 
ENDBRANCH   4   9
TORSDOF 1
ENDMDL
MODEL 2
REMARK VINA RESULT:      -3.7     15.333     15.939
REMARK  1 active torsions:
REMARK  status: ('A' for Active; 'I' for Inactive)
REMARK    1  A    between atoms: C4_4  and  C7_7 
ROOT
HETATM    1  C1  UNL     1     -23.181  18.894   8.194  1.00 20.00     0.109 C 
HETATM    2  C2  UNL     1     -22.785  17.902  10.717  1.00 20.00     0.109 C 
HETATM    3  C3  UNL     1     -24.572  19.263   8.720  1.00 20.00     0.226 C 
HETATM    4  C4  UNL     1     -24.219  18.379  10.967  1.00 20.00     0.230 C 
HETATM    5  C5  UNL     1     -25.583  19.243   7.572  1.00 20.00     0.043 C 
HETATM    6  N8  UNL     1     -25.042  18.334   9.754  1.00 20.00     0.093 N 
HETATM    7  S9  UNL     1     -21.931  18.956   9.510  1.00 20.00    -0.165 SA
HETATM    8  H24 UNL     1     -26.008  18.558   9.994  1.00 20.00     0.316 HD
ENDROOT
BRANCH   4   9
HETATM    9  C7  UNL     1     -24.883  17.492  12.022  1.00 20.00     0.032 C 
HETATM   10  C6  UNL     1     -24.422  16.077  11.917  1.00 20.00     0.007 C 
ENDBRANCH   4   9
TORSDOF 1
ENDMDL
MODEL 3
REMARK VINA RESULT:      -3.7      9.791     11.053
REMARK  1 active torsions:
REMARK  status: ('A' for Active; 'I' for Inactive)
REMARK    1  A    between atoms: C4_4  and  C7_7 
ROOT
HETATM    1  C1  UNL     1     -42.221  14.431   8.080  1.00 20.00     0.109 C 
HETATM    2  C2  UNL     1     -41.656  12.414   6.314  1.00 20.00     0.109 C 
HETATM    3  C3  UNL     1     -40.771  14.857   7.825  1.00 20.00     0.226 C 
HETATM    4  C4  UNL     1     -40.268  13.060   6.252  1.00 20.00     0.230 C 
HETATM    5  C5  UNL     1     -40.209  15.552   9.068  1.00 20.00     0.043 C 
HETATM    6  N8  UNL     1     -39.902  13.717   7.512  1.00 20.00     0.093 N 
HETATM    7  S9  UNL     1     -42.954  13.647   6.615  1.00 20.00    -0.165 SA
HETATM    8  H24 UNL     1     -38.935  14.037   7.456  1.00 20.00     0.316 HD
ENDROOT
BRANCH   4   9
HETATM    9  C7  UNL     1     -39.213  11.994   5.951  1.00 20.00     0.032 C 
HETATM   10  C6  UNL     1     -39.093  11.740   4.486  1.00 20.00     0.007 C 
ENDBRANCH   4   9
TORSDOF 1
ENDMDL
MODEL 4
REMARK VINA RESULT:      -3.5     12.136     13.086
REMARK  1 active torsions:
REMARK  status: ('A' for Active; 'I' for Inactive)
REMARK    1  A    between atoms: C4_4  and  C7_7 
ROOT
HETATM    1  C1  UNL     1     -34.560  18.728  -2.487  1.00 20.00     0.109 C 
HETATM    2  C2  UNL     1     -34.396  17.028  -4.630  1.00 20.00     0.109 C 
HETATM    3  C3  UNL     1     -33.546  17.773  -1.845  1.00 20.00     0.226 C 
HETATM    4  C4  UNL     1     -33.401  16.260  -3.755  1.00 20.00     0.230 C 
HETATM    5  C5  UNL     1     -33.729  17.768  -0.326  1.00 20.00     0.043 C 
HETATM    6  N8  UNL     1     -33.697  16.394  -2.324  1.00 20.00     0.093 N 
HETATM    7  S9  UNL     1     -34.350  18.811  -4.289  1.00 20.00    -0.165 SA
HETATM    8  H24 UNL     1     -33.075  15.784  -1.793  1.00 20.00     0.316 HD
ENDROOT
BRANCH   4   9
HETATM    9  C7  UNL     1     -33.441  14.772  -4.108  1.00 20.00     0.032 C 
HETATM   10  C6  UNL     1     -34.756  14.384  -4.694  1.00 20.00     0.007 C 
ENDBRANCH   4   9
TORSDOF 1
ENDMDL
MODEL 5
REMARK VINA RESULT:      -3.4      2.042      3.077
REMARK  1 active torsions:
REMARK  status: ('A' for Active; 'I' for Inactive)
REMARK    1  A    between atoms: C4_4  and  C7_7 
ROOT
HETATM    1  C1  UNL     1     -34.546   5.007   4.523  1.00 20.00     0.109 C 
HETATM    2  C2  UNL     1     -34.166   7.294   5.983  1.00 20.00     0.109 C 
HETATM    3  C3  UNL     1     -33.242   5.415   3.827  1.00 20.00     0.226 C 
HETATM    4  C4  UNL     1     -32.904   7.452   5.128  1.00 20.00     0.230 C 
HETATM    5  C5  UNL     1     -33.241   4.903   2.385  1.00 20.00     0.043 C 
HETATM    6  N8  UNL     1     -33.060   6.871   3.790  1.00 20.00     0.093 N 
HETATM    7  S9  UNL     1     -34.574   5.546   6.257  1.00 20.00    -0.165 SA
HETATM    8  H24 UNL     1     -32.238   7.093   3.229  1.00 20.00     0.316 HD
ENDROOT
BRANCH   4   9
HETATM    9  C7  UNL     1     -32.573   8.936   4.963  1.00 20.00     0.032 C 
HETATM   10  C6  UNL     1     -32.484   9.320   3.524  1.00 20.00     0.007 C 
ENDBRANCH   4   9
TORSDOF 1
ENDMDL
MODEL 6
REMARK VINA RESULT:      -3.4     12.468     13.489
REMARK  1 active torsions:
REMARK  status: ('A' for Active; 'I' for Inactive)
REMARK    1  A    between atoms: C4_4  and  C7_7 
ROOT
HETATM    1  C1  UNL     1     -35.837  15.909  -5.871  1.00 20.00     0.109 C 
HETATM    2  C2  UNL     1     -33.644  15.230  -4.375  1.00 20.00     0.109 C 
HETATM    3  C3  UNL     1     -35.740  17.247  -5.130  1.00 20.00     0.226 C 
HETATM    4  C4  UNL     1     -33.786  16.642  -3.798  1.00 20.00     0.230 C 
HETATM    5  C5  UNL     1     -37.132  17.869  -4.998  1.00 20.00     0.043 C 
HETATM    6  N8  UNL     1     -35.180  17.100  -3.781  1.00 20.00     0.093 N 
HETATM    7  S9  UNL     1     -34.202  15.153  -6.101  1.00 20.00    -0.165 SA
HETATM    8  H24 UNL     1     -35.235  17.995  -3.295  1.00 20.00     0.316 HD
ENDROOT
BRANCH   4   9
HETATM    9  C7  UNL     1     -33.263  16.670  -2.361  1.00 20.00     0.032 C 
HETATM   10  C6  UNL     1     -33.938  17.726  -1.553  1.00 20.00     0.007 C 
ENDBRANCH   4   9
TORSDOF 1
ENDMDL
MODEL 7
REMARK VINA RESULT:      -3.4     10.048     10.926
REMARK  1 active torsions:
REMARK  status: ('A' for Active; 'I' for Inactive)
REMARK    1  A    between atoms: C4_4  and  C7_7 
ROOT
HETATM    1  C1  UNL     1     -42.124  15.404   6.043  1.00 20.00     0.109 C 
HETATM    2  C2  UNL     1     -40.462  13.647   7.329  1.00 20.00     0.109 C 
HETATM    3  C3  UNL     1     -42.275  14.276   5.017  1.00 20.00     0.226 C 
HETATM    4  C4  UNL     1     -40.795  12.711   6.163  1.00 20.00     0.230 C 
HETATM    5  C5  UNL     1     -42.551  14.867   3.633  1.00 20.00     0.043 C 
HETATM    6  N8  UNL     1     -41.072  13.442   4.922  1.00 20.00     0.093 N 
HETATM    7  S9  UNL     1     -41.848  14.753   7.716  1.00 20.00    -0.165 SA
HETATM    8  H24 UNL     1     -41.183  12.777   4.156  1.00 20.00     0.316 HD
ENDROOT
BRANCH   4   9
HETATM    9  C7  UNL     1     -39.619  11.767   5.903  1.00 20.00     0.032 C 
HETATM   10  C6  UNL     1     -39.212  11.783   4.468  1.00 20.00     0.007 C 
ENDBRANCH   4   9
TORSDOF 1
ENDMDL
MODEL 8
REMARK VINA RESULT:      -3.3     12.380     12.939
REMARK  1 active torsions:
REMARK  status: ('A' for Active; 'I' for Inactive)
REMARK    1  A    between atoms: C4_4  and  C7_7 
ROOT
HETATM    1  C1  UNL     1     -34.259  17.177  -4.546  1.00 20.00     0.109 C 
HETATM    2  C2  UNL     1     -34.416  18.883  -2.408  1.00 20.00     0.109 C 
HETATM    3  C3  UNL     1     -33.806  16.151  -3.502  1.00 20.00     0.226 C 
HETATM    4  C4  UNL     1     -33.946  17.671  -1.598  1.00 20.00     0.230 C 
HETATM    5  C5  UNL     1     -32.869  15.130  -4.151  1.00 20.00     0.043 C 
HETATM    6  N8  UNL     1     -33.091  16.773  -2.382  1.00 20.00     0.093 N 
HETATM    7  S9  UNL     1     -35.417  18.384  -3.838  1.00 20.00    -0.165 SA
HETATM    8  H24 UNL     1     -32.720  16.043  -1.773  1.00 20.00     0.316 HD
ENDROOT
BRANCH   4   9
HETATM    9  C7  UNL     1     -33.148  18.139  -0.380  1.00 20.00     0.032 C 
HETATM   10  C6  UNL     1     -31.736  18.460  -0.741  1.00 20.00     0.007 C 
ENDBRANCH   4   9
TORSDOF 1
ENDMDL
MODEL 9
REMARK VINA RESULT:      -3.3     12.710     13.881
REMARK  1 active torsions:
REMARK  status: ('A' for Active; 'I' for Inactive)
REMARK    1  A    between atoms: C4_4  and  C7_7 
ROOT
HETATM    1  C1  UNL     1     -36.942  16.610  -5.794  1.00 20.00     0.109 C 
HETATM    2  C2  UNL     1     -34.664  15.137  -5.406  1.00 20.00     0.109 C 
HETATM    3  C3  UNL     1     -36.217  17.670  -4.957  1.00 20.00     0.226 C 
HETATM    4  C4  UNL     1     -34.189  16.359  -4.613  1.00 20.00     0.230 C 
HETATM    5  C5  UNL     1     -37.239  18.516  -4.195  1.00 20.00     0.043 C 
HETATM    6  N8  UNL     1     -35.299  17.078  -3.978  1.00 20.00     0.093 N 
HETATM    7  S9  UNL     1     -35.774  15.611  -6.762  1.00 20.00    -0.165 SA
HETATM    8  H24 UNL     1     -34.924  17.815  -3.380  1.00 20.00     0.316 HD
ENDROOT
BRANCH   4   9
HETATM    9  C7  UNL     1     -33.222  15.918  -3.512  1.00 20.00     0.032 C 
HETATM   10  C6  UNL     1     -33.386  16.738  -2.277  1.00 20.00     0.007 C 
ENDBRANCH   4   9
TORSDOF 1
ENDMDL
