MODEL 1
REMARK VINA RESULT:      -3.6      0.000      0.000
REMARK  1 active torsions:
REMARK  status: ('A' for Active; 'I' for Inactive)
REMARK    1  A    between atoms: C2_2  and  C8_8 
ROOT
HETATM    1  C1  UNL     1     -34.056  15.084  -5.983  1.00 20.00     0.284 C 
HETATM    2  C2  UNL     1     -34.201  16.656  -4.067  1.00 20.00     0.233 C 
HETATM    3  C3  UNL     1     -35.559  14.814  -5.911  1.00 20.00     0.071 C 
HETATM    4  C4  UNL     1     -35.167  17.444  -4.980  1.00 20.00     0.076 C 
HETATM    5  C5  UNL     1     -35.932  13.761  -4.868  1.00 20.00     0.023 C 
HETATM    6  C6  UNL     1     -35.855  18.613  -4.274  1.00 20.00     0.023 C 
HETATM    7  N9  UNL     1     -33.454  15.591  -4.755  1.00 20.00     0.090 N 
HETATM    8  S10 UNL     1     -36.502  16.350  -5.614  1.00 20.00    -0.156 SA
HETATM    9  H27 UNL     1     -33.328  14.797  -4.105  1.00 20.00     0.316 HD
ENDROOT
BRANCH   2  10
HETATM   10  C8  UNL     1     -33.176  17.563  -3.372  1.00 20.00     0.032 C 
HETATM   11  C7  UNL     1     -33.142  17.321  -1.902  1.00 20.00     0.007 C 
ENDBRANCH   2  10
TORSDOF 1
ENDMDL
MODEL 2
REMARK VINA RESULT:      -3.5      1.741      2.989
REMARK  1 active torsions:
REMARK  status: ('A' for Active; 'I' for Inactive)
REMARK    1  A    between atoms: C2_2  and  C8_8 
ROOT
HETATM    1  C1  UNL     1     -36.102  17.421  -4.804  1.00 20.00     0.284 C 
HETATM    2  C2  UNL     1     -33.905  16.798  -3.829  1.00 20.00     0.233 C 
HETATM    3  C3  UNL     1     -35.573  17.185  -6.218  1.00 20.00     0.071 C 
HETATM    4  C4  UNL     1     -34.152  15.440  -4.523  1.00 20.00     0.076 C 
HETATM    5  C5  UNL     1     -34.803  18.379  -6.780  1.00 20.00     0.023 C 
HETATM    6  C6  UNL     1     -32.950  14.496  -4.460  1.00 20.00     0.023 C 
HETATM    7  N9  UNL     1     -35.084  17.679  -3.792  1.00 20.00     0.090 N 
HETATM    8  S10 UNL     1     -34.542  15.680  -6.304  1.00 20.00    -0.156 SA
HETATM    9  H27 UNL     1     -34.771  18.660  -3.890  1.00 20.00     0.316 HD
ENDROOT
BRANCH   2  10
HETATM   10  C8  UNL     1     -33.403  16.640  -2.388  1.00 20.00     0.032 C 
HETATM   11  C7  UNL     1     -33.921  17.726  -1.508  1.00 20.00     0.007 C 
ENDBRANCH   2  10
TORSDOF 1
ENDMDL
MODEL 3
REMARK VINA RESULT:      -3.4     13.089     14.137
REMARK  1 active torsions:
REMARK  status: ('A' for Active; 'I' for Inactive)
REMARK    1  A    between atoms: C2_2  and  C8_8 
ROOT
HETATM    1  C1  UNL     1     -40.316  15.033   8.248  1.00 20.00     0.284 C 
HETATM    2  C2  UNL     1     -41.154  13.425   6.552  1.00 20.00     0.233 C 
HETATM    3  C3  UNL     1     -41.603  15.852   8.147  1.00 20.00     0.071 C 
HETATM    4  C4  UNL     1     -42.297  13.185   7.563  1.00 20.00     0.076 C 
HETATM    5  C5  UNL     1     -41.601  16.836   6.977  1.00 20.00     0.023 C 
HETATM    6  C6  UNL     1     -43.417  12.298   7.018  1.00 20.00     0.023 C 
HETATM    7  N9  UNL     1     -40.021  14.192   7.093  1.00 20.00     0.090 N 
HETATM    8  S10 UNL     1     -43.076  14.777   8.056  1.00 20.00    -0.156 SA
HETATM    9  H27 UNL     1     -39.636  14.793   6.345  1.00 20.00     0.316 HD
ENDROOT
BRANCH   2  10
HETATM   10  C8  UNL     1     -40.593  12.117   5.977  1.00 20.00     0.032 C 
HETATM   11  C7  UNL     1     -39.108  12.062   6.098  1.00 20.00     0.007 C 
ENDBRANCH   2  10
TORSDOF 1
ENDMDL
MODEL 4
REMARK VINA RESULT:      -3.4      1.262      1.305
REMARK  1 active torsions:
REMARK  status: ('A' for Active; 'I' for Inactive)
REMARK    1  A    between atoms: C2_2  and  C8_8 
ROOT
HETATM    1  C1  UNL     1     -33.571  15.022  -4.566  1.00 20.00     0.284 C 
HETATM    2  C2  UNL     1     -34.581  17.117  -3.694  1.00 20.00     0.233 C 
HETATM    3  C3  UNL     1     -34.532  15.021  -5.755  1.00 20.00     0.071 C 
HETATM    4  C4  UNL     1     -34.130  17.718  -5.044  1.00 20.00     0.076 C 
HETATM    5  C5  UNL     1     -35.897  14.417  -5.426  1.00 20.00     0.023 C 
HETATM    6  C6  UNL     1     -34.643  19.140  -5.279  1.00 20.00     0.023 C 
HETATM    7  N9  UNL     1     -34.014  15.789  -3.407  1.00 20.00     0.090 N 
HETATM    8  S10 UNL     1     -34.741  16.698  -6.448  1.00 20.00    -0.156 SA
HETATM    9  H27 UNL     1     -34.719  15.228  -2.898  1.00 20.00     0.316 HD
ENDROOT
BRANCH   2  10
HETATM   10  C8  UNL     1     -34.248  18.027  -2.504  1.00 20.00     0.032 C 
HETATM   11  C7  UNL     1     -33.484  17.294  -1.455  1.00 20.00     0.007 C 
ENDBRANCH   2  10
TORSDOF 1
ENDMDL
MODEL 5
REMARK VINA RESULT:      -3.3      1.512      1.667
REMARK  1 active torsions:
REMARK  status: ('A' for Active; 'I' for Inactive)
REMARK    1  A    between atoms: C2_2  and  C8_8 
ROOT
HETATM    1  C1  UNL     1     -35.598  15.149  -5.897  1.00 20.00     0.284 C 
HETATM    2  C2  UNL     1     -34.535  16.633  -4.213  1.00 20.00     0.233 C 
HETATM    3  C3  UNL     1     -36.664  16.204  -6.193  1.00 20.00     0.071 C 
HETATM    4  C4  UNL     1     -34.348  17.599  -5.403  1.00 20.00     0.076 C 
HETATM    5  C5  UNL     1     -37.827  16.179  -5.202  1.00 20.00     0.023 C 
HETATM    6  C6  UNL     1     -33.823  18.977  -4.994  1.00 20.00     0.023 C 
HETATM    7  N9  UNL     1     -34.943  15.273  -4.599  1.00 20.00     0.090 N 
HETATM    8  S10 UNL     1     -35.945  17.880  -6.272  1.00 20.00    -0.156 SA
HETATM    9  H27 UNL     1     -35.582  14.898  -3.877  1.00 20.00     0.316 HD
ENDROOT
BRANCH   2  10
HETATM   10  C8  UNL     1     -33.272  16.508  -3.351  1.00 20.00     0.032 C 
HETATM   11  C7  UNL     1     -33.526  16.935  -1.945  1.00 20.00     0.007 C 
ENDBRANCH   2  10
TORSDOF 1
ENDMDL
MODEL 6
REMARK VINA RESULT:      -3.2      2.046      3.481
REMARK  1 active torsions:
REMARK  status: ('A' for Active; 'I' for Inactive)
REMARK    1  A    between atoms: C2_2  and  C8_8 
ROOT
HETATM    1  C1  UNL     1     -34.410  18.762  -5.375  1.00 20.00     0.284 C 
HETATM    2  C2  UNL     1     -34.079  16.812  -3.873  1.00 20.00     0.233 C 
HETATM    3  C3  UNL     1     -35.569  19.263  -4.514  1.00 20.00     0.071 C 
HETATM    4  C4  UNL     1     -33.822  17.881  -2.789  1.00 20.00     0.076 C 
HETATM    5  C5  UNL     1     -36.899  18.583  -4.839  1.00 20.00     0.023 C 
HETATM    6  C6  UNL     1     -33.691  17.300  -1.380  1.00 20.00     0.023 C 
HETATM    7  N9  UNL     1     -34.107  17.341  -5.247  1.00 20.00     0.090 N 
HETATM    8  S10 UNL     1     -35.201  19.097  -2.733  1.00 20.00    -0.156 SA
HETATM    9  H27 UNL     1     -34.806  16.811  -5.795  1.00 20.00     0.316 HD
ENDROOT
BRANCH   2  10
HETATM   10  C8  UNL     1     -33.047  15.677  -3.838  1.00 20.00     0.032 C 
HETATM   11  C7  UNL     1     -33.642  14.384  -4.282  1.00 20.00     0.007 C 
ENDBRANCH   2  10
TORSDOF 1
ENDMDL
MODEL 7
REMARK VINA RESULT:      -3.2     12.031     13.254
REMARK  1 active torsions:
REMARK  status: ('A' for Active; 'I' for Inactive)
REMARK    1  A    between atoms: C2_2  and  C8_8 
ROOT
HETATM    1  C1  UNL     1     -32.020   6.913   2.863  1.00 20.00     0.284 C 
HETATM    2  C2  UNL     1     -34.088   6.600   4.202  1.00 20.00     0.233 C 
HETATM    3  C3  UNL     1     -32.055   8.421   3.110  1.00 20.00     0.071 C 
HETATM    4  C4  UNL     1     -33.254   7.207   5.352  1.00 20.00     0.076 C 
HETATM    5  C5  UNL     1     -32.982   9.167   2.151  1.00 20.00     0.023 C 
HETATM    6  C6  UNL     1     -34.073   7.492   6.613  1.00 20.00     0.023 C 
HETATM    7  N9  UNL     1     -33.298   6.226   3.018  1.00 20.00     0.090 N 
HETATM    8  S10 UNL     1     -32.502   8.805   4.838  1.00 20.00    -0.156 SA
HETATM    9  H27 UNL     1     -33.864   6.400   2.170  1.00 20.00     0.316 HD
ENDROOT
BRANCH   2  10
HETATM   10  C8  UNL     1     -34.878   5.359   4.639  1.00 20.00     0.032 C 
HETATM   11  C7  UNL     1     -34.017   4.143   4.657  1.00 20.00     0.007 C 
ENDBRANCH   2  10
TORSDOF 1
ENDMDL
MODEL 8
REMARK VINA RESULT:      -3.1     12.240     13.348
REMARK  1 active torsions:
REMARK  status: ('A' for Active; 'I' for Inactive)
REMARK    1  A    between atoms: C2_2  and  C8_8 
ROOT
HETATM    1  C1  UNL     1     -35.045   5.892   4.264  1.00 20.00     0.284 C 
HETATM    2  C2  UNL     1     -32.753   6.758   3.858  1.00 20.00     0.233 C 
HETATM    3  C3  UNL     1     -34.858   6.026   5.775  1.00 20.00     0.071 C 
HETATM    4  C4  UNL     1     -33.265   8.022   4.584  1.00 20.00     0.076 C 
HETATM    5  C5  UNL     1     -34.125   4.840   6.399  1.00 20.00     0.023 C 
HETATM    6  C6  UNL     1     -32.166   9.049   4.866  1.00 20.00     0.023 C 
HETATM    7  N9  UNL     1     -33.812   5.805   3.488  1.00 20.00     0.090 N 
HETATM    8  S10 UNL     1     -34.009   7.584   6.208  1.00 20.00    -0.156 SA
HETATM    9  H27 UNL     1     -33.442   4.843   3.576  1.00 20.00     0.316 HD
ENDROOT
BRANCH   2  10
HETATM   10  C8  UNL     1     -31.966   7.089   2.583  1.00 20.00     0.032 C 
HETATM   11  C7  UNL     1     -32.663   8.124   1.766  1.00 20.00     0.007 C 
ENDBRANCH   2  10
TORSDOF 1
ENDMDL
MODEL 9
REMARK VINA RESULT:      -3.1     12.509     13.474
REMARK  1 active torsions:
REMARK  status: ('A' for Active; 'I' for Inactive)
REMARK    1  A    between atoms: C2_2  and  C8_8 
ROOT
HETATM    1  C1  UNL     1     -41.684  14.148   8.290  1.00 20.00     0.284 C 
HETATM    2  C2  UNL     1     -40.823  13.848   5.980  1.00 20.00     0.233 C 
HETATM    3  C3  UNL     1     -41.937  15.634   8.032  1.00 20.00     0.071 C 
HETATM    4  C4  UNL     1     -42.230  14.324   5.555  1.00 20.00     0.076 C 
HETATM    5  C5  UNL     1     -40.689  16.497   8.213  1.00 20.00     0.023 C 
HETATM    6  C6  UNL     1     -42.366  14.558   4.050  1.00 20.00     0.023 C 
HETATM    7  N9  UNL     1     -40.704  13.521   7.410  1.00 20.00     0.090 N 
HETATM    8  S10 UNL     1     -42.657  15.913   6.378  1.00 20.00    -0.156 SA
HETATM    9  H27 UNL     1     -39.759  13.787   7.736  1.00 20.00     0.316 HD
ENDROOT
BRANCH   2  10
HETATM   10  C8  UNL     1     -40.352  12.623   5.186  1.00 20.00     0.032 C 
HETATM   11  C7  UNL     1     -39.285  11.879   5.914  1.00 20.00     0.007 C 
ENDBRANCH   2  10
TORSDOF 1
ENDMDL
