MODEL 1
REMARK VINA RESULT:      -3.9      0.000      0.000
REMARK  1 active torsions:
REMARK  status: ('A' for Active; 'I' for Inactive)
REMARK    1  A    between atoms: C3_3  and  C7_7 
ROOT
HETATM    1  C1  UNL     1     -22.787  18.316  12.332  1.00 20.00     0.284 C 
HETATM    2  C2  UNL     1     -23.712  18.518   9.493  1.00 20.00     0.109 C 
HETATM    3  C3  UNL     1     -22.340  18.943  10.025  1.00 20.00     0.229 C 
HETATM    4  C4  UNL     1     -24.221  17.816  12.123  1.00 20.00     0.071 C 
HETATM    5  C5  UNL     1     -24.298  16.307  11.901  1.00 20.00     0.023 C 
HETATM    6  N8  UNL     1     -21.915  18.129  11.171  1.00 20.00     0.089 N 
HETATM    7  S9  UNL     1     -25.018  18.709  10.743  1.00 20.00    -0.161 SA
HETATM    8  H24 UNL     1     -20.964  18.386  11.431  1.00 20.00     0.316 HD
ENDROOT
BRANCH   3   9
HETATM    9  C7  UNL     1     -21.293  18.795   8.918  1.00 20.00     0.032 C 
HETATM   10  C6  UNL     1     -21.690  17.757   7.923  1.00 20.00     0.007 C 
ENDBRANCH   3   9
TORSDOF 1
ENDMDL
MODEL 2
REMARK VINA RESULT:      -3.6      2.053      4.144
REMARK  1 active torsions:
REMARK  status: ('A' for Active; 'I' for Inactive)
REMARK    1  A    between atoms: C3_3  and  C7_7 
ROOT
HETATM    1  C1  UNL     1     -23.948  19.161   9.479  1.00 20.00     0.284 C 
HETATM    2  C2  UNL     1     -23.587  17.802  12.122  1.00 20.00     0.109 C 
HETATM    3  C3  UNL     1     -24.858  18.509  11.639  1.00 20.00     0.229 C 
HETATM    4  C4  UNL     1     -22.552  18.556   9.666  1.00 20.00     0.071 C 
HETATM    5  C5  UNL     1     -22.428  17.152   9.078  1.00 20.00     0.023 C 
HETATM    6  N8  UNL     1     -25.010  18.437  10.180  1.00 20.00     0.089 N 
HETATM    7  S9  UNL     1     -22.083  18.555  11.432  1.00 20.00    -0.161 SA
HETATM    8  H24 UNL     1     -25.909  18.838   9.916  1.00 20.00     0.316 HD
ENDROOT
BRANCH   3   9
HETATM    9  C7  UNL     1     -26.084  17.855  12.282  1.00 20.00     0.032 C 
HETATM   10  C6  UNL     1     -27.242  18.793  12.331  1.00 20.00     0.007 C 
ENDBRANCH   3   9
TORSDOF 1
ENDMDL
MODEL 3
REMARK VINA RESULT:      -3.6     18.373     18.959
REMARK  1 active torsions:
REMARK  status: ('A' for Active; 'I' for Inactive)
REMARK    1  A    between atoms: C3_3  and  C7_7 
ROOT
HETATM    1  C1  UNL     1     -40.506  15.004   7.423  1.00 20.00     0.284 C 
HETATM    2  C2  UNL     1     -41.929  12.504   6.597  1.00 20.00     0.109 C 
HETATM    3  C3  UNL     1     -40.537  12.944   6.131  1.00 20.00     0.229 C 
HETATM    4  C4  UNL     1     -41.893  14.857   8.058  1.00 20.00     0.071 C 
HETATM    5  C5  UNL     1     -41.848  14.214   9.443  1.00 20.00     0.023 C 
HETATM    6  N8  UNL     1     -39.836  13.732   7.152  1.00 20.00     0.089 N 
HETATM    7  S9  UNL     1     -43.009  13.922   6.953  1.00 20.00    -0.161 SA
HETATM    8  H24 UNL     1     -38.886  13.923   6.834  1.00 20.00     0.316 HD
ENDROOT
BRANCH   3   9
HETATM    9  C7  UNL     1     -39.690  11.710   5.810  1.00 20.00     0.032 C 
HETATM   10  C6  UNL     1     -39.198  11.733   4.402  1.00 20.00     0.007 C 
ENDBRANCH   3   9
TORSDOF 1
ENDMDL
MODEL 4
REMARK VINA RESULT:      -3.4     18.135     19.147
REMARK  1 active torsions:
REMARK  status: ('A' for Active; 'I' for Inactive)
REMARK    1  A    between atoms: C3_3  and  C7_7 
ROOT
HETATM    1  C1  UNL     1     -35.465  17.367  -5.242  1.00 20.00     0.284 C 
HETATM    2  C2  UNL     1     -33.621  15.210  -4.292  1.00 20.00     0.109 C 
HETATM    3  C3  UNL     1     -33.696  16.637  -3.741  1.00 20.00     0.229 C 
HETATM    4  C4  UNL     1     -35.627  16.049  -6.007  1.00 20.00     0.071 C 
HETATM    5  C5  UNL     1     -36.737  15.165  -5.441  1.00 20.00     0.023 C 
HETATM    6  N8  UNL     1     -35.048  17.201  -3.849  1.00 20.00     0.089 N 
HETATM    7  S9  UNL     1     -34.044  15.138  -6.058  1.00 20.00    -0.161 SA
HETATM    8  H24 UNL     1     -35.069  18.111  -3.389  1.00 20.00     0.316 HD
ENDROOT
BRANCH   3   9
HETATM    9  C7  UNL     1     -33.293  16.638  -2.263  1.00 20.00     0.032 C 
HETATM   10  C6  UNL     1     -33.896  17.789  -1.532  1.00 20.00     0.007 C 
ENDBRANCH   3   9
TORSDOF 1
ENDMDL
MODEL 5
REMARK VINA RESULT:      -3.4     16.957     17.892
REMARK  1 active torsions:
REMARK  status: ('A' for Active; 'I' for Inactive)
REMARK    1  A    between atoms: C3_3  and  C7_7 
ROOT
HETATM    1  C1  UNL     1     -33.151  17.521  -1.772  1.00 20.00     0.284 C 
HETATM    2  C2  UNL     1     -34.115  17.147  -4.581  1.00 20.00     0.109 C 
HETATM    3  C3  UNL     1     -33.428  16.086  -3.717  1.00 20.00     0.229 C 
HETATM    4  C4  UNL     1     -33.787  18.781  -2.369  1.00 20.00     0.071 C 
HETATM    5  C5  UNL     1     -35.268  18.921  -2.021  1.00 20.00     0.023 C 
HETATM    6  N8  UNL     1     -33.710  16.270  -2.287  1.00 20.00     0.089 N 
HETATM    7  S9  UNL     1     -33.546  18.827  -4.179  1.00 20.00    -0.161 SA
HETATM    8  H24 UNL     1     -33.309  15.491  -1.764  1.00 20.00     0.316 HD
ENDROOT
BRANCH   3   9
HETATM    9  C7  UNL     1     -33.918  14.694  -4.127  1.00 20.00     0.032 C 
HETATM   10  C6  UNL     1     -34.944  14.772  -5.207  1.00 20.00     0.007 C 
ENDBRANCH   3   9
TORSDOF 1
ENDMDL
MODEL 6
REMARK VINA RESULT:      -3.4     19.427     20.558
REMARK  1 active torsions:
REMARK  status: ('A' for Active; 'I' for Inactive)
REMARK    1  A    between atoms: C3_3  and  C7_7 
ROOT
HETATM    1  C1  UNL     1     -34.077  15.465  -7.809  1.00 20.00     0.284 C 
HETATM    2  C2  UNL     1     -35.369  16.270  -5.233  1.00 20.00     0.109 C 
HETATM    3  C3  UNL     1     -34.499  15.029  -5.454  1.00 20.00     0.229 C 
HETATM    4  C4  UNL     1     -34.896  16.756  -7.918  1.00 20.00     0.071 C 
HETATM    5  C5  UNL     1     -34.050  18.014  -7.732  1.00 20.00     0.023 C 
HETATM    6  N8  UNL     1     -33.481  15.245  -6.491  1.00 20.00     0.089 N 
HETATM    7  S9  UNL     1     -36.286  16.736  -6.732  1.00 20.00    -0.161 SA
HETATM    8  H24 UNL     1     -32.872  14.429  -6.537  1.00 20.00     0.316 HD
ENDROOT
BRANCH   3   9
HETATM    9  C7  UNL     1     -33.785  14.664  -4.149  1.00 20.00     0.032 C 
HETATM   10  C6  UNL     1     -33.330  15.881  -3.416  1.00 20.00     0.007 C 
ENDBRANCH   3   9
TORSDOF 1
ENDMDL
MODEL 7
REMARK VINA RESULT:      -3.3     18.143     19.217
REMARK  1 active torsions:
REMARK  status: ('A' for Active; 'I' for Inactive)
REMARK    1  A    between atoms: C3_3  and  C7_7 
ROOT
HETATM    1  C1  UNL     1     -33.910  14.632  -5.127  1.00 20.00     0.284 C 
HETATM    2  C2  UNL     1     -34.919  17.437  -4.855  1.00 20.00     0.109 C 
HETATM    3  C3  UNL     1     -34.045  16.692  -3.841  1.00 20.00     0.229 C 
HETATM    4  C4  UNL     1     -34.772  15.085  -6.310  1.00 20.00     0.071 C 
HETATM    5  C5  UNL     1     -33.946  15.636  -7.471  1.00 20.00     0.023 C 
HETATM    6  N8  UNL     1     -33.160  15.714  -4.487  1.00 20.00     0.089 N 
HETATM    7  S9  UNL     1     -36.015  16.309  -5.768  1.00 20.00    -0.161 SA
HETATM    8  H24 UNL     1     -32.538  15.312  -3.786  1.00 20.00     0.316 HD
ENDROOT
BRANCH   3   9
HETATM    9  C7  UNL     1     -33.176  17.696  -3.079  1.00 20.00     0.032 C 
HETATM   10  C6  UNL     1     -33.219  17.453  -1.609  1.00 20.00     0.007 C 
ENDBRANCH   3   9
TORSDOF 1
ENDMDL
MODEL 8
REMARK VINA RESULT:      -3.3     15.778     16.502
REMARK  1 active torsions:
REMARK  status: ('A' for Active; 'I' for Inactive)
REMARK    1  A    between atoms: C3_3  and  C7_7 
ROOT
HETATM    1  C1  UNL     1     -34.050   7.445   6.376  1.00 20.00     0.284 C 
HETATM    2  C2  UNL     1     -33.652   6.166   3.699  1.00 20.00     0.109 C 
HETATM    3  C3  UNL     1     -33.167   7.559   4.112  1.00 20.00     0.229 C 
HETATM    4  C4  UNL     1     -34.665   6.045   6.274  1.00 20.00     0.071 C 
HETATM    5  C5  UNL     1     -33.736   4.948   6.788  1.00 20.00     0.023 C 
HETATM    6  N8  UNL     1     -32.859   7.634   5.546  1.00 20.00     0.089 N 
HETATM    7  S9  UNL     1     -35.184   5.695   4.557  1.00 20.00    -0.161 SA
HETATM    8  H24 UNL     1     -32.455   8.548   5.754  1.00 20.00     0.316 HD
ENDROOT
BRANCH   3   9
HETATM    9  C7  UNL     1     -31.899   7.913   3.330  1.00 20.00     0.032 C 
HETATM   10  C6  UNL     1     -32.146   7.917   1.859  1.00 20.00     0.007 C 
ENDBRANCH   3   9
TORSDOF 1
ENDMDL
MODEL 9
REMARK VINA RESULT:      -3.1     15.817     16.900
REMARK  1 active torsions:
REMARK  status: ('A' for Active; 'I' for Inactive)
REMARK    1  A    between atoms: C3_3  and  C7_7 
ROOT
HETATM    1  C1  UNL     1     -33.107  19.012  -4.014  1.00 20.00     0.284 C 
HETATM    2  C2  UNL     1     -33.443  16.875  -1.946  1.00 20.00     0.109 C 
HETATM    3  C3  UNL     1     -32.580  18.133  -1.808  1.00 20.00     0.229 C 
HETATM    4  C4  UNL     1     -34.030  17.874  -4.461  1.00 20.00     0.071 C 
HETATM    5  C5  UNL     1     -35.506  18.170  -4.203  1.00 20.00     0.023 C 
HETATM    6  N8  UNL     1     -33.124  19.263  -2.572  1.00 20.00     0.089 N 
HETATM    7  S9  UNL     1     -33.543  16.302  -3.668  1.00 20.00    -0.161 SA
HETATM    8  H24 UNL     1     -32.571  20.097  -2.377  1.00 20.00     0.316 HD
ENDROOT
BRANCH   3   9
HETATM    9  C7  UNL     1     -32.503  18.543  -0.335  1.00 20.00     0.032 C 
HETATM   10  C6  UNL     1     -31.093  18.570   0.153  1.00 20.00     0.007 C 
ENDBRANCH   3   9
TORSDOF 1
ENDMDL
