MODEL 1
REMARK VINA RESULT:      -4.1      0.000      0.000
REMARK  1 active torsions:
REMARK  status: ('A' for Active; 'I' for Inactive)
REMARK    1  A    between atoms: C2_2  and  C6_6 
ROOT
HETATM    1  C1  UNL     1     -32.977   5.691   3.220  1.00 20.00     0.111 C 
HETATM    2  C2  UNL     1     -34.169   6.078   4.093  1.00 20.00     0.231 C 
HETATM    3  C3  UNL     1     -33.097   8.180   4.076  1.00 20.00     0.278 C 
HETATM    4  C4  UNL     1     -32.111   9.043   4.848  1.00 20.00     0.054 C 
HETATM    5  N7  UNL     1     -33.739   7.193   4.955  1.00 20.00     0.102 N 
HETATM    6  S8  UNL     1     -32.255   7.276   2.740  1.00 20.00    -0.132 SA
HETATM    7  H21 UNL     1     -34.537   7.606   5.436  1.00 20.00     0.317 HD
ENDROOT
BRANCH   2   8
HETATM    8  C6  UNL     1     -34.648   4.905   4.939  1.00 20.00     0.032 C 
HETATM    9  C5  UNL     1     -34.582   5.211   6.401  1.00 20.00     0.007 C 
ENDBRANCH   2   8
TORSDOF 1
ENDMDL
MODEL 2
REMARK VINA RESULT:      -3.7      2.021      3.917
REMARK  1 active torsions:
REMARK  status: ('A' for Active; 'I' for Inactive)
REMARK    1  A    between atoms: C2_2  and  C6_6 
ROOT
HETATM    1  C1  UNL     1     -33.697   7.102   6.428  1.00 20.00     0.111 C 
HETATM    2  C2  UNL     1     -33.713   7.686   5.016  1.00 20.00     0.231 C 
HETATM    3  C3  UNL     1     -34.426   5.506   4.462  1.00 20.00     0.278 C 
HETATM    4  C4  UNL     1     -33.921   4.143   4.012  1.00 20.00     0.054 C 
HETATM    5  N7  UNL     1     -33.490   6.572   4.077  1.00 20.00     0.102 N 
HETATM    6  S8  UNL     1     -34.620   5.557   6.270  1.00 20.00    -0.132 SA
HETATM    7  H21 UNL     1     -33.660   6.869   3.118  1.00 20.00     0.317 HD
ENDROOT
BRANCH   2   8
HETATM    8  C6  UNL     1     -32.639   8.752   4.840  1.00 20.00     0.032 C 
HETATM    9  C5  UNL     1     -32.263   8.930   3.403  1.00 20.00     0.007 C 
ENDBRANCH   2   8
TORSDOF 1
ENDMDL
MODEL 3
REMARK VINA RESULT:      -3.6     15.798     16.519
REMARK  1 active torsions:
REMARK  status: ('A' for Active; 'I' for Inactive)
REMARK    1  A    between atoms: C2_2  and  C6_6 
ROOT
HETATM    1  C1  UNL     1     -23.585  17.062  10.449  1.00 20.00     0.111 C 
HETATM    2  C2  UNL     1     -23.232  18.531  10.670  1.00 20.00     0.231 C 
HETATM    3  C3  UNL     1     -25.024  18.407  12.200  1.00 20.00     0.278 C 
HETATM    4  C4  UNL     1     -26.523  18.633  12.332  1.00 20.00     0.054 C 
HETATM    5  N7  UNL     1     -24.459  19.217  11.112  1.00 20.00     0.102 N 
HETATM    6  S8  UNL     1     -24.665  16.660  11.842  1.00 20.00    -0.132 SA
HETATM    7  H21 UNL     1     -24.248  20.159  11.438  1.00 20.00     0.317 HD
ENDROOT
BRANCH   2   8
HETATM    8  C6  UNL     1     -22.692  19.174   9.398  1.00 20.00     0.032 C 
HETATM    9  C5  UNL     1     -23.707  19.170   8.300  1.00 20.00     0.007 C 
ENDBRANCH   2   8
TORSDOF 1
ENDMDL
MODEL 4
REMARK VINA RESULT:      -3.6     15.616     16.105
REMARK  1 active torsions:
REMARK  status: ('A' for Active; 'I' for Inactive)
REMARK    1  A    between atoms: C2_2  and  C6_6 
ROOT
HETATM    1  C1  UNL     1     -24.417  18.424   9.969  1.00 20.00     0.111 C 
HETATM    2  C2  UNL     1     -23.470  17.602  10.840  1.00 20.00     0.231 C 
HETATM    3  C3  UNL     1     -21.944  18.114   9.115  1.00 20.00     0.278 C 
HETATM    4  C4  UNL     1     -21.374  17.590   7.805  1.00 20.00     0.054 C 
HETATM    5  N7  UNL     1     -22.450  17.017   9.951  1.00 20.00     0.102 N 
HETATM    6  S8  UNL     1     -23.321  19.263   8.804  1.00 20.00    -0.132 SA
HETATM    7  H21 UNL     1     -21.694  16.601  10.492  1.00 20.00     0.317 HD
ENDROOT
BRANCH   2   8
HETATM    8  C6  UNL     1     -24.211  16.504  11.592  1.00 20.00     0.032 C 
HETATM    9  C5  UNL     1     -25.412  17.034  12.307  1.00 20.00     0.007 C 
ENDBRANCH   2   8
TORSDOF 1
ENDMDL
MODEL 5
REMARK VINA RESULT:      -3.6      1.607      2.045
REMARK  1 active torsions:
REMARK  status: ('A' for Active; 'I' for Inactive)
REMARK    1  A    between atoms: C2_2  and  C6_6 
ROOT
HETATM    1  C1  UNL     1     -33.671   8.042   5.245  1.00 20.00     0.111 C 
HETATM    2  C2  UNL     1     -33.542   6.572   4.851  1.00 20.00     0.231 C 
HETATM    3  C3  UNL     1     -32.141   7.469   3.177  1.00 20.00     0.278 C 
HETATM    4  C4  UNL     1     -32.137   7.970   1.740  1.00 20.00     0.054 C 
HETATM    5  N7  UNL     1     -33.245   6.528   3.408  1.00 20.00     0.102 N 
HETATM    6  S8  UNL     1     -32.334   8.855   4.341  1.00 20.00    -0.132 SA
HETATM    7  H21 UNL     1     -32.980   5.587   3.123  1.00 20.00     0.317 HD
ENDROOT
BRANCH   2   8
HETATM    8  C6  UNL     1     -34.817   5.796   5.156  1.00 20.00     0.032 C 
HETATM    9  C5  UNL     1     -34.802   5.223   6.537  1.00 20.00     0.007 C 
ENDBRANCH   2   8
TORSDOF 1
ENDMDL
MODEL 6
REMARK VINA RESULT:      -3.5      9.700     10.213
REMARK  1 active torsions:
REMARK  status: ('A' for Active; 'I' for Inactive)
REMARK    1  A    between atoms: C2_2  and  C6_6 
ROOT
HETATM    1  C1  UNL     1     -41.031  13.333   5.166  1.00 20.00     0.111 C 
HETATM    2  C2  UNL     1     -40.202  12.670   6.265  1.00 20.00     0.231 C 
HETATM    3  C3  UNL     1     -40.958  14.522   7.517  1.00 20.00     0.278 C 
HETATM    4  C4  UNL     1     -40.584  15.936   7.935  1.00 20.00     0.054 C 
HETATM    5  N7  UNL     1     -39.763  13.733   7.187  1.00 20.00     0.102 N 
HETATM    6  S8  UNL     1     -42.036  14.546   6.051  1.00 20.00    -0.132 SA
HETATM    7  H21 UNL     1     -39.353  13.333   8.029  1.00 20.00     0.317 HD
ENDROOT
BRANCH   2   8
HETATM    8  C6  UNL     1     -38.998  11.934   5.691  1.00 20.00     0.032 C 
HETATM    9  C5  UNL     1     -39.136  11.707   4.219  1.00 20.00     0.007 C 
ENDBRANCH   2   8
TORSDOF 1
ENDMDL
MODEL 7
REMARK VINA RESULT:      -3.3     12.427     13.212
REMARK  1 active torsions:
REMARK  status: ('A' for Active; 'I' for Inactive)
REMARK    1  A    between atoms: C2_2  and  C6_6 
ROOT
HETATM    1  C1  UNL     1     -34.312  17.764  -4.101  1.00 20.00     0.111 C 
HETATM    2  C2  UNL     1     -33.561  16.628  -3.408  1.00 20.00     0.231 C 
HETATM    3  C3  UNL     1     -34.513  15.357  -5.153  1.00 20.00     0.278 C 
HETATM    4  C4  UNL     1     -35.715  14.494  -5.508  1.00 20.00     0.054 C 
HETATM    5  N7  UNL     1     -34.286  15.379  -3.702  1.00 20.00     0.102 N 
HETATM    6  S8  UNL     1     -34.764  17.072  -5.707  1.00 20.00    -0.132 SA
HETATM    7  H21 UNL     1     -33.740  14.569  -3.412  1.00 20.00     0.317 HD
ENDROOT
BRANCH   2   8
HETATM    8  C6  UNL     1     -33.473  16.851  -1.903  1.00 20.00     0.032 C 
HETATM    9  C5  UNL     1     -32.635  18.042  -1.566  1.00 20.00     0.007 C 
ENDBRANCH   2   8
TORSDOF 1
ENDMDL
MODEL 8
REMARK VINA RESULT:      -3.3      1.965      3.803
REMARK  1 active torsions:
REMARK  status: ('A' for Active; 'I' for Inactive)
REMARK    1  A    between atoms: C2_2  and  C6_6 
ROOT
HETATM    1  C1  UNL     1     -32.583   8.095   4.831  1.00 20.00     0.111 C 
HETATM    2  C2  UNL     1     -33.123   7.404   3.579  1.00 20.00     0.231 C 
HETATM    3  C3  UNL     1     -34.489   6.304   5.158  1.00 20.00     0.278 C 
HETATM    4  C4  UNL     1     -34.578   5.054   6.021  1.00 20.00     0.054 C 
HETATM    5  N7  UNL     1     -33.626   6.081   3.989  1.00 20.00     0.102 N 
HETATM    6  S8  UNL     1     -33.798   7.694   6.107  1.00 20.00    -0.132 SA
HETATM    7  H21 UNL     1     -34.152   5.645   3.234  1.00 20.00     0.317 HD
ENDROOT
BRANCH   2   8
HETATM    8  C6  UNL     1     -32.045   7.256   2.513  1.00 20.00     0.032 C 
HETATM    9  C5  UNL     1     -32.205   8.262   1.418  1.00 20.00     0.007 C 
ENDBRANCH   2   8
TORSDOF 1
ENDMDL
MODEL 9
REMARK VINA RESULT:      -3.2     12.624     13.484
REMARK  1 active torsions:
REMARK  status: ('A' for Active; 'I' for Inactive)
REMARK    1  A    between atoms: C2_2  and  C6_6 
ROOT
HETATM    1  C1  UNL     1     -34.070  15.172  -6.471  1.00 20.00     0.111 C 
HETATM    2  C2  UNL     1     -34.358  14.916  -4.993  1.00 20.00     0.231 C 
HETATM    3  C3  UNL     1     -36.515  15.644  -5.610  1.00 20.00     0.278 C 
HETATM    4  C4  UNL     1     -37.404  16.878  -5.683  1.00 20.00     0.054 C 
HETATM    5  N7  UNL     1     -35.463  15.808  -4.599  1.00 20.00     0.102 N 
HETATM    6  S8  UNL     1     -35.709  15.335  -7.212  1.00 20.00    -0.132 SA
HETATM    7  H21 UNL     1     -35.812  15.562  -3.674  1.00 20.00     0.317 HD
ENDROOT
BRANCH   2   8
HETATM    8  C6  UNL     1     -33.130  15.177  -4.130  1.00 20.00     0.032 C 
HETATM    9  C5  UNL     1     -33.390  16.226  -3.096  1.00 20.00     0.007 C 
ENDBRANCH   2   8
TORSDOF 1
ENDMDL
