MODEL 1
REMARK VINA RESULT:      -3.9      0.000      0.000
REMARK  3 active torsions:
REMARK  status: ('A' for Active; 'I' for Inactive)
REMARK    1  A    between atoms: C3_3  and  C6_6 
REMARK    2  A    between atoms: C6_6  and  C8_8 
REMARK    3  A    between atoms: C7_7  and  C8_8 
ROOT
HETATM    1  C1  UNL     1     -41.583  14.378   9.160  1.00 20.00     0.111 C 
HETATM    2  C2  UNL     1     -40.428  15.225   8.625  1.00 20.00     0.227 C 
HETATM    3  C3  UNL     1     -41.115  14.241   6.571  1.00 20.00     0.282 C 
HETATM    4  C4  UNL     1     -40.807  16.691   8.401  1.00 20.00     0.043 C 
HETATM    5  N9  UNL     1     -39.943  14.593   7.386  1.00 20.00     0.102 N 
HETATM    6  S10 UNL     1     -42.488  13.836   7.692  1.00 20.00    -0.132 SA
HETATM    7  H27 UNL     1     -39.394  15.285   6.870  1.00 20.00     0.317 HD
ENDROOT
BRANCH   3   8
HETATM    8  C6  UNL     1     -40.810  13.065   5.651  1.00 20.00     0.046 C 
BRANCH   8   9
HETATM    9  C8  UNL     1     -39.730  12.162   6.243  1.00 20.00     0.002 C 
BRANCH   9  10
HETATM   10  C7  UNL     1     -38.545  12.020   5.289  1.00 20.00    -0.004 C 
HETATM   11  C5  UNL     1     -39.002  11.667   3.882  1.00 20.00     0.005 C 
ENDBRANCH   9  10
ENDBRANCH   8   9
ENDBRANCH   3   8
TORSDOF 3
ENDMDL
MODEL 2
REMARK VINA RESULT:      -3.9     12.163     13.430
REMARK  3 active torsions:
REMARK  status: ('A' for Active; 'I' for Inactive)
REMARK    1  A    between atoms: C3_3  and  C6_6 
REMARK    2  A    between atoms: C6_6  and  C8_8 
REMARK    3  A    between atoms: C7_7  and  C8_8 
ROOT
HETATM    1  C1  UNL     1     -35.144  14.789  -5.222  1.00 20.00     0.111 C 
HETATM    2  C2  UNL     1     -35.489  16.268  -5.398  1.00 20.00     0.227 C 
HETATM    3  C3  UNL     1     -33.693  16.514  -3.857  1.00 20.00     0.282 C 
HETATM    4  C4  UNL     1     -34.888  16.883  -6.664  1.00 20.00     0.043 C 
HETATM    5  N9  UNL     1     -35.048  16.981  -4.185  1.00 20.00     0.102 N 
HETATM    6  S10 UNL     1     -33.548  14.777  -4.374  1.00 20.00    -0.132 SA
HETATM    7  H27 UNL     1     -34.995  17.979  -4.405  1.00 20.00     0.317 HD
ENDROOT
BRANCH   3   8
HETATM    8  C6  UNL     1     -33.412  16.655  -2.366  1.00 20.00     0.046 C 
BRANCH   8   9
HETATM    9  C8  UNL     1     -32.922  18.060  -2.022  1.00 20.00     0.002 C 
BRANCH   9  10
HETATM   10  C7  UNL     1     -32.682  18.209  -0.521  1.00 20.00    -0.004 C 
HETATM   11  C5  UNL     1     -31.229  18.537  -0.219  1.00 20.00     0.005 C 
ENDBRANCH   9  10
ENDBRANCH   8   9
ENDBRANCH   3   8
TORSDOF 3
ENDMDL
MODEL 3
REMARK VINA RESULT:      -3.8     11.920     13.384
REMARK  3 active torsions:
REMARK  status: ('A' for Active; 'I' for Inactive)
REMARK    1  A    between atoms: C3_3  and  C6_6 
REMARK    2  A    between atoms: C6_6  and  C8_8 
REMARK    3  A    between atoms: C7_7  and  C8_8 
ROOT
HETATM    1  C1  UNL     1     -35.483  14.041  -4.801  1.00 20.00     0.111 C 
HETATM    2  C2  UNL     1     -36.168  15.129  -5.628  1.00 20.00     0.227 C 
HETATM    3  C3  UNL     1     -34.358  16.424  -4.785  1.00 20.00     0.282 C 
HETATM    4  C4  UNL     1     -35.824  15.062  -7.118  1.00 20.00     0.043 C 
HETATM    5  N9  UNL     1     -35.805  16.433  -5.044  1.00 20.00     0.102 N 
HETATM    6  S10 UNL     1     -33.863  14.723  -4.376  1.00 20.00    -0.132 SA
HETATM    7  H27 UNL     1     -35.998  17.157  -5.740  1.00 20.00     0.317 HD
ENDROOT
BRANCH   3   8
HETATM    8  C6  UNL     1     -34.000  17.374  -3.649  1.00 20.00     0.046 C 
BRANCH   8   9
HETATM    9  C8  UNL     1     -33.392  16.623  -2.466  1.00 20.00     0.002 C 
BRANCH   9  10
HETATM   10  C7  UNL     1     -33.539  17.420  -1.172  1.00 20.00    -0.004 C 
HETATM   11  C5  UNL     1     -32.297  18.248  -0.882  1.00 20.00     0.005 C 
ENDBRANCH   9  10
ENDBRANCH   8   9
ENDBRANCH   3   8
TORSDOF 3
ENDMDL
MODEL 4
REMARK VINA RESULT:      -3.8     12.419     14.187
REMARK  3 active torsions:
REMARK  status: ('A' for Active; 'I' for Inactive)
REMARK    1  A    between atoms: C3_3  and  C6_6 
REMARK    2  A    between atoms: C6_6  and  C8_8 
REMARK    3  A    between atoms: C7_7  and  C8_8 
ROOT
HETATM    1  C1  UNL     1     -34.458  17.051  -6.900  1.00 20.00     0.111 C 
HETATM    2  C2  UNL     1     -34.298  15.531  -6.960  1.00 20.00     0.227 C 
HETATM    3  C3  UNL     1     -34.222  15.794  -4.596  1.00 20.00     0.282 C 
HETATM    4  C4  UNL     1     -35.626  14.791  -7.140  1.00 20.00     0.043 C 
HETATM    5  N9  UNL     1     -33.598  15.104  -5.735  1.00 20.00     0.102 N 
HETATM    6  S10 UNL     1     -34.806  17.418  -5.165  1.00 20.00    -0.132 SA
HETATM    7  H27 UNL     1     -33.749  14.099  -5.618  1.00 20.00     0.317 HD
ENDROOT
BRANCH   3   8
HETATM    8  C6  UNL     1     -33.235  15.952  -3.446  1.00 20.00     0.046 C 
BRANCH   8   9
HETATM    9  C8  UNL     1     -33.168  17.400  -2.966  1.00 20.00     0.002 C 
BRANCH   9  10
HETATM   10  C7  UNL     1     -33.278  17.482  -1.444  1.00 20.00    -0.004 C 
HETATM   11  C5  UNL     1     -32.124  18.268  -0.843  1.00 20.00     0.005 C 
ENDBRANCH   9  10
ENDBRANCH   8   9
ENDBRANCH   3   8
TORSDOF 3
ENDMDL
MODEL 5
REMARK VINA RESULT:      -3.6     11.739     12.426
REMARK  3 active torsions:
REMARK  status: ('A' for Active; 'I' for Inactive)
REMARK    1  A    between atoms: C3_3  and  C6_6 
REMARK    2  A    between atoms: C6_6  and  C8_8 
REMARK    3  A    between atoms: C7_7  and  C8_8 
ROOT
HETATM    1  C1  UNL     1     -34.619  18.643  -1.691  1.00 20.00     0.111 C 
HETATM    2  C2  UNL     1     -33.627  17.595  -1.186  1.00 20.00     0.227 C 
HETATM    3  C3  UNL     1     -33.484  17.113  -3.512  1.00 20.00     0.282 C 
HETATM    4  C4  UNL     1     -32.234  18.166  -0.909  1.00 20.00     0.043 C 
HETATM    5  N9  UNL     1     -33.580  16.505  -2.177  1.00 20.00     0.102 N 
HETATM    6  S10 UNL     1     -34.372  18.698  -3.481  1.00 20.00    -0.132 SA
HETATM    7  H27 UNL     1     -32.729  15.963  -2.013  1.00 20.00     0.317 HD
ENDROOT
BRANCH   3   8
HETATM    8  C6  UNL     1     -34.067  16.192  -4.576  1.00 20.00     0.046 C 
BRANCH   8   9
HETATM    9  C8  UNL     1     -33.965  14.726  -4.160  1.00 20.00     0.002 C 
BRANCH   9  10
HETATM   10  C7  UNL     1     -35.224  13.954  -4.549  1.00 20.00    -0.004 C 
HETATM   11  C5  UNL     1     -35.872  14.535  -5.796  1.00 20.00     0.005 C 
ENDBRANCH   9  10
ENDBRANCH   8   9
ENDBRANCH   3   8
TORSDOF 3
ENDMDL
MODEL 6
REMARK VINA RESULT:      -3.4     20.566     22.186
REMARK  3 active torsions:
REMARK  status: ('A' for Active; 'I' for Inactive)
REMARK    1  A    between atoms: C3_3  and  C6_6 
REMARK    2  A    between atoms: C6_6  and  C8_8 
REMARK    3  A    between atoms: C7_7  and  C8_8 
ROOT
HETATM    1  C1  UNL     1     -27.634  -0.514  10.551  1.00 20.00     0.111 C 
HETATM    2  C2  UNL     1     -27.771  -1.881   9.880  1.00 20.00     0.227 C 
HETATM    3  C3  UNL     1     -25.865  -2.346  11.227  1.00 20.00     0.282 C 
HETATM    4  C4  UNL     1     -28.829  -2.773  10.534  1.00 20.00     0.043 C 
HETATM    5  N9  UNL     1     -26.443  -2.520   9.886  1.00 20.00     0.102 N 
HETATM    6  S10 UNL     1     -26.466  -0.771  11.906  1.00 20.00    -0.132 SA
HETATM    7  H27 UNL     1     -26.571  -3.522   9.724  1.00 20.00     0.317 HD
ENDROOT
BRANCH   3   8
HETATM    8  C6  UNL     1     -24.343  -2.362  11.173  1.00 20.00     0.046 C 
BRANCH   8   9
HETATM    9  C8  UNL     1     -23.830  -3.451  10.234  1.00 20.00     0.002 C 
BRANCH   9  10
HETATM   10  C7  UNL     1     -22.826  -2.887   9.231  1.00 20.00    -0.004 C 
HETATM   11  C5  UNL     1     -23.205  -3.242   7.802  1.00 20.00     0.005 C 
ENDBRANCH   9  10
ENDBRANCH   8   9
ENDBRANCH   3   8
TORSDOF 3
ENDMDL
MODEL 7
REMARK VINA RESULT:      -3.4      1.524      1.816
REMARK  3 active torsions:
REMARK  status: ('A' for Active; 'I' for Inactive)
REMARK    1  A    between atoms: C3_3  and  C6_6 
REMARK    2  A    between atoms: C6_6  and  C8_8 
REMARK    3  A    between atoms: C7_7  and  C8_8 
ROOT
HETATM    1  C1  UNL     1     -40.504  16.097   7.809  1.00 20.00     0.111 C 
HETATM    2  C2  UNL     1     -41.878  16.307   7.171  1.00 20.00     0.227 C 
HETATM    3  C3  UNL     1     -41.933  13.933   7.338  1.00 20.00     0.282 C 
HETATM    4  C4  UNL     1     -42.958  16.707   8.179  1.00 20.00     0.043 C 
HETATM    5  N9  UNL     1     -42.234  15.069   6.454  1.00 20.00     0.102 N 
HETATM    6  S10 UNL     1     -40.504  14.379   8.370  1.00 20.00    -0.132 SA
HETATM    7  H27 UNL     1     -43.243  15.080   6.285  1.00 20.00     0.317 HD
ENDROOT
BRANCH   3   8
HETATM    8  C6  UNL     1     -41.641  12.675   6.531  1.00 20.00     0.046 C 
BRANCH   8   9
HETATM    9  C8  UNL     1     -40.565  12.928   5.477  1.00 20.00     0.002 C 
BRANCH   9  10
HETATM   10  C7  UNL     1     -39.535  11.800   5.458  1.00 20.00    -0.004 C 
HETATM   11  C5  UNL     1     -38.952  11.601   4.068  1.00 20.00     0.005 C 
ENDBRANCH   9  10
ENDBRANCH   8   9
ENDBRANCH   3   8
TORSDOF 3
ENDMDL
MODEL 8
REMARK VINA RESULT:      -3.4      1.447      1.831
REMARK  3 active torsions:
REMARK  status: ('A' for Active; 'I' for Inactive)
REMARK    1  A    between atoms: C3_3  and  C6_6 
REMARK    2  A    between atoms: C6_6  and  C8_8 
REMARK    3  A    between atoms: C7_7  and  C8_8 
ROOT
HETATM    1  C1  UNL     1     -41.830  16.048   8.956  1.00 20.00     0.111 C 
HETATM    2  C2  UNL     1     -42.002  14.637   9.519  1.00 20.00     0.227 C 
HETATM    3  C3  UNL     1     -40.727  14.085   7.588  1.00 20.00     0.282 C 
HETATM    4  C4  UNL     1     -41.012  14.309  10.640  1.00 20.00     0.043 C 
HETATM    5  N9  UNL     1     -41.888  13.688   8.398  1.00 20.00     0.102 N 
HETATM    6  S10 UNL     1     -40.560  15.893   7.680  1.00 20.00    -0.132 SA
HETATM    7  H27 UNL     1     -41.702  12.759   8.785  1.00 20.00     0.317 HD
ENDROOT
BRANCH   3   8
HETATM    8  C6  UNL     1     -40.888  13.634   6.142  1.00 20.00     0.046 C 
BRANCH   8   9
HETATM    9  C8  UNL     1     -40.471  12.176   5.963  1.00 20.00     0.002 C 
BRANCH   9  10
HETATM   10  C7  UNL     1     -39.026  12.070   5.481  1.00 20.00    -0.004 C 
HETATM   11  C5  UNL     1     -38.954  11.653   4.021  1.00 20.00     0.005 C 
ENDBRANCH   9  10
ENDBRANCH   8   9
ENDBRANCH   3   8
TORSDOF 3
ENDMDL
MODEL 9
REMARK VINA RESULT:      -3.3      9.403     10.728
REMARK  3 active torsions:
REMARK  status: ('A' for Active; 'I' for Inactive)
REMARK    1  A    between atoms: C3_3  and  C6_6 
REMARK    2  A    between atoms: C6_6  and  C8_8 
REMARK    3  A    between atoms: C7_7  and  C8_8 
ROOT
HETATM    1  C1  UNL     1     -34.405   7.688   5.562  1.00 20.00     0.111 C 
HETATM    2  C2  UNL     1     -34.782   6.221   5.356  1.00 20.00     0.227 C 
HETATM    3  C3  UNL     1     -32.910   6.306   3.889  1.00 20.00     0.282 C 
HETATM    4  C4  UNL     1     -34.259   5.301   6.462  1.00 20.00     0.043 C 
HETATM    5  N9  UNL     1     -34.288   5.811   4.029  1.00 20.00     0.102 N 
HETATM    6  S10 UNL     1     -32.766   7.860   4.820  1.00 20.00    -0.132 SA
HETATM    7  H27 UNL     1     -34.262   4.789   4.001  1.00 20.00     0.317 HD
ENDROOT
BRANCH   3   8
HETATM    8  C6  UNL     1     -32.552   6.523   2.425  1.00 20.00     0.046 C 
BRANCH   8   9
HETATM    9  C8  UNL     1     -32.125   7.965   2.164  1.00 20.00     0.002 C 
BRANCH   9  10
HETATM   10  C7  UNL     1     -32.103   8.273   0.668  1.00 20.00    -0.004 C 
HETATM   11  C5  UNL     1     -32.819   9.577   0.355  1.00 20.00     0.005 C 
ENDBRANCH   9  10
ENDBRANCH   8   9
ENDBRANCH   3   8
TORSDOF 3
ENDMDL
