MODEL 1
REMARK VINA RESULT:      -4.1      0.000      0.000
REMARK  2 active torsions:
REMARK  status: ('A' for Active; 'I' for Inactive)
REMARK    1  A    between atoms: C3_3  and  C7_7 
REMARK    2  A    between atoms: C7_7  and  C8_8 
ROOT
HETATM    1  C1  UNL     1     -34.428  17.144  -4.421  1.00 20.00     0.111 C 
HETATM    2  C2  UNL     1     -33.468  16.173  -3.738  1.00 20.00     0.227 C 
HETATM    3  C3  UNL     1     -33.772  17.670  -1.923  1.00 20.00     0.282 C 
HETATM    4  C4  UNL     1     -33.668  14.746  -4.236  1.00 20.00     0.043 C 
HETATM    5  N9  UNL     1     -33.715  16.248  -2.286  1.00 20.00     0.102 N 
HETATM    6  S10 UNL     1     -34.421  18.597  -3.346  1.00 20.00    -0.132 SA
HETATM    7  H27 UNL     1     -34.631  15.836  -2.099  1.00 20.00     0.317 HD
ENDROOT
BRANCH   3   8
HETATM    8  C7  UNL     1     -32.393  18.191  -1.533  1.00 20.00     0.050 C 
BRANCH   8   9
HETATM    9  C8  UNL     1     -32.354  18.844  -0.142  1.00 20.00    -0.020 C 
HETATM   10  C5  UNL     1     -33.535  18.422   0.733  1.00 20.00     0.009 C 
HETATM   11  C6  UNL     1     -31.039  18.492   0.558  1.00 20.00     0.009 C 
ENDBRANCH   8   9
ENDBRANCH   3   8
TORSDOF 2
ENDMDL
MODEL 2
REMARK VINA RESULT:      -3.8      1.588      4.694
REMARK  2 active torsions:
REMARK  status: ('A' for Active; 'I' for Inactive)
REMARK    1  A    between atoms: C3_3  and  C7_7 
REMARK    2  A    between atoms: C7_7  and  C8_8 
ROOT
HETATM    1  C1  UNL     1     -33.151  19.263   0.980  1.00 20.00     0.111 C 
HETATM    2  C2  UNL     1     -31.968  18.395   0.558  1.00 20.00     0.227 C 
HETATM    3  C3  UNL     1     -33.109  18.435  -1.522  1.00 20.00     0.282 C 
HETATM    4  C4  UNL     1     -30.695  18.786   1.301  1.00 20.00     0.043 C 
HETATM    5  N9  UNL     1     -31.786  18.565  -0.896  1.00 20.00     0.102 N 
HETATM    6  S10 UNL     1     -34.358  19.034  -0.345  1.00 20.00    -0.132 SA
HETATM    7  H27 UNL     1     -31.447  19.513  -1.064  1.00 20.00     0.317 HD
ENDROOT
BRANCH   3   8
HETATM    8  C7  UNL     1     -33.391  16.987  -1.908  1.00 20.00     0.050 C 
BRANCH   8   9
HETATM    9  C8  UNL     1     -33.282  16.721  -3.418  1.00 20.00    -0.020 C 
HETATM   10  C5  UNL     1     -33.603  15.270  -3.779  1.00 20.00     0.009 C 
HETATM   11  C6  UNL     1     -34.219  17.663  -4.178  1.00 20.00     0.009 C 
ENDBRANCH   8   9
ENDBRANCH   3   8
TORSDOF 2
ENDMDL
MODEL 3
REMARK VINA RESULT:      -3.7      1.754      2.407
REMARK  2 active torsions:
REMARK  status: ('A' for Active; 'I' for Inactive)
REMARK    1  A    between atoms: C3_3  and  C7_7 
REMARK    2  A    between atoms: C7_7  and  C8_8 
ROOT
HETATM    1  C1  UNL     1     -34.444  15.927  -5.419  1.00 20.00     0.111 C 
HETATM    2  C2  UNL     1     -34.622  17.348  -4.891  1.00 20.00     0.227 C 
HETATM    3  C3  UNL     1     -32.991  16.616  -3.331  1.00 20.00     0.282 C 
HETATM    4  C4  UNL     1     -34.932  18.329  -6.017  1.00 20.00     0.043 C 
HETATM    5  N9  UNL     1     -33.371  17.731  -4.209  1.00 20.00     0.102 N 
HETATM    6  S10 UNL     1     -33.574  15.070  -4.087  1.00 20.00    -0.132 SA
HETATM    7  H27 UNL     1     -32.644  17.838  -4.917  1.00 20.00     0.317 HD
ENDROOT
BRANCH   3   8
HETATM    8  C7  UNL     1     -33.591  16.787  -1.939  1.00 20.00     0.050 C 
BRANCH   8   9
HETATM    9  C8  UNL     1     -33.319  18.168  -1.319  1.00 20.00    -0.020 C 
HETATM   10  C5  UNL     1     -34.168  18.423  -0.072  1.00 20.00     0.009 C 
HETATM   11  C6  UNL     1     -31.835  18.294  -0.969  1.00 20.00     0.009 C 
ENDBRANCH   8   9
ENDBRANCH   3   8
TORSDOF 2
ENDMDL
MODEL 4
REMARK VINA RESULT:      -3.6     11.201     12.812
REMARK  2 active torsions:
REMARK  status: ('A' for Active; 'I' for Inactive)
REMARK    1  A    between atoms: C3_3  and  C7_7 
REMARK    2  A    between atoms: C7_7  and  C8_8 
ROOT
HETATM    1  C1  UNL     1     -42.224  13.974   8.584  1.00 20.00     0.111 C 
HETATM    2  C2  UNL     1     -40.759  14.225   8.239  1.00 20.00     0.227 C 
HETATM    3  C3  UNL     1     -41.425  13.260   6.177  1.00 20.00     0.282 C 
HETATM    4  C4  UNL     1     -40.229  15.479   8.926  1.00 20.00     0.043 C 
HETATM    5  N9  UNL     1     -40.663  14.365   6.774  1.00 20.00     0.102 N 
HETATM    6  S10 UNL     1     -42.789  12.835   7.301  1.00 20.00    -0.132 SA
HETATM    7  H27 UNL     1     -41.115  15.241   6.509  1.00 20.00     0.317 HD
ENDROOT
BRANCH   3   8
HETATM    8  C7  UNL     1     -40.533  12.046   5.939  1.00 20.00     0.050 C 
BRANCH   8   9
HETATM    9  C8  UNL     1     -39.234  12.376   5.187  1.00 20.00    -0.020 C 
HETATM   10  C5  UNL     1     -37.989  12.131   6.041  1.00 20.00     0.009 C 
HETATM   11  C6  UNL     1     -39.154  11.546   3.904  1.00 20.00     0.009 C 
ENDBRANCH   8   9
ENDBRANCH   3   8
TORSDOF 2
ENDMDL
MODEL 5
REMARK VINA RESULT:      -3.5      1.352      4.823
REMARK  2 active torsions:
REMARK  status: ('A' for Active; 'I' for Inactive)
REMARK    1  A    between atoms: C3_3  and  C7_7 
REMARK    2  A    between atoms: C7_7  and  C8_8 
ROOT
HETATM    1  C1  UNL     1     -34.819  18.567  -2.194  1.00 20.00     0.111 C 
HETATM    2  C2  UNL     1     -33.967  17.555  -1.432  1.00 20.00     0.227 C 
HETATM    3  C3  UNL     1     -33.304  16.957  -3.630  1.00 20.00     0.282 C 
HETATM    4  C4  UNL     1     -33.507  18.110  -0.088  1.00 20.00     0.043 C 
HETATM    5  N9  UNL     1     -32.803  17.225  -2.275  1.00 20.00     0.102 N 
HETATM    6  S10 UNL     1     -34.791  17.968  -3.899  1.00 20.00    -0.132 SA
HETATM    7  H27 UNL     1     -32.200  18.048  -2.318  1.00 20.00     0.317 HD
ENDROOT
BRANCH   3   8
HETATM    8  C7  UNL     1     -33.627  15.478  -3.811  1.00 20.00     0.050 C 
BRANCH   8   9
HETATM    9  C8  UNL     1     -34.650  15.204  -4.925  1.00 20.00    -0.020 C 
HETATM   10  C5  UNL     1     -33.994  15.085  -6.302  1.00 20.00     0.009 C 
HETATM   11  C6  UNL     1     -35.428  13.924  -4.610  1.00 20.00     0.009 C 
ENDBRANCH   8   9
ENDBRANCH   3   8
TORSDOF 2
ENDMDL
MODEL 6
REMARK VINA RESULT:      -3.4      2.554      5.225
REMARK  2 active torsions:
REMARK  status: ('A' for Active; 'I' for Inactive)
REMARK    1  A    between atoms: C3_3  and  C7_7 
REMARK    2  A    between atoms: C7_7  and  C8_8 
ROOT
HETATM    1  C1  UNL     1     -32.209  19.017   2.449  1.00 20.00     0.111 C 
HETATM    2  C2  UNL     1     -30.907  18.531   1.818  1.00 20.00     0.227 C 
HETATM    3  C3  UNL     1     -32.004  19.217  -0.171  1.00 20.00     0.282 C 
HETATM    4  C4  UNL     1     -29.716  18.767   2.740  1.00 20.00     0.043 C 
HETATM    5  N9  UNL     1     -30.725  19.263   0.550  1.00 20.00     0.102 N 
HETATM    6  S10 UNL     1     -33.347  19.161   1.052  1.00 20.00    -0.132 SA
HETATM    7  H27 UNL     1     -30.522  20.238   0.773  1.00 20.00     0.317 HD
ENDROOT
BRANCH   3   8
HETATM    8  C7  UNL     1     -32.070  18.002  -1.090  1.00 20.00     0.050 C 
BRANCH   8   9
HETATM    9  C8  UNL     1     -33.373  17.917  -1.904  1.00 20.00    -0.020 C 
HETATM   10  C5  UNL     1     -33.525  19.084  -2.881  1.00 20.00     0.009 C 
HETATM   11  C6  UNL     1     -33.419  16.592  -2.668  1.00 20.00     0.009 C 
ENDBRANCH   8   9
ENDBRANCH   3   8
TORSDOF 2
ENDMDL
MODEL 7
REMARK VINA RESULT:      -3.4      2.662      3.892
REMARK  2 active torsions:
REMARK  status: ('A' for Active; 'I' for Inactive)
REMARK    1  A    between atoms: C3_3  and  C7_7 
REMARK    2  A    between atoms: C7_7  and  C8_8 
ROOT
HETATM    1  C1  UNL     1     -35.687  14.732  -5.810  1.00 20.00     0.111 C 
HETATM    2  C2  UNL     1     -34.582  15.601  -6.405  1.00 20.00     0.227 C 
HETATM    3  C3  UNL     1     -33.330  14.640  -4.633  1.00 20.00     0.282 C 
HETATM    4  C4  UNL     1     -34.723  15.728  -7.918  1.00 20.00     0.043 C 
HETATM    5  N9  UNL     1     -33.290  14.977  -6.062  1.00 20.00     0.102 N 
HETATM    6  S10 UNL     1     -35.052  14.267  -4.183  1.00 20.00    -0.132 SA
HETATM    7  H27 UNL     1     -33.208  14.107  -6.591  1.00 20.00     0.317 HD
ENDROOT
BRANCH   3   8
HETATM    8  C7  UNL     1     -32.796  15.789  -3.785  1.00 20.00     0.050 C 
BRANCH   8   9
HETATM    9  C8  UNL     1     -33.900  16.668  -3.175  1.00 20.00    -0.020 C 
HETATM   10  C5  UNL     1     -33.635  17.000  -1.705  1.00 20.00     0.009 C 
HETATM   11  C6  UNL     1     -34.037  17.961  -3.981  1.00 20.00     0.009 C 
ENDBRANCH   8   9
ENDBRANCH   3   8
TORSDOF 2
ENDMDL
MODEL 8
REMARK VINA RESULT:      -3.3      1.649      2.328
REMARK  2 active torsions:
REMARK  status: ('A' for Active; 'I' for Inactive)
REMARK    1  A    between atoms: C3_3  and  C7_7 
REMARK    2  A    between atoms: C7_7  and  C8_8 
ROOT
HETATM    1  C1  UNL     1     -34.512  17.737  -6.206  1.00 20.00     0.111 C 
HETATM    2  C2  UNL     1     -34.563  16.353  -5.562  1.00 20.00     0.227 C 
HETATM    3  C3  UNL     1     -34.457  17.641  -3.573  1.00 20.00     0.282 C 
HETATM    4  C4  UNL     1     -35.401  15.382  -6.387  1.00 20.00     0.043 C 
HETATM    5  N9  UNL     1     -35.139  16.509  -4.213  1.00 20.00     0.102 N 
HETATM    6  S10 UNL     1     -33.977  18.825  -4.867  1.00 20.00    -0.132 SA
HETATM    7  H27 UNL     1     -36.126  16.751  -4.317  1.00 20.00     0.317 HD
ENDROOT
BRANCH   3   8
HETATM    8  C7  UNL     1     -33.230  17.173  -2.798  1.00 20.00     0.050 C 
BRANCH   8   9
HETATM    9  C8  UNL     1     -33.227  17.616  -1.326  1.00 20.00    -0.020 C 
HETATM   10  C5  UNL     1     -31.940  18.345  -0.939  1.00 20.00     0.009 C 
HETATM   11  C6  UNL     1     -34.434  18.517  -1.054  1.00 20.00     0.009 C 
ENDBRANCH   8   9
ENDBRANCH   3   8
TORSDOF 2
ENDMDL
MODEL 9
REMARK VINA RESULT:      -3.3      1.496      4.898
REMARK  2 active torsions:
REMARK  status: ('A' for Active; 'I' for Inactive)
REMARK    1  A    between atoms: C3_3  and  C7_7 
REMARK    2  A    between atoms: C7_7  and  C8_8 
ROOT
HETATM    1  C1  UNL     1     -33.381  19.100  -2.357  1.00 20.00     0.111 C 
HETATM    2  C2  UNL     1     -34.092  17.886  -1.764  1.00 20.00     0.227 C 
HETATM    3  C3  UNL     1     -33.490  16.931  -3.850  1.00 20.00     0.282 C 
HETATM    4  C4  UNL     1     -33.911  17.816  -0.251  1.00 20.00     0.043 C 
HETATM    5  N9  UNL     1     -33.529  16.682  -2.403  1.00 20.00     0.102 N 
HETATM    6  S10 UNL     1     -33.246  18.712  -4.117  1.00 20.00    -0.132 SA
HETATM    7  H27 UNL     1     -32.568  16.569  -2.075  1.00 20.00     0.317 HD
ENDROOT
BRANCH   3   8
HETATM    8  C7  UNL     1     -34.778  16.464  -4.520  1.00 20.00     0.050 C 
BRANCH   8   9
HETATM    9  C8  UNL     1     -34.664  15.076  -5.170  1.00 20.00    -0.020 C 
HETATM   10  C5  UNL     1     -36.019  14.376  -5.290  1.00 20.00     0.009 C 
HETATM   11  C6  UNL     1     -34.023  15.203  -6.554  1.00 20.00     0.009 C 
ENDBRANCH   8   9
ENDBRANCH   3   8
TORSDOF 2
ENDMDL
