MODEL 1
REMARK VINA RESULT:      -3.9      0.000      0.000
REMARK  3 active torsions:
REMARK  status: ('A' for Active; 'I' for Inactive)
REMARK    1  A    between atoms: C4_4  and  C7_7 
REMARK    2  A    between atoms: C7_7  and  O10_10 
REMARK    3  A    between atoms: C8_8  and  O10_10 
ROOT
HETATM    1  C1  UNL     1     -31.804  18.505  -0.598  1.00 20.00     0.071 C 
HETATM    2  C2  UNL     1     -34.025  17.821   0.376  1.00 20.00     0.028 A 
HETATM    3  C3  UNL     1     -34.138  19.263  -0.024  1.00 20.00     0.028 A 
HETATM    4  C4  UNL     1     -33.221  18.340  -0.794  1.00 20.00     0.070 A 
HETATM    5  N9  UNL     1     -30.662  18.639  -0.440  1.00 20.00    -0.196 NA
ENDROOT
BRANCH   4   6
HETATM    6  C7  UNL     1     -33.634  17.924  -2.177  1.00 20.00     0.192 C 
BRANCH   6   7
HETATM    7  O10 UNL     1     -33.419  16.526  -2.336  1.00 20.00    -0.385 OA
BRANCH   7   8
HETATM    8  C8  UNL     1     -33.344  16.165  -3.708  1.00 20.00     0.113 C 
HETATM    9  C5  UNL     1     -33.796  14.722  -3.873  1.00 20.00     0.039 C 
HETATM   10  C6  UNL     1     -34.196  17.123  -4.526  1.00 20.00     0.039 C 
ENDBRANCH   7   8
ENDBRANCH   6   7
ENDBRANCH   4   6
TORSDOF 3
ENDMDL
MODEL 2
REMARK VINA RESULT:      -3.7      2.158      4.555
REMARK  3 active torsions:
REMARK  status: ('A' for Active; 'I' for Inactive)
REMARK    1  A    between atoms: C4_4  and  C7_7 
REMARK    2  A    between atoms: C7_7  and  O10_10 
REMARK    3  A    between atoms: C8_8  and  O10_10 
ROOT
HETATM    1  C1  UNL     1     -34.144  17.177  -4.584  1.00 20.00     0.071 C 
HETATM    2  C2  UNL     1     -34.118  14.765  -3.854  1.00 20.00     0.028 A 
HETATM    3  C3  UNL     1     -32.715  15.128  -4.244  1.00 20.00     0.028 A 
HETATM    4  C4  UNL     1     -33.634  16.185  -3.673  1.00 20.00     0.070 A 
HETATM    5  N9  UNL     1     -34.555  17.976  -5.318  1.00 20.00    -0.196 NA
ENDROOT
BRANCH   4   6
HETATM    6  C7  UNL     1     -33.370  16.671  -2.276  1.00 20.00     0.192 C 
BRANCH   6   7
HETATM    7  O10 UNL     1     -32.803  17.976  -2.326  1.00 20.00    -0.385 OA
BRANCH   7   8
HETATM    8  C8  UNL     1     -32.777  18.581  -1.042  1.00 20.00     0.113 C 
HETATM    9  C5  UNL     1     -33.799  17.899  -0.145  1.00 20.00     0.039 C 
HETATM   10  C6  UNL     1     -31.370  18.484  -0.471  1.00 20.00     0.039 C 
ENDBRANCH   7   8
ENDBRANCH   6   7
ENDBRANCH   4   6
TORSDOF 3
ENDMDL
MODEL 3
REMARK VINA RESULT:      -3.6     11.871     13.509
REMARK  3 active torsions:
REMARK  status: ('A' for Active; 'I' for Inactive)
REMARK    1  A    between atoms: C4_4  and  C7_7 
REMARK    2  A    between atoms: C7_7  and  O10_10 
REMARK    3  A    between atoms: C8_8  and  O10_10 
ROOT
HETATM    1  C1  UNL     1     -42.126  12.389   6.761  1.00 20.00     0.071 C 
HETATM    2  C2  UNL     1     -39.815  11.801   5.945  1.00 20.00     0.028 A 
HETATM    3  C3  UNL     1     -40.425  12.723   4.931  1.00 20.00     0.028 A 
HETATM    4  C4  UNL     1     -40.813  12.847   6.388  1.00 20.00     0.070 A 
HETATM    5  N9  UNL     1     -43.184  12.019   7.062  1.00 20.00    -0.196 NA
ENDROOT
BRANCH   4   6
HETATM    6  C7  UNL     1     -40.303  14.031   7.157  1.00 20.00     0.192 C 
BRANCH   6   7
HETATM    7  O10 UNL     1     -40.042  13.647   8.503  1.00 20.00    -0.385 OA
BRANCH   7   8
HETATM    8  C8  UNL     1     -40.385  14.681   9.414  1.00 20.00     0.113 C 
HETATM    9  C5  UNL     1     -40.521  15.993   8.656  1.00 20.00     0.039 C 
HETATM   10  C6  UNL     1     -41.671  14.308  10.136  1.00 20.00     0.039 C 
ENDBRANCH   7   8
ENDBRANCH   6   7
ENDBRANCH   4   6
TORSDOF 3
ENDMDL
MODEL 4
REMARK VINA RESULT:      -3.6      3.276      5.600
REMARK  3 active torsions:
REMARK  status: ('A' for Active; 'I' for Inactive)
REMARK    1  A    between atoms: C4_4  and  C7_7 
REMARK    2  A    between atoms: C7_7  and  O10_10 
REMARK    3  A    between atoms: C8_8  and  O10_10 
ROOT
HETATM    1  C1  UNL     1     -35.445  14.123  -4.920  1.00 20.00     0.071 C 
HETATM    2  C2  UNL     1     -34.078  15.168  -6.762  1.00 20.00     0.028 A 
HETATM    3  C3  UNL     1     -35.481  15.682  -6.901  1.00 20.00     0.028 A 
HETATM    4  C4  UNL     1     -34.944  15.326  -5.533  1.00 20.00     0.070 A 
HETATM    5  N9  UNL     1     -35.850  13.154  -4.427  1.00 20.00    -0.196 NA
ENDROOT
BRANCH   4   6
HETATM    6  C7  UNL     1     -34.627  16.447  -4.584  1.00 20.00     0.192 C 
BRANCH   6   7
HETATM    7  O10 UNL     1     -33.706  15.989  -3.599  1.00 20.00    -0.385 OA
BRANCH   7   8
HETATM    8  C8  UNL     1     -33.072  17.074  -2.938  1.00 20.00     0.113 C 
HETATM    9  C5  UNL     1     -33.264  18.342  -3.756  1.00 20.00     0.039 C 
HETATM   10  C6  UNL     1     -33.646  17.211  -1.536  1.00 20.00     0.039 C 
ENDBRANCH   7   8
ENDBRANCH   6   7
ENDBRANCH   4   6
TORSDOF 3
ENDMDL
MODEL 5
REMARK VINA RESULT:      -3.6      2.214      4.392
REMARK  3 active torsions:
REMARK  status: ('A' for Active; 'I' for Inactive)
REMARK    1  A    between atoms: C4_4  and  C7_7 
REMARK    2  A    between atoms: C7_7  and  O10_10 
REMARK    3  A    between atoms: C8_8  and  O10_10 
ROOT
HETATM    1  C1  UNL     1     -33.430  15.760  -3.797  1.00 20.00     0.071 C 
HETATM    2  C2  UNL     1     -33.380  18.272  -4.000  1.00 20.00     0.028 A 
HETATM    3  C3  UNL     1     -34.809  17.870  -3.779  1.00 20.00     0.028 A 
HETATM    4  C4  UNL     1     -33.694  17.037  -3.187  1.00 20.00     0.070 A 
HETATM    5  N9  UNL     1     -33.218  14.731  -4.290  1.00 20.00    -0.196 NA
ENDROOT
BRANCH   4   6
HETATM    6  C7  UNL     1     -33.481  17.095  -1.701  1.00 20.00     0.192 C 
BRANCH   6   7
HETATM    7  O10 UNL     1     -32.280  17.808  -1.421  1.00 20.00    -0.385 OA
BRANCH   7   8
HETATM    8  C8  UNL     1     -32.429  18.651  -0.288  1.00 20.00     0.113 C 
HETATM    9  C5  UNL     1     -33.679  18.245   0.479  1.00 20.00     0.039 C 
HETATM   10  C6  UNL     1     -31.180  18.556   0.575  1.00 20.00     0.039 C 
ENDBRANCH   7   8
ENDBRANCH   6   7
ENDBRANCH   4   6
TORSDOF 3
ENDMDL
MODEL 6
REMARK VINA RESULT:      -3.5     11.659     12.696
REMARK  3 active torsions:
REMARK  status: ('A' for Active; 'I' for Inactive)
REMARK    1  A    between atoms: C4_4  and  C7_7 
REMARK    2  A    between atoms: C7_7  and  O10_10 
REMARK    3  A    between atoms: C8_8  and  O10_10 
ROOT
HETATM    1  C1  UNL     1     -33.414   5.364   3.477  1.00 20.00     0.071 C 
HETATM    2  C2  UNL     1     -35.588   5.610   4.728  1.00 20.00     0.028 A 
HETATM    3  C3  UNL     1     -34.613   4.943   5.654  1.00 20.00     0.028 A 
HETATM    4  C4  UNL     1     -34.112   5.915   4.610  1.00 20.00     0.070 A 
HETATM    5  N9  UNL     1     -32.851   4.920   2.565  1.00 20.00    -0.196 NA
ENDROOT
BRANCH   4   6
HETATM    6  C7  UNL     1     -33.627   7.260   5.071  1.00 20.00     0.192 C 
BRANCH   6   7
HETATM    7  O10 UNL     1     -33.958   8.244   4.096  1.00 20.00    -0.385 OA
BRANCH   7   8
HETATM    8  C8  UNL     1     -32.828   9.029   3.746  1.00 20.00     0.113 C 
HETATM    9  C5  UNL     1     -31.880   9.100   4.934  1.00 20.00     0.039 C 
HETATM   10  C6  UNL     1     -32.157   8.426   2.521  1.00 20.00     0.039 C 
ENDBRANCH   7   8
ENDBRANCH   6   7
ENDBRANCH   4   6
TORSDOF 3
ENDMDL
MODEL 7
REMARK VINA RESULT:      -3.5      3.416      5.535
REMARK  3 active torsions:
REMARK  status: ('A' for Active; 'I' for Inactive)
REMARK    1  A    between atoms: C4_4  and  C7_7 
REMARK    2  A    between atoms: C7_7  and  O10_10 
REMARK    3  A    between atoms: C8_8  and  O10_10 
ROOT
HETATM    1  C1  UNL     1     -34.183  15.255  -6.818  1.00 20.00     0.071 C 
HETATM    2  C2  UNL     1     -36.326  15.746  -5.586  1.00 20.00     0.028 A 
HETATM    3  C3  UNL     1     -35.945  14.329  -5.272  1.00 20.00     0.028 A 
HETATM    4  C4  UNL     1     -34.867  15.352  -5.554  1.00 20.00     0.070 A 
HETATM    5  N9  UNL     1     -33.631  15.177  -7.836  1.00 20.00    -0.196 NA
ENDROOT
BRANCH   4   6
HETATM    6  C7  UNL     1     -34.029  15.832  -4.404  1.00 20.00     0.192 C 
BRANCH   6   7
HETATM    7  O10 UNL     1     -33.869  17.244  -4.491  1.00 20.00    -0.385 OA
BRANCH   7   8
HETATM    8  C8  UNL     1     -33.821  17.841  -3.203  1.00 20.00     0.113 C 
HETATM    9  C5  UNL     1     -35.165  18.485  -2.897  1.00 20.00     0.039 C 
HETATM   10  C6  UNL     1     -33.452  16.783  -2.173  1.00 20.00     0.039 C 
ENDBRANCH   7   8
ENDBRANCH   6   7
ENDBRANCH   4   6
TORSDOF 3
ENDMDL
MODEL 8
REMARK VINA RESULT:      -3.5     11.248     12.500
REMARK  3 active torsions:
REMARK  status: ('A' for Active; 'I' for Inactive)
REMARK    1  A    between atoms: C4_4  and  C7_7 
REMARK    2  A    between atoms: C7_7  and  O10_10 
REMARK    3  A    between atoms: C8_8  and  O10_10 
ROOT
HETATM    1  C1  UNL     1     -42.685  13.011   7.597  1.00 20.00     0.071 C 
HETATM    2  C2  UNL     1     -43.222  14.154   5.416  1.00 20.00     0.028 A 
HETATM    3  C3  UNL     1     -42.894  15.226   6.413  1.00 20.00     0.028 A 
HETATM    4  C4  UNL     1     -42.240  13.868   6.529  1.00 20.00     0.070 A 
HETATM    5  N9  UNL     1     -43.043  12.320   8.458  1.00 20.00    -0.196 NA
ENDROOT
BRANCH   4   6
HETATM    6  C7  UNL     1     -40.784  13.751   6.176  1.00 20.00     0.192 C 
BRANCH   6   7
HETATM    7  O10 UNL     1     -40.648  13.027   4.957  1.00 20.00    -0.385 OA
BRANCH   7   8
HETATM    8  C8  UNL     1     -39.858  11.860   5.132  1.00 20.00     0.113 C 
HETATM    9  C5  UNL     1     -38.955  11.680   3.921  1.00 20.00     0.039 C 
HETATM   10  C6  UNL     1     -39.059  11.984   6.421  1.00 20.00     0.039 C 
ENDBRANCH   7   8
ENDBRANCH   6   7
ENDBRANCH   4   6
TORSDOF 3
ENDMDL
MODEL 9
REMARK VINA RESULT:      -3.5     11.818     12.693
REMARK  3 active torsions:
REMARK  status: ('A' for Active; 'I' for Inactive)
REMARK    1  A    between atoms: C4_4  and  C7_7 
REMARK    2  A    between atoms: C7_7  and  O10_10 
REMARK    3  A    between atoms: C8_8  and  O10_10 
ROOT
HETATM    1  C1  UNL     1     -32.482   7.099   3.198  1.00 20.00     0.071 C 
HETATM    2  C2  UNL     1     -31.789   8.819   4.905  1.00 20.00     0.028 A 
HETATM    3  C3  UNL     1     -32.840   9.448   4.039  1.00 20.00     0.028 A 
HETATM    4  C4  UNL     1     -32.867   7.957   4.289  1.00 20.00     0.070 A 
HETATM    5  N9  UNL     1     -32.171   6.408   2.319  1.00 20.00    -0.196 NA
ENDROOT
BRANCH   4   6
HETATM    6  C7  UNL     1     -33.937   7.409   5.190  1.00 20.00     0.192 C 
BRANCH   6   7
HETATM    7  O10 UNL     1     -34.766   6.516   4.454  1.00 20.00    -0.385 OA
BRANCH   7   8
HETATM    8  C8  UNL     1     -34.922   5.277   5.130  1.00 20.00     0.113 C 
HETATM    9  C5  UNL     1     -34.066   4.221   4.446  1.00 20.00     0.039 C 
HETATM   10  C6  UNL     1     -34.544   5.452   6.593  1.00 20.00     0.039 C 
ENDBRANCH   7   8
ENDBRANCH   6   7
ENDBRANCH   4   6
TORSDOF 3
ENDMDL
