MODEL 1
REMARK VINA RESULT:      -3.7      0.000      0.000
REMARK  0 active torsions:
REMARK  status: ('A' for Active; 'I' for Inactive)
ROOT
HETATM    1  C1  UNL     1     -31.791  18.493  -0.778  1.00 20.00     0.080 C 
HETATM    2  C2  UNL     1     -33.187  16.615  -2.859  1.00 20.00     0.013 C 
HETATM    3  C3  UNL     1     -33.667  17.024  -1.471  1.00 20.00     0.036 C 
HETATM    4  C4  UNL     1     -33.608  17.728  -3.802  1.00 20.00     0.076 C 
HETATM    5  C5  UNL     1     -33.193  18.463  -1.229  1.00 20.00     0.093 C 
HETATM    6  C6  UNL     1     -34.083  19.181  -0.214  1.00 20.00     0.043 C 
HETATM    7  N7  UNL     1     -30.686  18.517  -0.422  1.00 20.00    -0.196 NA
HETATM    8  S8  UNL     1     -33.344  19.263  -2.872  1.00 20.00    -0.144 SA
ENDROOT
TORSDOF 0
ENDMDL
MODEL 2
REMARK VINA RESULT:      -3.6     14.295     15.412
REMARK  0 active torsions:
REMARK  status: ('A' for Active; 'I' for Inactive)
ROOT
HETATM    1  C1  UNL     1     -22.597  18.199  11.515  1.00 20.00     0.080 C 
HETATM    2  C2  UNL     1     -22.451  18.464   8.397  1.00 20.00     0.013 C 
HETATM    3  C3  UNL     1     -22.674  17.212   9.240  1.00 20.00     0.036 C 
HETATM    4  C4  UNL     1     -23.809  19.122   8.242  1.00 20.00     0.076 C 
HETATM    5  C5  UNL     1     -23.477  17.632  10.478  1.00 20.00     0.093 C 
HETATM    6  C6  UNL     1     -24.271  16.459  11.053  1.00 20.00     0.043 C 
HETATM    7  N7  UNL     1     -21.904  18.647  12.332  1.00 20.00    -0.196 NA
HETATM    8  S8  UNL     1     -24.623  18.917   9.850  1.00 20.00    -0.144 SA
ENDROOT
TORSDOF 0
ENDMDL
MODEL 3
REMARK VINA RESULT:      -3.5      3.946      5.311
REMARK  0 active torsions:
REMARK  status: ('A' for Active; 'I' for Inactive)
ROOT
HETATM    1  C1  UNL     1     -35.163  14.147  -4.740  1.00 20.00     0.080 C 
HETATM    2  C2  UNL     1     -33.476  16.131  -2.998  1.00 20.00     0.013 C 
HETATM    3  C3  UNL     1     -33.059  15.369  -4.252  1.00 20.00     0.036 C 
HETATM    4  C4  UNL     1     -34.185  17.385  -3.476  1.00 20.00     0.076 C 
HETATM    5  C5  UNL     1     -34.295  15.263  -5.155  1.00 20.00     0.093 C 
HETATM    6  C6  UNL     1     -33.902  15.098  -6.623  1.00 20.00     0.043 C 
HETATM    7  N7  UNL     1     -35.846  13.268  -4.412  1.00 20.00    -0.196 NA
HETATM    8  S8  UNL     1     -35.161  16.860  -4.913  1.00 20.00    -0.144 SA
ENDROOT
TORSDOF 0
ENDMDL
MODEL 4
REMARK VINA RESULT:      -3.3     14.709     15.494
REMARK  0 active torsions:
REMARK  status: ('A' for Active; 'I' for Inactive)
ROOT
HETATM    1  C1  UNL     1     -43.061   5.242  -0.687  1.00 20.00     0.080 C 
HETATM    2  C2  UNL     1     -42.513   8.319  -0.479  1.00 20.00     0.013 C 
HETATM    3  C3  UNL     1     -43.289   7.421   0.479  1.00 20.00     0.036 C 
HETATM    4  C4  UNL     1     -41.050   8.183  -0.102  1.00 20.00     0.076 C 
HETATM    5  C5  UNL     1     -42.612   6.044   0.465  1.00 20.00     0.093 C 
HETATM    6  C6  UNL     1     -42.869   5.281   1.764  1.00 20.00     0.043 C 
HETATM    7  N7  UNL     1     -43.415   4.610  -1.594  1.00 20.00    -0.196 NA
HETATM    8  S8  UNL     1     -40.826   6.429   0.307  1.00 20.00    -0.144 SA
ENDROOT
TORSDOF 0
ENDMDL
MODEL 5
REMARK VINA RESULT:      -3.3     15.412     16.238
REMARK  0 active torsions:
REMARK  status: ('A' for Active; 'I' for Inactive)
ROOT
HETATM    1  C1  UNL     1     -25.018  18.471  11.459  1.00 20.00     0.080 C 
HETATM    2  C2  UNL     1     -21.914  18.877  11.554  1.00 20.00     0.013 C 
HETATM    3  C3  UNL     1     -22.771  17.884  12.332  1.00 20.00     0.036 C 
HETATM    4  C4  UNL     1     -21.641  18.240  10.204  1.00 20.00     0.076 C 
HETATM    5  C5  UNL     1     -23.935  17.473  11.421  1.00 20.00     0.093 C 
HETATM    6  C6  UNL     1     -24.481  16.097  11.799  1.00 20.00     0.043 C 
HETATM    7  N7  UNL     1     -25.871  19.258  11.489  1.00 20.00    -0.196 NA
HETATM    8  S8  UNL     1     -23.190  17.414   9.747  1.00 20.00    -0.144 SA
ENDROOT
TORSDOF 0
ENDMDL
MODEL 6
REMARK VINA RESULT:      -3.2      4.317      5.654
REMARK  0 active torsions:
REMARK  status: ('A' for Active; 'I' for Inactive)
ROOT
HETATM    1  C1  UNL     1     -34.146  15.165  -6.772  1.00 20.00     0.080 C 
HETATM    2  C2  UNL     1     -33.931  17.351  -4.540  1.00 20.00     0.013 C 
HETATM    3  C3  UNL     1     -35.171  16.623  -5.047  1.00 20.00     0.036 C 
HETATM    4  C4  UNL     1     -33.295  16.441  -3.504  1.00 20.00     0.076 C 
HETATM    5  C5  UNL     1     -34.743  15.200  -5.426  1.00 20.00     0.093 C 
HETATM    6  C6  UNL     1     -35.917  14.224  -5.352  1.00 20.00     0.043 C 
HETATM    7  N7  UNL     1     -33.675  15.138  -7.833  1.00 20.00    -0.196 NA
HETATM    8  S8  UNL     1     -33.485  14.763  -4.166  1.00 20.00    -0.144 SA
ENDROOT
TORSDOF 0
ENDMDL
MODEL 7
REMARK VINA RESULT:      -3.2      4.285      5.591
REMARK  0 active torsions:
REMARK  status: ('A' for Active; 'I' for Inactive)
ROOT
HETATM    1  C1  UNL     1     -36.287  15.824  -5.649  1.00 20.00     0.080 C 
HETATM    2  C2  UNL     1     -33.773  14.662  -4.186  1.00 20.00     0.013 C 
HETATM    3  C3  UNL     1     -33.950  14.990  -5.665  1.00 20.00     0.036 C 
HETATM    4  C4  UNL     1     -33.387  15.961  -3.503  1.00 20.00     0.076 C 
HETATM    5  C5  UNL     1     -34.870  16.214  -5.755  1.00 20.00     0.093 C 
HETATM    6  C6  UNL     1     -34.639  16.993  -7.049  1.00 20.00     0.043 C 
HETATM    7  N7  UNL     1     -37.403  15.516  -5.566  1.00 20.00    -0.196 NA
HETATM    8  S8  UNL     1     -34.389  17.239  -4.312  1.00 20.00    -0.144 SA
ENDROOT
TORSDOF 0
ENDMDL
MODEL 8
REMARK VINA RESULT:      -3.2     14.712     15.451
REMARK  0 active torsions:
REMARK  status: ('A' for Active; 'I' for Inactive)
ROOT
HETATM    1  C1  UNL     1     -42.817   7.966  -0.080  1.00 20.00     0.080 C 
HETATM    2  C2  UNL     1     -43.093   4.922  -0.765  1.00 20.00     0.013 C 
HETATM    3  C3  UNL     1     -41.828   5.769  -0.673  1.00 20.00     0.036 C 
HETATM    4  C4  UNL     1     -43.417   4.482   0.651  1.00 20.00     0.076 C 
HETATM    5  C5  UNL     1     -42.056   6.812   0.429  1.00 20.00     0.093 C 
HETATM    6  C6  UNL     1     -40.734   7.285   1.033  1.00 20.00     0.043 C 
HETATM    7  N7  UNL     1     -43.417   8.875  -0.481  1.00 20.00    -0.196 NA
HETATM    8  S8  UNL     1     -43.037   5.917   1.693  1.00 20.00    -0.144 SA
ENDROOT
TORSDOF 0
ENDMDL
MODEL 9
REMARK VINA RESULT:      -3.2      5.083      5.735
REMARK  0 active torsions:
REMARK  status: ('A' for Active; 'I' for Inactive)
ROOT
HETATM    1  C1  UNL     1     -34.065  15.206  -6.688  1.00 20.00     0.080 C 
HETATM    2  C2  UNL     1     -36.966  16.092  -5.906  1.00 20.00     0.013 C 
HETATM    3  C3  UNL     1     -36.160  14.904  -5.392  1.00 20.00     0.036 C 
HETATM    4  C4  UNL     1     -36.536  17.291  -5.080  1.00 20.00     0.076 C 
HETATM    5  C5  UNL     1     -34.686  15.332  -5.358  1.00 20.00     0.093 C 
HETATM    6  C6  UNL     1     -33.893  14.522  -4.333  1.00 20.00     0.043 C 
HETATM    7  N7  UNL     1     -33.575  15.107  -7.736  1.00 20.00    -0.196 NA
HETATM    8  S8  UNL     1     -34.746  17.093  -4.854  1.00 20.00    -0.144 SA
ENDROOT
TORSDOF 0
ENDMDL
