MODEL 1
REMARK VINA RESULT:      -4.1      0.000      0.000
REMARK  1 active torsions:
REMARK  status: ('A' for Active; 'I' for Inactive)
REMARK    1  A    between atoms: C3_3  and  C7_7 
ROOT
HETATM    1  C1  UNL     1     -33.299  15.696  -3.438  1.00 20.00    -0.011 C 
HETATM    2  C2  UNL     1     -33.675  16.943  -3.113  1.00 20.00    -0.015 C 
HETATM    3  C4  UNL     1     -33.763  14.995  -4.682  1.00 20.00     0.040 C 
HETATM    4  C5  UNL     1     -34.574  17.779  -3.982  1.00 20.00     0.047 C 
HETATM    5  C6  UNL     1     -34.723  17.217  -5.399  1.00 20.00     0.017 C 
HETATM    6  C7  UNL     1     -34.935  15.703  -5.371  1.00 20.00     0.058 C 
HETATM    7 BR10 UNL     1     -33.095  17.771  -1.541  1.00 20.00    -0.056 Br
ENDROOT
BRANCH   6   8
HETATM    8  C3  UNL     1     -35.084  15.178  -6.766  1.00 20.00     0.127 C 
HETATM    9  C8  UNL     1     -34.101  15.682  -7.788  1.00 20.00     0.091 C 
HETATM   10  O9  UNL     1     -35.967  14.373  -7.061  1.00 20.00    -0.298 OA
ENDBRANCH   6   8
TORSDOF 1
ENDMDL
MODEL 2
REMARK VINA RESULT:      -4.0     12.130     13.498
REMARK  1 active torsions:
REMARK  status: ('A' for Active; 'I' for Inactive)
REMARK    1  A    between atoms: C3_3  and  C7_7 
ROOT
HETATM    1  C1  UNL     1     -32.602   8.592   3.437  1.00 20.00    -0.011 C 
HETATM    2  C2  UNL     1     -32.517   7.758   2.389  1.00 20.00    -0.015 C 
HETATM    3  C4  UNL     1     -33.239   8.210   4.742  1.00 20.00     0.040 C 
HETATM    4  C5  UNL     1     -33.020   6.341   2.428  1.00 20.00     0.047 C 
HETATM    5  C6  UNL     1     -33.306   5.849   3.850  1.00 20.00     0.017 C 
HETATM    6  C7  UNL     1     -34.049   6.911   4.661  1.00 20.00     0.058 C 
HETATM    7 BR10 UNL     1     -31.740   8.281   0.772  1.00 20.00    -0.056 Br
ENDROOT
BRANCH   6   8
HETATM    8  C3  UNL     1     -34.322   6.406   6.044  1.00 20.00     0.127 C 
HETATM    9  C8  UNL     1     -34.507   4.920   6.198  1.00 20.00     0.091 C 
HETATM   10  O9  UNL     1     -34.391   7.168   7.007  1.00 20.00    -0.298 OA
ENDBRANCH   6   8
TORSDOF 1
ENDMDL
MODEL 3
REMARK VINA RESULT:      -4.0      4.282      5.724
REMARK  1 active torsions:
REMARK  status: ('A' for Active; 'I' for Inactive)
REMARK    1  A    between atoms: C3_3  and  C7_7 
ROOT
HETATM    1  C1  UNL     1     -33.319  18.539   1.325  1.00 20.00    -0.011 C 
HETATM    2  C2  UNL     1     -32.073  18.897   1.671  1.00 20.00    -0.015 C 
HETATM    3  C4  UNL     1     -33.732  18.259  -0.092  1.00 20.00     0.040 C 
HETATM    4  C5  UNL     1     -30.951  19.019   0.676  1.00 20.00     0.047 C 
HETATM    5  C6  UNL     1     -31.277  18.369  -0.672  1.00 20.00     0.017 C 
HETATM    6  C7  UNL     1     -32.695  18.719  -1.123  1.00 20.00     0.058 C 
HETATM    7 BR10 UNL     1     -31.606  19.263   3.442  1.00 20.00    -0.056 Br
ENDROOT
BRANCH   6   8
HETATM    8  C3  UNL     1     -32.988  18.078  -2.445  1.00 20.00     0.127 C 
HETATM    9  C8  UNL     1     -33.380  16.626  -2.421  1.00 20.00     0.091 C 
HETATM   10  O9  UNL     1     -32.915  18.710  -3.498  1.00 20.00    -0.298 OA
ENDBRANCH   6   8
TORSDOF 1
ENDMDL
MODEL 4
REMARK VINA RESULT:      -4.0      3.391      4.679
REMARK  1 active torsions:
REMARK  status: ('A' for Active; 'I' for Inactive)
REMARK    1  A    between atoms: C3_3  and  C7_7 
ROOT
HETATM    1  C1  UNL     1     -33.955  15.337  -4.261  1.00 20.00    -0.011 C 
HETATM    2  C2  UNL     1     -34.769  15.938  -5.142  1.00 20.00    -0.015 C 
HETATM    3  C4  UNL     1     -33.235  16.077  -3.169  1.00 20.00     0.040 C 
HETATM    4  C5  UNL     1     -35.072  17.410  -5.105  1.00 20.00     0.047 C 
HETATM    5  C6  UNL     1     -34.655  18.071  -3.788  1.00 20.00     0.017 C 
HETATM    6  C7  UNL     1     -33.268  17.599  -3.350  1.00 20.00     0.058 C 
HETATM    7 BR10 UNL     1     -35.625  14.985  -6.503  1.00 20.00    -0.056 Br
ENDROOT
BRANCH   6   8
HETATM    8  C3  UNL     1     -32.880  18.262  -2.064  1.00 20.00     0.127 C 
HETATM    9  C8  UNL     1     -33.571  17.780  -0.818  1.00 20.00     0.091 C 
HETATM   10  O9  UNL     1     -32.035  19.156  -2.030  1.00 20.00    -0.298 OA
ENDBRANCH   6   8
TORSDOF 1
ENDMDL
MODEL 5
REMARK VINA RESULT:      -3.9     12.122     13.438
REMARK  1 active torsions:
REMARK  status: ('A' for Active; 'I' for Inactive)
REMARK    1  A    between atoms: C3_3  and  C7_7 
ROOT
HETATM    1  C1  UNL     1     -32.873   6.421   2.561  1.00 20.00    -0.011 C 
HETATM    2  C2  UNL     1     -32.513   7.702   2.386  1.00 20.00    -0.015 C 
HETATM    3  C4  UNL     1     -33.430   5.893   3.851  1.00 20.00     0.040 C 
HETATM    4  C5  UNL     1     -32.666   8.749   3.455  1.00 20.00     0.047 C 
HETATM    5  C6  UNL     1     -33.574   8.299   4.603  1.00 20.00     0.017 C 
HETATM    6  C7  UNL     1     -33.257   6.863   5.025  1.00 20.00     0.058 C 
HETATM    7 BR10 UNL     1     -31.798   8.315   0.772  1.00 20.00    -0.056 Br
ENDROOT
BRANCH   6   8
HETATM    8  C3  UNL     1     -34.152   6.448   6.152  1.00 20.00     0.127 C 
HETATM    9  C8  UNL     1     -34.643   5.026   6.139  1.00 20.00     0.091 C 
HETATM   10  O9  UNL     1     -34.469   7.232   7.046  1.00 20.00    -0.298 OA
ENDBRANCH   6   8
TORSDOF 1
ENDMDL
MODEL 6
REMARK VINA RESULT:      -3.9      1.246      2.157
REMARK  1 active torsions:
REMARK  status: ('A' for Active; 'I' for Inactive)
REMARK    1  A    between atoms: C3_3  and  C7_7 
ROOT
HETATM    1  C1  UNL     1     -35.025  18.089  -3.549  1.00 20.00    -0.011 C 
HETATM    2  C2  UNL     1     -34.134  17.797  -2.589  1.00 20.00    -0.015 C 
HETATM    3  C4  UNL     1     -35.211  17.250  -4.781  1.00 20.00     0.040 C 
HETATM    4  C5  UNL     1     -33.255  16.578  -2.632  1.00 20.00     0.047 C 
HETATM    5  C6  UNL     1     -33.713  15.549  -3.669  1.00 20.00     0.017 C 
HETATM    6  C7  UNL     1     -34.089  16.226  -4.988  1.00 20.00     0.058 C 
HETATM    7 BR10 UNL     1     -33.915  18.882  -1.084  1.00 20.00    -0.056 Br
ENDROOT
BRANCH   6   8
HETATM    8  C3  UNL     1     -34.529  15.200  -5.987  1.00 20.00     0.127 C 
HETATM    9  C8  UNL     1     -35.847  14.523  -5.727  1.00 20.00     0.091 C 
HETATM   10  O9  UNL     1     -33.845  14.926  -6.972  1.00 20.00    -0.298 OA
ENDBRANCH   6   8
TORSDOF 1
ENDMDL
MODEL 7
REMARK VINA RESULT:      -3.7      3.389      5.059
REMARK  1 active torsions:
REMARK  status: ('A' for Active; 'I' for Inactive)
REMARK    1  A    between atoms: C3_3  and  C7_7 
ROOT
HETATM    1  C1  UNL     1     -35.017  17.373  -4.692  1.00 20.00    -0.011 C 
HETATM    2  C2  UNL     1     -34.691  16.087  -4.892  1.00 20.00    -0.015 C 
HETATM    3  C4  UNL     1     -34.499  18.183  -3.538  1.00 20.00     0.040 C 
HETATM    4  C5  UNL     1     -33.744  15.334  -3.998  1.00 20.00     0.047 C 
HETATM    5  C6  UNL     1     -32.938  16.253  -3.076  1.00 20.00     0.017 C 
HETATM    6  C7  UNL     1     -33.830  17.330  -2.455  1.00 20.00     0.058 C 
HETATM    7 BR10 UNL     1     -35.378  15.106  -6.326  1.00 20.00    -0.056 Br
ENDROOT
BRANCH   6   8
HETATM    8  C3  UNL     1     -33.021  18.211  -1.554  1.00 20.00     0.127 C 
HETATM    9  C8  UNL     1     -33.395  18.215  -0.096  1.00 20.00     0.091 C 
HETATM   10  O9  UNL     1     -32.095  18.897  -1.984  1.00 20.00    -0.298 OA
ENDBRANCH   6   8
TORSDOF 1
ENDMDL
MODEL 8
REMARK VINA RESULT:      -3.7     11.175     12.380
REMARK  1 active torsions:
REMARK  status: ('A' for Active; 'I' for Inactive)
REMARK    1  A    between atoms: C3_3  and  C7_7 
ROOT
HETATM    1  C1  UNL     1     -33.592   7.722   4.935  1.00 20.00    -0.011 C 
HETATM    2  C2  UNL     1     -33.799   6.396   4.911  1.00 20.00    -0.015 C 
HETATM    3  C4  UNL     1     -33.003   8.483   3.782  1.00 20.00     0.040 C 
HETATM    4  C5  UNL     1     -33.495   5.542   3.711  1.00 20.00     0.047 C 
HETATM    5  C6  UNL     1     -33.268   6.363   2.438  1.00 20.00     0.017 C 
HETATM    6  C7  UNL     1     -32.380   7.576   2.716  1.00 20.00     0.058 C 
HETATM    7 BR10 UNL     1     -34.509   5.481   6.377  1.00 20.00    -0.056 Br
ENDROOT
BRANCH   6   8
HETATM    8  C3  UNL     1     -32.167   8.358   1.456  1.00 20.00     0.127 C 
HETATM    9  C8  UNL     1     -32.860   9.691   1.362  1.00 20.00     0.091 C 
HETATM   10  O9  UNL     1     -31.460   7.933   0.544  1.00 20.00    -0.298 OA
ENDBRANCH   6   8
TORSDOF 1
ENDMDL
MODEL 9
REMARK VINA RESULT:      -3.7      4.470      5.623
REMARK  1 active torsions:
REMARK  status: ('A' for Active; 'I' for Inactive)
REMARK    1  A    between atoms: C3_3  and  C7_7 
ROOT
HETATM    1  C1  UNL     1     -31.064  18.440  -0.156  1.00 20.00    -0.011 C 
HETATM    2  C2  UNL     1     -31.424  18.709   1.108  1.00 20.00    -0.015 C 
HETATM    3  C4  UNL     1     -32.054  18.239  -1.268  1.00 20.00     0.040 C 
HETATM    4  C5  UNL     1     -32.857  18.873   1.534  1.00 20.00     0.047 C 
HETATM    5  C6  UNL     1     -33.813  19.050   0.351  1.00 20.00     0.017 C 
HETATM    6  C7  UNL     1     -33.493  18.060  -0.769  1.00 20.00     0.058 C 
HETATM    7 BR10 UNL     1     -30.162  18.925   2.469  1.00 20.00    -0.056 Br
ENDROOT
BRANCH   6   8
HETATM    8  C3  UNL     1     -34.444  18.248  -1.911  1.00 20.00     0.127 C 
HETATM    9  C8  UNL     1     -35.540  19.261  -1.720  1.00 20.00     0.091 C 
HETATM   10  O9  UNL     1     -34.332  17.607  -2.956  1.00 20.00    -0.298 OA
ENDBRANCH   6   8
TORSDOF 1
ENDMDL
