MODEL 1
REMARK VINA RESULT:      -3.7      0.000      0.000
REMARK  2 active torsions:
REMARK  status: ('A' for Active; 'I' for Inactive)
REMARK    1  A    between atoms: C6_6  and  C8_8 
REMARK    2  A    between atoms: C8_8  and  O9_9 
ROOT
HETATM    1  C1  UNL     1     -41.167   8.006  -0.076  1.00 20.00    -0.004 C 
HETATM    2  C2  UNL     1     -40.531   6.749  -0.382  1.00 20.00    -0.003 C 
HETATM    3  C3  UNL     1     -42.502   8.118  -0.040  1.00 20.00    -0.025 C 
HETATM    4  C4  UNL     1     -41.230   5.605  -0.420  1.00 20.00    -0.003 C 
HETATM    5  C5  UNL     1     -43.411   6.947  -0.311  1.00 20.00     0.054 C 
HETATM    6  C6  UNL     1     -42.720   5.566  -0.177  1.00 20.00     0.060 C 
HETATM    7 BR10 UNL     1     -42.919   4.959   1.705  1.00 20.00    -0.079 Br
ENDROOT
BRANCH   6   8
HETATM    8  C8  UNL     1     -43.415   4.525  -1.056  1.00 20.00     0.192 C 
BRANCH   8   9
HETATM    9  O9  UNL     1     -42.668   4.377  -2.249  1.00 20.00    -0.394 OA
HETATM   10  C7  UNL     1     -42.963   3.150  -2.908  1.00 20.00     0.201 C 
ENDBRANCH   8   9
ENDBRANCH   6   8
TORSDOF 2
ENDMDL
MODEL 2
REMARK VINA RESULT:      -3.4     12.331     13.371
REMARK  2 active torsions:
REMARK  status: ('A' for Active; 'I' for Inactive)
REMARK    1  A    between atoms: C6_6  and  C8_8 
REMARK    2  A    between atoms: C8_8  and  O9_9 
ROOT
HETATM    1  C1  UNL     1     -33.414  15.543  -3.720  1.00 20.00    -0.004 C 
HETATM    2  C2  UNL     1     -33.861  16.872  -4.051  1.00 20.00    -0.003 C 
HETATM    3  C3  UNL     1     -34.036  14.459  -4.205  1.00 20.00    -0.025 C 
HETATM    4  C4  UNL     1     -34.760  17.084  -5.023  1.00 20.00    -0.003 C 
HETATM    5  C5  UNL     1     -35.227  14.565  -5.123  1.00 20.00     0.054 C 
HETATM    6  C6  UNL     1     -35.380  15.950  -5.804  1.00 20.00     0.060 C 
HETATM    7 BR10 UNL     1     -34.382  15.902  -7.522  1.00 20.00    -0.079 Br
ENDROOT
BRANCH   6   8
HETATM    8  C8  UNL     1     -36.844  16.226  -6.148  1.00 20.00     0.192 C 
BRANCH   8   9
HETATM    9  O9  UNL     1     -37.659  15.456  -5.284  1.00 20.00    -0.394 OA
HETATM   10  C7  UNL     1     -38.807  16.181  -4.856  1.00 20.00     0.201 C 
ENDBRANCH   8   9
ENDBRANCH   6   8
TORSDOF 2
ENDMDL
MODEL 3
REMARK VINA RESULT:      -3.3     14.286     14.980
REMARK  2 active torsions:
REMARK  status: ('A' for Active; 'I' for Inactive)
REMARK    1  A    between atoms: C6_6  and  C8_8 
REMARK    2  A    between atoms: C8_8  and  O9_9 
ROOT
HETATM    1  C1  UNL     1     -34.164  15.754  -4.929  1.00 20.00    -0.004 C 
HETATM    2  C2  UNL     1     -33.320  15.654  -3.765  1.00 20.00    -0.003 C 
HETATM    3  C3  UNL     1     -35.080  16.726  -5.041  1.00 20.00    -0.025 C 
HETATM    4  C4  UNL     1     -33.257  16.643  -2.861  1.00 20.00    -0.003 C 
HETATM    5  C5  UNL     1     -35.279  17.766  -3.969  1.00 20.00     0.054 C 
HETATM    6  C6  UNL     1     -34.084  17.900  -2.989  1.00 20.00     0.060 C 
HETATM    7 BR10 UNL     1     -32.837  19.263  -3.724  1.00 20.00    -0.079 Br
ENDROOT
BRANCH   6   8
HETATM    8  C8  UNL     1     -34.554  18.415  -1.628  1.00 20.00     0.192 C 
BRANCH   8   9
HETATM    9  O9  UNL     1     -33.949  17.629  -0.620  1.00 20.00    -0.394 OA
HETATM   10  C7  UNL     1     -33.685  18.388   0.556  1.00 20.00     0.201 C 
ENDBRANCH   8   9
ENDBRANCH   6   8
TORSDOF 2
ENDMDL
MODEL 4
REMARK VINA RESULT:      -3.2      9.094     10.555
REMARK  2 active torsions:
REMARK  status: ('A' for Active; 'I' for Inactive)
REMARK    1  A    between atoms: C6_6  and  C8_8 
REMARK    2  A    between atoms: C8_8  and  O9_9 
ROOT
HETATM    1  C1  UNL     1     -41.915  16.072   6.712  1.00 20.00    -0.004 C 
HETATM    2  C2  UNL     1     -41.053  15.375   7.632  1.00 20.00    -0.003 C 
HETATM    3  C3  UNL     1     -42.335  15.494   5.578  1.00 20.00    -0.025 C 
HETATM    4  C4  UNL     1     -40.820  14.060   7.510  1.00 20.00    -0.003 C 
HETATM    5  C5  UNL     1     -41.937  14.090   5.202  1.00 20.00     0.054 C 
HETATM    6  C6  UNL     1     -41.417  13.240   6.391  1.00 20.00     0.060 C 
HETATM    7 BR10 UNL     1     -42.972  12.309   7.207  1.00 20.00    -0.079 Br
ENDROOT
BRANCH   6   8
HETATM    8  C8  UNL     1     -40.456  12.155   5.902  1.00 20.00     0.192 C 
BRANCH   8   9
HETATM    9  O9  UNL     1     -40.095  12.448   4.565  1.00 20.00    -0.394 OA
HETATM   10  C7  UNL     1     -38.993  11.658   4.131  1.00 20.00     0.201 C 
ENDBRANCH   8   9
ENDBRANCH   6   8
TORSDOF 2
ENDMDL
MODEL 5
REMARK VINA RESULT:      -3.2      9.982     11.394
REMARK  2 active torsions:
REMARK  status: ('A' for Active; 'I' for Inactive)
REMARK    1  A    between atoms: C6_6  and  C8_8 
REMARK    2  A    between atoms: C8_8  and  O9_9 
ROOT
HETATM    1  C1  UNL     1     -41.122  16.450   7.630  1.00 20.00    -0.004 C 
HETATM    2  C2  UNL     1     -40.334  15.437   8.285  1.00 20.00    -0.003 C 
HETATM    3  C3  UNL     1     -41.886  16.159   6.567  1.00 20.00    -0.025 C 
HETATM    4  C4  UNL     1     -40.503  14.135   8.008  1.00 20.00    -0.003 C 
HETATM    5  C5  UNL     1     -41.970  14.765   6.001  1.00 20.00     0.054 C 
HETATM    6  C6  UNL     1     -41.498  13.656   6.978  1.00 20.00     0.060 C 
HETATM    7 BR10 UNL     1     -43.074  13.051   8.028  1.00 20.00    -0.079 Br
ENDROOT
BRANCH   6   8
HETATM    8  C8  UNL     1     -40.983  12.439   6.208  1.00 20.00     0.192 C 
BRANCH   8   9
HETATM    9  O9  UNL     1     -39.655  12.179   6.622  1.00 20.00    -0.394 OA
HETATM   10  C7  UNL     1     -38.775  12.032   5.512  1.00 20.00     0.201 C 
ENDBRANCH   8   9
ENDBRANCH   6   8
TORSDOF 2
ENDMDL
MODEL 6
REMARK VINA RESULT:      -3.1     14.581     16.103
REMARK  2 active torsions:
REMARK  status: ('A' for Active; 'I' for Inactive)
REMARK    1  A    between atoms: C6_6  and  C8_8 
REMARK    2  A    between atoms: C8_8  and  O9_9 
ROOT
HETATM    1  C1  UNL     1     -33.849  17.222  -4.251  1.00 20.00    -0.004 C 
HETATM    2  C2  UNL     1     -33.407  18.593  -4.304  1.00 20.00    -0.003 C 
HETATM    3  C3  UNL     1     -33.728  16.495  -3.132  1.00 20.00    -0.025 C 
HETATM    4  C4  UNL     1     -33.071  19.260  -3.190  1.00 20.00    -0.003 C 
HETATM    5  C5  UNL     1     -33.132  17.063  -1.870  1.00 20.00     0.054 C 
HETATM    6  C6  UNL     1     -33.104  18.612  -1.826  1.00 20.00     0.060 C 
HETATM    7 BR10 UNL     1     -34.802  19.235  -1.002  1.00 20.00    -0.079 Br
ENDROOT
BRANCH   6   8
HETATM    8  C8  UNL     1     -31.967  19.108  -0.930  1.00 20.00     0.192 C 
BRANCH   8   9
HETATM    9  O9  UNL     1     -32.106  18.505   0.342  1.00 20.00    -0.394 OA
HETATM   10  C7  UNL     1     -30.893  18.557   1.086  1.00 20.00     0.201 C 
ENDBRANCH   8   9
ENDBRANCH   6   8
TORSDOF 2
ENDMDL
MODEL 7
REMARK VINA RESULT:      -3.1     13.137     14.456
REMARK  2 active torsions:
REMARK  status: ('A' for Active; 'I' for Inactive)
REMARK    1  A    between atoms: C6_6  and  C8_8 
REMARK    2  A    between atoms: C8_8  and  O9_9 
ROOT
HETATM    1  C1  UNL     1     -33.312  16.989  -1.928  1.00 20.00    -0.004 C 
HETATM    2  C2  UNL     1     -34.276  18.039  -1.716  1.00 20.00    -0.003 C 
HETATM    3  C3  UNL     1     -33.279  16.296  -3.074  1.00 20.00    -0.025 C 
HETATM    4  C4  UNL     1     -35.022  18.514  -2.724  1.00 20.00    -0.003 C 
HETATM    5  C5  UNL     1     -34.237  16.573  -4.204  1.00 20.00     0.054 C 
HETATM    6  C6  UNL     1     -34.921  17.963  -4.126  1.00 20.00     0.060 C 
HETATM    7 BR10 UNL     1     -33.784  19.263  -5.111  1.00 20.00    -0.079 Br
ENDROOT
BRANCH   6   8
HETATM    8  C8  UNL     1     -36.279  17.938  -4.830  1.00 20.00     0.192 C 
BRANCH   8   9
HETATM    9  O9  UNL     1     -36.490  16.638  -5.347  1.00 20.00    -0.394 OA
HETATM   10  C7  UNL     1     -37.867  16.277  -5.322  1.00 20.00     0.201 C 
ENDBRANCH   8   9
ENDBRANCH   6   8
TORSDOF 2
ENDMDL
MODEL 8
REMARK VINA RESULT:      -3.1      9.648     11.352
REMARK  2 active torsions:
REMARK  status: ('A' for Active; 'I' for Inactive)
REMARK    1  A    between atoms: C6_6  and  C8_8 
REMARK    2  A    between atoms: C8_8  and  O9_9 
ROOT
HETATM    1  C1  UNL     1     -39.233  11.794   5.380  1.00 20.00    -0.004 C 
HETATM    2  C2  UNL     1     -40.107  12.527   4.500  1.00 20.00    -0.003 C 
HETATM    3  C3  UNL     1     -39.147  12.093   6.684  1.00 20.00    -0.025 C 
HETATM    4  C4  UNL     1     -41.028  13.377   4.981  1.00 20.00    -0.003 C 
HETATM    5  C5  UNL     1     -39.957  13.202   7.304  1.00 20.00     0.054 C 
HETATM    6  C6  UNL     1     -41.182  13.639   6.460  1.00 20.00     0.060 C 
HETATM    7 BR10 UNL     1     -42.738  12.535   7.018  1.00 20.00    -0.079 Br
ENDROOT
BRANCH   6   8
HETATM    8  C8  UNL     1     -41.546  15.097   6.746  1.00 20.00     0.192 C 
BRANCH   8   9
HETATM    9  O9  UNL     1     -40.467  15.699   7.436  1.00 20.00    -0.394 OA
HETATM   10  C7  UNL     1     -40.739  17.059   7.757  1.00 20.00     0.201 C 
ENDBRANCH   8   9
ENDBRANCH   6   8
TORSDOF 2
ENDMDL
MODEL 9
REMARK VINA RESULT:      -3.0     13.873     14.542
REMARK  2 active torsions:
REMARK  status: ('A' for Active; 'I' for Inactive)
REMARK    1  A    between atoms: C6_6  and  C8_8 
REMARK    2  A    between atoms: C8_8  and  O9_9 
ROOT
HETATM    1  C1  UNL     1     -33.241  15.531  -3.786  1.00 20.00    -0.004 C 
HETATM    2  C2  UNL     1     -33.295  16.457  -2.682  1.00 20.00    -0.003 C 
HETATM    3  C3  UNL     1     -34.066  15.652  -4.835  1.00 20.00    -0.025 C 
HETATM    4  C4  UNL     1     -34.003  17.593  -2.759  1.00 20.00    -0.003 C 
HETATM    5  C5  UNL     1     -35.088  16.756  -4.927  1.00 20.00     0.054 C 
HETATM    6  C6  UNL     1     -34.808  17.956  -3.984  1.00 20.00     0.060 C 
HETATM    7 BR10 UNL     1     -33.681  19.263  -4.971  1.00 20.00    -0.079 Br
ENDROOT
BRANCH   6   8
HETATM    8  C8  UNL     1     -36.108  18.675  -3.621  1.00 20.00     0.192 C 
BRANCH   8   9
HETATM    9  O9  UNL     1     -37.189  17.949  -4.175  1.00 20.00    -0.394 OA
HETATM   10  C7  UNL     1     -38.402  18.185  -3.467  1.00 20.00     0.201 C 
ENDBRANCH   8   9
ENDBRANCH   6   8
TORSDOF 2
ENDMDL
