MODEL 1
REMARK VINA RESULT:      -3.7      0.000      0.000
REMARK  3 active torsions:
REMARK  status: ('A' for Active; 'I' for Inactive)
REMARK    1  A    between atoms: C1_1  and  C6_6 
REMARK    2  A    between atoms: C1_1  and  O9_9 
REMARK    3  A    between atoms: C7_7  and  O9_9 
ROOT
HETATM    1  C1  UNL     1     -32.833   6.488   3.498  1.00 20.00     0.274 C 
HETATM    2  O8  UNL     1     -32.964   5.583   2.682  1.00 20.00    -0.264 OA
ENDROOT
BRANCH   1   3
HETATM    3  C6  UNL     1     -32.051   7.767   3.257  1.00 20.00     0.154 C 
HETATM    4  C2  UNL     1     -32.495   8.417   1.947  1.00 20.00     0.033 C 
HETATM    5  S10 UNL     1     -32.380   8.906   4.644  1.00 20.00    -0.082 SA
ENDBRANCH   1   3
BRANCH   1   6
HETATM    6  O9  UNL     1     -33.361   6.499   4.761  1.00 20.00    -0.310 OA
BRANCH   6   7
HETATM    7  C7  UNL     1     -34.443   5.594   4.987  1.00 20.00     0.060 C 
HETATM    8  C3  UNL     1     -34.027   4.207   4.498  1.00 20.00     0.045 C 
HETATM    9  C4  UNL     1     -34.720   5.573   6.489  1.00 20.00     0.045 C 
HETATM   10  C5  UNL     1     -35.667   6.098   4.222  1.00 20.00     0.045 C 
ENDBRANCH   6   7
ENDBRANCH   1   6
TORSDOF 3
ENDMDL
MODEL 2
REMARK VINA RESULT:      -3.7      0.016      1.378
REMARK  3 active torsions:
REMARK  status: ('A' for Active; 'I' for Inactive)
REMARK    1  A    between atoms: C1_1  and  C6_6 
REMARK    2  A    between atoms: C1_1  and  O9_9 
REMARK    3  A    between atoms: C7_7  and  O9_9 
ROOT
HETATM    1  C1  UNL     1     -32.838   6.477   3.500  1.00 20.00     0.274 C 
HETATM    2  O8  UNL     1     -32.980   5.576   2.682  1.00 20.00    -0.264 OA
ENDROOT
BRANCH   1   3
HETATM    3  C6  UNL     1     -32.051   7.753   3.258  1.00 20.00     0.154 C 
HETATM    4  C2  UNL     1     -32.483   8.396   1.940  1.00 20.00     0.033 C 
HETATM    5  S10 UNL     1     -32.389   8.901   4.635  1.00 20.00    -0.082 SA
ENDBRANCH   1   3
BRANCH   1   6
HETATM    6  O9  UNL     1     -33.355   6.485   4.768  1.00 20.00    -0.310 OA
BRANCH   6   7
HETATM    7  C7  UNL     1     -34.448   5.594   4.995  1.00 20.00     0.060 C 
HETATM    8  C3  UNL     1     -35.661   6.104   4.220  1.00 20.00     0.045 C 
HETATM    9  C4  UNL     1     -34.029   4.214   4.491  1.00 20.00     0.045 C 
HETATM   10  C5  UNL     1     -34.737   5.553   6.496  1.00 20.00     0.045 C 
ENDBRANCH   6   7
ENDBRANCH   1   6
TORSDOF 3
ENDMDL
MODEL 3
REMARK VINA RESULT:      -3.5      1.521      2.493
REMARK  3 active torsions:
REMARK  status: ('A' for Active; 'I' for Inactive)
REMARK    1  A    between atoms: C1_1  and  C6_6 
REMARK    2  A    between atoms: C1_1  and  O9_9 
REMARK    3  A    between atoms: C7_7  and  O9_9 
ROOT
HETATM    1  C1  UNL     1     -33.550   7.588   5.247  1.00 20.00     0.274 C 
HETATM    2  O8  UNL     1     -34.132   7.913   6.274  1.00 20.00    -0.264 OA
ENDROOT
BRANCH   1   3
HETATM    3  C6  UNL     1     -32.988   8.560   4.223  1.00 20.00     0.154 C 
HETATM    4  C2  UNL     1     -31.945   9.466   4.875  1.00 20.00     0.033 C 
HETATM    5  S10 UNL     1     -32.207   7.592   2.888  1.00 20.00    -0.082 SA
ENDBRANCH   1   3
BRANCH   1   6
HETATM    6  O9  UNL     1     -33.313   6.302   4.843  1.00 20.00    -0.310 OA
BRANCH   6   7
HETATM    7  C7  UNL     1     -34.409   5.397   4.987  1.00 20.00     0.060 C 
HETATM    8  C3  UNL     1     -35.637   6.008   4.316  1.00 20.00     0.045 C 
HETATM    9  C4  UNL     1     -34.018   4.088   4.303  1.00 20.00     0.045 C 
HETATM   10  C5  UNL     1     -34.658   5.169   6.478  1.00 20.00     0.045 C 
ENDBRANCH   6   7
ENDBRANCH   1   6
TORSDOF 3
ENDMDL
MODEL 4
REMARK VINA RESULT:      -3.5     10.578     11.660
REMARK  3 active torsions:
REMARK  status: ('A' for Active; 'I' for Inactive)
REMARK    1  A    between atoms: C1_1  and  C6_6 
REMARK    2  A    between atoms: C1_1  and  O9_9 
REMARK    3  A    between atoms: C7_7  and  O9_9 
ROOT
HETATM    1  C1  UNL     1     -40.508  14.437   8.143  1.00 20.00     0.274 C 
HETATM    2  O8  UNL     1     -40.048  13.639   8.951  1.00 20.00    -0.264 OA
ENDROOT
BRANCH   1   3
HETATM    3  C6  UNL     1     -41.338  15.656   8.505  1.00 20.00     0.154 C 
HETATM    4  C2  UNL     1     -41.134  16.015   9.976  1.00 20.00     0.033 C 
HETATM    5  S10 UNL     1     -40.793  17.048   7.457  1.00 20.00    -0.082 SA
ENDBRANCH   1   3
BRANCH   1   6
HETATM    6  O9  UNL     1     -40.359  14.364   6.784  1.00 20.00    -0.310 OA
BRANCH   6   7
HETATM    7  C7  UNL     1     -41.048  13.290   6.143  1.00 20.00     0.060 C 
HETATM    8  C3  UNL     1     -42.225  12.873   7.023  1.00 20.00     0.045 C 
HETATM    9  C4  UNL     1     -41.543  13.802   4.791  1.00 20.00     0.045 C 
HETATM   10  C5  UNL     1     -40.071  12.130   5.953  1.00 20.00     0.045 C 
ENDBRANCH   6   7
ENDBRANCH   1   6
TORSDOF 3
ENDMDL
MODEL 5
REMARK VINA RESULT:      -3.5     10.588     11.640
REMARK  3 active torsions:
REMARK  status: ('A' for Active; 'I' for Inactive)
REMARK    1  A    between atoms: C1_1  and  C6_6 
REMARK    2  A    between atoms: C1_1  and  O9_9 
REMARK    3  A    between atoms: C7_7  and  O9_9 
ROOT
HETATM    1  C1  UNL     1     -40.504  14.432   8.159  1.00 20.00     0.274 C 
HETATM    2  O8  UNL     1     -40.046  13.637   8.971  1.00 20.00    -0.264 OA
ENDROOT
BRANCH   1   3
HETATM    3  C6  UNL     1     -41.338  15.650   8.513  1.00 20.00     0.154 C 
HETATM    4  C2  UNL     1     -41.141  16.015   9.984  1.00 20.00     0.033 C 
HETATM    5  S10 UNL     1     -40.794  17.039   7.463  1.00 20.00    -0.082 SA
ENDBRANCH   1   3
BRANCH   1   6
HETATM    6  O9  UNL     1     -40.348  14.356   6.802  1.00 20.00    -0.310 OA
BRANCH   6   7
HETATM    7  C7  UNL     1     -41.069  13.307   6.154  1.00 20.00     0.060 C 
HETATM    8  C3  UNL     1     -41.571  13.822   4.806  1.00 20.00     0.045 C 
HETATM    9  C4  UNL     1     -40.105  12.138   5.958  1.00 20.00     0.045 C 
HETATM   10  C5  UNL     1     -42.238  12.896   7.050  1.00 20.00     0.045 C 
ENDBRANCH   6   7
ENDBRANCH   1   6
TORSDOF 3
ENDMDL
MODEL 6
REMARK VINA RESULT:      -3.4     12.655     13.813
REMARK  3 active torsions:
REMARK  status: ('A' for Active; 'I' for Inactive)
REMARK    1  A    between atoms: C1_1  and  C6_6 
REMARK    2  A    between atoms: C1_1  and  O9_9 
REMARK    3  A    between atoms: C7_7  and  O9_9 
ROOT
HETATM    1  C1  UNL     1     -34.390  17.234  -5.116  1.00 20.00     0.274 C 
HETATM    2  O8  UNL     1     -34.481  18.124  -5.953  1.00 20.00    -0.264 OA
ENDROOT
BRANCH   1   3
HETATM    3  C6  UNL     1     -34.142  17.458  -3.634  1.00 20.00     0.154 C 
HETATM    4  C2  UNL     1     -33.386  16.271  -3.041  1.00 20.00     0.033 C 
HETATM    5  S10 UNL     1     -33.142  18.973  -3.447  1.00 20.00    -0.082 SA
ENDBRANCH   1   3
BRANCH   1   6
HETATM    6  O9  UNL     1     -34.489  15.893  -5.371  1.00 20.00    -0.310 OA
BRANCH   6   7
HETATM    7  C7  UNL     1     -35.776  15.437  -5.790  1.00 20.00     0.060 C 
HETATM    8  C3  UNL     1     -35.759  15.259  -7.308  1.00 20.00     0.045 C 
HETATM    9  C4  UNL     1     -36.041  14.101  -5.096  1.00 20.00     0.045 C 
HETATM   10  C5  UNL     1     -36.819  16.474  -5.374  1.00 20.00     0.045 C 
ENDBRANCH   6   7
ENDBRANCH   1   6
TORSDOF 3
ENDMDL
MODEL 7
REMARK VINA RESULT:      -3.4     12.437     13.540
REMARK  3 active torsions:
REMARK  status: ('A' for Active; 'I' for Inactive)
REMARK    1  A    between atoms: C1_1  and  C6_6 
REMARK    2  A    between atoms: C1_1  and  O9_9 
REMARK    3  A    between atoms: C7_7  and  O9_9 
ROOT
HETATM    1  C1  UNL     1     -33.908  15.891  -4.571  1.00 20.00     0.274 C 
HETATM    2  O8  UNL     1     -33.284  14.867  -4.319  1.00 20.00    -0.264 OA
ENDROOT
BRANCH   1   3
HETATM    3  C6  UNL     1     -34.169  17.013  -3.582  1.00 20.00     0.154 C 
HETATM    4  C2  UNL     1     -33.373  16.781  -2.298  1.00 20.00     0.033 C 
HETATM    5  S10 UNL     1     -33.642  18.583  -4.349  1.00 20.00    -0.082 SA
ENDBRANCH   1   3
BRANCH   1   6
HETATM    6  O9  UNL     1     -34.479  16.194  -5.777  1.00 20.00    -0.310 OA
BRANCH   6   7
HETATM    7  C7  UNL     1     -35.755  15.601  -6.024  1.00 20.00     0.060 C 
HETATM    8  C3  UNL     1     -36.840  16.588  -5.596  1.00 20.00     0.045 C 
HETATM    9  C4  UNL     1     -35.848  15.316  -7.522  1.00 20.00     0.045 C 
HETATM   10  C5  UNL     1     -35.851  14.303  -5.223  1.00 20.00     0.045 C 
ENDBRANCH   6   7
ENDBRANCH   1   6
TORSDOF 3
ENDMDL
MODEL 8
REMARK VINA RESULT:      -3.4     12.092     13.227
REMARK  3 active torsions:
REMARK  status: ('A' for Active; 'I' for Inactive)
REMARK    1  A    between atoms: C1_1  and  C6_6 
REMARK    2  A    between atoms: C1_1  and  O9_9 
REMARK    3  A    between atoms: C7_7  and  O9_9 
ROOT
HETATM    1  C1  UNL     1     -33.809  16.887  -3.501  1.00 20.00     0.274 C 
HETATM    2  O8  UNL     1     -33.547  16.399  -2.409  1.00 20.00    -0.264 OA
ENDROOT
BRANCH   1   3
HETATM    3  C6  UNL     1     -33.219  18.179  -4.039  1.00 20.00     0.154 C 
HETATM    4  C2  UNL     1     -34.223  18.875  -4.956  1.00 20.00     0.033 C 
HETATM    5  S10 UNL     1     -32.835  19.263  -2.622  1.00 20.00    -0.082 SA
ENDBRANCH   1   3
BRANCH   1   6
HETATM    6  O9  UNL     1     -34.677  16.358  -4.418  1.00 20.00    -0.310 OA
BRANCH   6   7
HETATM    7  C7  UNL     1     -34.275  15.121  -5.008  1.00 20.00     0.060 C 
HETATM    8  C3  UNL     1     -32.940  14.700  -4.395  1.00 20.00     0.045 C 
HETATM    9  C4  UNL     1     -35.358  14.089  -4.695  1.00 20.00     0.045 C 
HETATM   10  C5  UNL     1     -34.144  15.321  -6.517  1.00 20.00     0.045 C 
ENDBRANCH   6   7
ENDBRANCH   1   6
TORSDOF 3
ENDMDL
MODEL 9
REMARK VINA RESULT:      -3.4     10.455     11.379
REMARK  3 active torsions:
REMARK  status: ('A' for Active; 'I' for Inactive)
REMARK    1  A    between atoms: C1_1  and  C6_6 
REMARK    2  A    between atoms: C1_1  and  O9_9 
REMARK    3  A    between atoms: C7_7  and  O9_9 
ROOT
HETATM    1  C1  UNL     1     -41.159  13.004   7.082  1.00 20.00     0.274 C 
HETATM    2  O8  UNL     1     -42.140  12.288   7.239  1.00 20.00    -0.264 OA
ENDROOT
BRANCH   1   3
HETATM    3  C6  UNL     1     -40.595  13.418   5.734  1.00 20.00     0.154 C 
HETATM    4  C2  UNL     1     -39.993  12.208   5.020  1.00 20.00     0.033 C 
HETATM    5  S10 UNL     1     -41.957  14.101   4.731  1.00 20.00    -0.082 SA
ENDBRANCH   1   3
BRANCH   1   6
HETATM    6  O9  UNL     1     -40.403  13.547   8.086  1.00 20.00    -0.310 OA
BRANCH   6   7
HETATM    7  C7  UNL     1     -40.896  14.767   8.640  1.00 20.00     0.060 C 
HETATM    8  C3  UNL     1     -42.423  14.707   8.668  1.00 20.00     0.045 C 
HETATM    9  C4  UNL     1     -40.337  14.889  10.057  1.00 20.00     0.045 C 
HETATM   10  C5  UNL     1     -40.412  15.927   7.770  1.00 20.00     0.045 C 
ENDBRANCH   6   7
ENDBRANCH   1   6
TORSDOF 3
ENDMDL
