MODEL 1
REMARK VINA RESULT:      -4.8      0.000      0.000
REMARK  3 active torsions:
REMARK  status: ('A' for Active; 'I' for Inactive)
REMARK    1  A    between atoms: C2_2  and  O10_10 
REMARK    2  A    between atoms: C7_7  and  C8_8 
REMARK    3  A    between atoms: C8_8  and  O10_10 
ROOT
HETATM    1  C3  UNL     1     -34.434   6.670   6.592  1.00 20.00     0.005 C 
HETATM    2  C4  UNL     1     -34.529   5.275   5.987  1.00 20.00     0.026 C 
HETATM    3  C5  UNL     1     -33.371   7.496   5.874  1.00 20.00     0.034 C 
HETATM    4  C6  UNL     1     -34.681   5.354   4.474  1.00 20.00     0.168 C 
HETATM    5  C7  UNL     1     -33.593   7.462   4.359  1.00 20.00     0.145 C 
HETATM    6  O9  UNL     1     -33.616   6.107   3.895  1.00 20.00    -0.384 OA
ENDROOT
BRANCH   5   7
HETATM    7  C8  UNL     1     -32.474   8.187   3.625  1.00 20.00     0.206 C 
BRANCH   7   8
HETATM    8  O10 UNL     1     -32.193   7.489   2.425  1.00 20.00    -0.361 OA
BRANCH   8   9
HETATM    9  C2  UNL     1     -32.138   8.242   1.332  1.00 20.00     0.124 C 
HETATM   10  C1  UNL     1     -32.765   9.409   1.174  1.00 20.00     0.037 C 
ENDBRANCH   8   9
ENDBRANCH   7   8
ENDBRANCH   5   7
TORSDOF 3
ENDMDL
MODEL 2
REMARK VINA RESULT:      -3.7     11.590     12.349
REMARK  3 active torsions:
REMARK  status: ('A' for Active; 'I' for Inactive)
REMARK    1  A    between atoms: C2_2  and  O10_10 
REMARK    2  A    between atoms: C7_7  and  C8_8 
REMARK    3  A    between atoms: C8_8  and  O10_10 
ROOT
HETATM    1  C3  UNL     1     -33.642  18.140   0.522  1.00 20.00     0.005 C 
HETATM    2  C4  UNL     1     -32.367  18.916   0.825  1.00 20.00     0.026 C 
HETATM    3  C5  UNL     1     -34.022  18.284  -0.949  1.00 20.00     0.034 C 
HETATM    4  C6  UNL     1     -31.269  18.558  -0.168  1.00 20.00     0.168 C 
HETATM    5  C7  UNL     1     -32.831  17.949  -1.850  1.00 20.00     0.145 C 
HETATM    6  O9  UNL     1     -31.708  18.770  -1.509  1.00 20.00    -0.384 OA
ENDROOT
BRANCH   5   7
HETATM    7  C8  UNL     1     -33.163  18.200  -3.314  1.00 20.00     0.206 C 
BRANCH   7   8
HETATM    8  O10 UNL     1     -33.861  17.076  -3.819  1.00 20.00    -0.361 OA
BRANCH   8   9
HETATM    9  C2  UNL     1     -33.231  15.914  -3.694  1.00 20.00     0.124 C 
HETATM   10  C1  UNL     1     -33.686  14.743  -4.144  1.00 20.00     0.037 C 
ENDBRANCH   8   9
ENDBRANCH   7   8
ENDBRANCH   5   7
TORSDOF 3
ENDMDL
MODEL 3
REMARK VINA RESULT:      -3.7      9.730     10.462
REMARK  3 active torsions:
REMARK  status: ('A' for Active; 'I' for Inactive)
REMARK    1  A    between atoms: C2_2  and  O10_10 
REMARK    2  A    between atoms: C7_7  and  C8_8 
REMARK    3  A    between atoms: C8_8  and  O10_10 
ROOT
HETATM    1  C3  UNL     1     -41.524  16.006   7.592  1.00 20.00     0.005 C 
HETATM    2  C4  UNL     1     -40.450  15.897   8.667  1.00 20.00     0.026 C 
HETATM    3  C5  UNL     1     -41.371  14.889   6.565  1.00 20.00     0.034 C 
HETATM    4  C6  UNL     1     -40.404  14.488   9.242  1.00 20.00     0.168 C 
HETATM    5  C7  UNL     1     -41.284  13.526   7.257  1.00 20.00     0.145 C 
HETATM    6  O9  UNL     1     -40.213  13.523   8.208  1.00 20.00    -0.384 OA
ENDROOT
BRANCH   5   7
HETATM    7  C8  UNL     1     -41.017  12.416   6.251  1.00 20.00     0.206 C 
BRANCH   7   8
HETATM    8  O10 UNL     1     -39.715  11.905   6.476  1.00 20.00    -0.361 OA
BRANCH   8   9
HETATM    9  C2  UNL     1     -38.863  12.064   5.470  1.00 20.00     0.124 C 
HETATM   10  C1  UNL     1     -39.082  11.676   4.212  1.00 20.00     0.037 C 
ENDBRANCH   8   9
ENDBRANCH   7   8
ENDBRANCH   5   7
TORSDOF 3
ENDMDL
MODEL 4
REMARK VINA RESULT:      -3.6     11.646     12.816
REMARK  3 active torsions:
REMARK  status: ('A' for Active; 'I' for Inactive)
REMARK    1  A    between atoms: C2_2  and  O10_10 
REMARK    2  A    between atoms: C7_7  and  C8_8 
REMARK    3  A    between atoms: C8_8  and  O10_10 
ROOT
HETATM    1  C3  UNL     1     -33.884  14.653  -4.268  1.00 20.00     0.005 C 
HETATM    2  C4  UNL     1     -34.106  15.038  -5.725  1.00 20.00     0.026 C 
HETATM    3  C5  UNL     1     -33.242  15.805  -3.500  1.00 20.00     0.034 C 
HETATM    4  C6  UNL     1     -34.836  16.370  -5.825  1.00 20.00     0.168 C 
HETATM    5  C7  UNL     1     -34.029  17.101  -3.715  1.00 20.00     0.145 C 
HETATM    6  O9  UNL     1     -34.133  17.388  -5.114  1.00 20.00    -0.384 OA
ENDROOT
BRANCH   5   7
HETATM    7  C8  UNL     1     -33.335  18.280  -3.048  1.00 20.00     0.206 C 
BRANCH   7   8
HETATM    8  O10 UNL     1     -32.729  17.830  -1.849  1.00 20.00    -0.361 OA
BRANCH   8   9
HETATM    9  C2  UNL     1     -32.066  18.758  -1.167  1.00 20.00     0.124 C 
HETATM   10  C1  UNL     1     -31.209  18.511  -0.174  1.00 20.00     0.037 C 
ENDBRANCH   8   9
ENDBRANCH   7   8
ENDBRANCH   5   7
TORSDOF 3
ENDMDL
MODEL 5
REMARK VINA RESULT:      -3.5     10.039     10.789
REMARK  3 active torsions:
REMARK  status: ('A' for Active; 'I' for Inactive)
REMARK    1  A    between atoms: C2_2  and  O10_10 
REMARK    2  A    between atoms: C7_7  and  C8_8 
REMARK    3  A    between atoms: C8_8  and  O10_10 
ROOT
HETATM    1  C3  UNL     1     -40.494  15.906   8.776  1.00 20.00     0.005 C 
HETATM    2  C4  UNL     1     -40.783  14.985   9.954  1.00 20.00     0.026 C 
HETATM    3  C5  UNL     1     -40.342  15.100   7.489  1.00 20.00     0.034 C 
HETATM    4  C6  UNL     1     -41.941  14.048   9.635  1.00 20.00     0.168 C 
HETATM    5  C7  UNL     1     -41.534  14.159   7.297  1.00 20.00     0.145 C 
HETATM    6  O9  UNL     1     -41.681  13.310   8.441  1.00 20.00    -0.384 OA
ENDROOT
BRANCH   5   7
HETATM    7  C8  UNL     1     -41.339  13.269   6.079  1.00 20.00     0.206 C 
BRANCH   7   8
HETATM    8  O10 UNL     1     -40.724  12.062   6.493  1.00 20.00    -0.361 OA
BRANCH   8   9
HETATM    9  C2  UNL     1     -39.556  11.795   5.920  1.00 20.00     0.124 C 
HETATM   10  C1  UNL     1     -39.332  11.790   4.604  1.00 20.00     0.037 C 
ENDBRANCH   8   9
ENDBRANCH   7   8
ENDBRANCH   5   7
TORSDOF 3
ENDMDL
MODEL 6
REMARK VINA RESULT:      -3.5      9.771     10.838
REMARK  3 active torsions:
REMARK  status: ('A' for Active; 'I' for Inactive)
REMARK    1  A    between atoms: C2_2  and  O10_10 
REMARK    2  A    between atoms: C7_7  and  C8_8 
REMARK    3  A    between atoms: C8_8  and  O10_10 
ROOT
HETATM    1  C3  UNL     1     -40.654   7.075  -0.211  1.00 20.00     0.005 C 
HETATM    2  C4  UNL     1     -41.303   7.376   1.134  1.00 20.00     0.026 C 
HETATM    3  C5  UNL     1     -41.154   5.742  -0.762  1.00 20.00     0.034 C 
HETATM    4  C6  UNL     1     -42.816   7.237   1.046  1.00 20.00     0.168 C 
HETATM    5  C7  UNL     1     -42.684   5.696  -0.756  1.00 20.00     0.145 C 
HETATM    6  O9  UNL     1     -43.180   5.944   0.564  1.00 20.00    -0.384 OA
ENDROOT
BRANCH   5   7
HETATM    7  C8  UNL     1     -43.192   4.330  -1.195  1.00 20.00     0.206 C 
BRANCH   7   8
HETATM    8  O10 UNL     1     -43.030   4.215  -2.597  1.00 20.00    -0.361 OA
BRANCH   8   9
HETATM    9  C2  UNL     1     -42.677   3.010  -3.030  1.00 20.00     0.124 C 
HETATM   10  C1  UNL     1     -41.641   2.757  -3.832  1.00 20.00     0.037 C 
ENDBRANCH   8   9
ENDBRANCH   7   8
ENDBRANCH   5   7
TORSDOF 3
ENDMDL
MODEL 7
REMARK VINA RESULT:      -3.3     11.776     12.415
REMARK  3 active torsions:
REMARK  status: ('A' for Active; 'I' for Inactive)
REMARK    1  A    between atoms: C2_2  and  O10_10 
REMARK    2  A    between atoms: C7_7  and  C8_8 
REMARK    3  A    between atoms: C8_8  and  O10_10 
ROOT
HETATM    1  C3  UNL     1     -34.127  18.232  -0.429  1.00 20.00     0.005 C 
HETATM    2  C4  UNL     1     -33.092  17.647  -1.381  1.00 20.00     0.026 C 
HETATM    3  C5  UNL     1     -33.566  18.314   0.988  1.00 20.00     0.034 C 
HETATM    4  C6  UNL     1     -31.763  18.379  -1.250  1.00 20.00     0.168 C 
HETATM    5  C7  UNL     1     -32.209  19.022   0.992  1.00 20.00     0.145 C 
HETATM    6  O9  UNL     1     -31.304  18.359   0.101  1.00 20.00    -0.384 OA
ENDROOT
BRANCH   5   7
HETATM    7  C8  UNL     1     -31.587  19.008   2.381  1.00 20.00     0.206 C 
BRANCH   7   8
HETATM    8  O10 UNL     1     -30.289  18.448   2.291  1.00 20.00    -0.361 OA
BRANCH   8   9
HETATM    9  C2  UNL     1     -29.343  19.102   2.955  1.00 20.00     0.124 C 
HETATM   10  C1  UNL     1     -28.393  18.528   3.697  1.00 20.00     0.037 C 
ENDBRANCH   8   9
ENDBRANCH   7   8
ENDBRANCH   5   7
TORSDOF 3
ENDMDL
MODEL 8
REMARK VINA RESULT:      -3.3      9.660     10.743
REMARK  3 active torsions:
REMARK  status: ('A' for Active; 'I' for Inactive)
REMARK    1  A    between atoms: C2_2  and  O10_10 
REMARK    2  A    between atoms: C7_7  and  C8_8 
REMARK    3  A    between atoms: C8_8  and  O10_10 
ROOT
HETATM    1  C3  UNL     1     -40.438  12.932   4.479  1.00 20.00     0.005 C 
HETATM    2  C4  UNL     1     -39.599  11.734   4.906  1.00 20.00     0.026 C 
HETATM    3  C5  UNL     1     -41.278  13.442   5.645  1.00 20.00     0.034 C 
HETATM    4  C6  UNL     1     -38.822  12.047   6.178  1.00 20.00     0.168 C 
HETATM    5  C7  UNL     1     -40.404  13.673   6.881  1.00 20.00     0.145 C 
HETATM    6  O9  UNL     1     -39.701  12.471   7.219  1.00 20.00    -0.384 OA
ENDROOT
BRANCH   5   7
HETATM    7  C8  UNL     1     -41.248  14.072   8.082  1.00 20.00     0.206 C 
BRANCH   7   8
HETATM    8  O10 UNL     1     -40.456  13.956   9.251  1.00 20.00    -0.361 OA
BRANCH   8   9
HETATM    9  C2  UNL     1     -40.111  15.107   9.818  1.00 20.00     0.124 C 
HETATM   10  C1  UNL     1     -40.360  15.440  11.086  1.00 20.00     0.037 C 
ENDBRANCH   8   9
ENDBRANCH   7   8
ENDBRANCH   5   7
TORSDOF 3
ENDMDL
MODEL 9
REMARK VINA RESULT:      -3.3     11.329     12.434
REMARK  3 active torsions:
REMARK  status: ('A' for Active; 'I' for Inactive)
REMARK    1  A    between atoms: C2_2  and  O10_10 
REMARK    2  A    between atoms: C7_7  and  C8_8 
REMARK    3  A    between atoms: C8_8  and  O10_10 
ROOT
HETATM    1  C3  UNL     1     -35.035  16.243  -5.690  1.00 20.00     0.005 C 
HETATM    2  C4  UNL     1     -35.000  14.814  -5.163  1.00 20.00     0.026 C 
HETATM    3  C5  UNL     1     -34.760  17.237  -4.565  1.00 20.00     0.034 C 
HETATM    4  C6  UNL     1     -33.724  14.562  -4.372  1.00 20.00     0.168 C 
HETATM    5  C7  UNL     1     -33.485  16.857  -3.809  1.00 20.00     0.145 C 
HETATM    6  O9  UNL     1     -33.583  15.515  -3.319  1.00 20.00    -0.384 OA
ENDROOT
BRANCH   5   7
HETATM    7  C8  UNL     1     -33.263  17.774  -2.614  1.00 20.00     0.206 C 
BRANCH   7   8
HETATM    8  O10 UNL     1     -33.661  17.091  -1.439  1.00 20.00    -0.361 OA
BRANCH   8   9
HETATM    9  C2  UNL     1     -33.749  17.845  -0.349  1.00 20.00     0.124 C 
HETATM   10  C1  UNL     1     -32.735  18.517   0.202  1.00 20.00     0.037 C 
ENDBRANCH   8   9
ENDBRANCH   7   8
ENDBRANCH   5   7
TORSDOF 3
ENDMDL
