MODEL 1
REMARK VINA RESULT:      -3.5      0.000      0.000
REMARK  4 active torsions:
REMARK  status: ('A' for Active; 'I' for Inactive)
REMARK    1  A    between atoms: C2_2  and  C6_6 
REMARK    2  A    between atoms: C6_6  and  S10_10 
REMARK    3  A    between atoms: C7_7  and  C8_8 
REMARK    4  A    between atoms: C7_7  and  S10_10 
ROOT
HETATM    1  C6  UNL     1     -34.179  15.061  -6.050  1.00 20.00     0.113 C 
ENDROOT
BRANCH   1   2
HETATM    2  C2  UNL     1     -35.622  15.266  -6.475  1.00 20.00     0.087 A 
HETATM    3  C1  UNL     1     -35.933  15.615  -7.910  1.00 20.00     0.207 A 
HETATM    4  O9  UNL     1     -36.096  14.282  -7.403  1.00 20.00    -0.375 OA
HETATM    5  C3  UNL     1     -36.606  15.607  -5.402  1.00 20.00     0.049 C 
ENDBRANCH   1   2
BRANCH   1   6
HETATM    6  S10 UNL     1     -34.095  14.489  -4.339  1.00 20.00    -0.166 SA
BRANCH   6   7
HETATM    7  C7  UNL     1     -33.023  15.803  -3.679  1.00 20.00     0.077 C 
BRANCH   7   8
HETATM    8  C8  UNL     1     -33.758  17.033  -3.121  1.00 20.00    -0.013 C 
HETATM    9  C4  UNL     1     -33.486  17.261  -1.633  1.00 20.00     0.010 C 
HETATM   10  C5  UNL     1     -33.473  18.307  -3.921  1.00 20.00     0.010 C 
ENDBRANCH   7   8
ENDBRANCH   6   7
ENDBRANCH   1   6
TORSDOF 4
ENDMDL
MODEL 2
REMARK VINA RESULT:      -3.4      1.507      2.260
REMARK  4 active torsions:
REMARK  status: ('A' for Active; 'I' for Inactive)
REMARK    1  A    between atoms: C2_2  and  C6_6 
REMARK    2  A    between atoms: C6_6  and  S10_10 
REMARK    3  A    between atoms: C7_7  and  C8_8 
REMARK    4  A    between atoms: C7_7  and  S10_10 
ROOT
HETATM    1  C6  UNL     1     -35.923  16.887  -6.082  1.00 20.00     0.113 C 
ENDROOT
BRANCH   1   2
HETATM    2  C2  UNL     1     -35.390  15.489  -6.338  1.00 20.00     0.087 A 
HETATM    3  C1  UNL     1     -35.886  14.339  -5.495  1.00 20.00     0.207 A 
HETATM    4  O9  UNL     1     -36.382  14.573  -6.822  1.00 20.00    -0.375 OA
HETATM    5  C3  UNL     1     -34.074  15.378  -7.036  1.00 20.00     0.049 C 
ENDBRANCH   1   2
BRANCH   1   6
HETATM    6  S10 UNL     1     -34.589  17.989  -5.561  1.00 20.00    -0.166 SA
BRANCH   6   7
HETATM    7  C7  UNL     1     -34.745  17.752  -3.764  1.00 20.00     0.077 C 
BRANCH   7   8
HETATM    8  C8  UNL     1     -33.488  17.214  -3.059  1.00 20.00    -0.013 C 
HETATM    9  C4  UNL     1     -33.591  17.278  -1.535  1.00 20.00     0.010 C 
HETATM   10  C5  UNL     1     -33.112  15.802  -3.515  1.00 20.00     0.010 C 
ENDBRANCH   7   8
ENDBRANCH   6   7
ENDBRANCH   1   6
TORSDOF 4
ENDMDL
MODEL 3
REMARK VINA RESULT:      -3.3      2.003      2.853
REMARK  4 active torsions:
REMARK  status: ('A' for Active; 'I' for Inactive)
REMARK    1  A    between atoms: C2_2  and  C6_6 
REMARK    2  A    between atoms: C6_6  and  S10_10 
REMARK    3  A    between atoms: C7_7  and  C8_8 
REMARK    4  A    between atoms: C7_7  and  S10_10 
ROOT
HETATM    1  C6  UNL     1     -33.999  17.040  -4.287  1.00 20.00     0.113 C 
ENDROOT
BRANCH   1   2
HETATM    2  C2  UNL     1     -34.449  15.729  -4.905  1.00 20.00     0.087 A 
HETATM    3  C1  UNL     1     -35.673  15.704  -5.789  1.00 20.00     0.207 A 
HETATM    4  O9  UNL     1     -34.345  15.697  -6.334  1.00 20.00    -0.375 OA
HETATM    5  C3  UNL     1     -33.995  14.470  -4.238  1.00 20.00     0.049 C 
ENDBRANCH   1   2
BRANCH   1   6
HETATM    6  S10 UNL     1     -33.359  16.770  -2.620  1.00 20.00    -0.166 SA
BRANCH   6   7
HETATM    7  C7  UNL     1     -32.909  18.491  -2.234  1.00 20.00     0.077 C 
BRANCH   7   8
HETATM    8  C8  UNL     1     -32.690  18.794  -0.742  1.00 20.00    -0.013 C 
HETATM    9  C4  UNL     1     -33.697  18.079   0.161  1.00 20.00     0.010 C 
HETATM   10  C5  UNL     1     -31.258  18.510  -0.282  1.00 20.00     0.010 C 
ENDBRANCH   7   8
ENDBRANCH   6   7
ENDBRANCH   1   6
TORSDOF 4
ENDMDL
MODEL 4
REMARK VINA RESULT:      -3.2     12.833     14.500
REMARK  4 active torsions:
REMARK  status: ('A' for Active; 'I' for Inactive)
REMARK    1  A    between atoms: C2_2  and  C6_6 
REMARK    2  A    between atoms: C6_6  and  S10_10 
REMARK    3  A    between atoms: C7_7  and  C8_8 
REMARK    4  A    between atoms: C7_7  and  S10_10 
ROOT
HETATM    1  C6  UNL     1     -42.434  14.384   7.178  1.00 20.00     0.113 C 
ENDROOT
BRANCH   1   2
HETATM    2  C2  UNL     1     -41.523  14.697   8.351  1.00 20.00     0.087 A 
HETATM    3  C1  UNL     1     -42.085  14.691   9.752  1.00 20.00     0.207 A 
HETATM    4  O9  UNL     1     -41.321  13.589   9.238  1.00 20.00    -0.375 OA
HETATM    5  C3  UNL     1     -40.278  15.471   8.059  1.00 20.00     0.049 C 
ENDBRANCH   1   2
BRANCH   1   6
HETATM    6  S10 UNL     1     -42.244  12.661   6.670  1.00 20.00    -0.166 SA
BRANCH   6   7
HETATM    7  C7  UNL     1     -40.942  12.902   5.421  1.00 20.00     0.077 C 
BRANCH   7   8
HETATM    8  C8  UNL     1     -39.819  11.850   5.430  1.00 20.00    -0.013 C 
HETATM    9  C4  UNL     1     -39.088  11.755   4.090  1.00 20.00     0.010 C 
HETATM   10  C5  UNL     1     -38.823  12.057   6.574  1.00 20.00     0.010 C 
ENDBRANCH   7   8
ENDBRANCH   6   7
ENDBRANCH   1   6
TORSDOF 4
ENDMDL
MODEL 5
REMARK VINA RESULT:      -3.2      2.626      3.758
REMARK  4 active torsions:
REMARK  status: ('A' for Active; 'I' for Inactive)
REMARK    1  A    between atoms: C2_2  and  C6_6 
REMARK    2  A    between atoms: C6_6  and  S10_10 
REMARK    3  A    between atoms: C7_7  and  C8_8 
REMARK    4  A    between atoms: C7_7  and  S10_10 
ROOT
HETATM    1  C6  UNL     1     -33.348  16.460  -2.586  1.00 20.00     0.113 C 
ENDROOT
BRANCH   1   2
HETATM    2  C2  UNL     1     -33.748  15.876  -3.928  1.00 20.00     0.087 A 
HETATM    3  C1  UNL     1     -32.972  14.711  -4.494  1.00 20.00     0.207 A 
HETATM    4  O9  UNL     1     -34.243  14.532  -3.850  1.00 20.00    -0.375 OA
HETATM    5  C3  UNL     1     -34.534  16.755  -4.847  1.00 20.00     0.049 C 
ENDBRANCH   1   2
BRANCH   1   6
HETATM    6  S10 UNL     1     -34.110  18.080  -2.345  1.00 20.00    -0.166 SA
BRANCH   6   7
HETATM    7  C7  UNL     1     -32.630  18.983  -1.793  1.00 20.00     0.077 C 
BRANCH   7   8
HETATM    8  C8  UNL     1     -32.422  19.037  -0.270  1.00 20.00    -0.013 C 
HETATM    9  C4  UNL     1     -33.554  18.363   0.506  1.00 20.00     0.010 C 
HETATM   10  C5  UNL     1     -31.064  18.478   0.163  1.00 20.00     0.010 C 
ENDBRANCH   7   8
ENDBRANCH   6   7
ENDBRANCH   1   6
TORSDOF 4
ENDMDL
MODEL 6
REMARK VINA RESULT:      -3.1      3.171      5.781
REMARK  4 active torsions:
REMARK  status: ('A' for Active; 'I' for Inactive)
REMARK    1  A    between atoms: C2_2  and  C6_6 
REMARK    2  A    between atoms: C6_6  and  S10_10 
REMARK    3  A    between atoms: C7_7  and  C8_8 
REMARK    4  A    between atoms: C7_7  and  S10_10 
ROOT
HETATM    1  C6  UNL     1     -33.316  17.052  -1.858  1.00 20.00     0.113 C 
ENDROOT
BRANCH   1   2
HETATM    2  C2  UNL     1     -32.931  18.332  -1.139  1.00 20.00     0.087 A 
HETATM    3  C1  UNL     1     -31.547  18.467  -0.550  1.00 20.00     0.207 A 
HETATM    4  O9  UNL     1     -31.900  19.079  -1.800  1.00 20.00    -0.375 OA
HETATM    5  C3  UNL     1     -34.044  19.178  -0.610  1.00 20.00     0.049 C 
ENDBRANCH   1   2
BRANCH   1   6
HETATM    6  S10 UNL     1     -33.606  17.372  -3.612  1.00 20.00    -0.166 SA
BRANCH   6   7
HETATM    7  C7  UNL     1     -33.703  15.645  -4.178  1.00 20.00     0.077 C 
BRANCH   7   8
HETATM    8  C8  UNL     1     -34.712  15.378  -5.308  1.00 20.00    -0.013 C 
HETATM    9  C4  UNL     1     -34.041  15.190  -6.669  1.00 20.00     0.010 C 
HETATM   10  C5  UNL     1     -35.649  14.207  -5.002  1.00 20.00     0.010 C 
ENDBRANCH   7   8
ENDBRANCH   6   7
ENDBRANCH   1   6
TORSDOF 4
ENDMDL
MODEL 7
REMARK VINA RESULT:      -3.1      3.290      5.944
REMARK  4 active torsions:
REMARK  status: ('A' for Active; 'I' for Inactive)
REMARK    1  A    between atoms: C2_2  and  C6_6 
REMARK    2  A    between atoms: C6_6  and  S10_10 
REMARK    3  A    between atoms: C7_7  and  C8_8 
REMARK    4  A    between atoms: C7_7  and  S10_10 
ROOT
HETATM    1  C6  UNL     1     -32.892  18.369  -2.317  1.00 20.00     0.113 C 
ENDROOT
BRANCH   1   2
HETATM    2  C2  UNL     1     -32.723  18.577  -0.823  1.00 20.00     0.087 A 
HETATM    3  C1  UNL     1     -33.815  19.263  -0.038  1.00 20.00     0.207 A 
HETATM    4  O9  UNL     1     -33.657  17.836  -0.026  1.00 20.00    -0.375 OA
HETATM    5  C3  UNL     1     -31.327  18.562  -0.286  1.00 20.00     0.049 C 
ENDBRANCH   1   2
BRANCH   1   6
HETATM    6  S10 UNL     1     -33.309  16.648  -2.675  1.00 20.00    -0.166 SA
BRANCH   6   7
HETATM    7  C7  UNL     1     -34.143  16.910  -4.271  1.00 20.00     0.077 C 
BRANCH   7   8
HETATM    8  C8  UNL     1     -34.638  15.634  -4.972  1.00 20.00    -0.013 C 
HETATM    9  C4  UNL     1     -34.240  15.577  -6.447  1.00 20.00     0.010 C 
HETATM   10  C5  UNL     1     -34.208  14.355  -4.248  1.00 20.00     0.010 C 
ENDBRANCH   7   8
ENDBRANCH   6   7
ENDBRANCH   1   6
TORSDOF 4
ENDMDL
MODEL 8
REMARK VINA RESULT:      -3.1      2.672      5.055
REMARK  4 active torsions:
REMARK  status: ('A' for Active; 'I' for Inactive)
REMARK    1  A    between atoms: C2_2  and  C6_6 
REMARK    2  A    between atoms: C6_6  and  S10_10 
REMARK    3  A    between atoms: C7_7  and  C8_8 
REMARK    4  A    between atoms: C7_7  and  S10_10 
ROOT
HETATM    1  C6  UNL     1     -34.726  18.004  -3.421  1.00 20.00     0.113 C 
ENDROOT
BRANCH   1   2
HETATM    2  C2  UNL     1     -33.622  17.222  -2.733  1.00 20.00     0.087 A 
HETATM    3  C1  UNL     1     -32.713  17.924  -1.753  1.00 20.00     0.207 A 
HETATM    4  O9  UNL     1     -33.801  17.096  -1.316  1.00 20.00    -0.375 OA
HETATM    5  C3  UNL     1     -33.161  15.965  -3.397  1.00 20.00     0.049 C 
ENDBRANCH   1   2
BRANCH   1   6
HETATM    6  S10 UNL     1     -34.559  17.892  -5.216  1.00 20.00    -0.166 SA
BRANCH   6   7
HETATM    7  C7  UNL     1     -36.028  16.870  -5.549  1.00 20.00     0.077 C 
BRANCH   7   8
HETATM    8  C8  UNL     1     -35.751  15.527  -6.247  1.00 20.00    -0.013 C 
HETATM    9  C4  UNL     1     -34.367  15.472  -6.895  1.00 20.00     0.010 C 
HETATM   10  C5  UNL     1     -35.962  14.325  -5.323  1.00 20.00     0.010 C 
ENDBRANCH   7   8
ENDBRANCH   6   7
ENDBRANCH   1   6
TORSDOF 4
ENDMDL
MODEL 9
REMARK VINA RESULT:      -3.0     12.548     13.692
REMARK  4 active torsions:
REMARK  status: ('A' for Active; 'I' for Inactive)
REMARK    1  A    between atoms: C2_2  and  C6_6 
REMARK    2  A    between atoms: C6_6  and  S10_10 
REMARK    3  A    between atoms: C7_7  and  C8_8 
REMARK    4  A    between atoms: C7_7  and  S10_10 
ROOT
HETATM    1  C6  UNL     1     -33.753   7.269   6.019  1.00 20.00     0.113 C 
ENDROOT
BRANCH   1   2
HETATM    2  C2  UNL     1     -34.538   6.035   5.613  1.00 20.00     0.087 A 
HETATM    3  C1  UNL     1     -33.994   4.665   5.939  1.00 20.00     0.207 A 
HETATM    4  O9  UNL     1     -35.032   5.273   6.723  1.00 20.00    -0.375 OA
HETATM    5  C3  UNL     1     -35.526   6.190   4.501  1.00 20.00     0.049 C 
ENDBRANCH   1   2
BRANCH   1   6
HETATM    6  S10 UNL     1     -33.628   8.425   4.637  1.00 20.00    -0.166 SA
BRANCH   6   7
HETATM    7  C7  UNL     1     -31.974   7.947   4.047  1.00 20.00     0.077 C 
BRANCH   7   8
HETATM    8  C8  UNL     1     -31.935   7.292   2.656  1.00 20.00    -0.013 C 
HETATM    9  C4  UNL     1     -32.689   5.962   2.607  1.00 20.00     0.010 C 
HETATM   10  C5  UNL     1     -32.421   8.228   1.546  1.00 20.00     0.010 C 
ENDBRANCH   7   8
ENDBRANCH   6   7
ENDBRANCH   1   6
TORSDOF 4
ENDMDL
