MODEL 1
REMARK VINA RESULT:      -3.6      0.000      0.000
REMARK  1 active torsions:
REMARK  status: ('A' for Active; 'I' for Inactive)
REMARK    1  A    between atoms: C2_2  and  O8_8 
ROOT
HETATM    1  C1  UNL     1     -24.507  18.870   9.562  1.00 20.00     0.053 C 
HETATM    2  C2  UNL     1     -23.053  18.409   9.815  1.00 20.00     0.131 C 
HETATM    3  C3  UNL     1     -24.635  19.121  11.079  1.00 20.00     0.095 C 
HETATM    4  C4  UNL     1     -23.484  18.077  11.286  1.00 20.00    -0.005 C 
HETATM    5  C5  UNL     1     -23.921  16.627  11.516  1.00 20.00     0.019 C 
HETATM    6  C6  UNL     1     -22.456  18.506  12.332  1.00 20.00     0.019 C 
HETATM    7 CL9  UNL     1     -26.236  18.887  11.852  1.00 20.00    -0.124 Cl
ENDROOT
BRANCH   2   8
HETATM    8  O8  UNL     1     -22.583  17.309   9.017  1.00 20.00    -0.390 OA
HETATM    9  C7  UNL     1     -21.667  17.753   8.035  1.00 20.00     0.202 C 
ENDBRANCH   2   8
TORSDOF 1
ENDMDL
MODEL 2
REMARK VINA RESULT:      -3.3      1.649      2.281
REMARK  1 active torsions:
REMARK  status: ('A' for Active; 'I' for Inactive)
REMARK    1  A    between atoms: C2_2  and  O8_8 
ROOT
HETATM    1  C1  UNL     1     -23.260  16.924   9.871  1.00 20.00     0.053 C 
HETATM    2  C2  UNL     1     -23.497  18.445   9.725  1.00 20.00     0.131 C 
HETATM    3  C3  UNL     1     -24.415  16.897  10.896  1.00 20.00     0.095 C 
HETATM    4  C4  UNL     1     -24.135  18.417  11.158  1.00 20.00    -0.005 C 
HETATM    5  C5  UNL     1     -23.165  18.738  12.299  1.00 20.00     0.019 C 
HETATM    6  C6  UNL     1     -25.406  19.257  11.274  1.00 20.00     0.019 C 
HETATM    7 CL9  UNL     1     -24.341  15.706  12.234  1.00 20.00    -0.124 Cl
ENDROOT
BRANCH   2   8
HETATM    8  O8  UNL     1     -22.325  19.261   9.557  1.00 20.00    -0.390 OA
HETATM    9  C7  UNL     1     -21.293  18.536   8.917  1.00 20.00     0.202 C 
ENDBRANCH   2   8
TORSDOF 1
ENDMDL
MODEL 3
REMARK VINA RESULT:      -3.2     14.549     15.770
REMARK  1 active torsions:
REMARK  status: ('A' for Active; 'I' for Inactive)
REMARK    1  A    between atoms: C2_2  and  O8_8 
ROOT
HETATM    1  C1  UNL     1     -33.876  19.113  -0.625  1.00 20.00     0.053 C 
HETATM    2  C2  UNL     1     -32.687  18.184  -0.962  1.00 20.00     0.131 C 
HETATM    3  C3  UNL     1     -34.698  18.359  -1.693  1.00 20.00     0.095 C 
HETATM    4  C4  UNL     1     -33.340  17.967  -2.372  1.00 20.00    -0.005 C 
HETATM    5  C5  UNL     1     -32.835  18.913  -3.465  1.00 20.00     0.019 C 
HETATM    6  C6  UNL     1     -33.295  16.515  -2.845  1.00 20.00     0.019 C 
HETATM    7 CL9  UNL     1     -35.952  19.263  -2.602  1.00 20.00    -0.124 Cl
ENDROOT
BRANCH   2   8
HETATM    8  O8  UNL     1     -31.381  18.786  -0.942  1.00 20.00    -0.390 OA
HETATM    9  C7  UNL     1     -30.930  18.967   0.387  1.00 20.00     0.202 C 
ENDBRANCH   2   8
TORSDOF 1
ENDMDL
MODEL 4
REMARK VINA RESULT:      -3.2     18.142     19.042
REMARK  1 active torsions:
REMARK  status: ('A' for Active; 'I' for Inactive)
REMARK    1  A    between atoms: C2_2  and  O8_8 
ROOT
HETATM    1  C1  UNL     1     -41.534  15.207   6.802  1.00 20.00     0.053 C 
HETATM    2  C2  UNL     1     -41.617  14.105   7.883  1.00 20.00     0.131 C 
HETATM    3  C3  UNL     1     -42.422  14.319   5.905  1.00 20.00     0.095 C 
HETATM    4  C4  UNL     1     -41.913  13.086   6.729  1.00 20.00    -0.005 C 
HETATM    5  C5  UNL     1     -40.680  12.367   6.174  1.00 20.00     0.019 C 
HETATM    6  C6  UNL     1     -43.017  12.086   7.069  1.00 20.00     0.019 C 
HETATM    7 CL9  UNL     1     -42.190  14.395   4.128  1.00 20.00    -0.124 Cl
ENDROOT
BRANCH   2   8
HETATM    8  O8  UNL     1     -40.425  13.876   8.655  1.00 20.00    -0.390 OA
HETATM    9  C7  UNL     1     -40.119  15.002   9.456  1.00 20.00     0.202 C 
ENDBRANCH   2   8
TORSDOF 1
ENDMDL
MODEL 5
REMARK VINA RESULT:      -3.1     16.721     17.860
REMARK  1 active torsions:
REMARK  status: ('A' for Active; 'I' for Inactive)
REMARK    1  A    between atoms: C2_2  and  O8_8 
ROOT
HETATM    1  C1  UNL     1     -33.291  16.080  -3.341  1.00 20.00     0.053 C 
HETATM    2  C2  UNL     1     -34.447  16.576  -4.239  1.00 20.00     0.131 C 
HETATM    3  C3  UNL     1     -33.653  17.203  -2.346  1.00 20.00     0.095 C 
HETATM    4  C4  UNL     1     -34.296  17.976  -3.549  1.00 20.00    -0.005 C 
HETATM    5  C5  UNL     1     -33.381  18.958  -4.285  1.00 20.00     0.019 C 
HETATM    6  C6  UNL     1     -35.632  18.631  -3.205  1.00 20.00     0.019 C 
HETATM    7 CL9  UNL     1     -32.338  17.943  -1.376  1.00 20.00    -0.124 Cl
ENDROOT
BRANCH   2   8
HETATM    8  O8  UNL     1     -34.220  16.528  -5.658  1.00 20.00    -0.390 OA
HETATM    9  C7  UNL     1     -34.138  15.189  -6.111  1.00 20.00     0.202 C 
ENDBRANCH   2   8
TORSDOF 1
ENDMDL
MODEL 6
REMARK VINA RESULT:      -3.0     18.210     19.046
REMARK  1 active torsions:
REMARK  status: ('A' for Active; 'I' for Inactive)
REMARK    1  A    between atoms: C2_2  and  O8_8 
ROOT
HETATM    1  C1  UNL     1     -40.311  14.021   7.066  1.00 20.00     0.053 C 
HETATM    2  C2  UNL     1     -40.799  12.756   6.323  1.00 20.00     0.131 C 
HETATM    3  C3  UNL     1     -41.623  13.984   7.879  1.00 20.00     0.095 C 
HETATM    4  C4  UNL     1     -42.262  13.182   6.693  1.00 20.00    -0.005 C 
HETATM    5  C5  UNL     1     -42.978  14.014   5.624  1.00 20.00     0.019 C 
HETATM    6  C6  UNL     1     -43.137  12.017   7.150  1.00 20.00     0.019 C 
HETATM    7 CL9  UNL     1     -42.334  15.537   8.426  1.00 20.00    -0.124 Cl
ENDROOT
BRANCH   2   8
HETATM    8  O8  UNL     1     -40.485  12.678   4.921  1.00 20.00    -0.390 OA
HETATM    9  C7  UNL     1     -39.398  11.799   4.697  1.00 20.00     0.202 C 
ENDBRANCH   2   8
TORSDOF 1
ENDMDL
MODEL 7
REMARK VINA RESULT:      -2.9     18.980     20.089
REMARK  1 active torsions:
REMARK  status: ('A' for Active; 'I' for Inactive)
REMARK    1  A    between atoms: C2_2  and  O8_8 
ROOT
HETATM    1  C1  UNL     1     -35.775  17.245  -4.689  1.00 20.00     0.053 C 
HETATM    2  C2  UNL     1     -36.047  16.490  -6.011  1.00 20.00     0.131 C 
HETATM    3  C3  UNL     1     -34.334  16.693  -4.734  1.00 20.00     0.095 C 
HETATM    4  C4  UNL     1     -34.877  15.521  -5.624  1.00 20.00    -0.005 C 
HETATM    5  C5  UNL     1     -35.311  14.255  -4.879  1.00 20.00     0.019 C 
HETATM    6  C6  UNL     1     -33.961  15.175  -6.796  1.00 20.00     0.019 C 
HETATM    7 CL9  UNL     1     -33.499  16.357  -3.182  1.00 20.00    -0.124 Cl
ENDROOT
BRANCH   2   8
HETATM    8  O8  UNL     1     -37.352  15.901  -6.154  1.00 20.00    -0.390 OA
HETATM    9  C7  UNL     1     -38.283  16.523  -5.288  1.00 20.00     0.202 C 
ENDBRANCH   2   8
TORSDOF 1
ENDMDL
MODEL 8
REMARK VINA RESULT:      -2.9     17.841     18.663
REMARK  1 active torsions:
REMARK  status: ('A' for Active; 'I' for Inactive)
REMARK    1  A    between atoms: C2_2  and  O8_8 
ROOT
HETATM    1  C1  UNL     1     -42.022  12.506   6.728  1.00 20.00     0.053 C 
HETATM    2  C2  UNL     1     -41.076  13.545   6.084  1.00 20.00     0.131 C 
HETATM    3  C3  UNL     1     -42.690  13.669   7.494  1.00 20.00     0.095 C 
HETATM    4  C4  UNL     1     -41.351  14.468   7.322  1.00 20.00    -0.005 C 
HETATM    5  C5  UNL     1     -40.336  14.334   8.460  1.00 20.00     0.019 C 
HETATM    6  C6  UNL     1     -41.564  15.934   6.952  1.00 20.00     0.019 C 
HETATM    7 CL9  UNL     1     -43.362  13.343   9.124  1.00 20.00    -0.124 Cl
ENDROOT
BRANCH   2   8
HETATM    8  O8  UNL     1     -39.714  13.129   5.880  1.00 20.00    -0.390 OA
HETATM    9  C7  UNL     1     -39.620  11.718   5.833  1.00 20.00     0.202 C 
ENDBRANCH   2   8
TORSDOF 1
ENDMDL
MODEL 9
REMARK VINA RESULT:      -2.9     18.194     19.160
REMARK  1 active torsions:
REMARK  status: ('A' for Active; 'I' for Inactive)
REMARK    1  A    between atoms: C2_2  and  O8_8 
ROOT
HETATM    1  C1  UNL     1     -40.353  14.001   7.793  1.00 20.00     0.053 C 
HETATM    2  C2  UNL     1     -41.719  14.680   7.541  1.00 20.00     0.131 C 
HETATM    3  C3  UNL     1     -40.431  13.435   6.358  1.00 20.00     0.095 C 
HETATM    4  C4  UNL     1     -41.989  13.586   6.451  1.00 20.00    -0.005 C 
HETATM    5  C5  UNL     1     -42.757  12.358   6.949  1.00 20.00     0.019 C 
HETATM    6  C6  UNL     1     -42.621  14.142   5.176  1.00 20.00     0.019 C 
HETATM    7 CL9  UNL     1     -39.681  11.840   6.027  1.00 20.00    -0.124 Cl
ENDROOT
BRANCH   2   8
HETATM    8  O8  UNL     1     -42.628  14.718   8.656  1.00 20.00    -0.390 OA
HETATM    9  C7  UNL     1     -41.936  14.537   9.877  1.00 20.00     0.202 C 
ENDBRANCH   2   8
TORSDOF 1
ENDMDL
