MODEL 1
REMARK VINA RESULT:      -3.5      0.000      0.000
REMARK  2 active torsions:
REMARK  status: ('A' for Active; 'I' for Inactive)
REMARK    1  A    between atoms: C2_2  and  O10_10 
REMARK    2  A    between atoms: C9_9  and  O10_10 
ROOT
HETATM    1  C1  UNL     1     -33.366  16.285  -3.137  1.00 20.00     0.053 C 
HETATM    2  C2  UNL     1     -33.490  17.457  -2.138  1.00 20.00     0.132 C 
HETATM    3  C3  UNL     1     -34.475  16.956  -3.978  1.00 20.00     0.095 C 
HETATM    4  C4  UNL     1     -34.067  18.317  -3.316  1.00 20.00    -0.005 C 
HETATM    5  C5  UNL     1     -35.261  19.179  -2.913  1.00 20.00     0.019 C 
HETATM    6  C6  UNL     1     -33.026  19.148  -4.072  1.00 20.00     0.019 C 
HETATM    7 CL11 UNL     1     -34.436  16.752  -5.760  1.00 20.00    -0.124 Cl
ENDROOT
BRANCH   2   8
HETATM    8  O10 UNL     1     -32.264  17.910  -1.539  1.00 20.00    -0.381 OA
BRANCH   8   9
HETATM    9  C9  UNL     1     -32.521  18.646  -0.358  1.00 20.00     0.114 C 
HETATM   10  C7  UNL     1     -33.729  18.053   0.350  1.00 20.00     0.039 C 
HETATM   11  C8  UNL     1     -31.281  18.625   0.524  1.00 20.00     0.039 C 
ENDBRANCH   8   9
ENDBRANCH   2   8
TORSDOF 2
ENDMDL
MODEL 2
REMARK VINA RESULT:      -3.5      2.695      4.683
REMARK  2 active torsions:
REMARK  status: ('A' for Active; 'I' for Inactive)
REMARK    1  A    between atoms: C2_2  and  O10_10 
REMARK    2  A    between atoms: C9_9  and  O10_10 
ROOT
HETATM    1  C1  UNL     1     -33.639  16.091  -2.742  1.00 20.00     0.053 C 
HETATM    2  C2  UNL     1     -33.635  16.799  -4.115  1.00 20.00     0.132 C 
HETATM    3  C3  UNL     1     -33.125  17.410  -2.122  1.00 20.00     0.095 C 
HETATM    4  C4  UNL     1     -33.760  18.158  -3.344  1.00 20.00    -0.005 C 
HETATM    5  C5  UNL     1     -32.871  19.263  -3.910  1.00 20.00     0.019 C 
HETATM    6  C6  UNL     1     -35.196  18.658  -3.156  1.00 20.00     0.019 C 
HETATM    7 CL11 UNL     1     -33.614  17.811  -0.443  1.00 20.00    -0.124 Cl
ENDROOT
BRANCH   2   8
HETATM    8  O10 UNL     1     -34.709  16.453  -5.008  1.00 20.00    -0.381 OA
BRANCH   8   9
HETATM    9  C9  UNL     1     -34.573  15.124  -5.470  1.00 20.00     0.114 C 
HETATM   10  C7  UNL     1     -35.912  14.412  -5.350  1.00 20.00     0.039 C 
HETATM   11  C8  UNL     1     -34.068  15.142  -6.905  1.00 20.00     0.039 C 
ENDBRANCH   8   9
ENDBRANCH   2   8
TORSDOF 2
ENDMDL
MODEL 3
REMARK VINA RESULT:      -3.4     11.669     12.723
REMARK  2 active torsions:
REMARK  status: ('A' for Active; 'I' for Inactive)
REMARK    1  A    between atoms: C2_2  and  O10_10 
REMARK    2  A    between atoms: C9_9  and  O10_10 
ROOT
HETATM    1  C1  UNL     1     -40.583  14.429   7.518  1.00 20.00     0.053 C 
HETATM    2  C2  UNL     1     -40.599  13.556   6.243  1.00 20.00     0.132 C 
HETATM    3  C3  UNL     1     -41.626  15.344   6.838  1.00 20.00     0.095 C 
HETATM    4  C4  UNL     1     -42.035  14.115   5.955  1.00 20.00    -0.005 C 
HETATM    5  C5  UNL     1     -42.266  14.471   4.488  1.00 20.00     0.019 C 
HETATM    6  C6  UNL     1     -43.179  13.250   6.492  1.00 20.00     0.019 C 
HETATM    7 CL11 UNL     1     -42.834  16.175   7.872  1.00 20.00    -0.124 Cl
ENDROOT
BRANCH   2   8
HETATM    8  O10 UNL     1     -40.480  12.137   6.447  1.00 20.00    -0.381 OA
BRANCH   8   9
HETATM    9  C9  UNL     1     -39.395  11.610   5.709  1.00 20.00     0.114 C 
HETATM   10  C7  UNL     1     -39.584  11.940   4.236  1.00 20.00     0.039 C 
HETATM   11  C8  UNL     1     -38.094  12.180   6.254  1.00 20.00     0.039 C 
ENDBRANCH   8   9
ENDBRANCH   2   8
TORSDOF 2
ENDMDL
MODEL 4
REMARK VINA RESULT:      -3.3      0.938      1.419
REMARK  2 active torsions:
REMARK  status: ('A' for Active; 'I' for Inactive)
REMARK    1  A    between atoms: C2_2  and  O10_10 
REMARK    2  A    between atoms: C9_9  and  O10_10 
ROOT
HETATM    1  C1  UNL     1     -33.249  16.094  -3.711  1.00 20.00     0.053 C 
HETATM    2  C2  UNL     1     -33.721  17.276  -2.835  1.00 20.00     0.132 C 
HETATM    3  C3  UNL     1     -34.472  16.350  -4.621  1.00 20.00     0.095 C 
HETATM    4  C4  UNL     1     -34.472  17.828  -4.097  1.00 20.00    -0.005 C 
HETATM    5  C5  UNL     1     -35.868  18.363  -3.788  1.00 20.00     0.019 C 
HETATM    6  C6  UNL     1     -33.673  18.837  -4.927  1.00 20.00     0.019 C 
HETATM    7 CL11 UNL     1     -34.320  15.996  -6.373  1.00 20.00    -0.124 Cl
ENDROOT
BRANCH   2   8
HETATM    8  O10 UNL     1     -32.685  18.104  -2.279  1.00 20.00    -0.381 OA
BRANCH   8   9
HETATM    9  C9  UNL     1     -32.643  17.980  -0.871  1.00 20.00     0.114 C 
HETATM   10  C7  UNL     1     -31.406  18.691  -0.342  1.00 20.00     0.039 C 
HETATM   11  C8  UNL     1     -33.922  18.554  -0.279  1.00 20.00     0.039 C 
ENDBRANCH   8   9
ENDBRANCH   2   8
TORSDOF 2
ENDMDL
MODEL 5
REMARK VINA RESULT:      -3.3     12.717     13.892
REMARK  2 active torsions:
REMARK  status: ('A' for Active; 'I' for Inactive)
REMARK    1  A    between atoms: C2_2  and  O10_10 
REMARK    2  A    between atoms: C9_9  and  O10_10 
ROOT
HETATM    1  C1  UNL     1     -40.483  14.351   9.888  1.00 20.00     0.053 C 
HETATM    2  C2  UNL     1     -40.316  14.436   8.354  1.00 20.00     0.132 C 
HETATM    3  C3  UNL     1     -40.790  15.865   9.885  1.00 20.00     0.095 C 
HETATM    4  C4  UNL     1     -41.233  15.708   8.389  1.00 20.00    -0.005 C 
HETATM    5  C5  UNL     1     -40.741  16.838   7.487  1.00 20.00     0.019 C 
HETATM    6  C6  UNL     1     -42.721  15.431   8.152  1.00 20.00     0.019 C 
HETATM    7 CL11 UNL     1     -41.924  16.509  11.116  1.00 20.00    -0.124 Cl
ENDROOT
BRANCH   2   8
HETATM    8  O10 UNL     1     -40.793  13.308   7.602  1.00 20.00    -0.381 OA
BRANCH   8   9
HETATM    9  C9  UNL     1     -40.211  13.278   6.313  1.00 20.00     0.114 C 
HETATM   10  C7  UNL     1     -39.532  11.933   6.100  1.00 20.00     0.039 C 
HETATM   11  C8  UNL     1     -41.289  13.539   5.271  1.00 20.00     0.039 C 
ENDBRANCH   8   9
ENDBRANCH   2   8
TORSDOF 2
ENDMDL
MODEL 6
REMARK VINA RESULT:      -3.2     12.339     13.463
REMARK  2 active torsions:
REMARK  status: ('A' for Active; 'I' for Inactive)
REMARK    1  A    between atoms: C2_2  and  O10_10 
REMARK    2  A    between atoms: C9_9  and  O10_10 
ROOT
HETATM    1  C1  UNL     1     -41.515  15.107   6.828  1.00 20.00     0.053 C 
HETATM    2  C2  UNL     1     -40.568  13.990   7.322  1.00 20.00     0.132 C 
HETATM    3  C3  UNL     1     -41.668  14.319   5.508  1.00 20.00     0.095 C 
HETATM    4  C4  UNL     1     -41.277  13.028   6.307  1.00 20.00    -0.005 C 
HETATM    5  C5  UNL     1     -40.310  12.117   5.555  1.00 20.00     0.019 C 
HETATM    6  C6  UNL     1     -42.439  12.222   6.894  1.00 20.00     0.019 C 
HETATM    7 CL11 UNL     1     -43.228  14.420   4.630  1.00 20.00    -0.124 Cl
ENDROOT
BRANCH   2   8
HETATM    8  O10 UNL     1     -40.662  13.652   8.717  1.00 20.00    -0.381 OA
BRANCH   8   9
HETATM    9  C9  UNL     1     -41.284  14.691   9.447  1.00 20.00     0.114 C 
HETATM   10  C7  UNL     1     -42.439  14.116  10.253  1.00 20.00     0.039 C 
HETATM   11  C8  UNL     1     -40.250  15.363  10.339  1.00 20.00     0.039 C 
ENDBRANCH   8   9
ENDBRANCH   2   8
TORSDOF 2
ENDMDL
MODEL 7
REMARK VINA RESULT:      -3.2     24.320     25.469
REMARK  2 active torsions:
REMARK  status: ('A' for Active; 'I' for Inactive)
REMARK    1  A    between atoms: C2_2  and  O10_10 
REMARK    2  A    between atoms: C9_9  and  O10_10 
ROOT
HETATM    1  C1  UNL     1     -27.449  -3.696  11.072  1.00 20.00     0.053 C 
HETATM    2  C2  UNL     1     -26.188  -2.808  10.971  1.00 20.00     0.132 C 
HETATM    3  C3  UNL     1     -28.063  -2.626  12.001  1.00 20.00     0.095 C 
HETATM    4  C4  UNL     1     -27.100  -1.584  11.334  1.00 20.00    -0.005 C 
HETATM    5  C5  UNL     1     -26.459  -0.623  12.332  1.00 20.00     0.019 C 
HETATM    6  C6  UNL     1     -27.661  -0.824  10.128  1.00 20.00     0.019 C 
HETATM    7 CL11 UNL     1     -29.840  -2.386  11.969  1.00 20.00    -0.124 Cl
ENDROOT
BRANCH   2   8
HETATM    8  O10 UNL     1     -25.535  -2.778   9.690  1.00 20.00    -0.381 OA
BRANCH   8   9
HETATM    9  C9  UNL     1     -24.229  -3.313   9.777  1.00 20.00     0.114 C 
HETATM   10  C7  UNL     1     -23.538  -3.169   8.430  1.00 20.00     0.039 C 
HETATM   11  C8  UNL     1     -23.468  -2.598  10.883  1.00 20.00     0.039 C 
ENDBRANCH   8   9
ENDBRANCH   2   8
TORSDOF 2
ENDMDL
MODEL 8
REMARK VINA RESULT:      -3.1     12.209     13.882
REMARK  2 active torsions:
REMARK  status: ('A' for Active; 'I' for Inactive)
REMARK    1  A    between atoms: C2_2  and  O10_10 
REMARK    2  A    between atoms: C9_9  and  O10_10 
ROOT
HETATM    1  C1  UNL     1     -40.417  15.761   7.744  1.00 20.00     0.053 C 
HETATM    2  C2  UNL     1     -41.000  14.340   7.577  1.00 20.00     0.132 C 
HETATM    3  C3  UNL     1     -41.603  16.078   8.683  1.00 20.00     0.095 C 
HETATM    4  C4  UNL     1     -41.713  14.538   8.959  1.00 20.00    -0.005 C 
HETATM    5  C5  UNL     1     -43.152  14.027   8.980  1.00 20.00     0.019 C 
HETATM    6  C6  UNL     1     -40.930  14.013  10.166  1.00 20.00     0.019 C 
HETATM    7 CL11 UNL     1     -41.341  17.236  10.026  1.00 20.00    -0.124 Cl
ENDROOT
BRANCH   2   8
HETATM    8  O10 UNL     1     -40.043  13.270   7.485  1.00 20.00    -0.381 OA
BRANCH   8   9
HETATM    9  C9  UNL     1     -40.267  12.490   6.326  1.00 20.00     0.114 C 
HETATM   10  C7  UNL     1     -41.161  13.262   5.367  1.00 20.00     0.039 C 
HETATM   11  C8  UNL     1     -38.929  12.138   5.693  1.00 20.00     0.039 C 
ENDBRANCH   8   9
ENDBRANCH   2   8
TORSDOF 2
ENDMDL
MODEL 9
REMARK VINA RESULT:      -3.1      2.144      3.441
REMARK  2 active torsions:
REMARK  status: ('A' for Active; 'I' for Inactive)
REMARK    1  A    between atoms: C2_2  and  O10_10 
REMARK    2  A    between atoms: C9_9  and  O10_10 
ROOT
HETATM    1  C1  UNL     1     -35.639  17.637  -4.543  1.00 20.00     0.053 C 
HETATM    2  C2  UNL     1     -34.197  17.294  -4.979  1.00 20.00     0.132 C 
HETATM    3  C3  UNL     1     -36.142  16.635  -5.605  1.00 20.00     0.095 C 
HETATM    4  C4  UNL     1     -34.750  15.921  -5.499  1.00 20.00    -0.005 C 
HETATM    5  C5  UNL     1     -34.175  15.507  -6.852  1.00 20.00     0.019 C 
HETATM    6  C6  UNL     1     -34.658  14.770  -4.493  1.00 20.00     0.019 C 
HETATM    7 CL11 UNL     1     -37.661  15.738  -5.281  1.00 20.00    -0.124 Cl
ENDROOT
BRANCH   2   8
HETATM    8  O10 UNL     1     -33.213  17.245  -3.931  1.00 20.00    -0.381 OA
BRANCH   8   9
HETATM    9  C9  UNL     1     -33.619  18.023  -2.822  1.00 20.00     0.114 C 
HETATM   10  C7  UNL     1     -33.537  17.178  -1.559  1.00 20.00     0.039 C 
HETATM   11  C8  UNL     1     -32.741  19.263  -2.731  1.00 20.00     0.039 C 
ENDBRANCH   8   9
ENDBRANCH   2   8
TORSDOF 2
ENDMDL
