MODEL 1
REMARK VINA RESULT:      -3.3      0.000      0.000
REMARK  1 active torsions:
REMARK  status: ('A' for Active; 'I' for Inactive)
REMARK    1  A    between atoms: C6_6  and  O10_10 
ROOT
HETATM    1  C1  UNL     1     -32.238  19.262  -1.611  1.00 20.00     0.001 C 
HETATM    2  C2  UNL     1     -32.419  17.859  -1.059  1.00 20.00     0.001 C 
HETATM    3  C3  UNL     1     -32.744  19.160  -3.049  1.00 20.00     0.013 C 
HETATM    4  C4  UNL     1     -33.793  17.471  -1.591  1.00 20.00     0.013 C 
HETATM    5  C5  UNL     1     -35.159  16.915  -4.248  1.00 20.00     0.053 C 
HETATM    6  C6  UNL     1     -33.617  16.980  -4.175  1.00 20.00     0.132 C 
HETATM    7  C7  UNL     1     -35.176  18.357  -3.695  1.00 20.00     0.095 C 
HETATM    8  C8  UNL     1     -33.794  18.036  -3.021  1.00 20.00     0.003 C 
HETATM    9 CL11 UNL     1     -36.586  18.880  -2.724  1.00 20.00    -0.124 Cl
ENDROOT
BRANCH   6  10
HETATM   10  O10 UNL     1     -32.938  15.758  -3.838  1.00 20.00    -0.390 OA
HETATM   11  C9  UNL     1     -33.724  14.632  -4.178  1.00 20.00     0.202 C 
ENDBRANCH   6  10
TORSDOF 1
ENDMDL
MODEL 2
REMARK VINA RESULT:      -3.3      3.143      4.334
REMARK  1 active torsions:
REMARK  status: ('A' for Active; 'I' for Inactive)
REMARK    1  A    between atoms: C6_6  and  O10_10 
ROOT
HETATM    1  C1  UNL     1     -33.309  15.891  -3.436  1.00 20.00     0.001 C 
HETATM    2  C2  UNL     1     -33.892  17.272  -3.677  1.00 20.00     0.001 C 
HETATM    3  C3  UNL     1     -34.273  14.953  -4.161  1.00 20.00     0.013 C 
HETATM    4  C4  UNL     1     -34.282  17.212  -5.149  1.00 20.00     0.013 C 
HETATM    5  C5  UNL     1     -36.246  15.750  -6.951  1.00 20.00     0.053 C 
HETATM    6  C6  UNL     1     -36.427  15.703  -5.417  1.00 20.00     0.132 C 
HETATM    7  C7  UNL     1     -34.844  15.138  -6.733  1.00 20.00     0.095 C 
HETATM    8  C8  UNL     1     -34.859  15.795  -5.306  1.00 20.00     0.003 C 
HETATM    9 CL11 UNL     1     -33.556  15.515  -7.918  1.00 20.00    -0.124 Cl
ENDROOT
BRANCH   6  10
HETATM   10  O10 UNL     1     -37.184  16.773  -4.826  1.00 20.00    -0.390 OA
HETATM   11  C9  UNL     1     -38.573  16.522  -4.922  1.00 20.00     0.202 C 
ENDBRANCH   6  10
TORSDOF 1
ENDMDL
MODEL 3
REMARK VINA RESULT:      -3.3     12.646     13.691
REMARK  1 active torsions:
REMARK  status: ('A' for Active; 'I' for Inactive)
REMARK    1  A    between atoms: C6_6  and  O10_10 
ROOT
HETATM    1  C1  UNL     1     -40.396  12.884   4.838  1.00 20.00     0.001 C 
HETATM    2  C2  UNL     1     -40.056  12.159   6.129  1.00 20.00     0.001 C 
HETATM    3  C3  UNL     1     -41.658  13.675   5.183  1.00 20.00     0.013 C 
HETATM    4  C4  UNL     1     -40.282  13.237   7.181  1.00 20.00     0.013 C 
HETATM    5  C5  UNL     1     -42.565  14.862   8.357  1.00 20.00     0.053 C 
HETATM    6  C6  UNL     1     -42.871  13.624   7.487  1.00 20.00     0.132 C 
HETATM    7  C7  UNL     1     -41.795  15.436   7.147  1.00 20.00     0.095 C 
HETATM    8  C8  UNL     1     -41.552  13.951   6.692  1.00 20.00     0.003 C 
HETATM    9 CL11 UNL     1     -40.428  16.550   7.456  1.00 20.00    -0.124 Cl
ENDROOT
BRANCH   6  10
HETATM   10  O10 UNL     1     -42.922  12.357   8.166  1.00 20.00    -0.390 OA
HETATM   11  C9  UNL     1     -43.417  12.510   9.482  1.00 20.00     0.202 C 
ENDBRANCH   6  10
TORSDOF 1
ENDMDL
MODEL 4
REMARK VINA RESULT:      -3.1     12.372     13.413
REMARK  1 active torsions:
REMARK  status: ('A' for Active; 'I' for Inactive)
REMARK    1  A    between atoms: C6_6  and  O10_10 
ROOT
HETATM    1  C1  UNL     1     -41.093  14.405   9.568  1.00 20.00     0.001 C 
HETATM    2  C2  UNL     1     -40.432  15.541   8.808  1.00 20.00     0.001 C 
HETATM    3  C3  UNL     1     -42.045  13.785   8.547  1.00 20.00     0.013 C 
HETATM    4  C4  UNL     1     -40.141  14.905   7.454  1.00 20.00     0.013 C 
HETATM    5  C5  UNL     1     -41.651  13.797   5.061  1.00 20.00     0.053 C 
HETATM    6  C6  UNL     1     -42.396  14.645   6.115  1.00 20.00     0.132 C 
HETATM    7  C7  UNL     1     -41.272  12.833   6.208  1.00 20.00     0.095 C 
HETATM    8  C8  UNL     1     -41.396  14.061   7.181  1.00 20.00     0.003 C 
HETATM    9 CL11 UNL     1     -39.748  11.905   6.072  1.00 20.00    -0.124 Cl
ENDROOT
BRANCH   6  10
HETATM   10  O10 UNL     1     -42.379  16.070   5.921  1.00 20.00    -0.390 OA
HETATM   11  C9  UNL     1     -43.408  16.694   6.666  1.00 20.00     0.202 C 
ENDBRANCH   6  10
TORSDOF 1
ENDMDL
MODEL 5
REMARK VINA RESULT:      -3.0      2.111      3.535
REMARK  1 active torsions:
REMARK  status: ('A' for Active; 'I' for Inactive)
REMARK    1  A    between atoms: C6_6  and  O10_10 
ROOT
HETATM    1  C1  UNL     1     -35.126  19.186  -5.334  1.00 20.00     0.001 C 
HETATM    2  C2  UNL     1     -35.882  18.740  -4.094  1.00 20.00     0.001 C 
HETATM    3  C3  UNL     1     -33.945  18.220  -5.412  1.00 20.00     0.013 C 
HETATM    4  C4  UNL     1     -35.862  17.222  -4.225  1.00 20.00     0.013 C 
HETATM    5  C5  UNL     1     -33.861  14.935  -4.183  1.00 20.00     0.053 C 
HETATM    6  C6  UNL     1     -33.438  16.336  -3.687  1.00 20.00     0.132 C 
HETATM    7  C7  UNL     1     -34.202  15.594  -5.538  1.00 20.00     0.095 C 
HETATM    8  C8  UNL     1     -34.444  16.929  -4.744  1.00 20.00     0.003 C 
HETATM    9 CL11 UNL     1     -35.491  14.862  -6.541  1.00 20.00    -0.124 Cl
ENDROOT
BRANCH   6  10
HETATM   10  O10 UNL     1     -33.698  16.634  -2.305  1.00 20.00    -0.390 OA
HETATM   11  C9  UNL     1     -32.905  17.720  -1.864  1.00 20.00     0.202 C 
ENDBRANCH   6  10
TORSDOF 1
ENDMDL
MODEL 6
REMARK VINA RESULT:      -3.0     13.452     15.010
REMARK  1 active torsions:
REMARK  status: ('A' for Active; 'I' for Inactive)
REMARK    1  A    between atoms: C6_6  and  O10_10 
ROOT
HETATM    1  C1  UNL     1     -41.465   8.228  -0.114  1.00 20.00     0.001 C 
HETATM    2  C2  UNL     1     -40.419   7.190  -0.484  1.00 20.00     0.001 C 
HETATM    3  C3  UNL     1     -42.792   7.494  -0.300  1.00 20.00     0.013 C 
HETATM    4  C4  UNL     1     -40.949   5.933   0.193  1.00 20.00     0.013 C 
HETATM    5  C5  UNL     1     -43.317   4.038  -0.002  1.00 20.00     0.053 C 
HETATM    6  C6  UNL     1     -43.040   5.042  -1.142  1.00 20.00     0.132 C 
HETATM    7  C7  UNL     1     -43.417   5.252   0.948  1.00 20.00     0.095 C 
HETATM    8  C8  UNL     1     -42.466   6.014  -0.044  1.00 20.00     0.003 C 
HETATM    9 CL11 UNL     1     -42.978   5.026   2.669  1.00 20.00    -0.124 Cl
ENDROOT
BRANCH   6  10
HETATM   10  O10 UNL     1     -42.129   4.613  -2.169  1.00 20.00    -0.390 OA
HETATM   11  C9  UNL     1     -42.667   3.528  -2.900  1.00 20.00     0.202 C 
ENDBRANCH   6  10
TORSDOF 1
ENDMDL
MODEL 7
REMARK VINA RESULT:      -3.0     12.364     13.238
REMARK  1 active torsions:
REMARK  status: ('A' for Active; 'I' for Inactive)
REMARK    1  A    between atoms: C6_6  and  O10_10 
ROOT
HETATM    1  C1  UNL     1     -41.525  16.640   7.530  1.00 20.00     0.001 C 
HETATM    2  C2  UNL     1     -40.220  15.917   7.815  1.00 20.00     0.001 C 
HETATM    3  C3  UNL     1     -42.311  15.654   6.668  1.00 20.00     0.013 C 
HETATM    4  C4  UNL     1     -40.690  14.501   8.123  1.00 20.00     0.013 C 
HETATM    5  C5  UNL     1     -42.017  12.159   6.712  1.00 20.00     0.053 C 
HETATM    6  C6  UNL     1     -41.440  13.329   5.885  1.00 20.00     0.132 C 
HETATM    7  C7  UNL     1     -42.912  13.196   7.425  1.00 20.00     0.095 C 
HETATM    8  C8  UNL     1     -41.809  14.265   7.095  1.00 20.00     0.003 C 
HETATM    9 CL11 UNL     1     -43.417  12.871   9.111  1.00 20.00    -0.124 Cl
ENDROOT
BRANCH   6  10
HETATM   10  O10 UNL     1     -40.049  13.241   5.531  1.00 20.00    -0.390 OA
HETATM   11  C9  UNL     1     -39.642  11.892   5.413  1.00 20.00     0.202 C 
ENDBRANCH   6  10
TORSDOF 1
ENDMDL
MODEL 8
REMARK VINA RESULT:      -3.0      2.937      3.954
REMARK  1 active torsions:
REMARK  status: ('A' for Active; 'I' for Inactive)
REMARK    1  A    between atoms: C6_6  and  O10_10 
ROOT
HETATM    1  C1  UNL     1     -33.875  15.728  -3.725  1.00 20.00     0.001 C 
HETATM    2  C2  UNL     1     -34.126  14.396  -4.412  1.00 20.00     0.001 C 
HETATM    3  C3  UNL     1     -34.395  16.760  -4.724  1.00 20.00     0.013 C 
HETATM    4  C4  UNL     1     -35.521  14.584  -4.993  1.00 20.00     0.013 C 
HETATM    5  C5  UNL     1     -36.931  16.265  -7.097  1.00 20.00     0.053 C 
HETATM    6  C6  UNL     1     -35.388  16.206  -7.067  1.00 20.00     0.132 C 
HETATM    7  C7  UNL     1     -36.869  16.794  -5.647  1.00 20.00     0.095 C 
HETATM    8  C8  UNL     1     -35.501  16.033  -5.506  1.00 20.00     0.003 C 
HETATM    9 CL11 UNL     1     -38.244  16.446  -4.554  1.00 20.00    -0.124 Cl
ENDROOT
BRANCH   6  10
HETATM   10  O10 UNL     1     -34.771  15.130  -7.796  1.00 20.00    -0.390 OA
HETATM   11  C9  UNL     1     -33.377  15.337  -7.918  1.00 20.00     0.202 C 
ENDBRANCH   6  10
TORSDOF 1
ENDMDL
MODEL 9
REMARK VINA RESULT:      -3.0     12.635     13.710
REMARK  1 active torsions:
REMARK  status: ('A' for Active; 'I' for Inactive)
REMARK    1  A    between atoms: C6_6  and  O10_10 
ROOT
HETATM    1  C1  UNL     1     -41.194  12.426   6.403  1.00 20.00     0.001 C 
HETATM    2  C2  UNL     1     -42.624  12.832   6.714  1.00 20.00     0.001 C 
HETATM    3  C3  UNL     1     -40.409  13.733   6.510  1.00 20.00     0.013 C 
HETATM    4  C4  UNL     1     -42.447  13.777   7.896  1.00 20.00     0.013 C 
HETATM    5  C5  UNL     1     -41.235  16.496   8.508  1.00 20.00     0.053 C 
HETATM    6  C6  UNL     1     -41.447  16.061   7.041  1.00 20.00     0.132 C 
HETATM    7  C7  UNL     1     -40.355  15.239   8.680  1.00 20.00     0.095 C 
HETATM    8  C8  UNL     1     -41.193  14.584   7.523  1.00 20.00     0.003 C 
HETATM    9 CL11 UNL     1     -40.256  14.482  10.299  1.00 20.00    -0.124 Cl
ENDROOT
BRANCH   6  10
HETATM   10  O10 UNL     1     -42.735  16.344   6.467  1.00 20.00    -0.390 OA
HETATM   11  C9  UNL     1     -42.677  16.309   5.054  1.00 20.00     0.202 C 
ENDBRANCH   6  10
TORSDOF 1
ENDMDL
