MODEL 1
REMARK VINA RESULT:      -5.2      0.000      0.000
REMARK  3 active torsions:
REMARK  status: ('A' for Active; 'I' for Inactive)
REMARK    1  A    between atoms: C4_4  and  O11_11 
REMARK    2  A    between atoms: C8_8  and  C10_10 
REMARK    3  A    between atoms: C10_10  and  O11_11 
ROOT
HETATM    1  C1  UNL     1     -34.678   5.818   6.022  1.00 20.00    -0.030 C 
HETATM    2  C2  UNL     1     -34.285   7.081   6.230  1.00 20.00    -0.030 C 
HETATM    3  C5  UNL     1     -34.311   5.039   4.797  1.00 20.00     0.031 C 
HETATM    4  C6  UNL     1     -33.413   7.834   5.272  1.00 20.00     0.034 C 
HETATM    5  C7  UNL     1     -33.746   5.911   3.656  1.00 20.00    -0.009 C 
HETATM    6  C8  UNL     1     -32.733   6.936   4.218  1.00 20.00     0.017 C 
HETATM    7  C9  UNL     1     -33.155   5.009   2.570  1.00 20.00     0.011 C 
ENDROOT
BRANCH   6   8
HETATM    8  C10 UNL     1     -32.096   7.812   3.136  1.00 20.00     0.179 C 
BRANCH   8   9
HETATM    9  O11 UNL     1     -32.874   8.984   2.996  1.00 20.00    -0.363 OA
BRANCH   9  10
HETATM   10  C4  UNL     1     -32.902   9.506   1.773  1.00 20.00     0.124 C 
HETATM   11  C3  UNL     1     -32.531   8.869   0.660  1.00 20.00     0.037 C 
ENDBRANCH   9  10
ENDBRANCH   8   9
ENDBRANCH   6   8
TORSDOF 3
ENDMDL
MODEL 2
REMARK VINA RESULT:      -4.9      0.835      2.206
REMARK  3 active torsions:
REMARK  status: ('A' for Active; 'I' for Inactive)
REMARK    1  A    between atoms: C4_4  and  O11_11 
REMARK    2  A    between atoms: C8_8  and  C10_10 
REMARK    3  A    between atoms: C10_10  and  O11_11 
ROOT
HETATM    1  C1  UNL     1     -34.873   5.784   6.054  1.00 20.00    -0.030 C 
HETATM    2  C2  UNL     1     -34.633   5.000   4.995  1.00 20.00    -0.030 C 
HETATM    3  C5  UNL     1     -34.233   7.125   6.241  1.00 20.00     0.031 C 
HETATM    4  C6  UNL     1     -33.723   5.398   3.873  1.00 20.00     0.034 C 
HETATM    5  C7  UNL     1     -33.032   7.373   5.303  1.00 20.00    -0.009 C 
HETATM    6  C8  UNL     1     -33.366   6.900   3.869  1.00 20.00     0.017 C 
HETATM    7  C9  UNL     1     -32.626   8.847   5.375  1.00 20.00     0.011 C 
ENDROOT
BRANCH   6   8
HETATM    8  C10 UNL     1     -32.235   7.153   2.870  1.00 20.00     0.179 C 
BRANCH   8   9
HETATM    9  O11 UNL     1     -32.436   8.422   2.280  1.00 20.00    -0.363 OA
BRANCH   9  10
HETATM   10  C4  UNL     1     -32.175   8.492   0.978  1.00 20.00     0.124 C 
HETATM   11  C3  UNL     1     -32.878   9.202   0.093  1.00 20.00     0.037 C 
ENDBRANCH   9  10
ENDBRANCH   8   9
ENDBRANCH   6   8
TORSDOF 3
ENDMDL
MODEL 3
REMARK VINA RESULT:      -3.7     13.195     14.327
REMARK  3 active torsions:
REMARK  status: ('A' for Active; 'I' for Inactive)
REMARK    1  A    between atoms: C4_4  and  O11_11 
REMARK    2  A    between atoms: C8_8  and  C10_10 
REMARK    3  A    between atoms: C10_10  and  O11_11 
ROOT
HETATM    1  C1  UNL     1     -27.842  -0.584  10.808  1.00 20.00    -0.030 C 
HETATM    2  C2  UNL     1     -28.184  -1.749  10.244  1.00 20.00    -0.030 C 
HETATM    3  C5  UNL     1     -26.543  -0.371  11.522  1.00 20.00     0.031 C 
HETATM    4  C6  UNL     1     -27.289  -2.950  10.242  1.00 20.00     0.034 C 
HETATM    5  C7  UNL     1     -25.794  -1.681  11.848  1.00 20.00    -0.009 C 
HETATM    6  C8  UNL     1     -25.829  -2.634  10.629  1.00 20.00     0.017 C 
HETATM    7  C9  UNL     1     -24.376  -1.354  12.320  1.00 20.00     0.011 C 
ENDROOT
BRANCH   6   8
HETATM    8  C10 UNL     1     -25.069  -3.941  10.863  1.00 20.00     0.179 C 
BRANCH   8   9
HETATM    9  O11 UNL     1     -24.318  -4.235   9.702  1.00 20.00    -0.363 OA
BRANCH   9  10
HETATM   10  C4  UNL     1     -23.805  -3.181   9.073  1.00 20.00     0.124 C 
HETATM   11  C3  UNL     1     -23.223  -3.214   7.873  1.00 20.00     0.037 C 
ENDBRANCH   9  10
ENDBRANCH   8   9
ENDBRANCH   6   8
TORSDOF 3
ENDMDL
MODEL 4
REMARK VINA RESULT:      -3.6     11.484     13.140
REMARK  3 active torsions:
REMARK  status: ('A' for Active; 'I' for Inactive)
REMARK    1  A    between atoms: C4_4  and  O11_11 
REMARK    2  A    between atoms: C8_8  and  C10_10 
REMARK    3  A    between atoms: C10_10  and  O11_11 
ROOT
HETATM    1  C1  UNL     1     -34.157  15.249  -5.081  1.00 20.00    -0.030 C 
HETATM    2  C2  UNL     1     -33.577  15.166  -3.878  1.00 20.00    -0.030 C 
HETATM    3  C5  UNL     1     -34.639  16.540  -5.669  1.00 20.00     0.031 C 
HETATM    4  C6  UNL     1     -33.322  16.358  -3.008  1.00 20.00     0.034 C 
HETATM    5  C7  UNL     1     -34.725  17.692  -4.645  1.00 20.00    -0.009 C 
HETATM    6  C8  UNL     1     -33.464  17.705  -3.748  1.00 20.00     0.017 C 
HETATM    7  C9  UNL     1     -34.957  19.013  -5.382  1.00 20.00     0.011 C 
ENDROOT
BRANCH   6   8
HETATM    8  C10 UNL     1     -33.457  18.849  -2.732  1.00 20.00     0.179 C 
BRANCH   8   9
HETATM    9  O11 UNL     1     -32.147  18.981  -2.216  1.00 20.00    -0.363 OA
BRANCH   9  10
HETATM   10  C4  UNL     1     -32.070  19.189  -0.905  1.00 20.00     0.124 C 
HETATM   11  C3  UNL     1     -31.200  18.594  -0.085  1.00 20.00     0.037 C 
ENDBRANCH   9  10
ENDBRANCH   8   9
ENDBRANCH   6   8
TORSDOF 3
ENDMDL
MODEL 5
REMARK VINA RESULT:      -3.6      9.818     10.942
REMARK  3 active torsions:
REMARK  status: ('A' for Active; 'I' for Inactive)
REMARK    1  A    between atoms: C4_4  and  O11_11 
REMARK    2  A    between atoms: C8_8  and  C10_10 
REMARK    3  A    between atoms: C10_10  and  O11_11 
ROOT
HETATM    1  C1  UNL     1     -41.323  16.434   7.709  1.00 20.00    -0.030 C 
HETATM    2  C2  UNL     1     -40.525  15.557   8.330  1.00 20.00    -0.030 C 
HETATM    3  C5  UNL     1     -42.119  16.093   6.487  1.00 20.00     0.031 C 
HETATM    4  C6  UNL     1     -40.370  14.135   7.885  1.00 20.00     0.034 C 
HETATM    5  C7  UNL     1     -41.684  14.774   5.813  1.00 20.00    -0.009 C 
HETATM    6  C8  UNL     1     -41.451  13.680   6.882  1.00 20.00     0.017 C 
HETATM    7  C9  UNL     1     -42.715  14.377   4.755  1.00 20.00     0.011 C 
ENDROOT
BRANCH   6   8
HETATM    8  C10 UNL     1     -41.056  12.327   6.285  1.00 20.00     0.179 C 
BRANCH   8   9
HETATM    9  O11 UNL     1     -39.704  12.073   6.612  1.00 20.00    -0.363 OA
BRANCH   9  10
HETATM   10  C4  UNL     1     -38.867  12.025   5.579  1.00 20.00     0.124 C 
HETATM   11  C3  UNL     1     -39.212  11.712   4.328  1.00 20.00     0.037 C 
ENDBRANCH   9  10
ENDBRANCH   8   9
ENDBRANCH   6   8
TORSDOF 3
ENDMDL
MODEL 6
REMARK VINA RESULT:      -3.5     11.672     12.723
REMARK  3 active torsions:
REMARK  status: ('A' for Active; 'I' for Inactive)
REMARK    1  A    between atoms: C4_4  and  O11_11 
REMARK    2  A    between atoms: C8_8  and  C10_10 
REMARK    3  A    between atoms: C10_10  and  O11_11 
ROOT
HETATM    1  C1  UNL     1     -34.030  18.096  -1.267  1.00 20.00    -0.030 C 
HETATM    2  C2  UNL     1     -34.969  18.791  -1.919  1.00 20.00    -0.030 C 
HETATM    3  C5  UNL     1     -33.263  16.971  -1.892  1.00 20.00     0.031 C 
HETATM    4  C6  UNL     1     -35.329  18.537  -3.351  1.00 20.00     0.034 C 
HETATM    5  C7  UNL     1     -33.877  16.463  -3.214  1.00 20.00    -0.009 C 
HETATM    6  C8  UNL     1     -34.303  17.659  -4.099  1.00 20.00     0.017 C 
HETATM    7  C9  UNL     1     -32.890  15.520  -3.905  1.00 20.00     0.011 C 
ENDROOT
BRANCH   6   8
HETATM    8  C10 UNL     1     -34.884  17.233  -5.449  1.00 20.00     0.179 C 
BRANCH   8   9
HETATM    9  O11 UNL     1     -36.174  16.696  -5.231  1.00 20.00    -0.363 OA
BRANCH   9  10
HETATM   10  C4  UNL     1     -36.420  15.540  -5.840  1.00 20.00     0.124 C 
HETATM   11  C3  UNL     1     -36.047  14.341  -5.387  1.00 20.00     0.037 C 
ENDBRANCH   9  10
ENDBRANCH   8   9
ENDBRANCH   6   8
TORSDOF 3
ENDMDL
MODEL 7
REMARK VINA RESULT:      -3.5      9.871     11.084
REMARK  3 active torsions:
REMARK  status: ('A' for Active; 'I' for Inactive)
REMARK    1  A    between atoms: C4_4  and  O11_11 
REMARK    2  A    between atoms: C8_8  and  C10_10 
REMARK    3  A    between atoms: C10_10  and  O11_11 
ROOT
HETATM    1  C1  UNL     1     -42.240  16.495   5.993  1.00 20.00    -0.030 C 
HETATM    2  C2  UNL     1     -42.577  15.613   5.044  1.00 20.00    -0.030 C 
HETATM    3  C5  UNL     1     -41.469  16.120   7.221  1.00 20.00     0.031 C 
HETATM    4  C6  UNL     1     -42.192  14.166   5.098  1.00 20.00     0.034 C 
HETATM    5  C7  UNL     1     -41.398  14.598   7.467  1.00 20.00    -0.009 C 
HETATM    6  C8  UNL     1     -41.098  13.856   6.142  1.00 20.00     0.017 C 
HETATM    7  C9  UNL     1     -40.377  14.306   8.569  1.00 20.00     0.011 C 
ENDROOT
BRANCH   6   8
HETATM    8  C10 UNL     1     -40.971  12.341   6.314  1.00 20.00     0.179 C 
BRANCH   8   9
HETATM    9  O11 UNL     1     -39.606  12.026   6.503  1.00 20.00    -0.363 OA
BRANCH   9  10
HETATM   10  C4  UNL     1     -38.839  12.142   5.423  1.00 20.00     0.124 C 
HETATM   11  C3  UNL     1     -39.115  11.615   4.228  1.00 20.00     0.037 C 
ENDBRANCH   9  10
ENDBRANCH   8   9
ENDBRANCH   6   8
TORSDOF 3
ENDMDL
MODEL 8
REMARK VINA RESULT:      -3.4     11.002     12.520
REMARK  3 active torsions:
REMARK  status: ('A' for Active; 'I' for Inactive)
REMARK    1  A    between atoms: C4_4  and  O11_11 
REMARK    2  A    between atoms: C8_8  and  C10_10 
REMARK    3  A    between atoms: C10_10  and  O11_11 
ROOT
HETATM    1  C1  UNL     1     -36.139  14.810  -5.810  1.00 20.00    -0.030 C 
HETATM    2  C2  UNL     1     -35.505  13.993  -4.959  1.00 20.00    -0.030 C 
HETATM    3  C5  UNL     1     -35.818  16.268  -5.936  1.00 20.00     0.031 C 
HETATM    4  C6  UNL     1     -34.390  14.447  -4.067  1.00 20.00     0.034 C 
HETATM    5  C7  UNL     1     -34.954  16.813  -4.780  1.00 20.00    -0.009 C 
HETATM    6  C8  UNL     1     -33.810  15.824  -4.454  1.00 20.00     0.017 C 
HETATM    7  C9  UNL     1     -34.458  18.218  -5.133  1.00 20.00     0.011 C 
ENDROOT
BRANCH   6   8
HETATM    8  C10 UNL     1     -32.883  16.318  -3.342  1.00 20.00     0.179 C 
BRANCH   8   9
HETATM    9  O11 UNL     1     -33.621  16.374  -2.137  1.00 20.00    -0.363 OA
BRANCH   9  10
HETATM   10  C4  UNL     1     -33.434  17.468  -1.405  1.00 20.00     0.124 C 
HETATM   11  C3  UNL     1     -34.322  18.455  -1.264  1.00 20.00     0.037 C 
ENDBRANCH   9  10
ENDBRANCH   8   9
ENDBRANCH   6   8
TORSDOF 3
ENDMDL
MODEL 9
REMARK VINA RESULT:      -3.4     11.558     12.470
REMARK  3 active torsions:
REMARK  status: ('A' for Active; 'I' for Inactive)
REMARK    1  A    between atoms: C4_4  and  O11_11 
REMARK    2  A    between atoms: C8_8  and  C10_10 
REMARK    3  A    between atoms: C10_10  and  O11_11 
ROOT
HETATM    1  C1  UNL     1     -34.385  19.156  -0.494  1.00 20.00    -0.030 C 
HETATM    2  C2  UNL     1     -33.240  18.469  -0.402  1.00 20.00    -0.030 C 
HETATM    3  C5  UNL     1     -35.291  19.081  -1.684  1.00 20.00     0.031 C 
HETATM    4  C6  UNL     1     -32.761  17.531  -1.467  1.00 20.00     0.034 C 
HETATM    5  C7  UNL     1     -34.635  18.427  -2.920  1.00 20.00    -0.009 C 
HETATM    6  C8  UNL     1     -33.847  17.163  -2.500  1.00 20.00     0.017 C 
HETATM    7  C9  UNL     1     -35.705  18.150  -3.978  1.00 20.00     0.011 C 
ENDROOT
BRANCH   6   8
HETATM    8  C10 UNL     1     -33.202  16.435  -3.681  1.00 20.00     0.179 C 
BRANCH   8   9
HETATM    9  O11 UNL     1     -33.652  15.095  -3.680  1.00 20.00    -0.363 OA
BRANCH   9  10
HETATM   10  C4  UNL     1     -34.367  14.733  -4.741  1.00 20.00     0.124 C 
HETATM   11  C3  UNL     1     -34.074  15.048  -6.005  1.00 20.00     0.037 C 
ENDBRANCH   9  10
ENDBRANCH   8   9
ENDBRANCH   6   8
TORSDOF 3
ENDMDL
