MODEL 1
REMARK VINA RESULT:      -4.2      0.000      0.000
REMARK  2 active torsions:
REMARK  status: ('A' for Active; 'I' for Inactive)
REMARK    1  A    between atoms: C3_3  and  O11_11 
REMARK    2  A    between atoms: C9_9  and  O11_11 
ROOT
HETATM    1  C1  UNL     1     -34.297   7.088   6.435  1.00 20.00     0.069 C 
HETATM    2  C2  UNL     1     -34.668   5.587   6.312  1.00 20.00     0.173 C 
HETATM    3  C3  UNL     1     -33.688   7.001   5.019  1.00 20.00     0.135 C 
HETATM    4  C4  UNL     1     -34.620   5.766   4.751  1.00 20.00     0.008 C 
HETATM    5  C5  UNL     1     -36.023   5.995   4.167  1.00 20.00     0.020 C 
HETATM    6  C6  UNL     1     -33.909   4.643   3.991  1.00 20.00     0.020 C 
HETATM    7  O10 UNL     1     -33.716   4.671   6.889  1.00 20.00    -0.234 OA
ENDROOT
BRANCH   3   8
HETATM    8  O11 UNL     1     -33.951   8.128   4.230  1.00 20.00    -0.380 OA
BRANCH   8   9
HETATM    9  C9  UNL     1     -32.753   8.658   3.698  1.00 20.00     0.114 C 
HETATM   10  C7  UNL     1     -31.889   9.180   4.836  1.00 20.00     0.039 C 
HETATM   11  C8  UNL     1     -32.042   7.580   2.895  1.00 20.00     0.039 C 
ENDBRANCH   8   9
ENDBRANCH   3   8
TORSDOF 2
ENDMDL
MODEL 2
REMARK VINA RESULT:      -3.9     12.536     14.447
REMARK  2 active torsions:
REMARK  status: ('A' for Active; 'I' for Inactive)
REMARK    1  A    between atoms: C3_3  and  O11_11 
REMARK    2  A    between atoms: C9_9  and  O11_11 
ROOT
HETATM    1  C1  UNL     1     -36.433  15.891  -5.748  1.00 20.00     0.069 C 
HETATM    2  C2  UNL     1     -36.231  15.723  -7.277  1.00 20.00     0.173 C 
HETATM    3  C3  UNL     1     -34.898  15.850  -5.594  1.00 20.00     0.135 C 
HETATM    4  C4  UNL     1     -34.786  16.312  -7.090  1.00 20.00     0.008 C 
HETATM    5  C5  UNL     1     -34.744  17.815  -7.413  1.00 20.00     0.020 C 
HETATM    6  C6  UNL     1     -33.682  15.578  -7.854  1.00 20.00     0.020 C 
HETATM    7  O10 UNL     1     -36.321  14.368  -7.762  1.00 20.00    -0.234 OA
ENDROOT
BRANCH   3   8
HETATM    8  O11 UNL     1     -34.409  16.764  -4.650  1.00 20.00    -0.380 OA
BRANCH   8   9
HETATM    9  C9  UNL     1     -33.334  16.205  -3.921  1.00 20.00     0.114 C 
HETATM   10  C7  UNL     1     -33.475  16.582  -2.454  1.00 20.00     0.039 C 
HETATM   11  C8  UNL     1     -33.325  14.697  -4.121  1.00 20.00     0.039 C 
ENDBRANCH   8   9
ENDBRANCH   3   8
TORSDOF 2
ENDMDL
MODEL 3
REMARK VINA RESULT:      -3.7      9.080      9.997
REMARK  2 active torsions:
REMARK  status: ('A' for Active; 'I' for Inactive)
REMARK    1  A    between atoms: C3_3  and  O11_11 
REMARK    2  A    between atoms: C9_9  and  O11_11 
ROOT
HETATM    1  C1  UNL     1     -40.549  14.309   7.242  1.00 20.00     0.069 C 
HETATM    2  C2  UNL     1     -41.938  14.181   7.920  1.00 20.00     0.173 C 
HETATM    3  C3  UNL     1     -40.824  12.962   6.540  1.00 20.00     0.135 C 
HETATM    4  C4  UNL     1     -42.357  13.230   6.740  1.00 20.00     0.008 C 
HETATM    5  C5  UNL     1     -43.137  13.990   5.655  1.00 20.00     0.020 C 
HETATM    6  C6  UNL     1     -43.127  11.976   7.161  1.00 20.00     0.020 C 
HETATM    7  O10 UNL     1     -41.924  13.605   9.242  1.00 20.00    -0.234 OA
ENDROOT
BRANCH   3   8
HETATM    8  O11 UNL     1     -40.393  12.932   5.207  1.00 20.00    -0.380 OA
BRANCH   8   9
HETATM    9  C9  UNL     1     -39.486  11.868   4.999  1.00 20.00     0.114 C 
HETATM   10  C7  UNL     1     -39.118  11.806   3.523  1.00 20.00     0.039 C 
HETATM   11  C8  UNL     1     -38.262  12.073   5.879  1.00 20.00     0.039 C 
ENDBRANCH   8   9
ENDBRANCH   3   8
TORSDOF 2
ENDMDL
MODEL 4
REMARK VINA RESULT:      -3.6      9.500     10.657
REMARK  2 active torsions:
REMARK  status: ('A' for Active; 'I' for Inactive)
REMARK    1  A    between atoms: C3_3  and  O11_11 
REMARK    2  A    between atoms: C9_9  and  O11_11 
ROOT
HETATM    1  C1  UNL     1     -39.665  12.427   6.596  1.00 20.00     0.069 C 
HETATM    2  C2  UNL     1     -40.661  12.284   5.416  1.00 20.00     0.173 C 
HETATM    3  C3  UNL     1     -40.446  13.684   7.036  1.00 20.00     0.135 C 
HETATM    4  C4  UNL     1     -41.690  13.118   6.263  1.00 20.00     0.008 C 
HETATM    5  C5  UNL     1     -42.683  12.205   7.000  1.00 20.00     0.020 C 
HETATM    6  C6  UNL     1     -42.444  14.199   5.485  1.00 20.00     0.020 C 
HETATM    7  O10 UNL     1     -40.224  12.866   4.171  1.00 20.00    -0.234 OA
ENDROOT
BRANCH   3   8
HETATM    8  O11 UNL     1     -40.603  13.784   8.425  1.00 20.00    -0.380 OA
BRANCH   8   9
HETATM    9  C9  UNL     1     -40.100  15.017   8.898  1.00 20.00     0.114 C 
HETATM   10  C7  UNL     1     -40.565  16.135   7.975  1.00 20.00     0.039 C 
HETATM   11  C8  UNL     1     -40.566  15.234  10.330  1.00 20.00     0.039 C 
ENDBRANCH   8   9
ENDBRANCH   3   8
TORSDOF 2
ENDMDL
MODEL 5
REMARK VINA RESULT:      -3.5     12.609     14.051
REMARK  2 active torsions:
REMARK  status: ('A' for Active; 'I' for Inactive)
REMARK    1  A    between atoms: C3_3  and  O11_11 
REMARK    2  A    between atoms: C9_9  and  O11_11 
ROOT
HETATM    1  C1  UNL     1     -34.142  14.783  -4.843  1.00 20.00     0.069 C 
HETATM    2  C2  UNL     1     -34.646  15.101  -6.275  1.00 20.00     0.173 C 
HETATM    3  C3  UNL     1     -33.922  16.297  -4.640  1.00 20.00     0.135 C 
HETATM    4  C4  UNL     1     -34.982  16.550  -5.769  1.00 20.00     0.008 C 
HETATM    5  C5  UNL     1     -36.466  16.685  -5.392  1.00 20.00     0.020 C 
HETATM    6  C6  UNL     1     -34.575  17.679  -6.719  1.00 20.00     0.020 C 
HETATM    7  O10 UNL     1     -33.651  14.991  -7.313  1.00 20.00    -0.234 OA
ENDROOT
BRANCH   3   8
HETATM    8  O11 UNL     1     -34.290  16.747  -3.365  1.00 20.00    -0.380 OA
BRANCH   8   9
HETATM    9  C9  UNL     1     -33.217  17.427  -2.744  1.00 20.00     0.114 C 
HETATM   10  C7  UNL     1     -33.055  18.797  -3.386  1.00 20.00     0.039 C 
HETATM   11  C8  UNL     1     -33.484  17.528  -1.250  1.00 20.00     0.039 C 
ENDBRANCH   8   9
ENDBRANCH   3   8
TORSDOF 2
ENDMDL
MODEL 6
REMARK VINA RESULT:      -3.5     12.311     13.909
REMARK  2 active torsions:
REMARK  status: ('A' for Active; 'I' for Inactive)
REMARK    1  A    between atoms: C3_3  and  O11_11 
REMARK    2  A    between atoms: C9_9  and  O11_11 
ROOT
HETATM    1  C1  UNL     1     -36.582  15.807  -5.769  1.00 20.00     0.069 C 
HETATM    2  C2  UNL     1     -35.915  14.410  -5.669  1.00 20.00     0.173 C 
HETATM    3  C3  UNL     1     -35.352  16.389  -5.042  1.00 20.00     0.135 C 
HETATM    4  C4  UNL     1     -34.533  15.147  -5.541  1.00 20.00     0.008 C 
HETATM    5  C5  UNL     1     -33.806  15.218  -6.894  1.00 20.00     0.020 C 
HETATM    6  C6  UNL     1     -33.596  14.586  -4.468  1.00 20.00     0.020 C 
HETATM    7  O10 UNL     1     -36.331  13.612  -4.542  1.00 20.00    -0.234 OA
ENDROOT
BRANCH   3   8
HETATM    8  O11 UNL     1     -34.934  17.624  -5.557  1.00 20.00    -0.380 OA
BRANCH   8   9
HETATM    9  C9  UNL     1     -34.695  18.547  -4.513  1.00 20.00     0.114 C 
HETATM   10  C7  UNL     1     -35.833  18.470  -3.506  1.00 20.00     0.039 C 
HETATM   11  C8  UNL     1     -33.350  18.240  -3.871  1.00 20.00     0.039 C 
ENDBRANCH   8   9
ENDBRANCH   3   8
TORSDOF 2
ENDMDL
MODEL 7
REMARK VINA RESULT:      -3.4      9.520     10.601
REMARK  2 active torsions:
REMARK  status: ('A' for Active; 'I' for Inactive)
REMARK    1  A    between atoms: C3_3  and  O11_11 
REMARK    2  A    between atoms: C9_9  and  O11_11 
ROOT
HETATM    1  C1  UNL     1     -42.434  14.386   4.888  1.00 20.00     0.069 C 
HETATM    2  C2  UNL     1     -43.089  14.777   6.239  1.00 20.00     0.173 C 
HETATM    3  C3  UNL     1     -41.279  13.750   5.691  1.00 20.00     0.135 C 
HETATM    4  C4  UNL     1     -42.266  13.615   6.904  1.00 20.00     0.008 C 
HETATM    5  C5  UNL     1     -43.110  12.339   7.050  1.00 20.00     0.020 C 
HETATM    6  C6  UNL     1     -41.609  13.968   8.241  1.00 20.00     0.020 C 
HETATM    7  O10 UNL     1     -42.803  16.116   6.693  1.00 20.00    -0.234 OA
ENDROOT
BRANCH   3   8
HETATM    8  O11 UNL     1     -40.829  12.538   5.151  1.00 20.00    -0.380 OA
BRANCH   8   9
HETATM    9  C9  UNL     1     -39.416  12.495   5.127  1.00 20.00     0.114 C 
HETATM   10  C7  UNL     1     -38.908  11.988   6.469  1.00 20.00     0.039 C 
HETATM   11  C8  UNL     1     -38.960  11.610   3.977  1.00 20.00     0.039 C 
ENDBRANCH   8   9
ENDBRANCH   3   8
TORSDOF 2
ENDMDL
MODEL 8
REMARK VINA RESULT:      -3.3     12.840     14.372
REMARK  2 active torsions:
REMARK  status: ('A' for Active; 'I' for Inactive)
REMARK    1  A    between atoms: C3_3  and  O11_11 
REMARK    2  A    between atoms: C9_9  and  O11_11 
ROOT
HETATM    1  C1  UNL     1     -36.315  17.364  -4.975  1.00 20.00     0.069 C 
HETATM    2  C2  UNL     1     -36.389  16.347  -6.144  1.00 20.00     0.173 C 
HETATM    3  C3  UNL     1     -34.843  16.946  -4.772  1.00 20.00     0.135 C 
HETATM    4  C4  UNL     1     -34.827  16.469  -6.267  1.00 20.00     0.008 C 
HETATM    5  C5  UNL     1     -34.425  17.461  -7.371  1.00 20.00     0.020 C 
HETATM    6  C6  UNL     1     -34.086  15.143  -6.456  1.00 20.00     0.020 C 
HETATM    7  O10 UNL     1     -36.912  15.049  -5.794  1.00 20.00    -0.234 OA
ENDROOT
BRANCH   3   8
HETATM    8  O11 UNL     1     -33.994  18.023  -4.481  1.00 20.00    -0.380 OA
BRANCH   8   9
HETATM    9  C9  UNL     1     -33.320  17.812  -3.257  1.00 20.00     0.114 C 
HETATM   10  C7  UNL     1     -34.002  18.622  -2.164  1.00 20.00     0.039 C 
HETATM   11  C8  UNL     1     -33.313  16.324  -2.938  1.00 20.00     0.039 C 
ENDBRANCH   8   9
ENDBRANCH   3   8
TORSDOF 2
ENDMDL
MODEL 9
REMARK VINA RESULT:      -3.3     12.616     14.017
REMARK  2 active torsions:
REMARK  status: ('A' for Active; 'I' for Inactive)
REMARK    1  A    between atoms: C3_3  and  O11_11 
REMARK    2  A    between atoms: C9_9  and  O11_11 
ROOT
HETATM    1  C1  UNL     1     -33.168  15.964  -3.764  1.00 20.00     0.069 C 
HETATM    2  C2  UNL     1     -33.206  17.138  -2.751  1.00 20.00     0.173 C 
HETATM    3  C3  UNL     1     -34.528  16.453  -4.304  1.00 20.00     0.135 C 
HETATM    4  C4  UNL     1     -34.184  17.875  -3.736  1.00 20.00     0.008 C 
HETATM    5  C5  UNL     1     -33.435  18.881  -4.626  1.00 20.00     0.020 C 
HETATM    6  C6  UNL     1     -35.386  18.553  -3.072  1.00 20.00     0.020 C 
HETATM    7  O10 UNL     1     -33.728  16.806  -1.448  1.00 20.00    -0.234 OA
ENDROOT
BRANCH   3   8
HETATM    8  O11 UNL     1     -34.632  16.378  -5.700  1.00 20.00    -0.380 OA
BRANCH   8   9
HETATM    9  C9  UNL     1     -35.832  15.733  -6.078  1.00 20.00     0.114 C 
HETATM   10  C7  UNL     1     -35.926  14.392  -5.366  1.00 20.00     0.039 C 
HETATM   11  C8  UNL     1     -37.012  16.635  -5.747  1.00 20.00     0.039 C 
ENDBRANCH   8   9
ENDBRANCH   3   8
TORSDOF 2
ENDMDL
