MODEL 1
REMARK VINA RESULT:      -4.8      0.000      0.000
REMARK  3 active torsions:
REMARK  status: ('A' for Active; 'I' for Inactive)
REMARK    1  A    between atoms: C2_2  and  O6_6 
REMARK    2  A    between atoms: C4_4  and  C5_5 
REMARK    3  A    between atoms: C4_4  and  O6_6 
ROOT
HETATM    1  C3  UNL     1     -33.653   7.199   6.310  1.00 20.00     0.049 C 
HETATM    2  C4  UNL     1     -34.129   6.912   4.919  1.00 20.00     0.231 C 
ENDROOT
BRANCH   2   3
HETATM    3  C5  UNL     1     -34.919   5.623   4.840  1.00 20.00     0.413 C 
HETATM    4  F7  UNL     1     -35.158   5.129   6.075  1.00 20.00    -0.168 F 
HETATM    5  F8  UNL     1     -36.117   5.820   4.246  1.00 20.00    -0.168 F 
HETATM    6  F9  UNL     1     -34.261   4.675   4.139  1.00 20.00    -0.168 F 
ENDBRANCH   2   3
BRANCH   2   7
HETATM    7  O6  UNL     1     -33.008   6.797   4.045  1.00 20.00    -0.350 OA
BRANCH   7   8
HETATM    8  C2  UNL     1     -32.302   7.908   3.896  1.00 20.00     0.125 C 
HETATM    9  C1  UNL     1     -32.592   8.890   3.040  1.00 20.00     0.037 C 
ENDBRANCH   7   8
ENDBRANCH   2   7
TORSDOF 3
ENDMDL
MODEL 2
REMARK VINA RESULT:      -4.8      0.038      1.251
REMARK  3 active torsions:
REMARK  status: ('A' for Active; 'I' for Inactive)
REMARK    1  A    between atoms: C2_2  and  O6_6 
REMARK    2  A    between atoms: C4_4  and  C5_5 
REMARK    3  A    between atoms: C4_4  and  O6_6 
ROOT
HETATM    1  C3  UNL     1     -33.676   7.226   6.302  1.00 20.00     0.049 C 
HETATM    2  C4  UNL     1     -34.135   6.918   4.909  1.00 20.00     0.231 C 
ENDROOT
BRANCH   2   3
HETATM    3  C5  UNL     1     -34.920   5.625   4.839  1.00 20.00     0.413 C 
HETATM    4  F7  UNL     1     -36.124   5.825   4.259  1.00 20.00    -0.168 F 
HETATM    5  F8  UNL     1     -34.268   4.698   4.103  1.00 20.00    -0.168 F 
HETATM    6  F9  UNL     1     -35.136   5.104   6.065  1.00 20.00    -0.168 F 
ENDBRANCH   2   3
BRANCH   2   7
HETATM    7  O6  UNL     1     -33.004   6.796   4.050  1.00 20.00    -0.350 OA
BRANCH   7   8
HETATM    8  C2  UNL     1     -32.279   7.897   3.923  1.00 20.00     0.125 C 
HETATM    9  C1  UNL     1     -32.573   8.918   3.115  1.00 20.00     0.037 C 
ENDBRANCH   7   8
ENDBRANCH   2   7
TORSDOF 3
ENDMDL
MODEL 3
REMARK VINA RESULT:      -4.8      0.049      1.271
REMARK  3 active torsions:
REMARK  status: ('A' for Active; 'I' for Inactive)
REMARK    1  A    between atoms: C2_2  and  O6_6 
REMARK    2  A    between atoms: C4_4  and  C5_5 
REMARK    3  A    between atoms: C4_4  and  O6_6 
ROOT
HETATM    1  C3  UNL     1     -33.681   7.232   6.318  1.00 20.00     0.049 C 
HETATM    2  C4  UNL     1     -34.131   6.928   4.921  1.00 20.00     0.231 C 
ENDROOT
BRANCH   2   3
HETATM    3  C5  UNL     1     -34.918   5.636   4.842  1.00 20.00     0.413 C 
HETATM    4  F7  UNL     1     -34.255   4.715   4.109  1.00 20.00    -0.168 F 
HETATM    5  F8  UNL     1     -35.114   5.109   6.070  1.00 20.00    -0.168 F 
HETATM    6  F9  UNL     1     -36.128   5.822   4.273  1.00 20.00    -0.168 F 
ENDBRANCH   2   3
BRANCH   2   7
HETATM    7  O6  UNL     1     -32.995   6.807   4.069  1.00 20.00    -0.350 OA
BRANCH   7   8
HETATM    8  C2  UNL     1     -32.275   7.912   3.938  1.00 20.00     0.125 C 
HETATM    9  C1  UNL     1     -32.579   8.931   3.132  1.00 20.00     0.037 C 
ENDBRANCH   7   8
ENDBRANCH   2   7
TORSDOF 3
ENDMDL
MODEL 4
REMARK VINA RESULT:      -4.7      1.608      2.201
REMARK  3 active torsions:
REMARK  status: ('A' for Active; 'I' for Inactive)
REMARK    1  A    between atoms: C2_2  and  O6_6 
REMARK    2  A    between atoms: C4_4  and  C5_5 
REMARK    3  A    between atoms: C4_4  and  O6_6 
ROOT
HETATM    1  C3  UNL     1     -35.483   5.978   4.246  1.00 20.00     0.049 C 
HETATM    2  C4  UNL     1     -34.206   6.397   4.909  1.00 20.00     0.231 C 
ENDROOT
BRANCH   2   3
HETATM    3  C5  UNL     1     -34.257   6.219   6.412  1.00 20.00     0.413 C 
HETATM    4  F7  UNL     1     -33.055   5.828   6.890  1.00 20.00    -0.168 F 
HETATM    5  F8  UNL     1     -34.579   7.377   7.029  1.00 20.00    -0.168 F 
HETATM    6  F9  UNL     1     -35.166   5.289   6.774  1.00 20.00    -0.168 F 
ENDBRANCH   2   3
BRANCH   2   7
HETATM    7  O6  UNL     1     -33.956   7.774   4.635  1.00 20.00    -0.350 OA
BRANCH   7   8
HETATM    8  C2  UNL     1     -32.728   8.046   4.221  1.00 20.00     0.125 C 
HETATM    9  C1  UNL     1     -32.134   7.484   3.166  1.00 20.00     0.037 C 
ENDBRANCH   7   8
ENDBRANCH   2   7
TORSDOF 3
ENDMDL
MODEL 5
REMARK VINA RESULT:      -4.5      1.265      2.039
REMARK  3 active torsions:
REMARK  status: ('A' for Active; 'I' for Inactive)
REMARK    1  A    between atoms: C2_2  and  O6_6 
REMARK    2  A    between atoms: C4_4  and  C5_5 
REMARK    3  A    between atoms: C4_4  and  O6_6 
ROOT
HETATM    1  C3  UNL     1     -33.048   5.884   2.938  1.00 20.00     0.049 C 
HETATM    2  C4  UNL     1     -33.502   6.217   4.327  1.00 20.00     0.231 C 
ENDROOT
BRANCH   2   3
HETATM    3  C5  UNL     1     -34.575   5.268   4.820  1.00 20.00     0.413 C 
HETATM    4  F7  UNL     1     -34.353   4.015   4.366  1.00 20.00    -0.168 F 
HETATM    5  F8  UNL     1     -34.591   5.210   6.170  1.00 20.00    -0.168 F 
HETATM    6  F9  UNL     1     -35.803   5.644   4.406  1.00 20.00    -0.168 F 
ENDBRANCH   2   3
BRANCH   2   7
HETATM    7  O6  UNL     1     -34.037   7.538   4.351  1.00 20.00    -0.350 OA
BRANCH   7   8
HETATM    8  C2  UNL     1     -33.369   8.396   5.108  1.00 20.00     0.125 C 
HETATM    9  C1  UNL     1     -32.170   8.902   4.815  1.00 20.00     0.037 C 
ENDBRANCH   7   8
ENDBRANCH   2   7
TORSDOF 3
ENDMDL
MODEL 6
REMARK VINA RESULT:      -4.5      2.496      3.665
REMARK  3 active torsions:
REMARK  status: ('A' for Active; 'I' for Inactive)
REMARK    1  A    between atoms: C2_2  and  O6_6 
REMARK    2  A    between atoms: C4_4  and  C5_5 
REMARK    3  A    between atoms: C4_4  and  O6_6 
ROOT
HETATM    1  C3  UNL     1     -33.601   8.568   5.546  1.00 20.00     0.049 C 
HETATM    2  C4  UNL     1     -33.287   7.318   4.781  1.00 20.00     0.231 C 
ENDROOT
BRANCH   2   3
HETATM    3  C5  UNL     1     -32.428   7.593   3.565  1.00 20.00     0.413 C 
HETATM    4  F7  UNL     1     -31.134   7.756   3.918  1.00 20.00    -0.168 F 
HETATM    5  F8  UNL     1     -32.481   6.567   2.688  1.00 20.00    -0.168 F 
HETATM    6  F9  UNL     1     -32.821   8.711   2.918  1.00 20.00    -0.168 F 
ENDBRANCH   2   3
BRANCH   2   7
HETATM    7  O6  UNL     1     -34.500   6.713   4.338  1.00 20.00    -0.350 OA
BRANCH   7   8
HETATM    8  C2  UNL     1     -34.801   5.568   4.931  1.00 20.00     0.125 C 
HETATM    9  C1  UNL     1     -34.539   5.275   6.207  1.00 20.00     0.037 C 
ENDBRANCH   7   8
ENDBRANCH   2   7
TORSDOF 3
ENDMDL
MODEL 7
REMARK VINA RESULT:      -4.4      1.964      2.487
REMARK  3 active torsions:
REMARK  status: ('A' for Active; 'I' for Inactive)
REMARK    1  A    between atoms: C2_2  and  O6_6 
REMARK    2  A    between atoms: C4_4  and  C5_5 
REMARK    3  A    between atoms: C4_4  and  O6_6 
ROOT
HETATM    1  C3  UNL     1     -33.564   7.903   4.566  1.00 20.00     0.049 C 
HETATM    2  C4  UNL     1     -34.434   6.751   4.967  1.00 20.00     0.231 C 
ENDROOT
BRANCH   2   3
HETATM    3  C5  UNL     1     -34.148   6.284   6.380  1.00 20.00     0.413 C 
HETATM    4  F7  UNL     1     -32.965   6.770   6.816  1.00 20.00    -0.168 F 
HETATM    5  F8  UNL     1     -35.101   6.712   7.237  1.00 20.00    -0.168 F 
HETATM    6  F9  UNL     1     -34.093   4.937   6.459  1.00 20.00    -0.168 F 
ENDBRANCH   2   3
BRANCH   2   7
HETATM    7  O6  UNL     1     -34.209   5.653   4.085  1.00 20.00    -0.350 OA
BRANCH   7   8
HETATM    8  C2  UNL     1     -33.142   5.772   3.309  1.00 20.00     0.125 C 
HETATM    9  C1  UNL     1     -32.859   4.982   2.271  1.00 20.00     0.037 C 
ENDBRANCH   7   8
ENDBRANCH   2   7
TORSDOF 3
ENDMDL
MODEL 8
REMARK VINA RESULT:      -4.4      2.746      3.203
REMARK  3 active torsions:
REMARK  status: ('A' for Active; 'I' for Inactive)
REMARK    1  A    between atoms: C2_2  and  O6_6 
REMARK    2  A    between atoms: C4_4  and  C5_5 
REMARK    3  A    between atoms: C4_4  and  O6_6 
ROOT
HETATM    1  C3  UNL     1     -34.404   6.582   6.590  1.00 20.00     0.049 C 
HETATM    2  C4  UNL     1     -33.625   6.728   5.318  1.00 20.00     0.231 C 
ENDROOT
BRANCH   2   3
HETATM    3  C5  UNL     1     -33.334   8.178   4.990  1.00 20.00     0.413 C 
HETATM    4  F7  UNL     1     -33.695   8.465   3.720  1.00 20.00    -0.168 F 
HETATM    5  F8  UNL     1     -34.023   9.009   5.802  1.00 20.00    -0.168 F 
HETATM    6  F9  UNL     1     -32.021   8.466   5.119  1.00 20.00    -0.168 F 
ENDBRANCH   2   3
BRANCH   2   7
HETATM    7  O6  UNL     1     -34.367   6.171   4.236  1.00 20.00    -0.350 OA
BRANCH   7   8
HETATM    8  C2  UNL     1     -33.785   5.147   3.629  1.00 20.00     0.125 C 
HETATM    9  C1  UNL     1     -32.891   5.250   2.644  1.00 20.00     0.037 C 
ENDBRANCH   7   8
ENDBRANCH   2   7
TORSDOF 3
ENDMDL
MODEL 9
REMARK VINA RESULT:      -4.4      3.046      4.087
REMARK  3 active torsions:
REMARK  status: ('A' for Active; 'I' for Inactive)
REMARK    1  A    between atoms: C2_2  and  O6_6 
REMARK    2  A    between atoms: C4_4  and  C5_5 
REMARK    3  A    between atoms: C4_4  and  O6_6 
ROOT
HETATM    1  C3  UNL     1     -33.245   6.238   3.531  1.00 20.00     0.049 C 
HETATM    2  C4  UNL     1     -33.389   7.451   4.399  1.00 20.00     0.231 C 
ENDROOT
BRANCH   2   3
HETATM    3  C5  UNL     1     -32.353   8.508   4.079  1.00 20.00     0.413 C 
HETATM    4  F7  UNL     1     -32.677   9.173   2.949  1.00 20.00    -0.168 F 
HETATM    5  F8  UNL     1     -32.264   9.420   5.072  1.00 20.00    -0.168 F 
HETATM    6  F9  UNL     1     -31.128   7.969   3.901  1.00 20.00    -0.168 F 
ENDBRANCH   2   3
BRANCH   2   7
HETATM    7  O6  UNL     1     -33.236   7.081   5.767  1.00 20.00    -0.350 OA
BRANCH   7   8
HETATM    8  C2  UNL     1     -34.340   6.643   6.353  1.00 20.00     0.125 C 
HETATM    9  C1  UNL     1     -34.698   5.361   6.450  1.00 20.00     0.037 C 
ENDBRANCH   7   8
ENDBRANCH   2   7
TORSDOF 3
ENDMDL
