MODEL 1
REMARK VINA RESULT:      -3.7      0.000      0.000
REMARK  1 active torsions:
REMARK  status: ('A' for Active; 'I' for Inactive)
REMARK    1  A    between atoms: C2_2  and  O8_8 
ROOT
HETATM    1  C1  UNL     1     -24.947  18.891   9.832  1.00 20.00     0.049 C 
HETATM    2  C2  UNL     1     -23.520  18.294   9.870  1.00 20.00     0.131 C 
HETATM    3  C3  UNL     1     -24.876  19.034  11.369  1.00 20.00     0.070 C 
HETATM    4  C4  UNL     1     -23.785  17.907  11.366  1.00 20.00    -0.008 C 
HETATM    5  C5  UNL     1     -24.248  16.451  11.503  1.00 20.00     0.018 C 
HETATM    6  C6  UNL     1     -22.636  18.193  12.332  1.00 20.00     0.018 C 
HETATM    7 BR9  UNL     1     -26.523  18.717  12.327  1.00 20.00    -0.090 Br
ENDROOT
BRANCH   2   8
HETATM    8  O8  UNL     1     -22.454  19.233   9.622  1.00 20.00    -0.390 OA
HETATM    9  C7  UNL     1     -21.468  18.662   8.784  1.00 20.00     0.202 C 
ENDBRANCH   2   8
TORSDOF 1
ENDMDL
MODEL 2
REMARK VINA RESULT:      -3.5      2.666      3.729
REMARK  1 active torsions:
REMARK  status: ('A' for Active; 'I' for Inactive)
REMARK    1  A    between atoms: C2_2  and  O8_8 
ROOT
HETATM    1  C1  UNL     1     -25.119  19.184  10.610  1.00 20.00     0.049 C 
HETATM    2  C2  UNL     1     -25.315  18.500  11.984  1.00 20.00     0.131 C 
HETATM    3  C3  UNL     1     -24.350  17.927  10.147  1.00 20.00     0.070 C 
HETATM    4  C4  UNL     1     -24.061  17.617  11.657  1.00 20.00    -0.008 C 
HETATM    5  C5  UNL     1     -22.783  18.191  12.282  1.00 20.00     0.018 C 
HETATM    6  C6  UNL     1     -24.197  16.132  11.994  1.00 20.00     0.018 C 
HETATM    7 BR9  UNL     1     -22.852  18.234   8.968  1.00 20.00    -0.090 Br
ENDROOT
BRANCH   2   8
HETATM    8  O8  UNL     1     -26.569  17.808  12.152  1.00 20.00    -0.390 OA
HETATM    9  C7  UNL     1     -27.628  18.728  12.331  1.00 20.00     0.202 C 
ENDBRANCH   2   8
TORSDOF 1
ENDMDL
MODEL 3
REMARK VINA RESULT:      -3.2     15.514     16.752
REMARK  1 active torsions:
REMARK  status: ('A' for Active; 'I' for Inactive)
REMARK    1  A    between atoms: C2_2  and  O8_8 
ROOT
HETATM    1  C1  UNL     1     -33.292  17.011  -1.778  1.00 20.00     0.049 C 
HETATM    2  C2  UNL     1     -33.261  18.553  -1.901  1.00 20.00     0.131 C 
HETATM    3  C3  UNL     1     -33.085  16.932  -3.306  1.00 20.00     0.070 C 
HETATM    4  C4  UNL     1     -33.676  18.381  -3.404  1.00 20.00    -0.008 C 
HETATM    5  C5  UNL     1     -35.190  18.535  -3.597  1.00 20.00     0.018 C 
HETATM    6  C6  UNL     1     -32.921  19.263  -4.398  1.00 20.00     0.018 C 
HETATM    7 BR9  UNL     1     -34.010  15.500  -4.215  1.00 20.00    -0.090 Br
ENDROOT
BRANCH   2   8
HETATM    8  O8  UNL     1     -31.979  19.164  -1.648  1.00 20.00    -0.390 OA
HETATM    9  C7  UNL     1     -31.432  18.693  -0.432  1.00 20.00     0.202 C 
ENDBRANCH   2   8
TORSDOF 1
ENDMDL
MODEL 4
REMARK VINA RESULT:      -3.1     18.106     19.050
REMARK  1 active torsions:
REMARK  status: ('A' for Active; 'I' for Inactive)
REMARK    1  A    between atoms: C2_2  and  O8_8 
ROOT
HETATM    1  C1  UNL     1     -42.005  15.208   6.106  1.00 20.00     0.049 C 
HETATM    2  C2  UNL     1     -42.225  14.012   5.149  1.00 20.00     0.131 C 
HETATM    3  C3  UNL     1     -40.803  14.446   6.705  1.00 20.00     0.070 C 
HETATM    4  C4  UNL     1     -41.456  13.119   6.184  1.00 20.00    -0.008 C 
HETATM    5  C5  UNL     1     -42.418  12.371   7.115  1.00 20.00     0.018 C 
HETATM    6  C6  UNL     1     -40.435  12.152   5.586  1.00 20.00     0.018 C 
HETATM    7 BR9  UNL     1     -40.530  14.651   8.607  1.00 20.00    -0.090 Br
ENDROOT
BRANCH   2   8
HETATM    8  O8  UNL     1     -41.628  14.152   3.843  1.00 20.00    -0.390 OA
HETATM    9  C7  UNL     1     -42.328  15.109   3.073  1.00 20.00     0.202 C 
ENDBRANCH   2   8
TORSDOF 1
ENDMDL
MODEL 5
REMARK VINA RESULT:      -3.0     17.654     18.717
REMARK  1 active torsions:
REMARK  status: ('A' for Active; 'I' for Inactive)
REMARK    1  A    between atoms: C2_2  and  O8_8 
ROOT
HETATM    1  C1  UNL     1     -40.284  14.038   7.735  1.00 20.00     0.049 C 
HETATM    2  C2  UNL     1     -41.696  14.657   7.603  1.00 20.00     0.131 C 
HETATM    3  C3  UNL     1     -40.411  13.554   6.274  1.00 20.00     0.070 C 
HETATM    4  C4  UNL     1     -41.968  13.640   6.440  1.00 20.00    -0.008 C 
HETATM    5  C5  UNL     1     -42.713  12.394   6.938  1.00 20.00     0.018 C 
HETATM    6  C6  UNL     1     -42.664  14.220   5.209  1.00 20.00     0.018 C 
HETATM    7 BR9  UNL     1     -39.622  11.836   5.877  1.00 20.00    -0.090 Br
ENDROOT
BRANCH   2   8
HETATM    8  O8  UNL     1     -41.722  16.057   7.258  1.00 20.00    -0.390 OA
HETATM    9  C7  UNL     1     -40.782  16.780   8.028  1.00 20.00     0.202 C 
ENDBRANCH   2   8
TORSDOF 1
ENDMDL
MODEL 6
REMARK VINA RESULT:      -2.9     17.870     18.845
REMARK  1 active torsions:
REMARK  status: ('A' for Active; 'I' for Inactive)
REMARK    1  A    between atoms: C2_2  and  O8_8 
ROOT
HETATM    1  C1  UNL     1     -40.462  14.518   7.593  1.00 20.00     0.049 C 
HETATM    2  C2  UNL     1     -40.757  13.440   6.522  1.00 20.00     0.131 C 
HETATM    3  C3  UNL     1     -41.755  14.083   8.317  1.00 20.00     0.070 C 
HETATM    4  C4  UNL     1     -42.264  13.515   6.947  1.00 20.00    -0.008 C 
HETATM    5  C5  UNL     1     -43.068  14.447   6.030  1.00 20.00     0.018 C 
HETATM    6  C6  UNL     1     -42.974  12.169   7.090  1.00 20.00     0.018 C 
HETATM    7 BR9  UNL     1     -42.770  15.493   9.162  1.00 20.00    -0.090 Br
ENDROOT
BRANCH   2   8
HETATM    8  O8  UNL     1     -40.089  12.177   6.720  1.00 20.00    -0.390 OA
HETATM    9  C7  UNL     1     -39.444  11.760   5.534  1.00 20.00     0.202 C 
ENDBRANCH   2   8
TORSDOF 1
ENDMDL
MODEL 7
REMARK VINA RESULT:      -2.9     17.997     19.105
REMARK  1 active torsions:
REMARK  status: ('A' for Active; 'I' for Inactive)
REMARK    1  A    between atoms: C2_2  and  O8_8 
ROOT
HETATM    1  C1  UNL     1     -34.363  17.512  -4.669  1.00 20.00     0.049 C 
HETATM    2  C2  UNL     1     -33.608  16.232  -4.238  1.00 20.00     0.131 C 
HETATM    3  C3  UNL     1     -35.571  16.619  -5.032  1.00 20.00     0.070 C 
HETATM    4  C4  UNL     1     -34.570  15.421  -5.175  1.00 20.00    -0.008 C 
HETATM    5  C5  UNL     1     -33.941  15.162  -6.550  1.00 20.00     0.018 C 
HETATM    6  C6  UNL     1     -35.116  14.120  -4.586  1.00 20.00     0.018 C 
HETATM    7 BR9  UNL     1     -36.588  17.157  -6.583  1.00 20.00    -0.090 Br
ENDROOT
BRANCH   2   8
HETATM    8  O8  UNL     1     -33.666  15.928  -2.829  1.00 20.00    -0.390 OA
HETATM    9  C7  UNL     1     -33.327  17.064  -2.059  1.00 20.00     0.202 C 
ENDBRANCH   2   8
TORSDOF 1
ENDMDL
MODEL 8
REMARK VINA RESULT:      -2.8     16.807     17.878
REMARK  1 active torsions:
REMARK  status: ('A' for Active; 'I' for Inactive)
REMARK    1  A    between atoms: C2_2  and  O8_8 
ROOT
HETATM    1  C1  UNL     1     -33.266  16.353  -3.071  1.00 20.00     0.049 C 
HETATM    2  C2  UNL     1     -33.922  16.941  -4.344  1.00 20.00     0.131 C 
HETATM    3  C3  UNL     1     -33.967  17.462  -2.255  1.00 20.00     0.070 C 
HETATM    4  C4  UNL     1     -34.050  18.303  -3.576  1.00 20.00    -0.008 C 
HETATM    5  C5  UNL     1     -32.890  19.251  -3.904  1.00 20.00     0.018 C 
HETATM    6  C6  UNL     1     -35.388  19.024  -3.737  1.00 20.00     0.018 C 
HETATM    7 BR9  UNL     1     -32.967  18.182  -0.768  1.00 20.00    -0.090 Br
ENDROOT
BRANCH   2   8
HETATM    8  O8  UNL     1     -35.153  16.307  -4.749  1.00 20.00    -0.390 OA
HETATM    9  C7  UNL     1     -34.901  15.026  -5.291  1.00 20.00     0.202 C 
ENDBRANCH   2   8
TORSDOF 1
ENDMDL
MODEL 9
REMARK VINA RESULT:      -2.8     17.644     18.672
REMARK  1 active torsions:
REMARK  status: ('A' for Active; 'I' for Inactive)
REMARK    1  A    between atoms: C2_2  and  O8_8 
ROOT
HETATM    1  C1  UNL     1     -40.853  15.453   7.245  1.00 20.00     0.049 C 
HETATM    2  C2  UNL     1     -40.562  14.001   7.694  1.00 20.00     0.131 C 
HETATM    3  C3  UNL     1     -42.185  14.950   6.646  1.00 20.00     0.070 C 
HETATM    4  C4  UNL     1     -41.547  13.520   6.572  1.00 20.00    -0.008 C 
HETATM    5  C5  UNL     1     -40.799  13.125   5.292  1.00 20.00     0.018 C 
HETATM    6  C6  UNL     1     -42.519  12.414   6.982  1.00 20.00     0.018 C 
HETATM    7 BR9  UNL     1     -42.747  15.791   5.000  1.00 20.00    -0.090 Br
ENDROOT
BRANCH   2   8
HETATM    8  O8  UNL     1     -40.930  13.694   9.055  1.00 20.00    -0.390 OA
HETATM    9  C7  UNL     1     -40.450  14.687   9.939  1.00 20.00     0.202 C 
ENDBRANCH   2   8
TORSDOF 1
ENDMDL
