MODEL 1
REMARK VINA RESULT:      -3.9      0.000      0.000
REMARK  3 active torsions:
REMARK  status: ('A' for Active; 'I' for Inactive)
REMARK    1  A    between atoms: C4_4  and  C5_5 
REMARK    2  A    between atoms: C4_4  and  O7_7 
REMARK    3  A    between atoms: C5_5  and  C6_6 
ROOT
HETATM    1  C1  UNL     1     -34.076   7.292   6.576  1.00 20.00     0.014 C 
HETATM    2  C5  UNL     1     -33.779   6.750   5.192  1.00 20.00     0.023 C 
ENDROOT
BRANCH   2   3
HETATM    3  C4  UNL     1     -35.022   6.057   4.610  1.00 20.00     0.172 C 
BRANCH   3   4
HETATM    4  O7  UNL     1     -34.939   4.655   4.848  1.00 20.00    -0.396 OA
HETATM    5  C3  UNL     1     -33.786   4.093   4.238  1.00 20.00     0.201 C 
ENDBRANCH   3   4
ENDBRANCH   2   3
BRANCH   2   6
HETATM    6  C6  UNL     1     -33.224   7.821   4.220  1.00 20.00     0.084 C 
HETATM    7  C2  UNL     1     -32.355   7.241   3.108  1.00 20.00     0.027 C 
HETATM    8 CL8  UNL     1     -32.312   9.113   5.063  1.00 20.00    -0.125 Cl
ENDBRANCH   2   6
TORSDOF 3
ENDMDL
MODEL 2
REMARK VINA RESULT:      -3.9      2.539      3.553
REMARK  3 active torsions:
REMARK  status: ('A' for Active; 'I' for Inactive)
REMARK    1  A    between atoms: C4_4  and  C5_5 
REMARK    2  A    between atoms: C4_4  and  O7_7 
REMARK    3  A    between atoms: C5_5  and  C6_6 
ROOT
HETATM    1  C1  UNL     1     -33.667   7.325   6.245  1.00 20.00     0.014 C 
HETATM    2  C5  UNL     1     -33.801   7.300   4.737  1.00 20.00     0.023 C 
ENDROOT
BRANCH   2   3
HETATM    3  C4  UNL     1     -32.474   7.706   4.074  1.00 20.00     0.172 C 
BRANCH   3   4
HETATM    4  O7  UNL     1     -32.720   8.717   3.100  1.00 20.00    -0.396 OA
HETATM    5  C3  UNL     1     -32.259   8.323   1.816  1.00 20.00     0.201 C 
ENDBRANCH   3   4
ENDBRANCH   2   3
BRANCH   2   6
HETATM    6  C6  UNL     1     -34.313   5.944   4.188  1.00 20.00     0.084 C 
HETATM    7  C2  UNL     1     -34.603   4.918   5.279  1.00 20.00     0.027 C 
HETATM    8 CL8  UNL     1     -33.200   5.221   2.985  1.00 20.00    -0.125 Cl
ENDBRANCH   2   6
TORSDOF 3
ENDMDL
MODEL 3
REMARK VINA RESULT:      -3.8      2.184      2.526
REMARK  3 active torsions:
REMARK  status: ('A' for Active; 'I' for Inactive)
REMARK    1  A    between atoms: C4_4  and  C5_5 
REMARK    2  A    between atoms: C4_4  and  O7_7 
REMARK    3  A    between atoms: C5_5  and  C6_6 
ROOT
HETATM    1  C1  UNL     1     -32.395   9.102   4.708  1.00 20.00     0.014 C 
HETATM    2  C5  UNL     1     -32.603   7.614   4.519  1.00 20.00     0.023 C 
ENDROOT
BRANCH   2   3
HETATM    3  C4  UNL     1     -34.063   7.235   4.824  1.00 20.00     0.172 C 
BRANCH   3   4
HETATM    4  O7  UNL     1     -34.160   6.754   6.161  1.00 20.00    -0.396 OA
HETATM    5  C3  UNL     1     -34.599   5.404   6.195  1.00 20.00     0.201 C 
ENDBRANCH   3   4
ENDBRANCH   2   3
BRANCH   2   6
HETATM    6  C6  UNL     1     -32.169   7.105   3.122  1.00 20.00     0.084 C 
HETATM    7  C2  UNL     1     -32.412   8.114   2.005  1.00 20.00     0.027 C 
HETATM    8 CL8  UNL     1     -32.940   5.548   2.684  1.00 20.00    -0.125 Cl
ENDBRANCH   2   6
TORSDOF 3
ENDMDL
MODEL 4
REMARK VINA RESULT:      -3.6      2.811      4.076
REMARK  3 active torsions:
REMARK  status: ('A' for Active; 'I' for Inactive)
REMARK    1  A    between atoms: C4_4  and  C5_5 
REMARK    2  A    between atoms: C4_4  and  O7_7 
REMARK    3  A    between atoms: C5_5  and  C6_6 
ROOT
HETATM    1  C1  UNL     1     -32.945   5.500   2.676  1.00 20.00     0.014 C 
HETATM    2  C5  UNL     1     -32.820   6.570   3.741  1.00 20.00     0.023 C 
ENDROOT
BRANCH   2   3
HETATM    3  C4  UNL     1     -32.480   7.926   3.100  1.00 20.00     0.172 C 
BRANCH   3   4
HETATM    4  O7  UNL     1     -32.090   7.726   1.745  1.00 20.00    -0.396 OA
HETATM    5  C3  UNL     1     -32.462   8.827   0.929  1.00 20.00     0.201 C 
ENDBRANCH   3   4
ENDBRANCH   2   3
BRANCH   2   6
HETATM    6  C6  UNL     1     -34.066   6.675   4.655  1.00 20.00     0.084 C 
HETATM    7  C2  UNL     1     -33.762   7.250   6.035  1.00 20.00     0.027 C 
HETATM    8 CL8  UNL     1     -34.916   5.109   4.847  1.00 20.00    -0.125 Cl
ENDBRANCH   2   6
TORSDOF 3
ENDMDL
MODEL 5
REMARK VINA RESULT:      -3.6      2.260      3.346
REMARK  3 active torsions:
REMARK  status: ('A' for Active; 'I' for Inactive)
REMARK    1  A    between atoms: C4_4  and  C5_5 
REMARK    2  A    between atoms: C4_4  and  O7_7 
REMARK    3  A    between atoms: C5_5  and  C6_6 
ROOT
HETATM    1  C1  UNL     1     -34.359   6.133   6.378  1.00 20.00     0.014 C 
HETATM    2  C5  UNL     1     -34.630   6.440   4.919  1.00 20.00     0.023 C 
ENDROOT
BRANCH   2   3
HETATM    3  C4  UNL     1     -33.960   7.767   4.519  1.00 20.00     0.172 C 
BRANCH   3   4
HETATM    4  O7  UNL     1     -32.813   7.984   5.334  1.00 20.00    -0.396 OA
HETATM    5  C3  UNL     1     -32.045   9.083   4.867  1.00 20.00     0.201 C 
ENDBRANCH   3   4
ENDBRANCH   2   3
BRANCH   2   6
HETATM    6  C6  UNL     1     -34.221   5.292   3.963  1.00 20.00     0.084 C 
HETATM    7  C2  UNL     1     -33.800   4.017   4.689  1.00 20.00     0.027 C 
HETATM    8 CL8  UNL     1     -32.925   5.771   2.823  1.00 20.00    -0.125 Cl
ENDBRANCH   2   6
TORSDOF 3
ENDMDL
MODEL 6
REMARK VINA RESULT:      -3.5      2.638      3.635
REMARK  3 active torsions:
REMARK  status: ('A' for Active; 'I' for Inactive)
REMARK    1  A    between atoms: C4_4  and  C5_5 
REMARK    2  A    between atoms: C4_4  and  O7_7 
REMARK    3  A    between atoms: C5_5  and  C6_6 
ROOT
HETATM    1  C1  UNL     1     -32.691   8.357   5.093  1.00 20.00     0.014 C 
HETATM    2  C5  UNL     1     -33.577   7.451   4.262  1.00 20.00     0.023 C 
ENDROOT
BRANCH   2   3
HETATM    3  C4  UNL     1     -32.727   6.629   3.278  1.00 20.00     0.172 C 
BRANCH   3   4
HETATM    4  O7  UNL     1     -31.752   7.473   2.673  1.00 20.00    -0.396 OA
HETATM    5  C3  UNL     1     -32.219   8.009   1.445  1.00 20.00     0.201 C 
ENDBRANCH   3   4
ENDBRANCH   2   3
BRANCH   2   6
HETATM    6  C6  UNL     1     -34.493   6.538   5.115  1.00 20.00     0.084 C 
HETATM    7  C2  UNL     1     -34.230   6.643   6.614  1.00 20.00     0.027 C 
HETATM    8 CL8  UNL     1     -34.404   4.818   4.623  1.00 20.00    -0.125 Cl
ENDBRANCH   2   6
TORSDOF 3
ENDMDL
MODEL 7
REMARK VINA RESULT:      -3.4      2.336      3.342
REMARK  3 active torsions:
REMARK  status: ('A' for Active; 'I' for Inactive)
REMARK    1  A    between atoms: C4_4  and  C5_5 
REMARK    2  A    between atoms: C4_4  and  O7_7 
REMARK    3  A    between atoms: C5_5  and  C6_6 
ROOT
HETATM    1  C1  UNL     1     -33.751   8.610   5.874  1.00 20.00     0.014 C 
HETATM    2  C5  UNL     1     -33.691   7.757   4.624  1.00 20.00     0.023 C 
ENDROOT
BRANCH   2   3
HETATM    3  C4  UNL     1     -32.294   7.841   3.985  1.00 20.00     0.172 C 
BRANCH   3   4
HETATM    4  O7  UNL     1     -32.290   7.121   2.756  1.00 20.00    -0.396 OA
HETATM    5  C3  UNL     1     -32.195   7.996   1.642  1.00 20.00     0.201 C 
ENDBRANCH   3   4
ENDBRANCH   2   3
BRANCH   2   6
HETATM    6  C6  UNL     1     -34.113   6.285   4.864  1.00 20.00     0.084 C 
HETATM    7  C2  UNL     1     -35.483   5.944   4.284  1.00 20.00     0.027 C 
HETATM    8 CL8  UNL     1     -34.080   5.832   6.597  1.00 20.00    -0.125 Cl
ENDBRANCH   2   6
TORSDOF 3
ENDMDL
MODEL 8
REMARK VINA RESULT:      -3.4      1.786      2.524
REMARK  3 active torsions:
REMARK  status: ('A' for Active; 'I' for Inactive)
REMARK    1  A    between atoms: C4_4  and  C5_5 
REMARK    2  A    between atoms: C4_4  and  O7_7 
REMARK    3  A    between atoms: C5_5  and  C6_6 
ROOT
HETATM    1  C1  UNL     1     -32.926   4.990   2.915  1.00 20.00     0.014 C 
HETATM    2  C5  UNL     1     -33.363   6.414   3.188  1.00 20.00     0.023 C 
ENDROOT
BRANCH   2   3
HETATM    3  C4  UNL     1     -34.093   6.500   4.539  1.00 20.00     0.172 C 
BRANCH   3   4
HETATM    4  O7  UNL     1     -34.462   5.192   4.964  1.00 20.00    -0.396 OA
HETATM    5  C3  UNL     1     -34.532   5.106   6.379  1.00 20.00     0.201 C 
ENDBRANCH   3   4
ENDBRANCH   2   3
BRANCH   2   6
HETATM    6  C6  UNL     1     -32.203   7.438   3.108  1.00 20.00     0.084 C 
HETATM    7  C2  UNL     1     -32.286   8.534   4.166  1.00 20.00     0.027 C 
HETATM    8 CL8  UNL     1     -32.060   8.195   1.490  1.00 20.00    -0.125 Cl
ENDBRANCH   2   6
TORSDOF 3
ENDMDL
MODEL 9
REMARK VINA RESULT:      -3.4      2.517      3.828
REMARK  3 active torsions:
REMARK  status: ('A' for Active; 'I' for Inactive)
REMARK    1  A    between atoms: C4_4  and  C5_5 
REMARK    2  A    between atoms: C4_4  and  O7_7 
REMARK    3  A    between atoms: C5_5  and  C6_6 
ROOT
HETATM    1  C1  UNL     1     -33.053   5.056   2.521  1.00 20.00     0.014 C 
HETATM    2  C5  UNL     1     -33.215   5.681   3.891  1.00 20.00     0.023 C 
ENDROOT
BRANCH   2   3
HETATM    3  C4  UNL     1     -33.137   7.214   3.793  1.00 20.00     0.172 C 
BRANCH   3   4
HETATM    4  O7  UNL     1     -32.697   7.748   5.038  1.00 20.00    -0.396 OA
HETATM    5  C3  UNL     1     -32.253   9.089   4.900  1.00 20.00     0.201 C 
ENDBRANCH   3   4
ENDBRANCH   2   3
BRANCH   2   6
HETATM    6  C6  UNL     1     -34.504   5.229   4.623  1.00 20.00     0.084 C 
HETATM    7  C2  UNL     1     -35.734   6.052   4.254  1.00 20.00     0.027 C 
HETATM    8 CL8  UNL     1     -34.318   5.219   6.406  1.00 20.00    -0.125 Cl
ENDBRANCH   2   6
TORSDOF 3
ENDMDL
