MODEL 1
REMARK VINA RESULT:      -4.4      0.000      0.000
REMARK  1 active torsions:
REMARK  status: ('A' for Active; 'I' for Inactive)
REMARK    1  A    between atoms: C1_1  and  C7_7 
ROOT
HETATM    1  C2  UNL     1     -33.222   5.613   2.636  1.00 20.00     0.002 C 
HETATM    2  C3  UNL     1     -31.908   6.396   2.648  1.00 20.00     0.012 C 
HETATM    3  C4  UNL     1     -32.639   7.919   4.632  1.00 20.00     0.013 C 
HETATM    4  C5  UNL     1     -33.648   5.157   4.032  1.00 20.00     0.008 C 
HETATM    5  C6  UNL     1     -34.144   7.630   4.622  1.00 20.00     0.009 C 
HETATM    6  C7  UNL     1     -31.942   7.791   3.272  1.00 20.00     0.055 C 
HETATM    7  C8  UNL     1     -34.547   6.148   4.806  1.00 20.00    -0.048 C 
HETATM    8  C10 UNL     1     -34.494   5.777   6.304  1.00 20.00     0.015 C 
HETATM    9  C11 UNL     1     -36.011   5.989   4.340  1.00 20.00     0.015 C 
ENDROOT
BRANCH   6  10
HETATM   10  C1  UNL     1     -32.491   8.794   2.298  1.00 20.00     0.127 C 
HETATM   11  C9  UNL     1     -32.333   8.474   0.836  1.00 20.00     0.091 C 
HETATM   12  O12 UNL     1     -33.044   9.825   2.677  1.00 20.00    -0.298 OA
ENDBRANCH   6  10
TORSDOF 1
ENDMDL
MODEL 2
REMARK VINA RESULT:      -4.1     11.115     12.917
REMARK  1 active torsions:
REMARK  status: ('A' for Active; 'I' for Inactive)
REMARK    1  A    between atoms: C1_1  and  C7_7 
ROOT
HETATM    1  C2  UNL     1     -33.668  15.531  -3.315  1.00 20.00     0.002 C 
HETATM    2  C3  UNL     1     -33.477  14.751  -4.617  1.00 20.00     0.012 C 
HETATM    3  C4  UNL     1     -34.405  16.678  -6.106  1.00 20.00     0.013 C 
HETATM    4  C5  UNL     1     -33.132  16.960  -3.403  1.00 20.00     0.008 C 
HETATM    5  C6  UNL     1     -35.076  17.526  -5.020  1.00 20.00     0.009 C 
HETATM    6  C7  UNL     1     -34.335  15.175  -5.809  1.00 20.00     0.055 C 
HETATM    7  C8  UNL     1     -34.149  18.021  -3.884  1.00 20.00    -0.048 C 
HETATM    8  C10 UNL     1     -33.364  19.263  -4.357  1.00 20.00     0.015 C 
HETATM    9  C11 UNL     1     -35.039  18.458  -2.698  1.00 20.00     0.015 C 
ENDROOT
BRANCH   6  10
HETATM   10  C1  UNL     1     -35.715  14.591  -5.701  1.00 20.00     0.127 C 
HETATM   11  C9  UNL     1     -35.945  13.596  -4.596  1.00 20.00     0.091 C 
HETATM   12  O12 UNL     1     -36.614  14.912  -6.477  1.00 20.00    -0.298 OA
ENDBRANCH   6  10
TORSDOF 1
ENDMDL
MODEL 3
REMARK VINA RESULT:      -3.9     11.264     12.891
REMARK  1 active torsions:
REMARK  status: ('A' for Active; 'I' for Inactive)
REMARK    1  A    between atoms: C1_1  and  C7_7 
ROOT
HETATM    1  C2  UNL     1     -33.751  15.080  -3.887  1.00 20.00     0.002 C 
HETATM    2  C3  UNL     1     -34.107  14.972  -5.371  1.00 20.00     0.012 C 
HETATM    3  C4  UNL     1     -34.854  17.462  -5.545  1.00 20.00     0.013 C 
HETATM    4  C5  UNL     1     -32.904  16.314  -3.574  1.00 20.00     0.008 C 
HETATM    5  C6  UNL     1     -34.982  17.786  -4.053  1.00 20.00     0.009 C 
HETATM    6  C7  UNL     1     -35.102  15.996  -5.918  1.00 20.00     0.055 C 
HETATM    7  C8  UNL     1     -33.700  17.587  -3.209  1.00 20.00    -0.048 C 
HETATM    8  C10 UNL     1     -32.768  18.805  -3.384  1.00 20.00     0.015 C 
HETATM    9  C11 UNL     1     -34.113  17.529  -1.721  1.00 20.00     0.015 C 
ENDROOT
BRANCH   6  10
HETATM   10  C1  UNL     1     -36.511  15.595  -5.585  1.00 20.00     0.127 C 
HETATM   11  C9  UNL     1     -37.578  16.634  -5.799  1.00 20.00     0.091 C 
HETATM   12  O12 UNL     1     -36.780  14.472  -5.161  1.00 20.00    -0.298 OA
ENDBRANCH   6  10
TORSDOF 1
ENDMDL
MODEL 4
REMARK VINA RESULT:      -3.8     10.486     11.896
REMARK  1 active torsions:
REMARK  status: ('A' for Active; 'I' for Inactive)
REMARK    1  A    between atoms: C1_1  and  C7_7 
ROOT
HETATM    1  C2  UNL     1     -42.815  15.291   5.845  1.00 20.00     0.002 C 
HETATM    2  C3  UNL     1     -42.870  13.774   6.037  1.00 20.00     0.012 C 
HETATM    3  C4  UNL     1     -40.942  13.757   7.790  1.00 20.00     0.013 C 
HETATM    4  C5  UNL     1     -42.777  16.050   7.171  1.00 20.00     0.008 C 
HETATM    5  C6  UNL     1     -40.372  15.159   7.543  1.00 20.00     0.009 C 
HETATM    6  C7  UNL     1     -41.608  13.100   6.575  1.00 20.00     0.055 C 
HETATM    7  C8  UNL     1     -41.364  16.331   7.732  1.00 20.00    -0.048 C 
HETATM    8  C10 UNL     1     -41.499  16.661   9.235  1.00 20.00     0.015 C 
HETATM    9  C11 UNL     1     -40.769  17.576   7.036  1.00 20.00     0.015 C 
ENDROOT
BRANCH   6  10
HETATM   10  C1  UNL     1     -40.608  12.890   5.473  1.00 20.00     0.127 C 
HETATM   11  C9  UNL     1     -39.339  12.170   5.839  1.00 20.00     0.091 C 
HETATM   12  O12 UNL     1     -40.818  13.286   4.327  1.00 20.00    -0.298 OA
ENDBRANCH   6  10
TORSDOF 1
ENDMDL
MODEL 5
REMARK VINA RESULT:      -3.7     11.645     13.190
REMARK  1 active torsions:
REMARK  status: ('A' for Active; 'I' for Inactive)
REMARK    1  A    between atoms: C1_1  and  C7_7 
ROOT
HETATM    1  C2  UNL     1     -35.693  18.043  -4.814  1.00 20.00     0.002 C 
HETATM    2  C3  UNL     1     -36.269  16.705  -5.279  1.00 20.00     0.012 C 
HETATM    3  C4  UNL     1     -34.299  15.320  -4.283  1.00 20.00     0.013 C 
HETATM    4  C5  UNL     1     -35.241  18.013  -3.354  1.00 20.00     0.008 C 
HETATM    5  C6  UNL     1     -33.294  16.453  -4.052  1.00 20.00     0.009 C 
HETATM    6  C7  UNL     1     -35.284  15.546  -5.437  1.00 20.00     0.055 C 
HETATM    7  C8  UNL     1     -33.770  17.596  -3.125  1.00 20.00    -0.048 C 
HETATM    8  C10 UNL     1     -33.614  17.169  -1.650  1.00 20.00     0.015 C 
HETATM    9  C11 UNL     1     -32.846  18.814  -3.355  1.00 20.00     0.015 C 
ENDROOT
BRANCH   6  10
HETATM   10  C1  UNL     1     -34.553  15.648  -6.745  1.00 20.00     0.127 C 
HETATM   11  C9  UNL     1     -35.019  16.713  -7.700  1.00 20.00     0.091 C 
HETATM   12  O12 UNL     1     -33.618  14.898  -7.022  1.00 20.00    -0.298 OA
ENDBRANCH   6  10
TORSDOF 1
ENDMDL
MODEL 6
REMARK VINA RESULT:      -3.6     13.456     14.828
REMARK  1 active torsions:
REMARK  status: ('A' for Active; 'I' for Inactive)
REMARK    1  A    between atoms: C1_1  and  C7_7 
ROOT
HETATM    1  C2  UNL     1     -24.967  -1.045  11.800  1.00 20.00     0.002 C 
HETATM    2  C3  UNL     1     -26.373  -1.328  12.332  1.00 20.00     0.012 C 
HETATM    3  C4  UNL     1     -26.444  -3.737  11.340  1.00 20.00     0.013 C 
HETATM    4  C5  UNL     1     -23.989  -2.183  12.090  1.00 20.00     0.008 C 
HETATM    5  C6  UNL     1     -25.264  -3.638  10.367  1.00 20.00     0.009 C 
HETATM    6  C7  UNL     1     -27.174  -2.418  11.618  1.00 20.00     0.055 C 
HETATM    7  C8  UNL     1     -23.900  -3.273  10.998  1.00 20.00    -0.048 C 
HETATM    8  C10 UNL     1     -23.264  -4.533  11.625  1.00 20.00     0.015 C 
HETATM    9  C11 UNL     1     -22.963  -2.795   9.866  1.00 20.00     0.015 C 
ENDROOT
BRANCH   6  10
HETATM   10  C1  UNL     1     -27.794  -1.881  10.360  1.00 20.00     0.127 C 
HETATM   11  C9  UNL     1     -27.763  -0.388  10.173  1.00 20.00     0.091 C 
HETATM   12  O12 UNL     1     -28.302  -2.625   9.522  1.00 20.00    -0.298 OA
ENDBRANCH   6  10
TORSDOF 1
ENDMDL
MODEL 7
REMARK VINA RESULT:      -3.6     10.594     12.195
REMARK  1 active torsions:
REMARK  status: ('A' for Active; 'I' for Inactive)
REMARK    1  A    between atoms: C1_1  and  C7_7 
ROOT
HETATM    1  C2  UNL     1     -43.014  12.442   8.100  1.00 20.00     0.002 C 
HETATM    2  C3  UNL     1     -43.417  13.637   8.967  1.00 20.00     0.012 C 
HETATM    3  C4  UNL     1     -41.632  15.217   7.916  1.00 20.00     0.013 C 
HETATM    4  C5  UNL     1     -42.872  12.809   6.623  1.00 20.00     0.008 C 
HETATM    5  C6  UNL     1     -40.750  14.169   7.227  1.00 20.00     0.009 C 
HETATM    6  C7  UNL     1     -42.367  14.728   9.170  1.00 20.00     0.055 C 
HETATM    7  C8  UNL     1     -41.461  13.270   6.188  1.00 20.00    -0.048 C 
HETATM    8  C10 UNL     1     -41.593  14.026   4.849  1.00 20.00     0.015 C 
HETATM    9  C11 UNL     1     -40.569  12.033   5.937  1.00 20.00     0.015 C 
ENDROOT
BRANCH   6  10
HETATM   10  C1  UNL     1     -41.387  14.329  10.236  1.00 20.00     0.127 C 
HETATM   11  C9  UNL     1     -40.296  15.315  10.557  1.00 20.00     0.091 C 
HETATM   12  O12 UNL     1     -41.473  13.249  10.820  1.00 20.00    -0.298 OA
ENDBRANCH   6  10
TORSDOF 1
ENDMDL
MODEL 8
REMARK VINA RESULT:      -3.4     11.811     13.601
REMARK  1 active torsions:
REMARK  status: ('A' for Active; 'I' for Inactive)
REMARK    1  A    between atoms: C1_1  and  C7_7 
ROOT
HETATM    1  C2  UNL     1     -34.103  15.442  -4.258  1.00 20.00     0.002 C 
HETATM    2  C3  UNL     1     -34.067  15.115  -5.752  1.00 20.00     0.012 C 
HETATM    3  C4  UNL     1     -34.530  17.577  -6.471  1.00 20.00     0.013 C 
HETATM    4  C5  UNL     1     -33.267  16.672  -3.904  1.00 20.00     0.008 C 
HETATM    5  C6  UNL     1     -35.016  18.138  -5.130  1.00 20.00     0.009 C 
HETATM    6  C7  UNL     1     -34.794  16.082  -6.687  1.00 20.00     0.055 C 
HETATM    7  C8  UNL     1     -34.022  18.021  -3.951  1.00 20.00    -0.048 C 
HETATM    8  C10 UNL     1     -32.977  19.154  -4.037  1.00 20.00     0.015 C 
HETATM    9  C11 UNL     1     -34.812  18.217  -2.638  1.00 20.00     0.015 C 
ENDROOT
BRANCH   6  10
HETATM   10  C1  UNL     1     -36.270  15.800  -6.696  1.00 20.00     0.127 C 
HETATM   11  C9  UNL     1     -37.092  16.528  -7.726  1.00 20.00     0.091 C 
HETATM   12  O12 UNL     1     -36.782  15.013  -5.902  1.00 20.00    -0.298 OA
ENDBRANCH   6  10
TORSDOF 1
ENDMDL
MODEL 9
REMARK VINA RESULT:      -3.3     11.183     12.512
REMARK  1 active torsions:
REMARK  status: ('A' for Active; 'I' for Inactive)
REMARK    1  A    between atoms: C1_1  and  C7_7 
ROOT
HETATM    1  C2  UNL     1     -43.092  15.250   5.854  1.00 20.00     0.002 C 
HETATM    2  C3  UNL     1     -42.253  16.508   6.085  1.00 20.00     0.012 C 
HETATM    3  C4  UNL     1     -40.472  15.259   7.521  1.00 20.00     0.013 C 
HETATM    4  C5  UNL     1     -42.247  14.050   5.425  1.00 20.00     0.008 C 
HETATM    5  C6  UNL     1     -41.251  13.973   7.816  1.00 20.00     0.009 C 
HETATM    6  C7  UNL     1     -41.334  16.509   7.307  1.00 20.00     0.055 C 
HETATM    7  C8  UNL     1     -41.715  13.168   6.579  1.00 20.00    -0.048 C 
HETATM    8  C10 UNL     1     -40.542  12.323   6.038  1.00 20.00     0.015 C 
HETATM    9  C11 UNL     1     -42.821  12.190   7.033  1.00 20.00     0.015 C 
ENDROOT
BRANCH   6  10
HETATM   10  C1  UNL     1     -42.108  16.839   8.551  1.00 20.00     0.127 C 
HETATM   11  C9  UNL     1     -41.318  16.973   9.825  1.00 20.00     0.091 C 
HETATM   12  O12 UNL     1     -43.328  16.993   8.531  1.00 20.00    -0.298 OA
ENDBRANCH   6  10
TORSDOF 1
ENDMDL
