MODEL 1
REMARK VINA RESULT:      -4.1      0.000      0.000
REMARK  2 active torsions:
REMARK  status: ('A' for Active; 'I' for Inactive)
REMARK    1  A    between atoms: C2_2  and  C3_3 
REMARK    2  A    between atoms: C2_2  and  N4_4 
ROOT
HETATM    1  C1  UNL     1     -32.966   8.004   5.150  1.00 20.00     0.332 C 
HETATM    2  N4  UNL     1     -33.680   7.240   5.686  1.00 20.00    -0.242 NA
HETATM    3  O5  UNL     1     -32.252   8.771   4.617  1.00 20.00    -0.260 OA
ENDROOT
BRANCH   2   4
HETATM    4  C2  UNL     1     -34.463   6.404   4.774  1.00 20.00     0.224 C 
BRANCH   4   5
HETATM    5  C3  UNL     1     -34.643   5.035   5.389  1.00 20.00     0.372 C 
HETATM    6  F6  UNL     1     -34.078   5.000   6.621  1.00 20.00    -0.213 F 
HETATM    7  F7  UNL     1     -34.014   4.100   4.637  1.00 20.00    -0.213 F 
ENDBRANCH   4   5
ENDBRANCH   2   4
TORSDOF 2
ENDMDL
MODEL 2
REMARK VINA RESULT:      -4.1      1.247      1.439
REMARK  2 active torsions:
REMARK  status: ('A' for Active; 'I' for Inactive)
REMARK    1  A    between atoms: C2_2  and  C3_3 
REMARK    2  A    between atoms: C2_2  and  N4_4 
ROOT
HETATM    1  C1  UNL     1     -33.268   7.628   5.577  1.00 20.00     0.332 C 
HETATM    2  N4  UNL     1     -34.084   7.260   6.336  1.00 20.00    -0.242 NA
HETATM    3  O5  UNL     1     -32.450   8.001   4.818  1.00 20.00    -0.260 OA
ENDROOT
BRANCH   2   4
HETATM    4  C2  UNL     1     -34.488   5.864   6.158  1.00 20.00     0.224 C 
BRANCH   4   5
HETATM    5  C3  UNL     1     -34.674   5.588   4.683  1.00 20.00     0.372 C 
HETATM    6  F6  UNL     1     -35.953   5.850   4.318  1.00 20.00    -0.213 F 
HETATM    7  F7  UNL     1     -34.447   4.277   4.422  1.00 20.00    -0.213 F 
ENDBRANCH   4   5
ENDBRANCH   2   4
TORSDOF 2
ENDMDL
MODEL 3
REMARK VINA RESULT:      -4.1      2.425      2.685
REMARK  2 active torsions:
REMARK  status: ('A' for Active; 'I' for Inactive)
REMARK    1  A    between atoms: C2_2  and  C3_3 
REMARK    2  A    between atoms: C2_2  and  N4_4 
ROOT
HETATM    1  C1  UNL     1     -33.604   4.972   3.523  1.00 20.00     0.332 C 
HETATM    2  N4  UNL     1     -34.311   4.660   4.407  1.00 20.00    -0.242 NA
HETATM    3  O5  UNL     1     -32.893   5.281   2.638  1.00 20.00    -0.260 OA
ENDROOT
BRANCH   2   4
HETATM    4  C2  UNL     1     -35.109   5.757   4.957  1.00 20.00     0.224 C 
BRANCH   4   5
HETATM    5  C3  UNL     1     -34.688   6.005   6.388  1.00 20.00     0.372 C 
HETATM    6  F6  UNL     1     -33.947   7.137   6.465  1.00 20.00    -0.213 F 
HETATM    7  F7  UNL     1     -33.908   4.988   6.827  1.00 20.00    -0.213 F 
ENDBRANCH   4   5
ENDBRANCH   2   4
TORSDOF 2
ENDMDL
MODEL 4
REMARK VINA RESULT:      -4.0      3.006      3.599
REMARK  2 active torsions:
REMARK  status: ('A' for Active; 'I' for Inactive)
REMARK    1  A    between atoms: C2_2  and  C3_3 
REMARK    2  A    between atoms: C2_2  and  N4_4 
ROOT
HETATM    1  C1  UNL     1     -34.573   5.045   5.243  1.00 20.00     0.332 C 
HETATM    2  N4  UNL     1     -34.884   5.874   6.015  1.00 20.00    -0.242 NA
HETATM    3  O5  UNL     1     -34.265   4.213   4.470  1.00 20.00    -0.260 OA
ENDROOT
BRANCH   2   4
HETATM    4  C2  UNL     1     -33.806   6.798   6.373  1.00 20.00     0.224 C 
BRANCH   4   5
HETATM    5  C3  UNL     1     -33.590   7.771   5.236  1.00 20.00     0.372 C 
HETATM    6  F6  UNL     1     -32.271   7.845   4.932  1.00 20.00    -0.213 F 
HETATM    7  F7  UNL     1     -33.984   9.014   5.604  1.00 20.00    -0.213 F 
ENDBRANCH   4   5
ENDBRANCH   2   4
TORSDOF 2
ENDMDL
MODEL 5
REMARK VINA RESULT:      -3.8      3.159      3.624
REMARK  2 active torsions:
REMARK  status: ('A' for Active; 'I' for Inactive)
REMARK    1  A    between atoms: C2_2  and  C3_3 
REMARK    2  A    between atoms: C2_2  and  N4_4 
ROOT
HETATM    1  C1  UNL     1     -34.489   5.690   5.366  1.00 20.00     0.332 C 
HETATM    2  N4  UNL     1     -34.113   6.708   5.815  1.00 20.00    -0.242 NA
HETATM    3  O5  UNL     1     -34.865   4.669   4.920  1.00 20.00    -0.260 OA
ENDROOT
BRANCH   2   4
HETATM    4  C2  UNL     1     -33.944   7.776   4.828  1.00 20.00     0.224 C 
BRANCH   4   5
HETATM    5  C3  UNL     1     -32.468   8.030   4.621  1.00 20.00     0.372 C 
HETATM    6  F6  UNL     1     -32.227   9.363   4.579  1.00 20.00    -0.213 F 
HETATM    7  F7  UNL     1     -32.069   7.515   3.432  1.00 20.00    -0.213 F 
ENDBRANCH   4   5
ENDBRANCH   2   4
TORSDOF 2
ENDMDL
MODEL 6
REMARK VINA RESULT:      -3.6      2.741      3.280
REMARK  2 active torsions:
REMARK  status: ('A' for Active; 'I' for Inactive)
REMARK    1  A    between atoms: C2_2  and  C3_3 
REMARK    2  A    between atoms: C2_2  and  N4_4 
ROOT
HETATM    1  C1  UNL     1     -32.643   6.602   2.988  1.00 20.00     0.332 C 
HETATM    2  N4  UNL     1     -32.371   7.738   3.108  1.00 20.00    -0.242 NA
HETATM    3  O5  UNL     1     -32.915   5.464   2.863  1.00 20.00    -0.260 OA
ENDROOT
BRANCH   2   4
HETATM    4  C2  UNL     1     -32.251   8.185   4.498  1.00 20.00     0.224 C 
BRANCH   4   5
HETATM    5  C3  UNL     1     -33.512   7.818   5.246  1.00 20.00     0.372 C 
HETATM    6  F6  UNL     1     -34.107   8.934   5.732  1.00 20.00    -0.213 F 
HETATM    7  F7  UNL     1     -33.211   7.033   6.309  1.00 20.00    -0.213 F 
ENDBRANCH   4   5
ENDBRANCH   2   4
TORSDOF 2
ENDMDL
MODEL 7
REMARK VINA RESULT:      -3.5      2.851      3.461
REMARK  2 active torsions:
REMARK  status: ('A' for Active; 'I' for Inactive)
REMARK    1  A    between atoms: C2_2  and  C3_3 
REMARK    2  A    between atoms: C2_2  and  N4_4 
ROOT
HETATM    1  C1  UNL     1     -33.930   7.390   5.629  1.00 20.00     0.332 C 
HETATM    2  N4  UNL     1     -33.747   7.899   4.586  1.00 20.00    -0.242 NA
HETATM    3  O5  UNL     1     -34.117   6.881   6.673  1.00 20.00    -0.260 OA
ENDROOT
BRANCH   2   4
HETATM    4  C2  UNL     1     -32.335   8.090   4.248  1.00 20.00     0.224 C 
BRANCH   4   5
HETATM    5  C3  UNL     1     -32.021   7.321   2.985  1.00 20.00     0.372 C 
HETATM    6  F6  UNL     1     -32.303   8.078   1.897  1.00 20.00    -0.213 F 
HETATM    7  F7  UNL     1     -32.795   6.211   2.910  1.00 20.00    -0.213 F 
ENDBRANCH   4   5
ENDBRANCH   2   4
TORSDOF 2
ENDMDL
MODEL 8
REMARK VINA RESULT:      -3.5      2.630      3.034
REMARK  2 active torsions:
REMARK  status: ('A' for Active; 'I' for Inactive)
REMARK    1  A    between atoms: C2_2  and  C3_3 
REMARK    2  A    between atoms: C2_2  and  N4_4 
ROOT
HETATM    1  C1  UNL     1     -34.620   6.329   5.686  1.00 20.00     0.332 C 
HETATM    2  N4  UNL     1     -34.978   5.748   4.730  1.00 20.00    -0.242 NA
HETATM    3  O5  UNL     1     -34.265   6.913   6.643  1.00 20.00    -0.260 OA
ENDROOT
BRANCH   2   4
HETATM    4  C2  UNL     1     -33.968   4.860   4.150  1.00 20.00     0.224 C 
BRANCH   4   5
HETATM    5  C3  UNL     1     -33.355   5.531   2.942  1.00 20.00     0.372 C 
HETATM    6  F6  UNL     1     -32.605   4.642   2.247  1.00 20.00    -0.213 F 
HETATM    7  F7  UNL     1     -32.527   6.530   3.334  1.00 20.00    -0.213 F 
ENDBRANCH   4   5
ENDBRANCH   2   4
TORSDOF 2
ENDMDL
MODEL 9
REMARK VINA RESULT:      -3.3     13.289     13.671
REMARK  2 active torsions:
REMARK  status: ('A' for Active; 'I' for Inactive)
REMARK    1  A    between atoms: C2_2  and  C3_3 
REMARK    2  A    between atoms: C2_2  and  N4_4 
ROOT
HETATM    1  C1  UNL     1     -35.741  14.706  -6.212  1.00 20.00     0.332 C 
HETATM    2  N4  UNL     1     -35.457  15.162  -5.168  1.00 20.00    -0.242 NA
HETATM    3  O5  UNL     1     -36.028  14.250  -7.258  1.00 20.00    -0.260 OA
ENDROOT
BRANCH   2   4
HETATM    4  C2  UNL     1     -34.373  14.460  -4.477  1.00 20.00     0.224 C 
BRANCH   4   5
HETATM    5  C3  UNL     1     -33.351  15.470  -4.008  1.00 20.00     0.372 C 
HETATM    6  F6  UNL     1     -32.105  14.944  -4.092  1.00 20.00    -0.213 F 
HETATM    7  F7  UNL     1     -33.565  15.780  -2.706  1.00 20.00    -0.213 F 
ENDBRANCH   4   5
ENDBRANCH   2   4
TORSDOF 2
ENDMDL
