MODEL 1
REMARK VINA RESULT:      -4.4      0.000      0.000
REMARK  1 active torsions:
REMARK  status: ('A' for Active; 'I' for Inactive)
REMARK    1  A    between atoms: C1_1  and  C3_3 
REMARK       I    between atoms: C3_3  and  N11_11 
ROOT
HETATM    1  C3  UNL     1     -31.566  18.755   0.258  1.00 20.00     0.243 C 
HETATM    2  C4  UNL     1     -34.755  18.377  -1.619  1.00 20.00     0.030 C 
HETATM    3  C5  UNL     1     -34.022  18.336  -0.283  1.00 20.00     0.127 C 
HETATM    4  C6  UNL     1     -32.411  18.540  -2.061  1.00 20.00     0.134 C 
HETATM    5  C7  UNL     1     -33.695  17.932  -2.642  1.00 20.00    -0.030 C 
HETATM    6  C9  UNL     1     -33.999  18.476  -4.039  1.00 20.00     0.016 C 
HETATM    7  C10 UNL     1     -33.593  16.399  -2.702  1.00 20.00     0.016 C 
HETATM    8  N11 UNL     1     -32.617  18.553  -0.617  1.00 20.00    -0.348 N 
HETATM    9  O12 UNL     1     -30.397  18.934  -0.082  1.00 20.00    -0.268 OA
ENDROOT
BRANCH   1  10
HETATM   10  C1  UNL     1     -31.895  18.751   1.698  1.00 20.00     0.070 C 
HETATM   11  C2  UNL     1     -31.019  19.082   2.657  1.00 20.00    -0.026 C 
HETATM   12  C8  UNL     1     -31.346  19.075   4.114  1.00 20.00     0.036 C 
ENDBRANCH   1  10
TORSDOF 1
ENDMDL
MODEL 2
REMARK VINA RESULT:      -4.3      2.961      4.450
REMARK  1 active torsions:
REMARK  status: ('A' for Active; 'I' for Inactive)
REMARK    1  A    between atoms: C1_1  and  C3_3 
REMARK       I    between atoms: C3_3  and  N11_11 
ROOT
HETATM    1  C3  UNL     1     -33.808  18.230  -3.447  1.00 20.00     0.243 C 
HETATM    2  C4  UNL     1     -33.930  14.599  -4.243  1.00 20.00     0.030 C 
HETATM    3  C5  UNL     1     -33.158  15.774  -3.655  1.00 20.00     0.127 C 
HETATM    4  C6  UNL     1     -35.122  16.602  -4.774  1.00 20.00     0.134 C 
HETATM    5  C7  UNL     1     -34.774  15.229  -5.366  1.00 20.00    -0.030 C 
HETATM    6  C9  UNL     1     -36.028  14.402  -5.658  1.00 20.00     0.016 C 
HETATM    7  C10 UNL     1     -33.951  15.382  -6.655  1.00 20.00     0.016 C 
HETATM    8  N11 UNL     1     -33.993  16.943  -3.916  1.00 20.00    -0.348 N 
HETATM    9  O12 UNL     1     -34.548  19.180  -3.701  1.00 20.00    -0.268 OA
ENDROOT
BRANCH   1  10
HETATM   10  C1  UNL     1     -32.633  18.456  -2.583  1.00 20.00     0.070 C 
HETATM   11  C2  UNL     1     -32.658  18.320  -1.249  1.00 20.00    -0.026 C 
HETATM   12  C8  UNL     1     -31.473  18.551  -0.371  1.00 20.00     0.036 C 
ENDBRANCH   1  10
TORSDOF 1
ENDMDL
MODEL 3
REMARK VINA RESULT:      -4.3     11.842     13.427
REMARK  1 active torsions:
REMARK  status: ('A' for Active; 'I' for Inactive)
REMARK    1  A    between atoms: C1_1  and  C3_3 
REMARK       I    between atoms: C3_3  and  N11_11 
ROOT
HETATM    1  C3  UNL     1     -41.549  12.998   6.867  1.00 20.00     0.243 C 
HETATM    2  C4  UNL     1     -40.718  16.257   8.453  1.00 20.00     0.030 C 
HETATM    3  C5  UNL     1     -40.380  15.196   7.413  1.00 20.00     0.127 C 
HETATM    4  C6  UNL     1     -42.114  14.359   8.858  1.00 20.00     0.134 C 
HETATM    5  C7  UNL     1     -41.353  15.461   9.608  1.00 20.00    -0.030 C 
HETATM    6  C9  UNL     1     -42.293  16.333  10.442  1.00 20.00     0.016 C 
HETATM    7  C10 UNL     1     -40.274  14.856  10.520  1.00 20.00     0.016 C 
HETATM    8  N11 UNL     1     -41.339  14.120   7.646  1.00 20.00    -0.348 N 
HETATM    9  O12 UNL     1     -42.375  12.119   7.114  1.00 20.00    -0.268 OA
ENDROOT
BRANCH   1  10
HETATM   10  C1  UNL     1     -40.708  12.864   5.661  1.00 20.00     0.070 C 
HETATM   11  C2  UNL     1     -39.864  11.842   5.458  1.00 20.00    -0.026 C 
HETATM   12  C8  UNL     1     -39.009  11.704   4.241  1.00 20.00     0.036 C 
ENDBRANCH   1  10
TORSDOF 1
ENDMDL
MODEL 4
REMARK VINA RESULT:      -4.1      3.102      6.391
REMARK  1 active torsions:
REMARK  status: ('A' for Active; 'I' for Inactive)
REMARK    1  A    between atoms: C1_1  and  C3_3 
REMARK       I    between atoms: C3_3  and  N11_11 
ROOT
HETATM    1  C3  UNL     1     -33.751  15.766  -4.440  1.00 20.00     0.243 C 
HETATM    2  C4  UNL     1     -34.909  18.539  -2.249  1.00 20.00     0.030 C 
HETATM    3  C5  UNL     1     -34.817  17.942  -3.649  1.00 20.00     0.127 C 
HETATM    4  C6  UNL     1     -33.437  16.659  -2.151  1.00 20.00     0.134 C 
HETATM    5  C7  UNL     1     -33.625  18.059  -1.551  1.00 20.00    -0.030 C 
HETATM    6  C9  UNL     1     -33.796  18.008  -0.032  1.00 20.00     0.016 C 
HETATM    7  C10 UNL     1     -32.434  18.966  -1.900  1.00 20.00     0.016 C 
HETATM    8  N11 UNL     1     -34.000  16.742  -3.493  1.00 20.00    -0.348 N 
HETATM    9  O12 UNL     1     -33.050  14.772  -4.252  1.00 20.00    -0.268 OA
ENDROOT
BRANCH   1  10
HETATM   10  C1  UNL     1     -34.377  15.955  -5.764  1.00 20.00     0.070 C 
HETATM   11  C2  UNL     1     -35.305  15.129  -6.267  1.00 20.00    -0.026 C 
HETATM   12  C8  UNL     1     -35.939  15.313  -7.607  1.00 20.00     0.036 C 
ENDBRANCH   1  10
TORSDOF 1
ENDMDL
MODEL 5
REMARK VINA RESULT:      -3.9      3.852      5.616
REMARK  1 active torsions:
REMARK  status: ('A' for Active; 'I' for Inactive)
REMARK    1  A    between atoms: C1_1  and  C3_3 
REMARK       I    between atoms: C3_3  and  N11_11 
ROOT
HETATM    1  C3  UNL     1     -33.982  15.435  -4.026  1.00 20.00     0.243 C 
HETATM    2  C4  UNL     1     -35.609  17.672  -6.512  1.00 20.00     0.030 C 
HETATM    3  C5  UNL     1     -34.782  17.529  -5.240  1.00 20.00     0.127 C 
HETATM    4  C6  UNL     1     -35.620  15.365  -5.884  1.00 20.00     0.134 C 
HETATM    5  C7  UNL     1     -36.528  16.437  -6.503  1.00 20.00    -0.030 C 
HETATM    6  C9  UNL     1     -36.972  16.056  -7.917  1.00 20.00     0.016 C 
HETATM    7  C10 UNL     1     -37.766  16.677  -5.626  1.00 20.00     0.016 C 
HETATM    8  N11 UNL     1     -34.737  16.093  -4.979  1.00 20.00    -0.348 N 
HETATM    9  O12 UNL     1     -33.985  14.216  -3.850  1.00 20.00    -0.268 OA
ENDROOT
BRANCH   1  10
HETATM   10  C1  UNL     1     -33.122  16.275  -3.169  1.00 20.00     0.070 C 
HETATM   11  C2  UNL     1     -33.579  16.972  -2.120  1.00 20.00    -0.026 C 
HETATM   12  C8  UNL     1     -32.714  17.825  -1.252  1.00 20.00     0.036 C 
ENDBRANCH   1  10
TORSDOF 1
ENDMDL
MODEL 6
REMARK VINA RESULT:      -3.8     11.317     12.536
REMARK  1 active torsions:
REMARK  status: ('A' for Active; 'I' for Inactive)
REMARK    1  A    between atoms: C1_1  and  C3_3 
REMARK       I    between atoms: C3_3  and  N11_11 
ROOT
HETATM    1  C3  UNL     1     -40.624  13.592   6.909  1.00 20.00     0.243 C 
HETATM    2  C4  UNL     1     -43.141  16.242   6.223  1.00 20.00     0.030 C 
HETATM    3  C5  UNL     1     -42.205  15.170   5.680  1.00 20.00     0.127 C 
HETATM    4  C6  UNL     1     -41.766  15.486   8.026  1.00 20.00     0.134 C 
HETATM    5  C7  UNL     1     -42.427  16.761   7.484  1.00 20.00    -0.030 C 
HETATM    6  C9  UNL     1     -43.417  17.357   8.486  1.00 20.00     0.016 C 
HETATM    7  C10 UNL     1     -41.367  17.814   7.125  1.00 20.00     0.016 C 
HETATM    8  N11 UNL     1     -41.479  14.676   6.847  1.00 20.00    -0.348 N 
HETATM    9  O12 UNL     1     -40.037  13.221   7.925  1.00 20.00    -0.268 OA
ENDROOT
BRANCH   1  10
HETATM   10  C1  UNL     1     -40.412  12.845   5.653  1.00 20.00     0.070 C 
HETATM   11  C2  UNL     1     -39.248  12.267   5.325  1.00 20.00    -0.026 C 
HETATM   12  C8  UNL     1     -39.028  11.513   4.054  1.00 20.00     0.036 C 
ENDBRANCH   1  10
TORSDOF 1
ENDMDL
MODEL 7
REMARK VINA RESULT:      -3.6     11.677     12.843
REMARK  1 active torsions:
REMARK  status: ('A' for Active; 'I' for Inactive)
REMARK    1  A    between atoms: C1_1  and  C3_3 
REMARK       I    between atoms: C3_3  and  N11_11 
ROOT
HETATM    1  C3  UNL     1     -32.473   8.265   3.419  1.00 20.00     0.243 C 
HETATM    2  C4  UNL     1     -33.689   4.799   4.002  1.00 20.00     0.030 C 
HETATM    3  C5  UNL     1     -33.173   5.846   3.023  1.00 20.00     0.127 C 
HETATM    4  C6  UNL     1     -33.614   6.898   5.142  1.00 20.00     0.134 C 
HETATM    5  C7  UNL     1     -34.454   5.617   5.058  1.00 20.00    -0.030 C 
HETATM    6  C9  UNL     1     -34.513   4.887   6.401  1.00 20.00     0.016 C 
HETATM    7  C10 UNL     1     -35.882   5.931   4.584  1.00 20.00     0.016 C 
HETATM    8  N11 UNL     1     -33.046   7.069   3.810  1.00 20.00    -0.348 N 
HETATM    9  O12 UNL     1     -32.394   9.267   4.129  1.00 20.00    -0.268 OA
ENDROOT
BRANCH   1  10
HETATM   10  C1  UNL     1     -31.928   8.319   2.048  1.00 20.00     0.070 C 
HETATM   11  C2  UNL     1     -32.606   8.810   1.002  1.00 20.00    -0.026 C 
HETATM   12  C8  UNL     1     -32.060   8.864  -0.387  1.00 20.00     0.036 C 
ENDBRANCH   1  10
TORSDOF 1
ENDMDL
MODEL 8
REMARK VINA RESULT:      -3.5      2.393      3.910
REMARK  1 active torsions:
REMARK  status: ('A' for Active; 'I' for Inactive)
REMARK    1  A    between atoms: C1_1  and  C3_3 
REMARK       I    between atoms: C3_3  and  N11_11 
ROOT
HETATM    1  C3  UNL     1     -33.327  17.518  -2.602  1.00 20.00     0.243 C 
HETATM    2  C4  UNL     1     -33.809  19.100  -5.933  1.00 20.00     0.030 C 
HETATM    3  C5  UNL     1     -33.459  19.260  -4.458  1.00 20.00     0.127 C 
HETATM    4  C6  UNL     1     -34.271  17.026  -4.839  1.00 20.00     0.134 C 
HETATM    5  C7  UNL     1     -34.808  17.929  -5.957  1.00 20.00    -0.030 C 
HETATM    6  C9  UNL     1     -34.808  17.218  -7.311  1.00 20.00     0.016 C 
HETATM    7  C10 UNL     1     -36.231  18.411  -5.633  1.00 20.00     0.016 C 
HETATM    8  N11 UNL     1     -33.657  17.935  -3.878  1.00 20.00    -0.348 N 
HETATM    9  O12 UNL     1     -33.517  16.383  -2.165  1.00 20.00    -0.268 OA
ENDROOT
BRANCH   1  10
HETATM   10  C1  UNL     1     -32.706  18.525  -1.718  1.00 20.00     0.070 C 
HETATM   11  C2  UNL     1     -31.834  18.218  -0.747  1.00 20.00    -0.026 C 
HETATM   12  C8  UNL     1     -31.207  19.232   0.152  1.00 20.00     0.036 C 
ENDBRANCH   1  10
TORSDOF 1
ENDMDL
MODEL 9
REMARK VINA RESULT:      -3.4     11.620     12.985
REMARK  1 active torsions:
REMARK  status: ('A' for Active; 'I' for Inactive)
REMARK    1  A    between atoms: C1_1  and  C3_3 
REMARK       I    between atoms: C3_3  and  N11_11 
ROOT
HETATM    1  C3  UNL     1     -40.620  14.269   7.742  1.00 20.00     0.243 C 
HETATM    2  C4  UNL     1     -42.902  17.159   7.222  1.00 20.00     0.030 C 
HETATM    3  C5  UNL     1     -41.975  16.112   6.617  1.00 20.00     0.127 C 
HETATM    4  C6  UNL     1     -41.765  16.060   9.015  1.00 20.00     0.134 C 
HETATM    5  C7  UNL     1     -42.295  17.442   8.608  1.00 20.00    -0.030 C 
HETATM    6  C9  UNL     1     -43.349  17.957   9.590  1.00 20.00     0.016 C 
HETATM    7  C10 UNL     1     -41.147  18.459   8.511  1.00 20.00     0.016 C 
HETATM    8  N11 UNL     1     -41.403  15.408   7.762  1.00 20.00    -0.348 N 
HETATM    9  O12 UNL     1     -40.163  13.717   8.743  1.00 20.00    -0.268 OA
ENDROOT
BRANCH   1  10
HETATM   10  C1  UNL     1     -40.321  13.695   6.415  1.00 20.00     0.070 C 
HETATM   11  C2  UNL     1     -39.732  12.503   6.241  1.00 20.00    -0.026 C 
HETATM   12  C8  UNL     1     -39.425  11.920   4.901  1.00 20.00     0.036 C 
ENDBRANCH   1  10
TORSDOF 1
ENDMDL
