MODEL 1
REMARK VINA RESULT:      -4.1      0.000      0.000
REMARK  1 active torsions:
REMARK  status: ('A' for Active; 'I' for Inactive)
REMARK    1  A    between atoms: C9_9  and  N10_10 
ROOT
HETATM    1  C1  UNL     1     -33.646  15.160  -3.808  1.00 20.00     0.013 C 
HETATM    2  C2  UNL     1     -33.390  16.264  -3.415  1.00 20.00    -0.087 C 
HETATM    3  C9  UNL     1     -33.076  17.614  -2.939  1.00 20.00     0.364 C 
ENDROOT
BRANCH   3   4
HETATM    4  N10 UNL     1     -32.956  17.633  -1.489  1.00 20.00     0.100 N 
HETATM    5  C3  UNL     1     -31.846  18.471  -1.026  1.00 20.00     0.278 C 
HETATM    6  C5  UNL     1     -32.234  18.890   0.401  1.00 20.00     0.015 C 
HETATM    7  C6  UNL     1     -33.653  18.329   0.596  1.00 20.00     0.015 C 
HETATM    8  C7  UNL     1     -31.261  18.370   1.454  1.00 20.00     0.012 C 
HETATM    9  C4  UNL     1     -34.155  18.155  -0.833  1.00 20.00     0.278 C 
HETATM   10  C8  UNL     1     -34.550  19.228   1.432  1.00 20.00     0.012 C 
ENDBRANCH   3   4
TORSDOF 1
ENDMDL
MODEL 2
REMARK VINA RESULT:      -3.9      0.601      2.095
REMARK  1 active torsions:
REMARK  status: ('A' for Active; 'I' for Inactive)
REMARK    1  A    between atoms: C9_9  and  N10_10 
ROOT
HETATM    1  C1  UNL     1     -33.348  15.985  -3.296  1.00 20.00     0.013 C 
HETATM    2  C2  UNL     1     -33.235  17.177  -3.199  1.00 20.00    -0.087 C 
HETATM    3  C9  UNL     1     -33.097  18.631  -3.085  1.00 20.00     0.364 C 
ENDROOT
BRANCH   3   4
HETATM    4  N10 UNL     1     -33.097  19.039  -1.688  1.00 20.00     0.100 N 
HETATM    5  C3  UNL     1     -34.182  18.421  -0.919  1.00 20.00     0.278 C 
HETATM    6  C5  UNL     1     -33.686  18.418   0.536  1.00 20.00     0.015 C 
HETATM    7  C6  UNL     1     -32.244  18.948   0.453  1.00 20.00     0.015 C 
HETATM    8  C7  UNL     1     -34.557  19.263   1.458  1.00 20.00     0.012 C 
HETATM    9  C4  UNL     1     -31.859  18.678  -0.997  1.00 20.00     0.278 C 
HETATM   10  C8  UNL     1     -31.299  18.292   1.448  1.00 20.00     0.012 C 
ENDBRANCH   3   4
TORSDOF 1
ENDMDL
MODEL 3
REMARK VINA RESULT:      -3.8      1.282      4.453
REMARK  1 active torsions:
REMARK  status: ('A' for Active; 'I' for Inactive)
REMARK    1  A    between atoms: C9_9  and  N10_10 
ROOT
HETATM    1  C1  UNL     1     -31.025  18.515   0.405  1.00 20.00     0.013 C 
HETATM    2  C2  UNL     1     -32.197  18.646   0.181  1.00 20.00    -0.087 C 
HETATM    3  C9  UNL     1     -33.629  18.808  -0.088  1.00 20.00     0.364 C 
ENDROOT
BRANCH   3   4
HETATM    4  N10 UNL     1     -33.948  18.381  -1.442  1.00 20.00     0.100 N 
HETATM    5  C3  UNL     1     -33.235  19.158  -2.461  1.00 20.00     0.278 C 
HETATM    6  C5  UNL     1     -33.164  18.232  -3.687  1.00 20.00     0.015 C 
HETATM    7  C6  UNL     1     -33.763  16.902  -3.201  1.00 20.00     0.015 C 
HETATM    8  C7  UNL     1     -33.909  18.792  -4.893  1.00 20.00     0.012 C 
HETATM    9  C4  UNL     1     -33.601  16.982  -1.687  1.00 20.00     0.278 C 
HETATM   10  C8  UNL     1     -33.090  15.678  -3.804  1.00 20.00     0.012 C 
ENDBRANCH   3   4
TORSDOF 1
ENDMDL
MODEL 4
REMARK VINA RESULT:      -3.8      1.672      4.716
REMARK  1 active torsions:
REMARK  status: ('A' for Active; 'I' for Inactive)
REMARK    1  A    between atoms: C9_9  and  N10_10 
ROOT
HETATM    1  C1  UNL     1     -31.015  18.502  -0.083  1.00 20.00     0.013 C 
HETATM    2  C2  UNL     1     -31.939  18.758  -0.805  1.00 20.00    -0.087 C 
HETATM    3  C9  UNL     1     -33.069  19.073  -1.682  1.00 20.00     0.364 C 
ENDROOT
BRANCH   3   4
HETATM    4  N10 UNL     1     -33.108  18.163  -2.817  1.00 20.00     0.100 N 
HETATM    5  C3  UNL     1     -33.233  16.759  -2.410  1.00 20.00     0.278 C 
HETATM    6  C5  UNL     1     -33.881  16.054  -3.612  1.00 20.00     0.015 C 
HETATM    7  C6  UNL     1     -34.197  17.189  -4.601  1.00 20.00     0.015 C 
HETATM    8  C7  UNL     1     -32.981  14.989  -4.227  1.00 20.00     0.012 C 
HETATM    9  C4  UNL     1     -34.237  18.424  -3.709  1.00 20.00     0.278 C 
HETATM   10  C8  UNL     1     -35.489  16.976  -5.375  1.00 20.00     0.012 C 
ENDBRANCH   3   4
TORSDOF 1
ENDMDL
MODEL 5
REMARK VINA RESULT:      -3.7     11.005     11.761
REMARK  1 active torsions:
REMARK  status: ('A' for Active; 'I' for Inactive)
REMARK    1  A    between atoms: C9_9  and  N10_10 
ROOT
HETATM    1  C1  UNL     1     -32.654   9.220   0.128  1.00 20.00     0.013 C 
HETATM    2  C2  UNL     1     -32.315   8.521   1.043  1.00 20.00    -0.087 C 
HETATM    3  C9  UNL     1     -31.896   7.668   2.157  1.00 20.00     0.364 C 
ENDROOT
BRANCH   3   4
HETATM    4  N10 UNL     1     -32.997   7.457   3.085  1.00 20.00     0.100 N 
HETATM    5  C3  UNL     1     -33.316   6.037   3.270  1.00 20.00     0.278 C 
HETATM    6  C5  UNL     1     -33.978   5.957   4.655  1.00 20.00     0.015 C 
HETATM    7  C6  UNL     1     -33.866   7.383   5.220  1.00 20.00     0.015 C 
HETATM    8  C7  UNL     1     -35.423   5.475   4.591  1.00 20.00     0.012 C 
HETATM    9  C4  UNL     1     -32.715   7.983   4.421  1.00 20.00     0.278 C 
HETATM   10  C8  UNL     1     -33.628   7.423   6.721  1.00 20.00     0.012 C 
ENDBRANCH   3   4
TORSDOF 1
ENDMDL
MODEL 6
REMARK VINA RESULT:      -3.6      3.089      6.356
REMARK  1 active torsions:
REMARK  status: ('A' for Active; 'I' for Inactive)
REMARK    1  A    between atoms: C9_9  and  N10_10 
ROOT
HETATM    1  C1  UNL     1     -33.422  17.295  -1.580  1.00 20.00     0.013 C 
HETATM    2  C2  UNL     1     -33.325  16.643  -2.583  1.00 20.00    -0.087 C 
HETATM    3  C9  UNL     1     -33.202  15.846  -3.807  1.00 20.00     0.364 C 
ENDROOT
BRANCH   3   4
HETATM    4  N10 UNL     1     -34.479  15.772  -4.502  1.00 20.00     0.100 N 
HETATM    5  C3  UNL     1     -35.071  17.093  -4.738  1.00 20.00     0.278 C 
HETATM    6  C5  UNL     1     -35.987  16.905  -5.957  1.00 20.00     0.015 C 
HETATM    7  C6  UNL     1     -35.736  15.457  -6.409  1.00 20.00     0.015 C 
HETATM    8  C7  UNL     1     -37.455  17.162  -5.638  1.00 20.00     0.012 C 
HETATM    9  C4  UNL     1     -34.368  15.141  -5.816  1.00 20.00     0.278 C 
HETATM   10  C8  UNL     1     -35.784  15.275  -7.918  1.00 20.00     0.012 C 
ENDBRANCH   3   4
TORSDOF 1
ENDMDL
MODEL 7
REMARK VINA RESULT:      -3.6     11.174     12.180
REMARK  1 active torsions:
REMARK  status: ('A' for Active; 'I' for Inactive)
REMARK    1  A    between atoms: C9_9  and  N10_10 
ROOT
HETATM    1  C1  UNL     1     -32.881   9.675   1.429  1.00 20.00     0.013 C 
HETATM    2  C2  UNL     1     -32.685   9.412   2.584  1.00 20.00    -0.087 C 
HETATM    3  C9  UNL     1     -32.446   9.095   3.994  1.00 20.00     0.364 C 
ENDROOT
BRANCH   3   4
HETATM    4  N10 UNL     1     -32.670   7.680   4.248  1.00 20.00     0.100 N 
HETATM    5  C3  UNL     1     -34.037   7.396   4.698  1.00 20.00     0.278 C 
HETATM    6  C5  UNL     1     -34.287   5.931   4.308  1.00 20.00     0.015 C 
HETATM    7  C6  UNL     1     -33.029   5.520   3.524  1.00 20.00     0.015 C 
HETATM    8  C7  UNL     1     -34.532   5.032   5.514  1.00 20.00     0.012 C 
HETATM    9  C4  UNL     1     -32.459   6.855   3.058  1.00 20.00     0.278 C 
HETATM   10  C8  UNL     1     -33.315   4.565   2.375  1.00 20.00     0.012 C 
ENDBRANCH   3   4
TORSDOF 1
ENDMDL
MODEL 8
REMARK VINA RESULT:      -3.6     10.450     11.675
REMARK  1 active torsions:
REMARK  status: ('A' for Active; 'I' for Inactive)
REMARK    1  A    between atoms: C9_9  and  N10_10 
ROOT
HETATM    1  C1  UNL     1     -38.945  11.758   4.458  1.00 20.00     0.013 C 
HETATM    2  C2  UNL     1     -39.820  12.109   5.203  1.00 20.00    -0.087 C 
HETATM    3  C9  UNL     1     -40.889  12.532   6.110  1.00 20.00     0.364 C 
ENDROOT
BRANCH   3   4
HETATM    4  N10 UNL     1     -40.663  13.894   6.570  1.00 20.00     0.100 N 
HETATM    5  C3  UNL     1     -41.831  14.758   6.373  1.00 20.00     0.278 C 
HETATM    6  C5  UNL     1     -41.685  15.870   7.424  1.00 20.00     0.015 C 
HETATM    7  C6  UNL     1     -40.453  15.460   8.250  1.00 20.00     0.015 C 
HETATM    8  C7  UNL     1     -41.526  17.253   6.803  1.00 20.00     0.012 C 
HETATM    9  C4  UNL     1     -40.351  13.960   7.998  1.00 20.00     0.278 C 
HETATM   10  C8  UNL     1     -40.572  15.805   9.727  1.00 20.00     0.012 C 
ENDBRANCH   3   4
TORSDOF 1
ENDMDL
MODEL 9
REMARK VINA RESULT:      -3.6     11.723     12.811
REMARK  1 active torsions:
REMARK  status: ('A' for Active; 'I' for Inactive)
REMARK    1  A    between atoms: C9_9  and  N10_10 
ROOT
HETATM    1  C1  UNL     1     -34.801   5.374   6.924  1.00 20.00     0.013 C 
HETATM    2  C2  UNL     1     -34.356   6.376   6.434  1.00 20.00    -0.087 C 
HETATM    3  C9  UNL     1     -33.814   7.601   5.841  1.00 20.00     0.364 C 
ENDROOT
BRANCH   3   4
HETATM    4  N10 UNL     1     -33.641   7.443   4.405  1.00 20.00     0.100 N 
HETATM    5  C3  UNL     1     -32.359   7.973   3.929  1.00 20.00     0.278 C 
HETATM    6  C5  UNL     1     -32.064   7.196   2.636  1.00 20.00     0.015 C 
HETATM    7  C6  UNL     1     -33.194   6.157   2.543  1.00 20.00     0.015 C 
HETATM    8  C7  UNL     1     -32.008   8.096   1.406  1.00 20.00     0.012 C 
HETATM    9  C4  UNL     1     -33.678   6.043   3.984  1.00 20.00     0.278 C 
HETATM   10  C8  UNL     1     -32.747   4.825   1.962  1.00 20.00     0.012 C 
ENDBRANCH   3   4
TORSDOF 1
ENDMDL
