MODEL 1
REMARK VINA RESULT:      -5.1      0.000      0.000
REMARK  2 active torsions:
REMARK  status: ('A' for Active; 'I' for Inactive)
REMARK    1  A    between atoms: C4_4  and  C9_9 
REMARK    2  A    between atoms: C5_5  and  C8_8 
ROOT
HETATM    1  C1  UNL     1     -33.660   7.852   5.362  1.00 20.00     0.032 C 
HETATM    2  C2  UNL     1     -32.731   6.535   3.435  1.00 20.00     0.038 C 
HETATM    3  C3  UNL     1     -32.442   8.717   5.049  1.00 20.00     0.168 C 
HETATM    4  C4  UNL     1     -33.998   6.884   4.218  1.00 20.00     0.008 C 
HETATM    5  C5  UNL     1     -32.046   7.801   2.891  1.00 20.00     0.121 C 
HETATM    6  O10 UNL     1     -32.368   8.974   3.651  1.00 20.00    -0.386 OA
ENDROOT
BRANCH   4   7
HETATM    7  C9  UNL     1     -34.698   5.634   4.741  1.00 20.00     0.082 C 
HETATM    8  C7  UNL     1     -34.033   4.371   4.223  1.00 20.00     0.027 C 
HETATM    9 CL11 UNL     1     -34.666   5.643   6.525  1.00 20.00    -0.125 Cl
ENDBRANCH   4   7
BRANCH   5  10
HETATM   10  C8  UNL     1     -32.452   8.083   1.449  1.00 20.00     0.027 C 
HETATM   11  C6  UNL     1     -32.829   9.515   1.247  1.00 20.00     0.007 C 
ENDBRANCH   5  10
TORSDOF 2
ENDMDL
MODEL 2
REMARK VINA RESULT:      -4.0      9.967     11.085
REMARK  2 active torsions:
REMARK  status: ('A' for Active; 'I' for Inactive)
REMARK    1  A    between atoms: C4_4  and  C9_9 
REMARK    2  A    between atoms: C5_5  and  C8_8 
ROOT
HETATM    1  C1  UNL     1     -42.150  13.846   8.469  1.00 20.00     0.032 C 
HETATM    2  C2  UNL     1     -40.435  14.063   6.646  1.00 20.00     0.038 C 
HETATM    3  C3  UNL     1     -42.836  13.005   7.396  1.00 20.00     0.168 C 
HETATM    4  C4  UNL     1     -40.666  14.089   8.158  1.00 20.00     0.008 C 
HETATM    5  C5  UNL     1     -40.907  12.733   6.034  1.00 20.00     0.121 C 
HETATM    6  O10 UNL     1     -41.912  12.086   6.826  1.00 20.00    -0.386 OA
ENDROOT
BRANCH   4   7
HETATM    7  C9  UNL     1     -40.179  15.396   8.780  1.00 20.00     0.082 C 
HETATM    8  C7  UNL     1     -40.908  16.591   8.193  1.00 20.00     0.027 C 
HETATM    9 CL11 UNL     1     -40.433  15.340  10.544  1.00 20.00    -0.125 Cl
ENDBRANCH   4   7
BRANCH   5  10
HETATM   10  C8  UNL     1     -39.756  11.745   5.884  1.00 20.00     0.027 C 
HETATM   11  C6  UNL     1     -39.228  11.714   4.487  1.00 20.00     0.007 C 
ENDBRANCH   5  10
TORSDOF 2
ENDMDL
MODEL 3
REMARK VINA RESULT:      -4.0      2.750      4.031
REMARK  2 active torsions:
REMARK  status: ('A' for Active; 'I' for Inactive)
REMARK    1  A    between atoms: C4_4  and  C9_9 
REMARK    2  A    between atoms: C5_5  and  C8_8 
ROOT
HETATM    1  C1  UNL     1     -33.886   7.294   6.382  1.00 20.00     0.032 C 
HETATM    2  C2  UNL     1     -34.343   6.576   4.019  1.00 20.00     0.038 C 
HETATM    3  C3  UNL     1     -34.774   6.086   6.668  1.00 20.00     0.168 C 
HETATM    4  C4  UNL     1     -33.360   7.303   4.939  1.00 20.00     0.008 C 
HETATM    5  C5  UNL     1     -34.593   5.136   4.497  1.00 20.00     0.121 C 
HETATM    6  O10 UNL     1     -34.346   4.968   5.899  1.00 20.00    -0.386 OA
ENDROOT
BRANCH   4   7
HETATM    7  C9  UNL     1     -33.087   8.726   4.460  1.00 20.00     0.082 C 
HETATM    8  C7  UNL     1     -31.956   9.365   5.246  1.00 20.00     0.027 C 
HETATM    9 CL11 UNL     1     -32.674   8.694   2.726  1.00 20.00    -0.125 Cl
ENDBRANCH   4   7
BRANCH   5  10
HETATM   10  C8  UNL     1     -33.699   4.140   3.767  1.00 20.00     0.027 C 
HETATM   11  C6  UNL     1     -32.978   4.775   2.623  1.00 20.00     0.007 C 
ENDBRANCH   5  10
TORSDOF 2
ENDMDL
MODEL 4
REMARK VINA RESULT:      -3.9     15.206     16.316
REMARK  2 active torsions:
REMARK  status: ('A' for Active; 'I' for Inactive)
REMARK    1  A    between atoms: C4_4  and  C9_9 
REMARK    2  A    between atoms: C5_5  and  C8_8 
ROOT
HETATM    1  C1  UNL     1     -23.757  16.992  10.446  1.00 20.00     0.032 C 
HETATM    2  C2  UNL     1     -24.262  19.127  11.669  1.00 20.00     0.038 C 
HETATM    3  C3  UNL     1     -24.516  16.410  11.636  1.00 20.00     0.168 C 
HETATM    4  C4  UNL     1     -23.970  18.506  10.302  1.00 20.00     0.008 C 
HETATM    5  C5  UNL     1     -25.484  18.467  12.331  1.00 20.00     0.121 C 
HETATM    6  O10 UNL     1     -25.720  17.136  11.853  1.00 20.00    -0.386 OA
ENDROOT
BRANCH   4   7
HETATM    7  C9  UNL     1     -22.775  19.170   9.625  1.00 20.00     0.082 C 
HETATM    8  C7  UNL     1     -21.466  18.705  10.238  1.00 20.00     0.027 C 
HETATM    9 CL11 UNL     1     -22.795  18.786   7.884  1.00 20.00    -0.125 Cl
ENDBRANCH   4   7
BRANCH   5  10
HETATM   10  C8  UNL     1     -26.759  19.263  12.075  1.00 20.00     0.027 C 
HETATM   11  C6  UNL     1     -27.984  18.447  12.332  1.00 20.00     0.007 C 
ENDBRANCH   5  10
TORSDOF 2
ENDMDL
MODEL 5
REMARK VINA RESULT:      -3.9     11.621     12.587
REMARK  2 active torsions:
REMARK  status: ('A' for Active; 'I' for Inactive)
REMARK    1  A    between atoms: C4_4  and  C9_9 
REMARK    2  A    between atoms: C5_5  and  C8_8 
ROOT
HETATM    1  C1  UNL     1     -35.103  18.343  -3.265  1.00 20.00     0.032 C 
HETATM    2  C2  UNL     1     -33.419  16.919  -2.061  1.00 20.00     0.038 C 
HETATM    3  C3  UNL     1     -35.260  18.924  -1.862  1.00 20.00     0.168 C 
HETATM    4  C4  UNL     1     -33.817  17.516  -3.413  1.00 20.00     0.008 C 
HETATM    5  C5  UNL     1     -33.239  18.018  -0.999  1.00 20.00     0.121 C 
HETATM    6  O10 UNL     1     -33.984  19.205  -1.300  1.00 20.00    -0.386 OA
ENDROOT
BRANCH   4   7
HETATM    7  C9  UNL     1     -33.976  16.436  -4.480  1.00 20.00     0.082 C 
HETATM    8  C7  UNL     1     -33.688  15.056  -3.915  1.00 20.00     0.027 C 
HETATM    9 CL11 UNL     1     -35.636  16.488  -5.129  1.00 20.00    -0.125 Cl
ENDBRANCH   4   7
BRANCH   5  10
HETATM   10  C8  UNL     1     -31.778  18.432  -0.864  1.00 20.00     0.027 C 
HETATM   11  C6  UNL     1     -31.356  18.524   0.567  1.00 20.00     0.007 C 
ENDBRANCH   5  10
TORSDOF 2
ENDMDL
MODEL 6
REMARK VINA RESULT:      -3.8     11.298     12.523
REMARK  2 active torsions:
REMARK  status: ('A' for Active; 'I' for Inactive)
REMARK    1  A    between atoms: C4_4  and  C9_9 
REMARK    2  A    between atoms: C5_5  and  C8_8 
ROOT
HETATM    1  C1  UNL     1     -34.199  18.300  -3.750  1.00 20.00     0.032 C 
HETATM    2  C2  UNL     1     -33.059  16.066  -3.603  1.00 20.00     0.038 C 
HETATM    3  C3  UNL     1     -34.444  17.814  -5.177  1.00 20.00     0.168 C 
HETATM    4  C4  UNL     1     -33.776  17.161  -2.811  1.00 20.00     0.008 C 
HETATM    5  C5  UNL     1     -33.946  15.530  -4.741  1.00 20.00     0.121 C 
HETATM    6  O10 UNL     1     -34.935  16.478  -5.163  1.00 20.00    -0.386 OA
ENDROOT
BRANCH   4   7
HETATM    7  C9  UNL     1     -32.914  17.683  -1.665  1.00 20.00     0.082 C 
HETATM    8  C7  UNL     1     -32.436  19.099  -1.934  1.00 20.00     0.027 C 
HETATM    9 CL11 UNL     1     -33.857  17.642  -0.152  1.00 20.00    -0.125 Cl
ENDBRANCH   4   7
BRANCH   5  10
HETATM   10  C8  UNL     1     -34.691  14.268  -4.323  1.00 20.00     0.027 C 
HETATM   11  C6  UNL     1     -35.985  14.117  -5.057  1.00 20.00     0.007 C 
ENDBRANCH   5  10
TORSDOF 2
ENDMDL
MODEL 7
REMARK VINA RESULT:      -3.8     11.388     12.349
REMARK  2 active torsions:
REMARK  status: ('A' for Active; 'I' for Inactive)
REMARK    1  A    between atoms: C4_4  and  C9_9 
REMARK    2  A    between atoms: C5_5  and  C8_8 
ROOT
HETATM    1  C1  UNL     1     -34.726  18.492  -2.585  1.00 20.00     0.032 C 
HETATM    2  C2  UNL     1     -32.949  16.738  -2.863  1.00 20.00     0.038 C 
HETATM    3  C3  UNL     1     -34.830  18.286  -4.094  1.00 20.00     0.168 C 
HETATM    4  C4  UNL     1     -33.957  17.357  -1.893  1.00 20.00     0.008 C 
HETATM    5  C5  UNL     1     -33.644  16.226  -4.137  1.00 20.00     0.121 C 
HETATM    6  O10 UNL     1     -34.884  16.897  -4.397  1.00 20.00    -0.386 OA
ENDROOT
BRANCH   4   7
HETATM    7  C9  UNL     1     -33.281  17.846  -0.615  1.00 20.00     0.082 C 
HETATM    8  C7  UNL     1     -31.975  18.558  -0.920  1.00 20.00     0.027 C 
HETATM    9 CL11 UNL     1     -34.383  18.952   0.248  1.00 20.00    -0.125 Cl
ENDBRANCH   4   7
BRANCH   5  10
HETATM   10  C8  UNL     1     -33.957  14.737  -4.045  1.00 20.00     0.027 C 
HETATM   11  C6  UNL     1     -35.130  14.362  -4.890  1.00 20.00     0.007 C 
ENDBRANCH   5  10
TORSDOF 2
ENDMDL
MODEL 8
REMARK VINA RESULT:      -3.6     11.348     12.944
REMARK  2 active torsions:
REMARK  status: ('A' for Active; 'I' for Inactive)
REMARK    1  A    between atoms: C4_4  and  C9_9 
REMARK    2  A    between atoms: C5_5  and  C8_8 
ROOT
HETATM    1  C1  UNL     1     -33.304  15.865  -3.377  1.00 20.00     0.032 C 
HETATM    2  C2  UNL     1     -35.221  16.966  -4.569  1.00 20.00     0.038 C 
HETATM    3  C3  UNL     1     -33.785  14.675  -4.204  1.00 20.00     0.168 C 
HETATM    4  C4  UNL     1     -33.871  17.197  -3.888  1.00 20.00     0.008 C 
HETATM    5  C5  UNL     1     -35.100  15.951  -5.718  1.00 20.00     0.121 C 
HETATM    6  O10 UNL     1     -33.984  15.065  -5.557  1.00 20.00    -0.386 OA
ENDROOT
BRANCH   4   7
HETATM    7  C9  UNL     1     -33.976  18.221  -2.761  1.00 20.00     0.082 C 
HETATM    8  C7  UNL     1     -35.338  18.891  -2.750  1.00 20.00     0.027 C 
HETATM    9 CL11 UNL     1     -33.689  17.409  -1.199  1.00 20.00    -0.125 Cl
ENDBRANCH   4   7
BRANCH   5  10
HETATM   10  C8  UNL     1     -34.923  16.646  -7.063  1.00 20.00     0.027 C 
HETATM   11  C6  UNL     1     -33.910  15.956  -7.917  1.00 20.00     0.007 C 
ENDBRANCH   5  10
TORSDOF 2
ENDMDL
MODEL 9
REMARK VINA RESULT:      -3.5     10.803     11.966
REMARK  2 active torsions:
REMARK  status: ('A' for Active; 'I' for Inactive)
REMARK    1  A    between atoms: C4_4  and  C9_9 
REMARK    2  A    between atoms: C5_5  and  C8_8 
ROOT
HETATM    1  C1  UNL     1     -40.398  15.784   8.704  1.00 20.00     0.032 C 
HETATM    2  C2  UNL     1     -41.814  14.830   6.861  1.00 20.00     0.038 C 
HETATM    3  C3  UNL     1     -40.423  14.325   9.155  1.00 20.00     0.168 C 
HETATM    4  C4  UNL     1     -40.846  15.951   7.245  1.00 20.00     0.008 C 
HETATM    5  C5  UNL     1     -41.177  13.446   7.079  1.00 20.00     0.121 C 
HETATM    6  O10 UNL     1     -40.131  13.467   8.059  1.00 20.00    -0.386 OA
ENDROOT
BRANCH   4   7
HETATM    7  C9  UNL     1     -41.459  17.328   7.010  1.00 20.00     0.082 C 
HETATM    8  C7  UNL     1     -40.392  18.408   6.972  1.00 20.00     0.027 C 
HETATM    9 CL11 UNL     1     -42.361  17.317   5.471  1.00 20.00    -0.125 Cl
ENDBRANCH   4   7
BRANCH   5  10
HETATM   10  C8  UNL     1     -40.569  12.900   5.792  1.00 20.00     0.027 C 
HETATM   11  C6  UNL     1     -39.374  12.044   6.061  1.00 20.00     0.007 C 
ENDBRANCH   5  10
TORSDOF 2
ENDMDL
