MODEL 1
REMARK VINA RESULT:      -3.8      0.000      0.000
REMARK  3 active torsions:
REMARK  status: ('A' for Active; 'I' for Inactive)
REMARK    1  A    between atoms: C5_5  and  S11_11 
REMARK    2  A    between atoms: C8_8  and  C9_9 
REMARK    3  A    between atoms: C9_9  and  S11_11 
ROOT
HETATM    1  C1  UNL     1     -34.457  14.917  -4.660  1.00 20.00     0.080 C 
HETATM    2  C2  UNL     1     -36.268  15.916  -6.849  1.00 20.00     0.009 C 
HETATM    3  C3  UNL     1     -36.410  16.375  -5.381  1.00 20.00     0.037 C 
HETATM    4  C4  UNL     1     -34.782  16.357  -6.779  1.00 20.00     0.014 C 
HETATM    5  C5  UNL     1     -34.879  16.177  -5.229  1.00 20.00     0.100 C 
HETATM    6  C6  UNL     1     -33.804  15.515  -7.581  1.00 20.00     0.012 C 
HETATM    7  N10 UNL     1     -34.118  13.905  -4.203  1.00 20.00    -0.196 NA
ENDROOT
BRANCH   5   8
HETATM    8  S11 UNL     1     -34.094  17.567  -4.332  1.00 20.00    -0.143 SA
BRANCH   8   9
HETATM    9  C9  UNL     1     -33.280  16.600  -3.042  1.00 20.00     0.075 C 
BRANCH   9  10
HETATM   10  C8  UNL     1     -33.589  17.178  -1.666  1.00 20.00     0.006 C 
HETATM   11  C7  UNL     1     -32.466  18.089  -1.190  1.00 20.00     0.006 C 
ENDBRANCH   9  10
ENDBRANCH   8   9
ENDBRANCH   5   8
TORSDOF 3
ENDMDL
MODEL 2
REMARK VINA RESULT:      -3.7     12.530     14.305
REMARK  3 active torsions:
REMARK  status: ('A' for Active; 'I' for Inactive)
REMARK    1  A    between atoms: C5_5  and  S11_11 
REMARK    2  A    between atoms: C8_8  and  C9_9 
REMARK    3  A    between atoms: C9_9  and  S11_11 
ROOT
HETATM    1  C1  UNL     1     -42.376  13.380   8.054  1.00 20.00     0.080 C 
HETATM    2  C2  UNL     1     -40.967  16.005   8.495  1.00 20.00     0.009 C 
HETATM    3  C3  UNL     1     -40.237  14.752   7.965  1.00 20.00     0.037 C 
HETATM    4  C4  UNL     1     -41.983  15.829   7.335  1.00 20.00     0.014 C 
HETATM    5  C5  UNL     1     -41.574  14.321   7.305  1.00 20.00     0.100 C 
HETATM    6  C6  UNL     1     -43.417  16.221   7.648  1.00 20.00     0.012 C 
HETATM    7  N10 UNL     1     -43.020  12.626   8.655  1.00 20.00    -0.196 NA
ENDROOT
BRANCH   5   8
HETATM    8  S11 UNL     1     -41.329  13.717   5.593  1.00 20.00    -0.143 SA
BRANCH   8   9
HETATM    9  C9  UNL     1     -40.612  12.110   5.999  1.00 20.00     0.075 C 
BRANCH   9  10
HETATM   10  C8  UNL     1     -39.145  12.060   5.586  1.00 20.00     0.006 C 
HETATM   11  C7  UNL     1     -39.000  11.637   4.132  1.00 20.00     0.006 C 
ENDBRANCH   9  10
ENDBRANCH   8   9
ENDBRANCH   5   8
TORSDOF 3
ENDMDL
MODEL 3
REMARK VINA RESULT:      -3.6      1.817      2.479
REMARK  3 active torsions:
REMARK  status: ('A' for Active; 'I' for Inactive)
REMARK    1  A    between atoms: C5_5  and  S11_11 
REMARK    2  A    between atoms: C8_8  and  C9_9 
REMARK    3  A    between atoms: C9_9  and  S11_11 
ROOT
HETATM    1  C1  UNL     1     -34.527  17.470  -5.635  1.00 20.00     0.080 C 
HETATM    2  C2  UNL     1     -35.641  15.198  -7.267  1.00 20.00     0.009 C 
HETATM    3  C3  UNL     1     -34.145  15.297  -6.898  1.00 20.00     0.037 C 
HETATM    4  C4  UNL     1     -35.960  15.325  -5.754  1.00 20.00     0.014 C 
HETATM    5  C5  UNL     1     -34.572  16.026  -5.597  1.00 20.00     0.100 C 
HETATM    6  C6  UNL     1     -37.233  16.078  -5.409  1.00 20.00     0.012 C 
HETATM    7  N10 UNL     1     -34.491  18.630  -5.667  1.00 20.00    -0.196 NA
ENDROOT
BRANCH   5   8
HETATM    8  S11 UNL     1     -33.659  15.407  -4.135  1.00 20.00    -0.143 SA
BRANCH   8   9
HETATM    9  C9  UNL     1     -33.262  17.007  -3.396  1.00 20.00     0.075 C 
BRANCH   9  10
HETATM   10  C8  UNL     1     -33.512  16.977  -1.893  1.00 20.00     0.006 C 
HETATM   11  C7  UNL     1     -32.635  17.991  -1.172  1.00 20.00     0.006 C 
ENDBRANCH   9  10
ENDBRANCH   8   9
ENDBRANCH   5   8
TORSDOF 3
ENDMDL
MODEL 4
REMARK VINA RESULT:      -3.5      1.621      2.324
REMARK  3 active torsions:
REMARK  status: ('A' for Active; 'I' for Inactive)
REMARK    1  A    between atoms: C5_5  and  S11_11 
REMARK    2  A    between atoms: C8_8  and  C9_9 
REMARK    3  A    between atoms: C9_9  and  S11_11 
ROOT
HETATM    1  C1  UNL     1     -36.231  16.809  -5.277  1.00 20.00     0.080 C 
HETATM    2  C2  UNL     1     -34.217  15.304  -6.934  1.00 20.00     0.009 C 
HETATM    3  C3  UNL     1     -34.445  16.824  -7.086  1.00 20.00     0.037 C 
HETATM    4  C4  UNL     1     -33.980  15.551  -5.421  1.00 20.00     0.014 C 
HETATM    5  C5  UNL     1     -34.819  16.860  -5.581  1.00 20.00     0.100 C 
HETATM    6  C6  UNL     1     -34.460  14.452  -4.489  1.00 20.00     0.012 C 
HETATM    7  N10 UNL     1     -37.365  16.766  -5.035  1.00 20.00    -0.196 NA
ENDROOT
BRANCH   5   8
HETATM    8  S11 UNL     1     -34.042  18.276  -4.716  1.00 20.00    -0.143 SA
BRANCH   8   9
HETATM    9  C9  UNL     1     -34.663  17.923  -3.058  1.00 20.00     0.075 C 
BRANCH   9  10
HETATM   10  C8  UNL     1     -33.575  17.282  -2.205  1.00 20.00     0.006 C 
HETATM   11  C7  UNL     1     -33.702  17.702  -0.748  1.00 20.00     0.006 C 
ENDBRANCH   9  10
ENDBRANCH   8   9
ENDBRANCH   5   8
TORSDOF 3
ENDMDL
MODEL 5
REMARK VINA RESULT:      -3.3     13.048     14.377
REMARK  3 active torsions:
REMARK  status: ('A' for Active; 'I' for Inactive)
REMARK    1  A    between atoms: C5_5  and  S11_11 
REMARK    2  A    between atoms: C8_8  and  C9_9 
REMARK    3  A    between atoms: C9_9  and  S11_11 
ROOT
HETATM    1  C1  UNL     1     -42.324  13.304   7.698  1.00 20.00     0.080 C 
HETATM    2  C2  UNL     1     -41.667  13.709   4.788  1.00 20.00     0.009 C 
HETATM    3  C3  UNL     1     -42.264  14.830   5.666  1.00 20.00     0.037 C 
HETATM    4  C4  UNL     1     -40.543  13.561   5.847  1.00 20.00     0.014 C 
HETATM    5  C5  UNL     1     -41.534  14.193   6.877  1.00 20.00     0.100 C 
HETATM    6  C6  UNL     1     -40.020  12.151   6.062  1.00 20.00     0.012 C 
HETATM    7  N10 UNL     1     -42.959  12.590   8.356  1.00 20.00    -0.196 NA
ENDROOT
BRANCH   5   8
HETATM    8  S11 UNL     1     -40.715  15.453   7.924  1.00 20.00    -0.143 SA
BRANCH   8   9
HETATM    9  C9  UNL     1     -40.158  14.354   9.244  1.00 20.00     0.075 C 
BRANCH   9  10
HETATM   10  C8  UNL     1     -40.476  14.953  10.608  1.00 20.00     0.006 C 
HETATM   11  C7  UNL     1     -41.325  14.003  11.440  1.00 20.00     0.006 C 
ENDBRANCH   9  10
ENDBRANCH   8   9
ENDBRANCH   5   8
TORSDOF 3
ENDMDL
MODEL 6
REMARK VINA RESULT:      -3.3      1.583      4.720
REMARK  3 active torsions:
REMARK  status: ('A' for Active; 'I' for Inactive)
REMARK    1  A    between atoms: C5_5  and  S11_11 
REMARK    2  A    between atoms: C8_8  and  C9_9 
REMARK    3  A    between atoms: C9_9  and  S11_11 
ROOT
HETATM    1  C1  UNL     1     -33.379  16.611  -3.638  1.00 20.00     0.080 C 
HETATM    2  C2  UNL     1     -32.542  19.263  -2.482  1.00 20.00     0.009 C 
HETATM    3  C3  UNL     1     -33.074  19.119  -3.924  1.00 20.00     0.037 C 
HETATM    4  C4  UNL     1     -33.834  18.554  -1.998  1.00 20.00     0.014 C 
HETATM    5  C5  UNL     1     -33.936  17.929  -3.427  1.00 20.00     0.100 C 
HETATM    6  C6  UNL     1     -33.679  17.654  -0.785  1.00 20.00     0.012 C 
HETATM    7  N10 UNL     1     -32.931  15.555  -3.806  1.00 20.00    -0.196 NA
ENDROOT
BRANCH   5   8
HETATM    8  S11 UNL     1     -35.645  18.001  -4.081  1.00 20.00    -0.143 SA
BRANCH   8   9
HETATM    9  C9  UNL     1     -35.382  17.011  -5.568  1.00 20.00     0.075 C 
BRANCH   9  10
HETATM   10  C8  UNL     1     -36.484  15.968  -5.717  1.00 20.00     0.006 C 
HETATM   11  C7  UNL     1     -35.914  14.558  -5.664  1.00 20.00     0.006 C 
ENDBRANCH   9  10
ENDBRANCH   8   9
ENDBRANCH   5   8
TORSDOF 3
ENDMDL
MODEL 7
REMARK VINA RESULT:      -3.3     12.934     14.161
REMARK  3 active torsions:
REMARK  status: ('A' for Active; 'I' for Inactive)
REMARK    1  A    between atoms: C5_5  and  S11_11 
REMARK    2  A    between atoms: C8_8  and  C9_9 
REMARK    3  A    between atoms: C9_9  and  S11_11 
ROOT
HETATM    1  C1  UNL     1     -42.340  12.963   7.638  1.00 20.00     0.080 C 
HETATM    2  C2  UNL     1     -41.513  13.797   4.865  1.00 20.00     0.009 C 
HETATM    3  C3  UNL     1     -42.017  14.808   5.918  1.00 20.00     0.037 C 
HETATM    4  C4  UNL     1     -40.461  13.329   5.905  1.00 20.00     0.014 C 
HETATM    5  C5  UNL     1     -41.418  13.882   7.010  1.00 20.00     0.100 C 
HETATM    6  C6  UNL     1     -40.113  11.851   5.872  1.00 20.00     0.012 C 
HETATM    7  N10 UNL     1     -43.081  12.225   8.140  1.00 20.00    -0.196 NA
ENDROOT
BRANCH   5   8
HETATM    8  S11 UNL     1     -40.508  14.829   8.287  1.00 20.00    -0.143 SA
BRANCH   8   9
HETATM    9  C9  UNL     1     -41.934  15.391   9.241  1.00 20.00     0.075 C 
BRANCH   9  10
HETATM   10  C8  UNL     1     -41.997  16.914   9.259  1.00 20.00     0.006 C 
HETATM   11  C7  UNL     1     -40.975  17.516   8.307  1.00 20.00     0.006 C 
ENDBRANCH   9  10
ENDBRANCH   8   9
ENDBRANCH   5   8
TORSDOF 3
ENDMDL
MODEL 8
REMARK VINA RESULT:      -3.3     12.500     14.146
REMARK  3 active torsions:
REMARK  status: ('A' for Active; 'I' for Inactive)
REMARK    1  A    between atoms: C5_5  and  S11_11 
REMARK    2  A    between atoms: C8_8  and  C9_9 
REMARK    3  A    between atoms: C9_9  and  S11_11 
ROOT
HETATM    1  C1  UNL     1     -40.576  13.928   7.997  1.00 20.00     0.080 C 
HETATM    2  C2  UNL     1     -43.186  15.417   7.800  1.00 20.00     0.009 C 
HETATM    3  C3  UNL     1     -41.994  15.707   6.862  1.00 20.00     0.037 C 
HETATM    4  C4  UNL     1     -43.082  13.929   7.373  1.00 20.00     0.014 C 
HETATM    5  C5  UNL     1     -41.590  14.216   7.008  1.00 20.00     0.100 C 
HETATM    6  C6  UNL     1     -43.417  12.909   8.447  1.00 20.00     0.012 C 
HETATM    7  N10 UNL     1     -39.763  13.697   8.792  1.00 20.00    -0.196 NA
ENDROOT
BRANCH   5   8
HETATM    8  S11 UNL     1     -41.127  13.472   5.399  1.00 20.00    -0.143 SA
BRANCH   8   9
HETATM    9  C9  UNL     1     -40.275  12.014   6.038  1.00 20.00     0.075 C 
BRANCH   9  10
HETATM   10  C8  UNL     1     -38.879  11.904   5.436  1.00 20.00     0.006 C 
HETATM   11  C7  UNL     1     -38.946  11.748   3.924  1.00 20.00     0.006 C 
ENDBRANCH   9  10
ENDBRANCH   8   9
ENDBRANCH   5   8
TORSDOF 3
ENDMDL
MODEL 9
REMARK VINA RESULT:      -3.3     13.191     14.973
REMARK  3 active torsions:
REMARK  status: ('A' for Active; 'I' for Inactive)
REMARK    1  A    between atoms: C5_5  and  S11_11 
REMARK    2  A    between atoms: C8_8  and  C9_9 
REMARK    3  A    between atoms: C9_9  and  S11_11 
ROOT
HETATM    1  C1  UNL     1     -42.970  15.237   7.338  1.00 20.00     0.080 C 
HETATM    2  C2  UNL     1     -42.131  14.399  10.106  1.00 20.00     0.009 C 
HETATM    3  C3  UNL     1     -43.200  13.633   9.297  1.00 20.00     0.037 C 
HETATM    4  C4  UNL     1     -41.176  14.224   8.895  1.00 20.00     0.014 C 
HETATM    5  C5  UNL     1     -42.452  14.065   8.008  1.00 20.00     0.100 C 
HETATM    6  C6  UNL     1     -40.214  15.372   8.642  1.00 20.00     0.012 C 
HETATM    7  N10 UNL     1     -43.385  16.178   6.802  1.00 20.00    -0.196 NA
ENDROOT
BRANCH   5   8
HETATM    8  S11 UNL     1     -42.285  12.684   6.817  1.00 20.00    -0.143 SA
BRANCH   8   9
HETATM    9  C9  UNL     1     -41.239  13.524   5.609  1.00 20.00     0.075 C 
BRANCH   9  10
HETATM   10  C8  UNL     1     -40.186  12.569   5.058  1.00 20.00     0.006 C 
HETATM   11  C7  UNL     1     -39.338  11.984   6.178  1.00 20.00     0.006 C 
ENDBRANCH   9  10
ENDBRANCH   8   9
ENDBRANCH   5   8
TORSDOF 3
ENDMDL
