MODEL 1
REMARK VINA RESULT:      -4.5      0.000      0.000
REMARK  2 active torsions:
REMARK  status: ('A' for Active; 'I' for Inactive)
REMARK    1  A    between atoms: C3_3  and  C6_6 
REMARK    2  A    between atoms: C6_6  and  C7_7 
ROOT
HETATM    1  C4  UNL     1     -33.185   5.481   2.900  1.00 20.00     0.011 C 
HETATM    2  C6  UNL     1     -33.189   6.404   4.097  1.00 20.00    -0.001 C 
ENDROOT
BRANCH   2   3
HETATM    3  C3  UNL     1     -34.466   6.180   4.918  1.00 20.00    -0.010 A 
HETATM    4  C1  UNL     1     -34.515   5.098   5.963  1.00 20.00     0.005 A 
HETATM    5  C2  UNL     1     -34.500   6.543   6.378  1.00 20.00     0.005 A 
ENDBRANCH   2   3
BRANCH   2   6
HETATM    6  C7  UNL     1     -33.028   7.894   3.738  1.00 20.00     0.058 C 
HETATM    7  C5  UNL     1     -32.216   8.734   4.716  1.00 20.00     0.022 C 
HETATM    8 BR8  UNL     1     -32.225   8.075   1.951  1.00 20.00    -0.091 Br
ENDBRANCH   2   6
TORSDOF 2
ENDMDL
MODEL 2
REMARK VINA RESULT:      -4.2      0.766      2.225
REMARK  2 active torsions:
REMARK  status: ('A' for Active; 'I' for Inactive)
REMARK    1  A    between atoms: C3_3  and  C6_6 
REMARK    2  A    between atoms: C6_6  and  C7_7 
ROOT
HETATM    1  C4  UNL     1     -32.512   8.808   4.901  1.00 20.00     0.011 C 
HETATM    2  C6  UNL     1     -33.179   7.581   4.323  1.00 20.00    -0.001 C 
ENDROOT
BRANCH   2   3
HETATM    3  C3  UNL     1     -33.447   6.564   5.440  1.00 20.00    -0.010 A 
HETATM    4  C1  UNL     1     -34.386   6.902   6.566  1.00 20.00     0.005 A 
HETATM    5  C2  UNL     1     -34.783   5.880   5.537  1.00 20.00     0.005 A 
ENDBRANCH   2   3
BRANCH   2   6
HETATM    6  C7  UNL     1     -32.395   6.928   3.168  1.00 20.00     0.058 C 
HETATM    7  C5  UNL     1     -32.926   5.590   2.672  1.00 20.00     0.022 C 
HETATM    8 BR8  UNL     1     -32.293   8.161   1.639  1.00 20.00    -0.091 Br
ENDBRANCH   2   6
TORSDOF 2
ENDMDL
MODEL 3
REMARK VINA RESULT:      -4.1      1.585      3.499
REMARK  2 active torsions:
REMARK  status: ('A' for Active; 'I' for Inactive)
REMARK    1  A    between atoms: C3_3  and  C6_6 
REMARK    2  A    between atoms: C6_6  and  C7_7 
ROOT
HETATM    1  C4  UNL     1     -34.240   6.890   6.766  1.00 20.00     0.011 C 
HETATM    2  C6  UNL     1     -33.610   6.666   5.411  1.00 20.00    -0.001 C 
ENDROOT
BRANCH   2   3
HETATM    3  C3  UNL     1     -33.527   7.997   4.652  1.00 20.00    -0.010 A 
HETATM    4  C1  UNL     1     -32.399   8.956   4.924  1.00 20.00     0.005 A 
HETATM    5  C2  UNL     1     -32.457   8.213   3.618  1.00 20.00     0.005 A 
ENDBRANCH   2   3
BRANCH   2   6
HETATM    6  C7  UNL     1     -34.324   5.598   4.559  1.00 20.00     0.058 C 
HETATM    7  C5  UNL     1     -35.742   5.934   4.116  1.00 20.00     0.022 C 
HETATM    8 BR8  UNL     1     -33.255   5.187   2.959  1.00 20.00    -0.091 Br
ENDBRANCH   2   6
TORSDOF 2
ENDMDL
MODEL 4
REMARK VINA RESULT:      -3.8      2.297      3.458
REMARK  2 active torsions:
REMARK  status: ('A' for Active; 'I' for Inactive)
REMARK    1  A    between atoms: C3_3  and  C6_6 
REMARK    2  A    between atoms: C6_6  and  C7_7 
ROOT
HETATM    1  C4  UNL     1     -32.536   6.361   2.877  1.00 20.00     0.011 C 
HETATM    2  C6  UNL     1     -33.611   6.745   3.868  1.00 20.00    -0.001 C 
ENDROOT
BRANCH   2   3
HETATM    3  C3  UNL     1     -32.990   7.543   5.022  1.00 20.00    -0.010 A 
HETATM    4  C1  UNL     1     -32.299   8.853   4.752  1.00 20.00     0.005 A 
HETATM    5  C2  UNL     1     -33.618   8.833   5.474  1.00 20.00     0.005 A 
ENDBRANCH   2   3
BRANCH   2   6
HETATM    6  C7  UNL     1     -34.418   5.548   4.408  1.00 20.00     0.058 C 
HETATM    7  C5  UNL     1     -33.885   4.166   4.055  1.00 20.00     0.022 C 
HETATM    8 BR8  UNL     1     -34.576   5.670   6.366  1.00 20.00    -0.091 Br
ENDBRANCH   2   6
TORSDOF 2
ENDMDL
MODEL 5
REMARK VINA RESULT:      -3.8      1.118      1.916
REMARK  2 active torsions:
REMARK  status: ('A' for Active; 'I' for Inactive)
REMARK    1  A    between atoms: C3_3  and  C6_6 
REMARK    2  A    between atoms: C6_6  and  C7_7 
ROOT
HETATM    1  C4  UNL     1     -33.715   7.535   6.523  1.00 20.00     0.011 C 
HETATM    2  C6  UNL     1     -34.084   7.549   5.058  1.00 20.00    -0.001 C 
ENDROOT
BRANCH   2   3
HETATM    3  C3  UNL     1     -34.227   6.109   4.547  1.00 20.00    -0.010 A 
HETATM    4  C1  UNL     1     -34.564   4.996   5.501  1.00 20.00     0.005 A 
HETATM    5  C2  UNL     1     -35.581   5.456   4.494  1.00 20.00     0.005 A 
ENDBRANCH   2   3
BRANCH   2   6
HETATM    6  C7  UNL     1     -33.103   8.344   4.173  1.00 20.00     0.058 C 
HETATM    7  C5  UNL     1     -32.027   9.132   4.908  1.00 20.00     0.022 C 
HETATM    8 BR8  UNL     1     -32.222   7.139   2.891  1.00 20.00    -0.091 Br
ENDBRANCH   2   6
TORSDOF 2
ENDMDL
MODEL 6
REMARK VINA RESULT:      -3.7      1.962      3.737
REMARK  2 active torsions:
REMARK  status: ('A' for Active; 'I' for Inactive)
REMARK    1  A    between atoms: C3_3  and  C6_6 
REMARK    2  A    between atoms: C6_6  and  C7_7 
ROOT
HETATM    1  C4  UNL     1     -34.353   6.824   6.640  1.00 20.00     0.011 C 
HETATM    2  C6  UNL     1     -33.560   6.791   5.355  1.00 20.00    -0.001 C 
ENDROOT
BRANCH   2   3
HETATM    3  C3  UNL     1     -33.440   8.211   4.784  1.00 20.00    -0.010 A 
HETATM    4  C1  UNL     1     -32.126   8.941   4.837  1.00 20.00     0.005 A 
HETATM    5  C2  UNL     1     -32.663   8.455   3.519  1.00 20.00     0.005 A 
ENDBRANCH   2   3
BRANCH   2   6
HETATM    6  C7  UNL     1     -34.126   5.825   4.295  1.00 20.00     0.058 C 
HETATM    7  C5  UNL     1     -33.948   4.340   4.580  1.00 20.00     0.022 C 
HETATM    8 BR8  UNL     1     -36.042   6.178   4.016  1.00 20.00    -0.091 Br
ENDBRANCH   2   6
TORSDOF 2
ENDMDL
MODEL 7
REMARK VINA RESULT:      -3.6      1.591      2.957
REMARK  2 active torsions:
REMARK  status: ('A' for Active; 'I' for Inactive)
REMARK    1  A    between atoms: C3_3  and  C6_6 
REMARK    2  A    between atoms: C6_6  and  C7_7 
ROOT
HETATM    1  C4  UNL     1     -34.792   5.019   4.965  1.00 20.00     0.011 C 
HETATM    2  C6  UNL     1     -34.261   6.252   4.272  1.00 20.00    -0.001 C 
ENDROOT
BRANCH   2   3
HETATM    3  C3  UNL     1     -32.926   5.928   3.588  1.00 20.00    -0.010 A 
HETATM    4  C1  UNL     1     -32.888   5.013   2.394  1.00 20.00     0.005 A 
HETATM    5  C2  UNL     1     -32.619   6.482   2.225  1.00 20.00     0.005 A 
ENDBRANCH   2   3
BRANCH   2   6
HETATM    6  C7  UNL     1     -34.115   7.476   5.197  1.00 20.00     0.058 C 
HETATM    7  C5  UNL     1     -34.096   7.186   6.692  1.00 20.00     0.022 C 
HETATM    8 BR8  UNL     1     -32.483   8.476   4.740  1.00 20.00    -0.091 Br
ENDBRANCH   2   6
TORSDOF 2
ENDMDL
MODEL 8
REMARK VINA RESULT:      -3.6      2.096      3.740
REMARK  2 active torsions:
REMARK  status: ('A' for Active; 'I' for Inactive)
REMARK    1  A    between atoms: C3_3  and  C6_6 
REMARK    2  A    between atoms: C6_6  and  C7_7 
ROOT
HETATM    1  C4  UNL     1     -34.039   6.992   6.500  1.00 20.00     0.011 C 
HETATM    2  C6  UNL     1     -33.309   7.091   5.180  1.00 20.00    -0.001 C 
ENDROOT
BRANCH   2   3
HETATM    3  C3  UNL     1     -33.280   8.552   4.713  1.00 20.00    -0.010 A 
HETATM    4  C1  UNL     1     -32.011   9.355   4.810  1.00 20.00     0.005 A 
HETATM    5  C2  UNL     1     -32.533   8.934   3.464  1.00 20.00     0.005 A 
ENDBRANCH   2   3
BRANCH   2   6
HETATM    6  C7  UNL     1     -33.883   6.179   4.078  1.00 20.00     0.058 C 
HETATM    7  C5  UNL     1     -32.888   5.677   3.040  1.00 20.00     0.022 C 
HETATM    8 BR8  UNL     1     -34.773   4.622   4.887  1.00 20.00    -0.091 Br
ENDBRANCH   2   6
TORSDOF 2
ENDMDL
MODEL 9
REMARK VINA RESULT:      -3.6      2.312      3.564
REMARK  2 active torsions:
REMARK  status: ('A' for Active; 'I' for Inactive)
REMARK    1  A    between atoms: C3_3  and  C6_6 
REMARK    2  A    between atoms: C6_6  and  C7_7 
ROOT
HETATM    1  C4  UNL     1     -33.271   5.223   3.234  1.00 20.00     0.011 C 
HETATM    2  C6  UNL     1     -33.396   6.639   3.745  1.00 20.00    -0.001 C 
ENDROOT
BRANCH   2   3
HETATM    3  C3  UNL     1     -32.229   7.484   3.218  1.00 20.00    -0.010 A 
HETATM    4  C1  UNL     1     -32.180   7.889   1.769  1.00 20.00     0.005 A 
HETATM    5  C2  UNL     1     -32.449   8.921   2.829  1.00 20.00     0.005 A 
ENDBRANCH   2   3
BRANCH   2   6
HETATM    6  C7  UNL     1     -33.491   6.743   5.280  1.00 20.00     0.058 C 
HETATM    7  C5  UNL     1     -33.956   8.084   5.832  1.00 20.00     0.022 C 
HETATM    8 BR8  UNL     1     -34.681   5.340   5.979  1.00 20.00    -0.091 Br
ENDBRANCH   2   6
TORSDOF 2
ENDMDL
