MODEL 1
REMARK VINA RESULT:      -4.3      0.000      0.000
REMARK  2 active torsions:
REMARK  status: ('A' for Active; 'I' for Inactive)
REMARK    1  A    between atoms: C5_5  and  C9_9 
REMARK    2  A    between atoms: C6_6  and  C10_10 
ROOT
HETATM    1  C1  UNL     1     -33.131  18.900   1.620  1.00 20.00     0.005 C 
HETATM    2  C2  UNL     1     -30.867  18.865   0.502  1.00 20.00     0.005 C 
HETATM    3  C3  UNL     1     -33.777  18.403   0.329  1.00 20.00     0.006 C 
HETATM    4  C4  UNL     1     -31.513  18.368  -0.789  1.00 20.00     0.006 C 
HETATM    5  C5  UNL     1     -31.671  18.443   1.738  1.00 20.00    -0.015 C 
HETATM    6  C6  UNL     1     -32.972  18.826  -0.907  1.00 20.00     0.003 C 
ENDROOT
BRANCH   6   7
HETATM    7  C10 UNL     1     -33.610  18.276  -2.181  1.00 20.00     0.082 C 
HETATM    8  C8  UNL     1     -33.417  16.772  -2.293  1.00 20.00     0.027 C 
HETATM    9 CL11 UNL     1     -32.891  19.084  -3.600  1.00 20.00    -0.125 Cl
ENDBRANCH   6   7
BRANCH   5  10
HETATM   10  C9  UNL     1     -31.034  18.995   3.011  1.00 20.00     0.000 C 
HETATM   11  C7  UNL     1     -29.559  18.763   3.034  1.00 20.00     0.005 C 
ENDBRANCH   5  10
TORSDOF 2
ENDMDL
MODEL 2
REMARK VINA RESULT:      -4.3     11.730     12.609
REMARK  2 active torsions:
REMARK  status: ('A' for Active; 'I' for Inactive)
REMARK    1  A    between atoms: C5_5  and  C9_9 
REMARK    2  A    between atoms: C6_6  and  C10_10 
ROOT
HETATM    1  C1  UNL     1     -32.626   8.710   3.177  1.00 20.00     0.005 C 
HETATM    2  C2  UNL     1     -32.920   6.413   2.170  1.00 20.00     0.005 C 
HETATM    3  C3  UNL     1     -32.831   8.126   4.573  1.00 20.00     0.006 C 
HETATM    4  C4  UNL     1     -33.125   5.828   3.567  1.00 20.00     0.006 C 
HETATM    5  C5  UNL     1     -32.047   7.673   2.206  1.00 20.00    -0.015 C 
HETATM    6  C6  UNL     1     -33.705   6.865   4.537  1.00 20.00     0.003 C 
ENDROOT
BRANCH   6   7
HETATM    7  C10 UNL     1     -33.853   6.271   5.936  1.00 20.00     0.082 C 
HETATM    8  C8  UNL     1     -34.895   5.164   5.961  1.00 20.00     0.027 C 
HETATM    9 CL11 UNL     1     -34.314   7.560   7.080  1.00 20.00    -0.125 Cl
ENDBRANCH   6   7
BRANCH   5  10
HETATM   10  C9  UNL     1     -31.900   8.268   0.807  1.00 20.00     0.000 C 
HETATM   11  C7  UNL     1     -32.781   9.460   0.620  1.00 20.00     0.005 C 
ENDBRANCH   5  10
TORSDOF 2
ENDMDL
MODEL 3
REMARK VINA RESULT:      -4.3     11.914     12.814
REMARK  2 active torsions:
REMARK  status: ('A' for Active; 'I' for Inactive)
REMARK    1  A    between atoms: C5_5  and  C9_9 
REMARK    2  A    between atoms: C6_6  and  C10_10 
ROOT
HETATM    1  C1  UNL     1     -32.984   8.572   3.213  1.00 20.00     0.005 C 
HETATM    2  C2  UNL     1     -32.985   6.239   2.247  1.00 20.00     0.005 C 
HETATM    3  C3  UNL     1     -33.464   8.018   4.553  1.00 20.00     0.006 C 
HETATM    4  C4  UNL     1     -33.465   5.685   3.588  1.00 20.00     0.006 C 
HETATM    5  C5  UNL     1     -32.179   7.532   2.424  1.00 20.00    -0.015 C 
HETATM    6  C6  UNL     1     -34.271   6.725   4.376  1.00 20.00     0.003 C 
ENDROOT
BRANCH   6   7
HETATM    7  C10 UNL     1     -34.696   6.164   5.732  1.00 20.00     0.082 C 
HETATM    8  C8  UNL     1     -34.166   7.014   6.874  1.00 20.00     0.027 C 
HETATM    9 CL11 UNL     1     -34.097   4.492   5.894  1.00 20.00    -0.125 Cl
ENDBRANCH   6   7
BRANCH   5  10
HETATM   10  C9  UNL     1     -31.755   8.093   1.068  1.00 20.00     0.000 C 
HETATM   11  C7  UNL     1     -32.643   9.213   0.634  1.00 20.00     0.005 C 
ENDBRANCH   5  10
TORSDOF 2
ENDMDL
MODEL 4
REMARK VINA RESULT:      -4.1      2.421      5.919
REMARK  2 active torsions:
REMARK  status: ('A' for Active; 'I' for Inactive)
REMARK    1  A    between atoms: C5_5  and  C9_9 
REMARK    2  A    between atoms: C6_6  and  C10_10 
ROOT
HETATM    1  C1  UNL     1     -33.524  16.135  -3.630  1.00 20.00     0.005 C 
HETATM    2  C2  UNL     1     -33.838  18.463  -4.557  1.00 20.00     0.005 C 
HETATM    3  C3  UNL     1     -33.336  16.717  -2.230  1.00 20.00     0.006 C 
HETATM    4  C4  UNL     1     -33.650  19.045  -3.157  1.00 20.00     0.006 C 
HETATM    5  C5  UNL     1     -34.401  17.038  -4.507  1.00 20.00    -0.015 C 
HETATM    6  C6  UNL     1     -32.772  18.144  -2.281  1.00 20.00     0.003 C 
ENDROOT
BRANCH   6   7
HETATM    7  C10 UNL     1     -32.640  18.722  -0.873  1.00 20.00     0.082 C 
HETATM    8  C8  UNL     1     -31.262  18.454  -0.290  1.00 20.00     0.027 C 
HETATM    9 CL11 UNL     1     -33.890  18.006   0.180  1.00 20.00    -0.125 Cl
ENDBRANCH   6   7
BRANCH   5  10
HETATM   10  C9  UNL     1     -34.531  16.460  -5.915  1.00 20.00     0.000 C 
HETATM   11  C7  UNL     1     -34.055  15.045  -5.975  1.00 20.00     0.005 C 
ENDBRANCH   5  10
TORSDOF 2
ENDMDL
MODEL 5
REMARK VINA RESULT:      -4.1     11.743     12.368
REMARK  2 active torsions:
REMARK  status: ('A' for Active; 'I' for Inactive)
REMARK    1  A    between atoms: C5_5  and  C9_9 
REMARK    2  A    between atoms: C6_6  and  C10_10 
ROOT
HETATM    1  C1  UNL     1     -33.795   7.185   4.935  1.00 20.00     0.005 C 
HETATM    2  C2  UNL     1     -33.270   5.324   3.310  1.00 20.00     0.005 C 
HETATM    3  C3  UNL     1     -33.367   8.217   3.893  1.00 20.00     0.006 C 
HETATM    4  C4  UNL     1     -32.842   6.356   2.268  1.00 20.00     0.006 C 
HETATM    5  C5  UNL     1     -34.310   5.897   4.281  1.00 20.00    -0.015 C 
HETATM    6  C6  UNL     1     -32.325   7.643   2.923  1.00 20.00     0.003 C 
ENDROOT
BRANCH   6   7
HETATM    7  C10 UNL     1     -31.950   8.676   1.862  1.00 20.00     0.082 C 
HETATM    8  C8  UNL     1     -32.995   9.776   1.765  1.00 20.00     0.027 C 
HETATM    9 CL11 UNL     1     -31.779   7.865   0.282  1.00 20.00    -0.125 Cl
ENDBRANCH   6   7
BRANCH   5  10
HETATM   10  C9  UNL     1     -34.684   4.865   5.343  1.00 20.00     0.000 C 
HETATM   11  C7  UNL     1     -34.372   5.354   6.719  1.00 20.00     0.005 C 
ENDBRANCH   5  10
TORSDOF 2
ENDMDL
MODEL 6
REMARK VINA RESULT:      -4.0      2.339      3.796
REMARK  2 active torsions:
REMARK  status: ('A' for Active; 'I' for Inactive)
REMARK    1  A    between atoms: C5_5  and  C9_9 
REMARK    2  A    between atoms: C6_6  and  C10_10 
ROOT
HETATM    1  C1  UNL     1     -33.393  17.053  -1.544  1.00 20.00     0.005 C 
HETATM    2  C2  UNL     1     -33.067  19.217  -2.804  1.00 20.00     0.005 C 
HETATM    3  C3  UNL     1     -33.636  16.321  -2.862  1.00 20.00     0.006 C 
HETATM    4  C4  UNL     1     -33.310  18.484  -4.122  1.00 20.00     0.006 C 
HETATM    5  C5  UNL     1     -32.494  18.281  -1.733  1.00 20.00    -0.015 C 
HETATM    6  C6  UNL     1     -34.211  17.258  -3.933  1.00 20.00     0.003 C 
ENDROOT
BRANCH   6   7
HETATM    7  C10 UNL     1     -34.398  16.516  -5.255  1.00 20.00     0.082 C 
HETATM    8  C8  UNL     1     -35.865  16.435  -5.643  1.00 20.00     0.027 C 
HETATM    9 CL11 UNL     1     -33.720  14.872  -5.112  1.00 20.00    -0.125 Cl
ENDBRANCH   6   7
BRANCH   5  10
HETATM   10  C9  UNL     1     -32.308  19.022  -0.411  1.00 20.00     0.000 C 
HETATM   11  C7  UNL     1     -31.081  18.566   0.309  1.00 20.00     0.005 C 
ENDBRANCH   5  10
TORSDOF 2
ENDMDL
MODEL 7
REMARK VINA RESULT:      -4.0      2.640      4.395
REMARK  2 active torsions:
REMARK  status: ('A' for Active; 'I' for Inactive)
REMARK    1  A    between atoms: C5_5  and  C9_9 
REMARK    2  A    between atoms: C6_6  and  C10_10 
ROOT
HETATM    1  C1  UNL     1     -34.565  18.676  -2.605  1.00 20.00     0.005 C 
HETATM    2  C2  UNL     1     -33.018  16.684  -2.484  1.00 20.00     0.005 C 
HETATM    3  C3  UNL     1     -35.226  18.088  -3.850  1.00 20.00     0.006 C 
HETATM    4  C4  UNL     1     -33.680  16.096  -3.729  1.00 20.00     0.006 C 
HETATM    5  C5  UNL     1     -33.982  17.582  -1.701  1.00 20.00    -0.015 C 
HETATM    6  C6  UNL     1     -34.260  17.190  -4.634  1.00 20.00     0.003 C 
ENDROOT
BRANCH   6   7
HETATM    7  C10 UNL     1     -34.959  16.574  -5.845  1.00 20.00     0.082 C 
HETATM    8  C8  UNL     1     -36.384  16.163  -5.514  1.00 20.00     0.027 C 
HETATM    9 CL11 UNL     1     -34.034  15.154  -6.403  1.00 20.00    -0.125 Cl
ENDBRANCH   6   7
BRANCH   5  10
HETATM   10  C9  UNL     1     -33.283  18.199  -0.491  1.00 20.00     0.000 C 
HETATM   11  C7  UNL     1     -31.838  18.461  -0.764  1.00 20.00     0.005 C 
ENDBRANCH   5  10
TORSDOF 2
ENDMDL
MODEL 8
REMARK VINA RESULT:      -3.9      2.937      4.823
REMARK  2 active torsions:
REMARK  status: ('A' for Active; 'I' for Inactive)
REMARK    1  A    between atoms: C5_5  and  C9_9 
REMARK    2  A    between atoms: C6_6  and  C10_10 
ROOT
HETATM    1  C1  UNL     1     -33.292  16.645  -2.293  1.00 20.00     0.005 C 
HETATM    2  C2  UNL     1     -33.915  18.682  -3.650  1.00 20.00     0.005 C 
HETATM    3  C3  UNL     1     -33.424  15.773  -3.540  1.00 20.00     0.006 C 
HETATM    4  C4  UNL     1     -34.047  17.810  -4.897  1.00 20.00     0.006 C 
HETATM    5  C5  UNL     1     -32.917  18.090  -2.647  1.00 20.00    -0.015 C 
HETATM    6  C6  UNL     1     -34.424  16.366  -4.543  1.00 20.00     0.003 C 
ENDROOT
BRANCH   6   7
HETATM    7  C10 UNL     1     -34.501  15.503  -5.802  1.00 20.00     0.082 C 
HETATM    8  C8  UNL     1     -34.644  16.357  -7.051  1.00 20.00     0.027 C 
HETATM    9 CL11 UNL     1     -35.887  14.388  -5.670  1.00 20.00    -0.125 Cl
ENDBRANCH   6   7
BRANCH   5  10
HETATM   10  C9  UNL     1     -32.842  18.951  -1.388  1.00 20.00     0.000 C 
HETATM   11  C7  UNL     1     -31.734  18.513  -0.487  1.00 20.00     0.005 C 
ENDBRANCH   5  10
TORSDOF 2
ENDMDL
MODEL 9
REMARK VINA RESULT:      -3.7     12.492     13.625
REMARK  2 active torsions:
REMARK  status: ('A' for Active; 'I' for Inactive)
REMARK    1  A    between atoms: C5_5  and  C9_9 
REMARK    2  A    between atoms: C6_6  and  C10_10 
ROOT
HETATM    1  C1  UNL     1     -25.401  17.368  12.078  1.00 20.00     0.005 C 
HETATM    2  C2  UNL     1     -25.770  19.218  10.399  1.00 20.00     0.005 C 
HETATM    3  C3  UNL     1     -23.969  17.196  11.575  1.00 20.00     0.006 C 
HETATM    4  C4  UNL     1     -24.337  19.046   9.896  1.00 20.00     0.006 C 
HETATM    5  C5  UNL     1     -25.909  18.800  11.868  1.00 20.00    -0.015 C 
HETATM    6  C6  UNL     1     -23.831  17.613  10.105  1.00 20.00     0.003 C 
ENDROOT
BRANCH   6   7
HETATM    7  C10 UNL     1     -22.382  17.480   9.640  1.00 20.00     0.082 C 
HETATM    8  C8  UNL     1     -21.433  18.233  10.558  1.00 20.00     0.027 C 
HETATM    9 CL11 UNL     1     -22.235  18.104   7.975  1.00 20.00    -0.125 Cl
ENDBRANCH   6   7
BRANCH   5  10
HETATM   10  C9  UNL     1     -27.358  18.932  12.332  1.00 20.00     0.000 C 
HETATM   11  C7  UNL     1     -28.092  17.636  12.220  1.00 20.00     0.005 C 
ENDBRANCH   5  10
TORSDOF 2
ENDMDL
