MODEL 1
REMARK VINA RESULT:      -4.2      0.000      0.000
REMARK  2 active torsions:
REMARK  status: ('A' for Active; 'I' for Inactive)
REMARK    1  A    between atoms: C4_4  and  C8_8 
REMARK    2  A    between atoms: C5_5  and  C9_9 
ROOT
HETATM    1  C1  UNL     1     -33.753   4.400   3.794  1.00 20.00     0.005 C 
HETATM    2  C2  UNL     1     -32.831   5.149   2.829  1.00 20.00     0.006 C 
HETATM    3  C3  UNL     1     -33.843   6.750   4.308  1.00 20.00     0.010 C 
HETATM    4  C4  UNL     1     -34.651   5.462   4.436  1.00 20.00    -0.014 C 
HETATM    5  C5  UNL     1     -33.242   6.622   2.910  1.00 20.00    -0.000 C 
ENDROOT
BRANCH   5   6
HETATM    6  C9  UNL     1     -32.091   7.581   2.663  1.00 20.00     0.058 C 
HETATM    7  C7  UNL     1     -32.236   8.326   1.346  1.00 20.00     0.022 C 
HETATM    8 BR10 UNL     1     -32.028   8.886   4.119  1.00 20.00    -0.091 Br
ENDBRANCH   5   6
BRANCH   4   9
HETATM    9  C8  UNL     1     -35.034   5.138   5.869  1.00 20.00     0.000 C 
HETATM   10  C6  UNL     1     -34.566   6.191   6.826  1.00 20.00     0.005 C 
ENDBRANCH   4   9
TORSDOF 2
ENDMDL
MODEL 2
REMARK VINA RESULT:      -4.0     11.713     13.163
REMARK  2 active torsions:
REMARK  status: ('A' for Active; 'I' for Inactive)
REMARK    1  A    between atoms: C4_4  and  C8_8 
REMARK    2  A    between atoms: C5_5  and  C9_9 
ROOT
HETATM    1  C1  UNL     1     -33.349  18.074  -3.978  1.00 20.00     0.005 C 
HETATM    2  C2  UNL     1     -33.394  19.156  -2.895  1.00 20.00     0.006 C 
HETATM    3  C3  UNL     1     -33.443  17.007  -1.822  1.00 20.00     0.010 C 
HETATM    4  C4  UNL     1     -33.769  16.770  -3.293  1.00 20.00    -0.014 C 
HETATM    5  C5  UNL     1     -33.874  18.457  -1.621  1.00 20.00    -0.000 C 
ENDROOT
BRANCH   5   6
HETATM    6  C9  UNL     1     -33.318  19.077  -0.351  1.00 20.00     0.058 C 
HETATM    7  C7  UNL     1     -34.034  18.580   0.894  1.00 20.00     0.022 C 
HETATM    8 BR10 UNL     1     -31.419  18.629  -0.205  1.00 20.00    -0.091 Br
ENDBRANCH   5   6
BRANCH   4   9
HETATM    9  C8  UNL     1     -33.084  15.542  -3.866  1.00 20.00     0.000 C 
HETATM   10  C6  UNL     1     -34.066  14.474  -4.237  1.00 20.00     0.005 C 
ENDBRANCH   4   9
TORSDOF 2
ENDMDL
MODEL 3
REMARK VINA RESULT:      -3.9     12.426     13.098
REMARK  2 active torsions:
REMARK  status: ('A' for Active; 'I' for Inactive)
REMARK    1  A    between atoms: C4_4  and  C8_8 
REMARK    2  A    between atoms: C5_5  and  C9_9 
ROOT
HETATM    1  C1  UNL     1     -33.149  18.504   1.053  1.00 20.00     0.005 C 
HETATM    2  C2  UNL     1     -33.836  18.376  -0.309  1.00 20.00     0.006 C 
HETATM    3  C3  UNL     1     -31.460  18.424  -0.662  1.00 20.00     0.010 C 
HETATM    4  C4  UNL     1     -31.703  18.918   0.761  1.00 20.00    -0.014 C 
HETATM    5  C5  UNL     1     -32.781  18.753  -1.352  1.00 20.00    -0.000 C 
ENDROOT
BRANCH   5   6
HETATM    6  C9  UNL     1     -32.961  18.032  -2.676  1.00 20.00     0.058 C 
HETATM    7  C7  UNL     1     -33.394  16.587  -2.490  1.00 20.00     0.022 C 
HETATM    8 BR10 UNL     1     -34.322  18.966  -3.727  1.00 20.00    -0.091 Br
ENDBRANCH   5   6
BRANCH   4   9
HETATM    9  C8  UNL     1     -30.706  18.364   1.764  1.00 20.00     0.000 C 
HETATM   10  C6  UNL     1     -31.000  18.824   3.159  1.00 20.00     0.005 C 
ENDBRANCH   4   9
TORSDOF 2
ENDMDL
MODEL 4
REMARK VINA RESULT:      -3.9     12.280     13.224
REMARK  2 active torsions:
REMARK  status: ('A' for Active; 'I' for Inactive)
REMARK    1  A    between atoms: C4_4  and  C8_8 
REMARK    2  A    between atoms: C5_5  and  C9_9 
ROOT
HETATM    1  C1  UNL     1     -32.581  19.258  -2.070  1.00 20.00     0.005 C 
HETATM    2  C2  UNL     1     -33.025  18.699  -3.424  1.00 20.00     0.006 C 
HETATM    3  C3  UNL     1     -33.503  17.060  -1.734  1.00 20.00     0.010 C 
HETATM    4  C4  UNL     1     -32.540  18.065  -1.110  1.00 20.00    -0.014 C 
HETATM    5  C5  UNL     1     -33.194  17.190  -3.222  1.00 20.00    -0.000 C 
ENDROOT
BRANCH   5   6
HETATM    6  C9  UNL     1     -34.263  16.582  -4.112  1.00 20.00     0.058 C 
HETATM    7  C7  UNL     1     -34.472  17.381  -5.388  1.00 20.00     0.022 C 
HETATM    8 BR10 UNL     1     -33.732  14.761  -4.590  1.00 20.00    -0.091 Br
ENDBRANCH   5   6
BRANCH   4   9
HETATM    9  C8  UNL     1     -32.902  18.432   0.319  1.00 20.00     0.000 C 
HETATM   10  C6  UNL     1     -31.687  18.590   1.181  1.00 20.00     0.005 C 
ENDBRANCH   4   9
TORSDOF 2
ENDMDL
MODEL 5
REMARK VINA RESULT:      -3.8      1.756      4.409
REMARK  2 active torsions:
REMARK  status: ('A' for Active; 'I' for Inactive)
REMARK    1  A    between atoms: C4_4  and  C8_8 
REMARK    2  A    between atoms: C5_5  and  C9_9 
ROOT
HETATM    1  C1  UNL     1     -32.129   7.405   2.051  1.00 20.00     0.005 C 
HETATM    2  C2  UNL     1     -32.632   6.250   2.921  1.00 20.00     0.006 C 
HETATM    3  C3  UNL     1     -33.675   8.279   3.676  1.00 20.00     0.010 C 
HETATM    4  C4  UNL     1     -32.500   8.692   2.795  1.00 20.00    -0.014 C 
HETATM    5  C5  UNL     1     -33.249   6.897   4.164  1.00 20.00    -0.000 C 
ENDROOT
BRANCH   5   6
HETATM    6  C9  UNL     1     -34.393   6.091   4.754  1.00 20.00     0.058 C 
HETATM    7  C7  UNL     1     -34.242   4.602   4.494  1.00 20.00     0.022 C 
HETATM    8 BR10 UNL     1     -34.448   6.389   6.687  1.00 20.00    -0.091 Br
ENDBRANCH   5   6
BRANCH   4   9
HETATM    9  C8  UNL     1     -32.826   9.849   1.868  1.00 20.00     0.000 C 
HETATM   10  C6  UNL     1     -32.759   9.449   0.427  1.00 20.00     0.005 C 
ENDBRANCH   4   9
TORSDOF 2
ENDMDL
MODEL 6
REMARK VINA RESULT:      -3.8     11.819     13.057
REMARK  2 active torsions:
REMARK  status: ('A' for Active; 'I' for Inactive)
REMARK    1  A    between atoms: C4_4  and  C8_8 
REMARK    2  A    between atoms: C5_5  and  C9_9 
ROOT
HETATM    1  C1  UNL     1     -34.862  18.525  -2.523  1.00 20.00     0.005 C 
HETATM    2  C2  UNL     1     -35.003  17.881  -3.905  1.00 20.00     0.006 C 
HETATM    3  C3  UNL     1     -33.454  16.574  -2.615  1.00 20.00     0.010 C 
HETATM    4  C4  UNL     1     -33.608  17.909  -1.893  1.00 20.00    -0.014 C 
HETATM    5  C5  UNL     1     -33.807  16.937  -4.055  1.00 20.00    -0.000 C 
ENDROOT
BRANCH   5   6
HETATM    6  C9  UNL     1     -34.103  15.727  -4.923  1.00 20.00     0.058 C 
HETATM    7  C7  UNL     1     -34.007  14.424  -4.146  1.00 20.00     0.022 C 
HETATM    8 BR10 UNL     1     -35.913  15.894  -5.648  1.00 20.00    -0.091 Br
ENDBRANCH   5   6
BRANCH   4   9
HETATM    9  C8  UNL     1     -33.702  17.765  -0.384  1.00 20.00     0.000 C 
HETATM   10  C6  UNL     1     -32.605  18.504   0.318  1.00 20.00     0.005 C 
ENDBRANCH   4   9
TORSDOF 2
ENDMDL
MODEL 7
REMARK VINA RESULT:      -3.8     10.266     11.395
REMARK  2 active torsions:
REMARK  status: ('A' for Active; 'I' for Inactive)
REMARK    1  A    between atoms: C4_4  and  C8_8 
REMARK    2  A    between atoms: C5_5  and  C9_9 
ROOT
HETATM    1  C1  UNL     1     -41.142  13.313   4.892  1.00 20.00     0.005 C 
HETATM    2  C2  UNL     1     -41.944  14.425   5.574  1.00 20.00     0.006 C 
HETATM    3  C3  UNL     1     -40.361  13.551   7.157  1.00 20.00     0.010 C 
HETATM    4  C4  UNL     1     -40.443  12.542   6.016  1.00 20.00    -0.014 C 
HETATM    5  C5  UNL     1     -41.718  14.245   7.078  1.00 20.00    -0.000 C 
ENDROOT
BRANCH   5   6
HETATM    6  C9  UNL     1     -41.769  15.551   7.852  1.00 20.00     0.058 C 
HETATM    7  C7  UNL     1     -40.451  15.864   8.540  1.00 20.00     0.022 C 
HETATM    8 BR10 UNL     1     -42.192  17.006   6.614  1.00 20.00    -0.091 Br
ENDBRANCH   5   6
BRANCH   4   9
HETATM    9  C8  UNL     1     -39.089  11.986   5.611  1.00 20.00     0.000 C 
HETATM   10  C6  UNL     1     -39.019  11.694   4.144  1.00 20.00     0.005 C 
ENDBRANCH   4   9
TORSDOF 2
ENDMDL
MODEL 8
REMARK VINA RESULT:      -3.7     11.942     13.077
REMARK  2 active torsions:
REMARK  status: ('A' for Active; 'I' for Inactive)
REMARK    1  A    between atoms: C4_4  and  C8_8 
REMARK    2  A    between atoms: C5_5  and  C9_9 
ROOT
HETATM    1  C1  UNL     1     -33.625  14.947  -4.175  1.00 20.00     0.005 C 
HETATM    2  C2  UNL     1     -33.256  16.050  -3.178  1.00 20.00     0.006 C 
HETATM    3  C3  UNL     1     -34.851  16.941  -4.739  1.00 20.00     0.010 C 
HETATM    4  C4  UNL     1     -34.316  15.649  -5.348  1.00 20.00    -0.014 C 
HETATM    5  C5  UNL     1     -33.710  17.365  -3.817  1.00 20.00    -0.000 C 
ENDROOT
BRANCH   5   6
HETATM    6  C9  UNL     1     -34.120  18.416  -2.801  1.00 20.00     0.058 C 
HETATM    7  C7  UNL     1     -35.614  18.695  -2.832  1.00 20.00     0.022 C 
HETATM    8 BR10 UNL     1     -33.636  17.790  -1.011  1.00 20.00    -0.091 Br
ENDBRANCH   5   6
BRANCH   4   9
HETATM    9  C8  UNL     1     -35.397  14.804  -6.001  1.00 20.00     0.000 C 
HETATM   10  C6  UNL     1     -36.127  13.960  -5.003  1.00 20.00     0.005 C 
ENDBRANCH   4   9
TORSDOF 2
ENDMDL
MODEL 9
REMARK VINA RESULT:      -3.7      1.595      2.601
REMARK  2 active torsions:
REMARK  status: ('A' for Active; 'I' for Inactive)
REMARK    1  A    between atoms: C4_4  and  C8_8 
REMARK    2  A    between atoms: C5_5  and  C9_9 
ROOT
HETATM    1  C1  UNL     1     -33.627   8.778   5.243  1.00 20.00     0.005 C 
HETATM    2  C2  UNL     1     -32.902   8.908   3.900  1.00 20.00     0.006 C 
HETATM    3  C3  UNL     1     -32.993   6.581   4.491  1.00 20.00     0.010 C 
HETATM    4  C4  UNL     1     -33.322   7.368   5.756  1.00 20.00    -0.014 C 
HETATM    5  C5  UNL     1     -32.167   7.582   3.689  1.00 20.00    -0.000 C 
ENDROOT
BRANCH   5   6
HETATM    6  C9  UNL     1     -32.022   7.203   2.225  1.00 20.00     0.058 C 
HETATM    7  C7  UNL     1     -32.868   5.995   1.857  1.00 20.00     0.022 C 
HETATM    8 BR10 UNL     1     -32.578   8.719   1.120  1.00 20.00    -0.091 Br
ENDBRANCH   5   6
BRANCH   4   9
HETATM    9  C8  UNL     1     -34.461   6.761   6.557  1.00 20.00     0.000 C 
HETATM   10  C6  UNL     1     -34.822   5.392   6.069  1.00 20.00     0.005 C 
ENDBRANCH   4   9
TORSDOF 2
ENDMDL
