MODEL 1
REMARK VINA RESULT:      -4.3      0.000      0.000
REMARK  1 active torsions:
REMARK  status: ('A' for Active; 'I' for Inactive)
REMARK    1  A    between atoms: C6_6  and  C11_11 
ROOT
HETATM    1  C1  UNL     1     -34.041  19.047  -4.590  1.00 20.00     0.001 C 
HETATM    2  C2  UNL     1     -34.344  17.826  -5.447  1.00 20.00     0.006 C 
HETATM    3  C3  UNL     1     -33.596  15.981  -3.876  1.00 20.00     0.007 C 
HETATM    4  C4  UNL     1     -32.952  18.864  -3.533  1.00 20.00     0.008 C 
HETATM    5  C5  UNL     1     -33.418  16.537  -2.462  1.00 20.00     0.009 C 
HETATM    6  C6  UNL     1     -34.765  16.568  -4.676  1.00 20.00     0.003 C 
HETATM    7  C7  UNL     1     -33.336  18.072  -2.259  1.00 20.00    -0.048 C 
HETATM    8  C8  UNL     1     -32.236  18.343  -1.200  1.00 20.00     0.015 C 
HETATM    9  C9  UNL     1     -34.660  18.587  -1.655  1.00 20.00     0.015 C 
ENDROOT
BRANCH   6  10
HETATM   10  C11 UNL     1     -35.270  15.524  -5.680  1.00 20.00     0.082 C 
HETATM   11  C10 UNL     1     -35.534  14.194  -5.000  1.00 20.00     0.027 C 
HETATM   12 CL12 UNL     1     -34.056  15.319  -6.969  1.00 20.00    -0.125 Cl
ENDBRANCH   6  10
TORSDOF 1
ENDMDL
MODEL 2
REMARK VINA RESULT:      -4.2      2.176      4.846
REMARK  1 active torsions:
REMARK  status: ('A' for Active; 'I' for Inactive)
REMARK    1  A    between atoms: C6_6  and  C11_11 
ROOT
HETATM    1  C1  UNL     1     -33.731  14.834  -4.189  1.00 20.00     0.001 C 
HETATM    2  C2  UNL     1     -33.373  16.066  -3.371  1.00 20.00     0.006 C 
HETATM    3  C3  UNL     1     -34.302  17.886  -4.872  1.00 20.00     0.007 C 
HETATM    4  C4  UNL     1     -33.891  15.058  -5.693  1.00 20.00     0.008 C 
HETATM    5  C5  UNL     1     -35.235  17.276  -5.919  1.00 20.00     0.009 C 
HETATM    6  C6  UNL     1     -34.354  17.240  -3.483  1.00 20.00     0.003 C 
HETATM    7  C7  UNL     1     -35.194  15.745  -6.167  1.00 20.00    -0.048 C 
HETATM    8  C8  UNL     1     -35.304  15.519  -7.697  1.00 20.00     0.015 C 
HETATM    9  C9  UNL     1     -36.440  15.085  -5.537  1.00 20.00     0.015 C 
ENDROOT
BRANCH   6  10
HETATM   10  C11 UNL     1     -33.990  18.286  -2.421  1.00 20.00     0.082 C 
HETATM   11  C10 UNL     1     -32.719  19.026  -2.795  1.00 20.00     0.027 C 
HETATM   12 CL12 UNL     1     -33.781  17.474  -0.848  1.00 20.00    -0.125 Cl
ENDBRANCH   6  10
TORSDOF 1
ENDMDL
MODEL 3
REMARK VINA RESULT:      -4.1      2.167      4.792
REMARK  1 active torsions:
REMARK  status: ('A' for Active; 'I' for Inactive)
REMARK    1  A    between atoms: C6_6  and  C11_11 
ROOT
HETATM    1  C1  UNL     1     -33.625  14.781  -4.282  1.00 20.00     0.001 C 
HETATM    2  C2  UNL     1     -33.281  16.006  -3.445  1.00 20.00     0.006 C 
HETATM    3  C3  UNL     1     -34.317  17.828  -4.873  1.00 20.00     0.007 C 
HETATM    4  C4  UNL     1     -33.840  15.034  -5.774  1.00 20.00     0.008 C 
HETATM    5  C5  UNL     1     -35.262  17.211  -5.904  1.00 20.00     0.009 C 
HETATM    6  C6  UNL     1     -34.303  17.148  -3.498  1.00 20.00     0.003 C 
HETATM    7  C7  UNL     1     -35.179  15.689  -6.191  1.00 20.00    -0.048 C 
HETATM    8  C8  UNL     1     -35.330  15.494  -7.721  1.00 20.00     0.015 C 
HETATM    9  C9  UNL     1     -36.382  14.973  -5.538  1.00 20.00     0.015 C 
ENDROOT
BRANCH   6  10
HETATM   10  C11 UNL     1     -33.939  18.181  -2.423  1.00 20.00     0.082 C 
HETATM   11  C10 UNL     1     -33.535  17.504  -1.128  1.00 20.00     0.027 C 
HETATM   12 CL12 UNL     1     -35.339  19.249  -2.142  1.00 20.00    -0.125 Cl
ENDBRANCH   6  10
TORSDOF 1
ENDMDL
MODEL 4
REMARK VINA RESULT:      -4.1     11.345     12.778
REMARK  1 active torsions:
REMARK  status: ('A' for Active; 'I' for Inactive)
REMARK    1  A    between atoms: C6_6  and  C11_11 
ROOT
HETATM    1  C1  UNL     1     -33.625   8.327   5.317  1.00 20.00     0.001 C 
HETATM    2  C2  UNL     1     -32.745   8.815   4.174  1.00 20.00     0.006 C 
HETATM    3  C3  UNL     1     -32.408   6.642   2.910  1.00 20.00     0.007 C 
HETATM    4  C4  UNL     1     -33.494   6.845   5.672  1.00 20.00     0.008 C 
HETATM    5  C5  UNL     1     -33.416   5.596   3.388  1.00 20.00     0.009 C 
HETATM    6  C6  UNL     1     -32.932   8.082   2.840  1.00 20.00     0.003 C 
HETATM    7  C7  UNL     1     -34.175   5.832   4.721  1.00 20.00    -0.048 C 
HETATM    8  C8  UNL     1     -34.240   4.474   5.466  1.00 20.00     0.015 C 
HETATM    9  C9  UNL     1     -35.635   6.236   4.421  1.00 20.00     0.015 C 
ENDROOT
BRANCH   6  10
HETATM   10  C11 UNL     1     -32.170   8.847   1.750  1.00 20.00     0.082 C 
HETATM   11  C10 UNL     1     -32.984  10.017   1.232  1.00 20.00     0.027 C 
HETATM   12 CL12 UNL     1     -31.786   7.732   0.413  1.00 20.00    -0.125 Cl
ENDBRANCH   6  10
TORSDOF 1
ENDMDL
MODEL 5
REMARK VINA RESULT:      -3.8     24.581     25.930
REMARK  1 active torsions:
REMARK  status: ('A' for Active; 'I' for Inactive)
REMARK    1  A    between atoms: C6_6  and  C11_11 
ROOT
HETATM    1  C1  UNL     1     -25.140  -1.004  11.886  1.00 20.00     0.001 C 
HETATM    2  C2  UNL     1     -24.255  -2.107  11.322  1.00 20.00     0.006 C 
HETATM    3  C3  UNL     1     -26.027  -3.731  10.511  1.00 20.00     0.007 C 
HETATM    4  C4  UNL     1     -26.538  -1.436  12.332  1.00 20.00     0.008 C 
HETATM    5  C5  UNL     1     -27.390  -3.039  10.466  1.00 20.00     0.009 C 
HETATM    6  C6  UNL     1     -24.829  -2.859  10.114  1.00 20.00     0.003 C 
HETATM    7  C7  UNL     1     -27.581  -1.696  11.218  1.00 20.00    -0.048 C 
HETATM    8  C8  UNL     1     -28.975  -1.736  11.895  1.00 20.00     0.015 C 
HETATM    9  C9  UNL     1     -27.622  -0.534  10.203  1.00 20.00     0.015 C 
ENDROOT
BRANCH   6  10
HETATM   10  C11 UNL     1     -23.727  -3.748   9.522  1.00 20.00     0.082 C 
HETATM   11  C10 UNL     1     -22.562  -3.887  10.482  1.00 20.00     0.027 C 
HETATM   12 CL12 UNL     1     -23.169  -3.039   7.985  1.00 20.00    -0.125 Cl
ENDBRANCH   6  10
TORSDOF 1
ENDMDL
MODEL 6
REMARK VINA RESULT:      -3.8      1.490      2.566
REMARK  1 active torsions:
REMARK  status: ('A' for Active; 'I' for Inactive)
REMARK    1  A    between atoms: C6_6  and  C11_11 
ROOT
HETATM    1  C1  UNL     1     -33.144  16.325  -3.338  1.00 20.00     0.001 C 
HETATM    2  C2  UNL     1     -34.121  16.654  -4.459  1.00 20.00     0.006 C 
HETATM    3  C3  UNL     1     -35.532  18.424  -3.316  1.00 20.00     0.007 C 
HETATM    4  C4  UNL     1     -33.642  16.601  -1.919  1.00 20.00     0.008 C 
HETATM    5  C5  UNL     1     -34.832  18.913  -2.047  1.00 20.00     0.009 C 
HETATM    6  C6  UNL     1     -34.611  18.107  -4.499  1.00 20.00     0.003 C 
HETATM    7  C7  UNL     1     -33.665  18.078  -1.458  1.00 20.00    -0.048 C 
HETATM    8  C8  UNL     1     -33.826  18.076   0.084  1.00 20.00     0.015 C 
HETATM    9  C9  UNL     1     -32.323  18.782  -1.756  1.00 20.00     0.015 C 
ENDROOT
BRANCH   6  10
HETATM   10  C11 UNL     1     -35.374  18.330  -5.812  1.00 20.00     0.082 C 
HETATM   11  C10 UNL     1     -36.762  17.722  -5.748  1.00 20.00     0.027 C 
HETATM   12 CL12 UNL     1     -34.452  17.605  -7.154  1.00 20.00    -0.125 Cl
ENDBRANCH   6  10
TORSDOF 1
ENDMDL
MODEL 7
REMARK VINA RESULT:      -3.8      1.172      2.179
REMARK  1 active torsions:
REMARK  status: ('A' for Active; 'I' for Inactive)
REMARK    1  A    between atoms: C6_6  and  C11_11 
ROOT
HETATM    1  C1  UNL     1     -32.951  15.953  -3.464  1.00 20.00     0.001 C 
HETATM    2  C2  UNL     1     -33.774  15.467  -4.649  1.00 20.00     0.006 C 
HETATM    3  C3  UNL     1     -35.648  17.175  -4.622  1.00 20.00     0.007 C 
HETATM    4  C4  UNL     1     -33.715  16.745  -2.403  1.00 20.00     0.008 C 
HETATM    5  C5  UNL     1     -35.264  18.359  -3.734  1.00 20.00     0.009 C 
HETATM    6  C6  UNL     1     -34.503  16.561  -5.437  1.00 20.00     0.003 C 
HETATM    7  C7  UNL     1     -34.078  18.210  -2.745  1.00 20.00    -0.048 C 
HETATM    8  C8  UNL     1     -34.486  18.904  -1.421  1.00 20.00     0.015 C 
HETATM    9  C9  UNL     1     -32.854  18.981  -3.284  1.00 20.00     0.015 C 
ENDROOT
BRANCH   6  10
HETATM   10  C11 UNL     1     -35.069  15.944  -6.723  1.00 20.00     0.082 C 
HETATM   11  C10 UNL     1     -35.889  14.704  -6.421  1.00 20.00     0.027 C 
HETATM   12 CL12 UNL     1     -33.722  15.532  -7.815  1.00 20.00    -0.125 Cl
ENDBRANCH   6  10
TORSDOF 1
ENDMDL
MODEL 8
REMARK VINA RESULT:      -3.6      2.647      4.762
REMARK  1 active torsions:
REMARK  status: ('A' for Active; 'I' for Inactive)
REMARK    1  A    between atoms: C6_6  and  C11_11 
ROOT
HETATM    1  C1  UNL     1     -35.729  19.186  -3.076  1.00 20.00     0.001 C 
HETATM    2  C2  UNL     1     -34.993  19.159  -1.744  1.00 20.00     0.006 C 
HETATM    3  C3  UNL     1     -33.436  17.196  -2.133  1.00 20.00     0.007 C 
HETATM    4  C4  UNL     1     -35.785  17.859  -3.832  1.00 20.00     0.008 C 
HETATM    5  C5  UNL     1     -33.396  16.846  -3.621  1.00 20.00     0.009 C 
HETATM    6  C6  UNL     1     -33.534  18.690  -1.807  1.00 20.00     0.003 C 
HETATM    7  C7  UNL     1     -34.495  17.410  -4.560  1.00 20.00    -0.048 C 
HETATM    8  C8  UNL     1     -34.892  16.279  -5.543  1.00 20.00     0.015 C 
HETATM    9  C9  UNL     1     -33.908  18.550  -5.420  1.00 20.00     0.015 C 
ENDROOT
BRANCH   6  10
HETATM   10  C11 UNL     1     -32.874  18.958  -0.447  1.00 20.00     0.082 C 
HETATM   11  C10 UNL     1     -31.436  18.478  -0.433  1.00 20.00     0.027 C 
HETATM   12 CL12 UNL     1     -33.806  18.131   0.827  1.00 20.00    -0.125 Cl
ENDBRANCH   6  10
TORSDOF 1
ENDMDL
MODEL 9
REMARK VINA RESULT:      -3.6     13.021     14.453
REMARK  1 active torsions:
REMARK  status: ('A' for Active; 'I' for Inactive)
REMARK    1  A    between atoms: C6_6  and  C11_11 
ROOT
HETATM    1  C1  UNL     1     -43.068  13.512   8.940  1.00 20.00     0.001 C 
HETATM    2  C2  UNL     1     -42.624  13.054   7.557  1.00 20.00     0.006 C 
HETATM    3  C3  UNL     1     -40.717  14.673   7.141  1.00 20.00     0.007 C 
HETATM    4  C4  UNL     1     -42.748  14.964   9.294  1.00 20.00     0.008 C 
HETATM    5  C5  UNL     1     -40.318  15.358   8.448  1.00 20.00     0.009 C 
HETATM    6  C6  UNL     1     -41.126  13.200   7.264  1.00 20.00     0.003 C 
HETATM    7  C7  UNL     1     -41.281  15.291   9.662  1.00 20.00    -0.048 C 
HETATM    8  C8  UNL     1     -41.277  16.686  10.338  1.00 20.00     0.015 C 
HETATM    9  C9  UNL     1     -40.729  14.297  10.707  1.00 20.00     0.015 C 
ENDROOT
BRANCH   6  10
HETATM   10  C11 UNL     1     -40.810  12.473   5.951  1.00 20.00     0.082 C 
HETATM   11  C10 UNL     1     -39.352  12.059   5.891  1.00 20.00     0.027 C 
HETATM   12 CL12 UNL     1     -41.195  13.547   4.582  1.00 20.00    -0.125 Cl
ENDBRANCH   6  10
TORSDOF 1
ENDMDL
