MODEL 1
REMARK VINA RESULT:      -4.6      0.000      0.000
REMARK  3 active torsions:
REMARK  status: ('A' for Active; 'I' for Inactive)
REMARK    1  A    between atoms: C1_1  and  C7_7 
REMARK    2  A    between atoms: C8_8  and  C11_11 
REMARK    3  A    between atoms: C11_11  and  C12_12 
ROOT
HETATM    1  C2  UNL     1     -33.977  14.721  -4.407  1.00 20.00     0.001 C 
HETATM    2  C3  UNL     1     -33.626  15.022  -5.861  1.00 20.00     0.012 C 
HETATM    3  C4  UNL     1     -34.600  17.432  -6.038  1.00 20.00     0.012 C 
HETATM    4  C5  UNL     1     -33.424  15.712  -3.385  1.00 20.00     0.005 C 
HETATM    5  C6  UNL     1     -34.722  17.614  -4.522  1.00 20.00     0.005 C 
HETATM    6  C7  UNL     1     -34.571  15.998  -6.570  1.00 20.00     0.055 C 
HETATM    7  C8  UNL     1     -33.451  17.197  -3.769  1.00 20.00    -0.014 C 
ENDROOT
BRANCH   6   8
HETATM    8  C1  UNL     1     -35.961  15.432  -6.643  1.00 20.00     0.127 C 
HETATM    9  C9  UNL     1     -37.086  16.346  -6.240  1.00 20.00     0.091 C 
HETATM   10  O13 UNL     1     -36.169  14.279  -7.015  1.00 20.00    -0.298 OA
ENDBRANCH   6   8
BRANCH   7  11
HETATM   11  C11 UNL     1     -33.278  18.045  -2.503  1.00 20.00     0.004 C 
BRANCH  11  12
HETATM   12  C12 UNL     1     -33.713  17.271  -1.265  1.00 20.00    -0.004 C 
HETATM   13  C10 UNL     1     -33.666  18.153  -0.027  1.00 20.00     0.005 C 
ENDBRANCH  11  12
ENDBRANCH   7  11
TORSDOF 3
ENDMDL
MODEL 2
REMARK VINA RESULT:      -4.4      1.214      2.199
REMARK  3 active torsions:
REMARK  status: ('A' for Active; 'I' for Inactive)
REMARK    1  A    between atoms: C1_1  and  C7_7 
REMARK    2  A    between atoms: C8_8  and  C11_11 
REMARK    3  A    between atoms: C11_11  and  C12_12 
ROOT
HETATM    1  C2  UNL     1     -35.215  17.690  -5.148  1.00 20.00     0.001 C 
HETATM    2  C3  UNL     1     -36.074  16.428  -5.137  1.00 20.00     0.012 C 
HETATM    3  C4  UNL     1     -34.277  14.704  -4.373  1.00 20.00     0.012 C 
HETATM    4  C5  UNL     1     -34.530  18.023  -3.824  1.00 20.00     0.005 C 
HETATM    5  C6  UNL     1     -33.291  15.774  -3.896  1.00 20.00     0.005 C 
HETATM    6  C7  UNL     1     -35.318  15.124  -5.411  1.00 20.00     0.055 C 
HETATM    7  C8  UNL     1     -33.955  16.848  -3.022  1.00 20.00    -0.014 C 
ENDROOT
BRANCH   6   8
HETATM    8  C1  UNL     1     -34.716  15.140  -6.788  1.00 20.00     0.127 C 
HETATM    9  C9  UNL     1     -35.622  15.545  -7.918  1.00 20.00     0.091 C 
HETATM   10  O13 UNL     1     -33.539  14.838  -6.981  1.00 20.00    -0.298 OA
ENDBRANCH   6   8
BRANCH   7  11
HETATM   11  C11 UNL     1     -32.957  17.387  -1.990  1.00 20.00     0.004 C 
BRANCH  11  12
HETATM   12  C12 UNL     1     -33.663  17.772  -0.697  1.00 20.00    -0.004 C 
HETATM   13  C10 UNL     1     -32.721  18.511   0.240  1.00 20.00     0.005 C 
ENDBRANCH  11  12
ENDBRANCH   7  11
TORSDOF 3
ENDMDL
MODEL 3
REMARK VINA RESULT:      -4.2     11.667     13.265
REMARK  3 active torsions:
REMARK  status: ('A' for Active; 'I' for Inactive)
REMARK    1  A    between atoms: C1_1  and  C7_7 
REMARK    2  A    between atoms: C8_8  and  C11_11 
REMARK    3  A    between atoms: C11_11  and  C12_12 
ROOT
HETATM    1  C2  UNL     1     -33.609   5.116   3.557  1.00 20.00     0.001 C 
HETATM    2  C3  UNL     1     -34.854   5.860   4.031  1.00 20.00     0.012 C 
HETATM    3  C4  UNL     1     -33.779   8.165   4.593  1.00 20.00     0.012 C 
HETATM    4  C5  UNL     1     -32.859   5.771   2.400  1.00 20.00     0.005 C 
HETATM    5  C6  UNL     1     -32.483   7.872   3.830  1.00 20.00     0.005 C 
HETATM    6  C7  UNL     1     -34.600   6.964   5.063  1.00 20.00     0.055 C 
HETATM    7  C8  UNL     1     -32.736   7.301   2.427  1.00 20.00    -0.014 C 
ENDROOT
BRANCH   6   8
HETATM    8  C1  UNL     1     -34.022   6.388   6.324  1.00 20.00     0.127 C 
HETATM    9  C9  UNL     1     -34.581   5.069   6.784  1.00 20.00     0.091 C 
HETATM   10  O13 UNL     1     -33.134   6.965   6.949  1.00 20.00    -0.298 OA
ENDBRANCH   6   8
BRANCH   7  11
HETATM   11  C11 UNL     1     -31.619   7.730   1.467  1.00 20.00     0.004 C 
BRANCH  11  12
HETATM   12  C12 UNL     1     -32.182   8.516   0.291  1.00 20.00    -0.004 C 
HETATM   13  C10 UNL     1     -32.941   9.743   0.769  1.00 20.00     0.005 C 
ENDBRANCH  11  12
ENDBRANCH   7  11
TORSDOF 3
ENDMDL
MODEL 4
REMARK VINA RESULT:      -4.1     12.729     15.264
REMARK  3 active torsions:
REMARK  status: ('A' for Active; 'I' for Inactive)
REMARK    1  A    between atoms: C1_1  and  C7_7 
REMARK    2  A    between atoms: C8_8  and  C11_11 
REMARK    3  A    between atoms: C11_11  and  C12_12 
ROOT
HETATM    1  C2  UNL     1     -43.053  12.648   8.227  1.00 20.00     0.001 C 
HETATM    2  C3  UNL     1     -43.288  14.064   8.746  1.00 20.00     0.012 C 
HETATM    3  C4  UNL     1     -40.907  15.051   8.372  1.00 20.00     0.012 C 
HETATM    4  C5  UNL     1     -42.540  12.558   6.791  1.00 20.00     0.005 C 
HETATM    5  C6  UNL     1     -40.461  13.917   7.444  1.00 20.00     0.005 C 
HETATM    6  C7  UNL     1     -42.055  14.755   9.337  1.00 20.00     0.055 C 
HETATM    7  C8  UNL     1     -41.497  13.595   6.357  1.00 20.00    -0.014 C 
ENDROOT
BRANCH   6   8
HETATM    8  C1  UNL     1     -41.555  14.007  10.541  1.00 20.00     0.127 C 
HETATM    9  C9  UNL     1     -40.368  14.593  11.257  1.00 20.00     0.091 C 
HETATM   10  O13 UNL     1     -42.090  12.968  10.923  1.00 20.00    -0.298 OA
ENDBRANCH   6   8
BRANCH   7  11
HETATM   11  C11 UNL     1     -40.798  13.100   5.085  1.00 20.00     0.004 C 
BRANCH  11  12
HETATM   12  C12 UNL     1     -39.867  11.935   5.392  1.00 20.00    -0.004 C 
HETATM   13  C10 UNL     1     -38.959  11.636   4.208  1.00 20.00     0.005 C 
ENDBRANCH  11  12
ENDBRANCH   7  11
TORSDOF 3
ENDMDL
MODEL 5
REMARK VINA RESULT:      -4.0     11.723     14.217
REMARK  3 active torsions:
REMARK  status: ('A' for Active; 'I' for Inactive)
REMARK    1  A    between atoms: C1_1  and  C7_7 
REMARK    2  A    between atoms: C8_8  and  C11_11 
REMARK    3  A    between atoms: C11_11  and  C12_12 
ROOT
HETATM    1  C2  UNL     1     -42.906  15.165   6.091  1.00 20.00     0.001 C 
HETATM    2  C3  UNL     1     -42.036  16.401   6.305  1.00 20.00     0.012 C 
HETATM    3  C4  UNL     1     -40.327  15.423   8.009  1.00 20.00     0.012 C 
HETATM    4  C5  UNL     1     -42.162  13.921   5.610  1.00 20.00     0.005 C 
HETATM    5  C6  UNL     1     -40.709  13.967   7.728  1.00 20.00     0.005 C 
HETATM    6  C7  UNL     1     -41.365  16.496   7.679  1.00 20.00     0.055 C 
HETATM    7  C8  UNL     1     -40.783  13.651   6.227  1.00 20.00    -0.014 C 
ENDROOT
BRANCH   6   8
HETATM    8  C1  UNL     1     -42.397  16.587   8.767  1.00 20.00     0.127 C 
HETATM    9  C9  UNL     1     -43.371  17.730   8.683  1.00 20.00     0.091 C 
HETATM   10  O13 UNL     1     -42.445  15.766   9.682  1.00 20.00    -0.298 OA
ENDBRANCH   6   8
BRANCH   7  11
HETATM   11  C11 UNL     1     -40.397  12.189   5.969  1.00 20.00     0.004 C 
BRANCH  11  12
HETATM   12  C12 UNL     1     -38.966  12.085   5.460  1.00 20.00    -0.004 C 
HETATM   13  C10 UNL     1     -38.936  11.652   4.003  1.00 20.00     0.005 C 
ENDBRANCH  11  12
ENDBRANCH   7  11
TORSDOF 3
ENDMDL
MODEL 6
REMARK VINA RESULT:      -4.0     11.314     13.337
REMARK  3 active torsions:
REMARK  status: ('A' for Active; 'I' for Inactive)
REMARK    1  A    between atoms: C1_1  and  C7_7 
REMARK    2  A    between atoms: C8_8  and  C11_11 
REMARK    3  A    between atoms: C11_11  and  C12_12 
ROOT
HETATM    1  C2  UNL     1     -40.536  15.384   7.598  1.00 20.00     0.001 C 
HETATM    2  C3  UNL     1     -42.019  15.668   7.822  1.00 20.00     0.012 C 
HETATM    3  C4  UNL     1     -42.974  14.693   5.603  1.00 20.00     0.012 C 
HETATM    4  C5  UNL     1     -40.185  13.921   7.339  1.00 20.00     0.005 C 
HETATM    5  C6  UNL     1     -41.694  13.925   5.260  1.00 20.00     0.005 C 
HETATM    6  C7  UNL     1     -42.840  15.888   6.547  1.00 20.00     0.055 C 
HETATM    7  C8  UNL     1     -41.145  13.122   6.448  1.00 20.00    -0.014 C 
ENDROOT
BRANCH   6   8
HETATM    8  C1  UNL     1     -42.348  17.098   5.803  1.00 20.00     0.127 C 
HETATM    9  C9  UNL     1     -42.675  17.170   4.336  1.00 20.00     0.091 C 
HETATM   10  O13 UNL     1     -41.711  17.987   6.366  1.00 20.00    -0.298 OA
ENDBRANCH   6   8
BRANCH   7  11
HETATM   11  C11 UNL     1     -40.433  11.857   5.953  1.00 20.00     0.004 C 
BRANCH  11  12
HETATM   12  C12 UNL     1     -39.053  12.188   5.401  1.00 20.00    -0.004 C 
HETATM   13  C10 UNL     1     -38.886  11.646   3.990  1.00 20.00     0.005 C 
ENDBRANCH  11  12
ENDBRANCH   7  11
TORSDOF 3
ENDMDL
MODEL 7
REMARK VINA RESULT:      -3.9      2.031      2.687
REMARK  3 active torsions:
REMARK  status: ('A' for Active; 'I' for Inactive)
REMARK    1  A    between atoms: C1_1  and  C7_7 
REMARK    2  A    between atoms: C8_8  and  C11_11 
REMARK    3  A    between atoms: C11_11  and  C12_12 
ROOT
HETATM    1  C2  UNL     1     -34.057  16.237  -3.741  1.00 20.00     0.001 C 
HETATM    2  C3  UNL     1     -34.135  17.292  -4.842  1.00 20.00     0.012 C 
HETATM    3  C4  UNL     1     -35.201  19.241  -3.481  1.00 20.00     0.012 C 
HETATM    4  C5  UNL     1     -33.276  16.651  -2.497  1.00 20.00     0.005 C 
HETATM    5  C6  UNL     1     -34.903  18.603  -2.121  1.00 20.00     0.005 C 
HETATM    6  C7  UNL     1     -35.272  18.308  -4.691  1.00 20.00     0.055 C 
HETATM    7  C8  UNL     1     -33.459  18.094  -2.007  1.00 20.00    -0.014 C 
ENDROOT
BRANCH   6   8
HETATM    8  C1  UNL     1     -36.608  17.622  -4.752  1.00 20.00     0.127 C 
HETATM    9  C9  UNL     1     -36.771  16.550  -5.795  1.00 20.00     0.091 C 
HETATM   10  O13 UNL     1     -37.522  17.920  -3.986  1.00 20.00    -0.298 OA
ENDBRANCH   6   8
BRANCH   7  11
HETATM   11  C11 UNL     1     -32.970  18.196  -0.557  1.00 20.00     0.004 C 
BRANCH  11  12
HETATM   12  C12 UNL     1     -31.482  18.513  -0.503  1.00 20.00    -0.004 C 
HETATM   13  C10 UNL     1     -30.955  18.418   0.920  1.00 20.00     0.005 C 
ENDBRANCH  11  12
ENDBRANCH   7  11
TORSDOF 3
ENDMDL
MODEL 8
REMARK VINA RESULT:      -3.8      2.364      5.009
REMARK  3 active torsions:
REMARK  status: ('A' for Active; 'I' for Inactive)
REMARK    1  A    between atoms: C1_1  and  C7_7 
REMARK    2  A    between atoms: C8_8  and  C11_11 
REMARK    3  A    between atoms: C11_11  and  C12_12 
ROOT
HETATM    1  C2  UNL     1     -32.933  15.896  -3.559  1.00 20.00     0.001 C 
HETATM    2  C3  UNL     1     -33.661  16.313  -2.284  1.00 20.00     0.012 C 
HETATM    3  C4  UNL     1     -34.838  18.467  -3.158  1.00 20.00     0.012 C 
HETATM    4  C5  UNL     1     -33.825  15.687  -4.780  1.00 20.00     0.005 C 
HETATM    5  C6  UNL     1     -34.602  18.131  -4.634  1.00 20.00     0.005 C 
HETATM    6  C7  UNL     1     -33.904  17.819  -2.136  1.00 20.00     0.055 C 
HETATM    7  C8  UNL     1     -34.975  16.682  -4.981  1.00 20.00    -0.014 C 
ENDROOT
BRANCH   6   8
HETATM    8  C1  UNL     1     -32.599  18.561  -2.066  1.00 20.00     0.127 C 
HETATM    9  C9  UNL     1     -31.796  18.402  -0.804  1.00 20.00     0.091 C 
HETATM   10  O13 UNL     1     -32.205  19.263  -2.996  1.00 20.00    -0.298 OA
ENDBRANCH   6   8
BRANCH   7  11
HETATM   11  C11 UNL     1     -35.468  16.591  -6.431  1.00 20.00     0.004 C 
BRANCH  11  12
HETATM   12  C12 UNL     1     -36.963  16.866  -6.517  1.00 20.00    -0.004 C 
HETATM   13  C10 UNL     1     -37.698  16.258  -5.332  1.00 20.00     0.005 C 
ENDBRANCH  11  12
ENDBRANCH   7  11
TORSDOF 3
ENDMDL
MODEL 9
REMARK VINA RESULT:      -3.6     12.191     13.224
REMARK  3 active torsions:
REMARK  status: ('A' for Active; 'I' for Inactive)
REMARK    1  A    between atoms: C1_1  and  C7_7 
REMARK    2  A    between atoms: C8_8  and  C11_11 
REMARK    3  A    between atoms: C11_11  and  C12_12 
ROOT
HETATM    1  C2  UNL     1     -42.377  15.037   5.262  1.00 20.00     0.001 C 
HETATM    2  C3  UNL     1     -42.591  13.740   6.038  1.00 20.00     0.012 C 
HETATM    3  C4  UNL     1     -40.589  13.906   7.696  1.00 20.00     0.012 C 
HETATM    4  C5  UNL     1     -42.351  16.306   6.109  1.00 20.00     0.005 C 
HETATM    5  C6  UNL     1     -40.342  15.393   7.423  1.00 20.00     0.005 C 
HETATM    6  C7  UNL     1     -41.320  13.109   6.615  1.00 20.00     0.055 C 
HETATM    7  C8  UNL     1     -41.630  16.227   7.461  1.00 20.00    -0.014 C 
ENDROOT
BRANCH   6   8
HETATM    8  C1  UNL     1     -40.375  12.719   5.514  1.00 20.00     0.127 C 
HETATM    9  C9  UNL     1     -39.116  12.005   5.924  1.00 20.00     0.091 C 
HETATM   10  O13 UNL     1     -40.619  12.970   4.335  1.00 20.00    -0.298 OA
ENDBRANCH   6   8
BRANCH   7  11
HETATM   11  C11 UNL     1     -41.330  17.649   7.953  1.00 20.00     0.004 C 
BRANCH  11  12
HETATM   12  C12 UNL     1     -41.311  18.635   6.792  1.00 20.00    -0.004 C 
HETATM   13  C10 UNL     1     -39.900  19.136   6.526  1.00 20.00     0.005 C 
ENDBRANCH  11  12
ENDBRANCH   7  11
TORSDOF 3
ENDMDL
