MODEL 1
REMARK VINA RESULT:      -4.0      0.000      0.000
REMARK  1 active torsions:
REMARK  status: ('A' for Active; 'I' for Inactive)
REMARK    1  A    between atoms: C6_6  and  C10_10 
ROOT
HETATM    1  C1  UNL     1     -33.282   5.021   2.896  1.00 20.00     0.001 C 
HETATM    2  C2  UNL     1     -32.959   6.412   2.355  1.00 20.00     0.005 C 
HETATM    3  C3  UNL     1     -33.338   8.028   4.279  1.00 20.00     0.006 C 
HETATM    4  C4  UNL     1     -33.489   4.841   4.398  1.00 20.00     0.008 C 
HETATM    5  C5  UNL     1     -33.777   7.147   5.446  1.00 20.00     0.009 C 
HETATM    6  C6  UNL     1     -32.305   7.395   3.332  1.00 20.00    -0.005 C 
HETATM    7  C7  UNL     1     -34.461   5.799   5.121  1.00 20.00    -0.048 C 
HETATM    8  C8  UNL     1     -35.772   6.000   4.345  1.00 20.00     0.015 C 
HETATM    9  C9  UNL     1     -34.824   5.146   6.479  1.00 20.00     0.015 C 
ENDROOT
BRANCH   6  10
HETATM   10  C10 UNL     1     -31.621   8.512   2.530  1.00 20.00     0.089 C 
HETATM   11 BR11 UNL     1     -32.581   8.785   0.872  1.00 20.00    -0.096 Br
ENDBRANCH   6  10
TORSDOF 1
ENDMDL
MODEL 2
REMARK VINA RESULT:      -4.0     11.900     13.346
REMARK  1 active torsions:
REMARK  status: ('A' for Active; 'I' for Inactive)
REMARK    1  A    between atoms: C6_6  and  C10_10 
ROOT
HETATM    1  C1  UNL     1     -35.023  19.209  -3.575  1.00 20.00     0.001 C 
HETATM    2  C2  UNL     1     -34.496  18.327  -4.703  1.00 20.00     0.005 C 
HETATM    3  C3  UNL     1     -33.335  16.362  -3.585  1.00 20.00     0.006 C 
HETATM    4  C4  UNL     1     -34.997  18.676  -2.144  1.00 20.00     0.008 C 
HETATM    5  C5  UNL     1     -33.500  16.614  -2.088  1.00 20.00     0.009 C 
HETATM    6  C6  UNL     1     -34.517  16.814  -4.459  1.00 20.00    -0.005 C 
HETATM    7  C7  UNL     1     -33.678  18.074  -1.612  1.00 20.00    -0.048 C 
HETATM    8  C8  UNL     1     -32.456  18.939  -1.963  1.00 20.00     0.015 C 
HETATM    9  C9  UNL     1     -33.783  18.029  -0.066  1.00 20.00     0.015 C 
ENDROOT
BRANCH   6  10
HETATM   10  C10 UNL     1     -34.434  16.091  -5.811  1.00 20.00     0.089 C 
HETATM   11 BR11 UNL     1     -35.781  14.701  -5.875  1.00 20.00    -0.096 Br
ENDBRANCH   6  10
TORSDOF 1
ENDMDL
MODEL 3
REMARK VINA RESULT:      -3.9     11.632     13.427
REMARK  1 active torsions:
REMARK  status: ('A' for Active; 'I' for Inactive)
REMARK    1  A    between atoms: C6_6  and  C10_10 
ROOT
HETATM    1  C1  UNL     1     -33.949  14.580  -4.222  1.00 20.00     0.001 C 
HETATM    2  C2  UNL     1     -33.241  15.849  -3.758  1.00 20.00     0.005 C 
HETATM    3  C3  UNL     1     -34.166  17.740  -5.181  1.00 20.00     0.006 C 
HETATM    4  C4  UNL     1     -35.145  14.702  -5.164  1.00 20.00     0.008 C 
HETATM    5  C5  UNL     1     -35.184  17.071  -6.102  1.00 20.00     0.009 C 
HETATM    6  C6  UNL     1     -34.067  17.141  -3.768  1.00 20.00    -0.005 C 
HETATM    7  C7  UNL     1     -34.993  15.573  -6.430  1.00 20.00    -0.048 C 
HETATM    8  C8  UNL     1     -33.664  15.317  -7.161  1.00 20.00     0.015 C 
HETATM    9  C9  UNL     1     -36.136  15.180  -7.400  1.00 20.00     0.015 C 
ENDROOT
BRANCH   6  10
HETATM   10  C10 UNL     1     -33.397  18.167  -2.843  1.00 20.00     0.089 C 
HETATM   11 BR11 UNL     1     -33.654  17.627  -1.001  1.00 20.00    -0.096 Br
ENDBRANCH   6  10
TORSDOF 1
ENDMDL
MODEL 4
REMARK VINA RESULT:      -3.6     11.876     13.473
REMARK  1 active torsions:
REMARK  status: ('A' for Active; 'I' for Inactive)
REMARK    1  A    between atoms: C6_6  and  C10_10 
ROOT
HETATM    1  C1  UNL     1     -35.170  18.379  -4.708  1.00 20.00     0.001 C 
HETATM    2  C2  UNL     1     -35.018  18.026  -3.231  1.00 20.00     0.005 C 
HETATM    3  C3  UNL     1     -33.799  15.798  -3.155  1.00 20.00     0.006 C 
HETATM    4  C4  UNL     1     -34.409  17.559  -5.746  1.00 20.00     0.008 C 
HETATM    5  C5  UNL     1     -33.550  15.441  -4.618  1.00 20.00     0.009 C 
HETATM    6  C6  UNL     1     -33.731  17.299  -2.825  1.00 20.00    -0.005 C 
HETATM    7  C7  UNL     1     -34.513  16.019  -5.681  1.00 20.00    -0.048 C 
HETATM    8  C8  UNL     1     -35.956  15.538  -5.461  1.00 20.00     0.015 C 
HETATM    9  C9  UNL     1     -34.045  15.468  -7.052  1.00 20.00     0.015 C 
ENDROOT
BRANCH   6  10
HETATM   10  C10 UNL     1     -33.522  17.463  -1.313  1.00 20.00     0.089 C 
HETATM   11 BR11 UNL     1     -31.977  18.589  -1.003  1.00 20.00    -0.096 Br
ENDBRANCH   6  10
TORSDOF 1
ENDMDL
MODEL 5
REMARK VINA RESULT:      -3.6     12.273     13.511
REMARK  1 active torsions:
REMARK  status: ('A' for Active; 'I' for Inactive)
REMARK    1  A    between atoms: C6_6  and  C10_10 
ROOT
HETATM    1  C1  UNL     1     -33.184  16.303  -3.476  1.00 20.00     0.001 C 
HETATM    2  C2  UNL     1     -32.827  17.196  -2.291  1.00 20.00     0.005 C 
HETATM    3  C3  UNL     1     -34.695  18.909  -2.104  1.00 20.00     0.006 C 
HETATM    4  C4  UNL     1     -34.574  16.417  -4.096  1.00 20.00     0.008 C 
HETATM    5  C5  UNL     1     -35.661  18.554  -3.233  1.00 20.00     0.009 C 
HETATM    6  C6  UNL     1     -33.994  17.711  -1.441  1.00 20.00    -0.005 C 
HETATM    7  C7  UNL     1     -35.095  17.822  -4.471  1.00 20.00    -0.048 C 
HETATM    8  C8  UNL     1     -34.033  18.666  -5.194  1.00 20.00     0.015 C 
HETATM    9  C9  UNL     1     -36.278  17.627  -5.453  1.00 20.00     0.015 C 
ENDROOT
BRANCH   6  10
HETATM   10  C10 UNL     1     -33.458  18.150  -0.071  1.00 20.00     0.089 C 
HETATM   11 BR11 UNL     1     -31.575  18.574  -0.231  1.00 20.00    -0.096 Br
ENDBRANCH   6  10
TORSDOF 1
ENDMDL
MODEL 6
REMARK VINA RESULT:      -3.5     10.712     11.954
REMARK  1 active torsions:
REMARK  status: ('A' for Active; 'I' for Inactive)
REMARK    1  A    between atoms: C6_6  and  C10_10 
ROOT
HETATM    1  C1  UNL     1     -40.416  15.441   8.194  1.00 20.00     0.001 C 
HETATM    2  C2  UNL     1     -40.293  13.951   7.890  1.00 20.00     0.005 C 
HETATM    3  C3  UNL     1     -41.709  13.529   5.823  1.00 20.00     0.006 C 
HETATM    4  C4  UNL     1     -41.073  16.355   7.163  1.00 20.00     0.008 C 
HETATM    5  C5  UNL     1     -42.282  14.896   5.459  1.00 20.00     0.009 C 
HETATM    6  C6  UNL     1     -40.288  13.549   6.410  1.00 20.00    -0.005 C 
HETATM    7  C7  UNL     1     -42.445  15.940   6.588  1.00 20.00    -0.048 C 
HETATM    8  C8  UNL     1     -43.414  15.452   7.677  1.00 20.00     0.015 C 
HETATM    9  C9  UNL     1     -43.074  17.200   5.941  1.00 20.00     0.015 C 
ENDROOT
BRANCH   6  10
HETATM   10  C10 UNL     1     -39.679  12.146   6.278  1.00 20.00     0.089 C 
HETATM   11 BR11 UNL     1     -39.206  11.829   4.427  1.00 20.00    -0.096 Br
ENDBRANCH   6  10
TORSDOF 1
ENDMDL
MODEL 7
REMARK VINA RESULT:      -3.4     10.358     11.487
REMARK  1 active torsions:
REMARK  status: ('A' for Active; 'I' for Inactive)
REMARK    1  A    between atoms: C6_6  and  C10_10 
ROOT
HETATM    1  C1  UNL     1     -42.540  13.935   5.148  1.00 20.00     0.001 C 
HETATM    2  C2  UNL     1     -41.112  13.398   5.158  1.00 20.00     0.005 C 
HETATM    3  C3  UNL     1     -40.205  13.835   7.491  1.00 20.00     0.006 C 
HETATM    4  C4  UNL     1     -43.186  14.345   6.470  1.00 20.00     0.008 C 
HETATM    5  C5  UNL     1     -41.355  14.508   8.235  1.00 20.00     0.009 C 
HETATM    6  C6  UNL     1     -40.623  12.767   6.466  1.00 20.00    -0.005 C 
HETATM    7  C7  UNL     1     -42.399  15.290   7.405  1.00 20.00    -0.048 C 
HETATM    8  C8  UNL     1     -41.759  16.465   6.649  1.00 20.00     0.015 C 
HETATM    9  C9  UNL     1     -43.413  15.887   8.414  1.00 20.00     0.015 C 
ENDROOT
BRANCH   6  10
HETATM   10  C10 UNL     1     -39.413  11.871   6.165  1.00 20.00     0.089 C 
HETATM   11 BR11 UNL     1     -39.228  11.673   4.248  1.00 20.00    -0.096 Br
ENDBRANCH   6  10
TORSDOF 1
ENDMDL
MODEL 8
REMARK VINA RESULT:      -3.4     10.926     11.988
REMARK  1 active torsions:
REMARK  status: ('A' for Active; 'I' for Inactive)
REMARK    1  A    between atoms: C6_6  and  C10_10 
ROOT
HETATM    1  C1  UNL     1     -42.651  14.592   4.782  1.00 20.00     0.001 C 
HETATM    2  C2  UNL     1     -42.877  15.647   5.862  1.00 20.00     0.005 C 
HETATM    3  C3  UNL     1     -41.186  15.160   7.695  1.00 20.00     0.006 C 
HETATM    4  C4  UNL     1     -41.412  13.703   4.864  1.00 20.00     0.008 C 
HETATM    5  C5  UNL     1     -40.407  13.947   7.194  1.00 20.00     0.009 C 
HETATM    6  C6  UNL     1     -41.634  16.149   6.605  1.00 20.00    -0.005 C 
HETATM    7  C7  UNL     1     -41.110  12.992   6.201  1.00 20.00    -0.048 C 
HETATM    8  C8  UNL     1     -42.362  12.351   6.821  1.00 20.00     0.015 C 
HETATM    9  C9  UNL     1     -40.108  11.849   5.899  1.00 20.00     0.015 C 
ENDROOT
BRANCH   6  10
HETATM   10  C10 UNL     1     -41.958  17.497   7.264  1.00 20.00     0.089 C 
HETATM   11 BR11 UNL     1     -40.518  18.742   6.909  1.00 20.00    -0.096 Br
ENDBRANCH   6  10
TORSDOF 1
ENDMDL
MODEL 9
REMARK VINA RESULT:      -3.2     11.009     12.141
REMARK  1 active torsions:
REMARK  status: ('A' for Active; 'I' for Inactive)
REMARK    1  A    between atoms: C6_6  and  C10_10 
ROOT
HETATM    1  C1  UNL     1     -43.056  13.508   8.771  1.00 20.00     0.001 C 
HETATM    2  C2  UNL     1     -42.611  13.616   7.315  1.00 20.00     0.005 C 
HETATM    3  C3  UNL     1     -40.465  14.977   7.328  1.00 20.00     0.006 C 
HETATM    4  C4  UNL     1     -42.097  13.953   9.873  1.00 20.00     0.008 C 
HETATM    5  C5  UNL     1     -40.218  15.299   8.800  1.00 20.00     0.009 C 
HETATM    6  C6  UNL     1     -41.100  13.604   7.055  1.00 20.00    -0.005 C 
HETATM    7  C7  UNL     1     -41.437  15.344   9.749  1.00 20.00    -0.048 C 
HETATM    8  C8  UNL     1     -42.439  16.434   9.334  1.00 20.00     0.015 C 
HETATM    9  C9  UNL     1     -40.896  15.723  11.151  1.00 20.00     0.015 C 
ENDROOT
BRANCH   6  10
HETATM   10  C10 UNL     1     -40.852  13.228   5.587  1.00 20.00     0.089 C 
HETATM   11 BR11 UNL     1     -39.493  11.851   5.503  1.00 20.00    -0.096 Br
ENDBRANCH   6  10
TORSDOF 1
ENDMDL
