MODEL 1
REMARK VINA RESULT:      -3.8      0.000      0.000
REMARK  3 active torsions:
REMARK  status: ('A' for Active; 'I' for Inactive)
REMARK    1  A    between atoms: C4_4  and  C5_5 
REMARK    2  A    between atoms: C4_4  and  O7_7 
REMARK    3  A    between atoms: C5_5  and  C6_6 
ROOT
HETATM    1  C1  UNL     1     -32.462   8.665   5.121  1.00 20.00     0.014 C 
HETATM    2  C5  UNL     1     -33.237   7.908   4.062  1.00 20.00     0.023 C 
ENDROOT
BRANCH   2   3
HETATM    3  C4  UNL     1     -34.285   6.992   4.716  1.00 20.00     0.172 C 
BRANCH   3   4
HETATM    4  O7  UNL     1     -33.905   6.723   6.063  1.00 20.00    -0.396 OA
HETATM    5  C3  UNL     1     -34.320   5.428   6.470  1.00 20.00     0.201 C 
ENDBRANCH   3   4
ENDBRANCH   2   3
BRANCH   2   6
HETATM    6  C6  UNL     1     -32.335   7.112   3.088  1.00 20.00     0.084 C 
HETATM    7  C2  UNL     1     -32.853   5.709   2.783  1.00 20.00     0.027 C 
HETATM    8 CL8  UNL     1     -32.060   7.985   1.547  1.00 20.00    -0.125 Cl
ENDBRANCH   2   6
TORSDOF 3
ENDMDL
MODEL 2
REMARK VINA RESULT:      -3.8      1.121      2.281
REMARK  3 active torsions:
REMARK  status: ('A' for Active; 'I' for Inactive)
REMARK    1  A    between atoms: C4_4  and  C5_5 
REMARK    2  A    between atoms: C4_4  and  O7_7 
REMARK    3  A    between atoms: C5_5  and  C6_6 
ROOT
HETATM    1  C1  UNL     1     -32.945   5.215   2.668  1.00 20.00     0.014 C 
HETATM    2  C5  UNL     1     -33.353   6.050   3.864  1.00 20.00     0.023 C 
ENDROOT
BRANCH   2   3
HETATM    3  C4  UNL     1     -34.814   5.756   4.248  1.00 20.00     0.172 C 
BRANCH   3   4
HETATM    4  O7  UNL     1     -34.844   4.790   5.295  1.00 20.00    -0.396 OA
HETATM    5  C3  UNL     1     -34.428   5.351   6.531  1.00 20.00     0.201 C 
ENDBRANCH   3   4
ENDBRANCH   2   3
BRANCH   2   6
HETATM    6  C6  UNL     1     -33.126   7.568   3.665  1.00 20.00     0.084 C 
HETATM    7  C2  UNL     1     -32.532   8.263   4.886  1.00 20.00     0.027 C 
HETATM    8 CL8  UNL     1     -32.107   7.921   2.233  1.00 20.00    -0.125 Cl
ENDBRANCH   2   6
TORSDOF 3
ENDMDL
MODEL 3
REMARK VINA RESULT:      -3.6      2.779      3.778
REMARK  3 active torsions:
REMARK  status: ('A' for Active; 'I' for Inactive)
REMARK    1  A    between atoms: C4_4  and  C5_5 
REMARK    2  A    between atoms: C4_4  and  O7_7 
REMARK    3  A    between atoms: C5_5  and  C6_6 
ROOT
HETATM    1  C1  UNL     1     -32.455   8.964   4.879  1.00 20.00     0.014 C 
HETATM    2  C5  UNL     1     -32.632   7.533   4.416  1.00 20.00     0.023 C 
ENDROOT
BRANCH   2   3
HETATM    3  C4  UNL     1     -32.370   7.424   2.903  1.00 20.00     0.172 C 
BRANCH   3   4
HETATM    4  O7  UNL     1     -32.516   8.708   2.304  1.00 20.00    -0.396 OA
HETATM    5  C3  UNL     1     -32.343   8.646   0.895  1.00 20.00     0.201 C 
ENDBRANCH   3   4
ENDBRANCH   2   3
BRANCH   2   6
HETATM    6  C6  UNL     1     -34.008   6.929   4.785  1.00 20.00     0.084 C 
HETATM    7  C2  UNL     1     -34.250   5.546   4.188  1.00 20.00     0.027 C 
HETATM    8 CL8  UNL     1     -34.266   6.858   6.557  1.00 20.00    -0.125 Cl
ENDBRANCH   2   6
TORSDOF 3
ENDMDL
MODEL 4
REMARK VINA RESULT:      -3.6      1.630      2.370
REMARK  3 active torsions:
REMARK  status: ('A' for Active; 'I' for Inactive)
REMARK    1  A    between atoms: C4_4  and  C5_5 
REMARK    2  A    between atoms: C4_4  and  O7_7 
REMARK    3  A    between atoms: C5_5  and  C6_6 
ROOT
HETATM    1  C1  UNL     1     -33.792   6.801   6.458  1.00 20.00     0.014 C 
HETATM    2  C5  UNL     1     -34.385   7.205   5.124  1.00 20.00     0.023 C 
ENDROOT
BRANCH   2   3
HETATM    3  C4  UNL     1     -35.000   5.982   4.420  1.00 20.00     0.172 C 
BRANCH   3   4
HETATM    4  O7  UNL     1     -34.670   4.802   5.146  1.00 20.00    -0.396 OA
HETATM    5  C3  UNL     1     -33.809   3.957   4.397  1.00 20.00     0.201 C 
ENDBRANCH   3   4
ENDBRANCH   2   3
BRANCH   2   6
HETATM    6  C6  UNL     1     -33.382   7.933   4.196  1.00 20.00     0.084 C 
HETATM    7  C2  UNL     1     -32.369   8.793   4.946  1.00 20.00     0.027 C 
HETATM    8 CL8  UNL     1     -32.506   6.799   3.119  1.00 20.00    -0.125 Cl
ENDBRANCH   2   6
TORSDOF 3
ENDMDL
MODEL 5
REMARK VINA RESULT:      -3.5      2.475      3.764
REMARK  3 active torsions:
REMARK  status: ('A' for Active; 'I' for Inactive)
REMARK    1  A    between atoms: C4_4  and  C5_5 
REMARK    2  A    between atoms: C4_4  and  O7_7 
REMARK    3  A    between atoms: C5_5  and  C6_6 
ROOT
HETATM    1  C1  UNL     1     -32.915   5.376   2.874  1.00 20.00     0.014 C 
HETATM    2  C5  UNL     1     -33.456   6.642   3.505  1.00 20.00     0.023 C 
ENDROOT
BRANCH   2   3
HETATM    3  C4  UNL     1     -32.307   7.613   3.827  1.00 20.00     0.172 C 
BRANCH   3   4
HETATM    4  O7  UNL     1     -32.669   8.928   3.416  1.00 20.00    -0.396 OA
HETATM    5  C3  UNL     1     -32.696   9.040   2.001  1.00 20.00     0.201 C 
ENDBRANCH   3   4
ENDBRANCH   2   3
BRANCH   2   6
HETATM    6  C6  UNL     1     -34.331   6.383   4.756  1.00 20.00     0.084 C 
HETATM    7  C2  UNL     1     -34.590   4.904   5.026  1.00 20.00     0.027 C 
HETATM    8 CL8  UNL     1     -33.649   7.139   6.231  1.00 20.00    -0.125 Cl
ENDBRANCH   2   6
TORSDOF 3
ENDMDL
MODEL 6
REMARK VINA RESULT:      -3.3      2.541      3.375
REMARK  3 active torsions:
REMARK  status: ('A' for Active; 'I' for Inactive)
REMARK    1  A    between atoms: C4_4  and  C5_5 
REMARK    2  A    between atoms: C4_4  and  O7_7 
REMARK    3  A    between atoms: C5_5  and  C6_6 
ROOT
HETATM    1  C1  UNL     1     -34.007   6.945   6.450  1.00 20.00     0.014 C 
HETATM    2  C5  UNL     1     -33.423   7.029   5.055  1.00 20.00     0.023 C 
ENDROOT
BRANCH   2   3
HETATM    3  C4  UNL     1     -33.549   8.461   4.507  1.00 20.00     0.172 C 
BRANCH   3   4
HETATM    4  O7  UNL     1     -32.356   8.808   3.809  1.00 20.00    -0.396 OA
HETATM    5  C3  UNL     1     -32.615   9.065   2.437  1.00 20.00     0.201 C 
ENDBRANCH   3   4
ENDBRANCH   2   3
BRANCH   2   6
HETATM    6  C6  UNL     1     -34.031   6.002   4.068  1.00 20.00     0.084 C 
HETATM    7  C2  UNL     1     -33.041   5.500   3.021  1.00 20.00     0.027 C 
HETATM    8 CL8  UNL     1     -34.759   4.598   4.909  1.00 20.00    -0.125 Cl
ENDBRANCH   2   6
TORSDOF 3
ENDMDL
MODEL 7
REMARK VINA RESULT:      -3.2     12.132     12.629
REMARK  3 active torsions:
REMARK  status: ('A' for Active; 'I' for Inactive)
REMARK    1  A    between atoms: C4_4  and  C5_5 
REMARK    2  A    between atoms: C4_4  and  O7_7 
REMARK    3  A    between atoms: C5_5  and  C6_6 
ROOT
HETATM    1  C1  UNL     1     -33.982  17.904  -0.174  1.00 20.00     0.014 C 
HETATM    2  C5  UNL     1     -32.857  17.845  -1.187  1.00 20.00     0.023 C 
ENDROOT
BRANCH   2   3
HETATM    3  C4  UNL     1     -31.951  19.082  -1.053  1.00 20.00     0.172 C 
BRANCH   3   4
HETATM    4  O7  UNL     1     -30.712  18.700  -0.461  1.00 20.00    -0.396 OA
HETATM    5  C3  UNL     1     -30.716  18.928   0.941  1.00 20.00     0.201 C 
ENDBRANCH   3   4
ENDBRANCH   2   3
BRANCH   2   6
HETATM    6  C6  UNL     1     -33.347  17.671  -2.645  1.00 20.00     0.084 C 
HETATM    7  C2  UNL     1     -33.327  16.224  -3.128  1.00 20.00     0.027 C 
HETATM    8 CL8  UNL     1     -34.985  18.353  -2.898  1.00 20.00    -0.125 Cl
ENDBRANCH   2   6
TORSDOF 3
ENDMDL
MODEL 8
REMARK VINA RESULT:      -3.2      2.622      3.517
REMARK  3 active torsions:
REMARK  status: ('A' for Active; 'I' for Inactive)
REMARK    1  A    between atoms: C4_4  and  C5_5 
REMARK    2  A    between atoms: C4_4  and  O7_7 
REMARK    3  A    between atoms: C5_5  and  C6_6 
ROOT
HETATM    1  C1  UNL     1     -32.917   6.101   3.019  1.00 20.00     0.014 C 
HETATM    2  C5  UNL     1     -34.084   6.442   3.923  1.00 20.00     0.023 C 
ENDROOT
BRANCH   2   3
HETATM    3  C4  UNL     1     -33.712   7.603   4.862  1.00 20.00     0.172 C 
BRANCH   3   4
HETATM    4  O7  UNL     1     -32.331   7.916   4.705  1.00 20.00    -0.396 OA
HETATM    5  C3  UNL     1     -32.096   9.309   4.846  1.00 20.00     0.201 C 
ENDBRANCH   3   4
ENDBRANCH   2   3
BRANCH   2   6
HETATM    6  C6  UNL     1     -34.619   5.230   4.725  1.00 20.00     0.084 C 
HETATM    7  C2  UNL     1     -33.807   3.954   4.518  1.00 20.00     0.027 C 
HETATM    8 CL8  UNL     1     -34.737   5.573   6.480  1.00 20.00    -0.125 Cl
ENDBRANCH   2   6
TORSDOF 3
ENDMDL
MODEL 9
REMARK VINA RESULT:      -3.0      2.252      3.317
REMARK  3 active torsions:
REMARK  status: ('A' for Active; 'I' for Inactive)
REMARK    1  A    between atoms: C4_4  and  C5_5 
REMARK    2  A    between atoms: C4_4  and  O7_7 
REMARK    3  A    between atoms: C5_5  and  C6_6 
ROOT
HETATM    1  C1  UNL     1     -34.351   5.382   6.366  1.00 20.00     0.014 C 
HETATM    2  C5  UNL     1     -34.486   6.492   5.345  1.00 20.00     0.023 C 
ENDROOT
BRANCH   2   3
HETATM    3  C4  UNL     1     -34.583   5.905   3.926  1.00 20.00     0.172 C 
BRANCH   3   4
HETATM    4  O7  UNL     1     -33.760   4.746   3.836  1.00 20.00    -0.396 OA
HETATM    5  C3  UNL     1     -32.950   4.774   2.670  1.00 20.00     0.201 C 
ENDBRANCH   3   4
ENDBRANCH   2   3
BRANCH   2   6
HETATM    6  C6  UNL     1     -33.361   7.552   5.432  1.00 20.00     0.084 C 
HETATM    7  C2  UNL     1     -32.717   7.871   4.086  1.00 20.00     0.027 C 
HETATM    8 CL8  UNL     1     -33.920   9.076   6.192  1.00 20.00    -0.125 Cl
ENDBRANCH   2   6
TORSDOF 3
ENDMDL
