MODEL 1
REMARK VINA RESULT:      -4.1      0.000      0.000
REMARK  2 active torsions:
REMARK  status: ('A' for Active; 'I' for Inactive)
REMARK    1  A    between atoms: C8_8  and  C9_9 
REMARK    2  A    between atoms: C9_9  and  N11_11 
ROOT
HETATM    1  C1  UNL     1     -31.549  18.556  -0.516  1.00 20.00     0.060 C 
HETATM    2  C8  UNL     1     -32.839  18.216  -1.132  1.00 20.00     0.154 C 
HETATM    3  N10 UNL     1     -30.531  18.824  -0.028  1.00 20.00    -0.197 NA
ENDROOT
BRANCH   2   4
HETATM    4  C9  UNL     1     -32.984  18.821  -2.525  1.00 20.00     0.286 C 
BRANCH   4   5
HETATM    5  N11 UNL     1     -33.165  17.781  -3.527  1.00 20.00     0.090 N 
HETATM    6  C2  UNL     1     -33.281  16.443  -2.938  1.00 20.00     0.277 C 
HETATM    7  C4  UNL     1     -34.069  15.622  -3.970  1.00 20.00     0.015 C 
HETATM    8  C5  UNL     1     -34.460  16.639  -5.055  1.00 20.00     0.015 C 
HETATM    9  C6  UNL     1     -33.266  14.457  -4.536  1.00 20.00     0.012 C 
HETATM   10  C3  UNL     1     -34.376  17.974  -4.325  1.00 20.00     0.277 C 
HETATM   11  C7  UNL     1     -35.830  16.382  -5.662  1.00 20.00     0.012 C 
ENDBRANCH   4   5
ENDBRANCH   2   4
TORSDOF 2
ENDMDL
MODEL 2
REMARK VINA RESULT:      -4.0      0.494      1.940
REMARK  2 active torsions:
REMARK  status: ('A' for Active; 'I' for Inactive)
REMARK    1  A    between atoms: C8_8  and  C9_9 
REMARK    2  A    between atoms: C9_9  and  N11_11 
ROOT
HETATM    1  C1  UNL     1     -31.673  18.532  -0.352  1.00 20.00     0.060 C 
HETATM    2  C8  UNL     1     -33.075  18.183  -0.621  1.00 20.00     0.154 C 
HETATM    3  N10 UNL     1     -30.566  18.807  -0.137  1.00 20.00    -0.197 NA
ENDROOT
BRANCH   2   4
HETATM    4  C9  UNL     1     -33.542  18.703  -1.977  1.00 20.00     0.286 C 
BRANCH   4   5
HETATM    5  N11 UNL     1     -34.151  17.638  -2.760  1.00 20.00     0.090 N 
HETATM    6  C2  UNL     1     -34.413  18.035  -4.147  1.00 20.00     0.277 C 
HETATM    7  C4  UNL     1     -34.427  16.720  -4.941  1.00 20.00     0.015 C 
HETATM    8  C5  UNL     1     -34.034  15.646  -3.914  1.00 20.00     0.015 C 
HETATM    9  C6  UNL     1     -35.778  16.433  -5.585  1.00 20.00     0.012 C 
HETATM   10  C3  UNL     1     -33.310  16.443  -2.837  1.00 20.00     0.277 C 
HETATM   11  C7  UNL     1     -33.180  14.530  -4.498  1.00 20.00     0.012 C 
ENDBRANCH   4   5
ENDBRANCH   2   4
TORSDOF 2
ENDMDL
MODEL 3
REMARK VINA RESULT:      -4.0      1.789      5.358
REMARK  2 active torsions:
REMARK  status: ('A' for Active; 'I' for Inactive)
REMARK    1  A    between atoms: C8_8  and  C9_9 
REMARK    2  A    between atoms: C9_9  and  N11_11 
ROOT
HETATM    1  C1  UNL     1     -33.824  15.759  -4.153  1.00 20.00     0.060 C 
HETATM    2  C8  UNL     1     -33.291  16.378  -2.931  1.00 20.00     0.154 C 
HETATM    3  N10 UNL     1     -34.245  15.267  -5.116  1.00 20.00    -0.197 NA
ENDROOT
BRANCH   2   4
HETATM    4  C9  UNL     1     -33.129  17.887  -3.081  1.00 20.00     0.286 C 
BRANCH   4   5
HETATM    5  N11 UNL     1     -33.102  18.538  -1.779  1.00 20.00     0.090 N 
HETATM    6  C2  UNL     1     -34.129  18.022  -0.869  1.00 20.00     0.277 C 
HETATM    7  C4  UNL     1     -33.587  18.301   0.541  1.00 20.00     0.015 C 
HETATM    8  C5  UNL     1     -32.177  18.867   0.307  1.00 20.00     0.015 C 
HETATM    9  C6  UNL     1     -34.467  19.259   1.335  1.00 20.00     0.012 C 
HETATM   10  C3  UNL     1     -31.826  18.359  -1.086  1.00 20.00     0.277 C 
HETATM   11  C7  UNL     1     -31.168  18.443   1.363  1.00 20.00     0.012 C 
ENDBRANCH   4   5
ENDBRANCH   2   4
TORSDOF 2
ENDMDL
MODEL 4
REMARK VINA RESULT:      -3.9      1.923      5.235
REMARK  2 active torsions:
REMARK  status: ('A' for Active; 'I' for Inactive)
REMARK    1  A    between atoms: C8_8  and  C9_9 
REMARK    2  A    between atoms: C9_9  and  N11_11 
ROOT
HETATM    1  C1  UNL     1     -33.948  14.813  -4.017  1.00 20.00     0.060 C 
HETATM    2  C8  UNL     1     -32.976  15.828  -3.588  1.00 20.00     0.154 C 
HETATM    3  N10 UNL     1     -34.713  14.010  -4.356  1.00 20.00    -0.197 NA
ENDROOT
BRANCH   2   4
HETATM    4  C9  UNL     1     -33.658  17.054  -2.989  1.00 20.00     0.286 C 
BRANCH   4   5
HETATM    5  N11 UNL     1     -33.217  17.277  -1.620  1.00 20.00     0.090 N 
HETATM    6  C2  UNL     1     -32.060  18.175  -1.539  1.00 20.00     0.277 C 
HETATM    7  C4  UNL     1     -32.132  18.789  -0.132  1.00 20.00     0.015 C 
HETATM    8  C5  UNL     1     -33.451  18.258   0.453  1.00 20.00     0.015 C 
HETATM    9  C6  UNL     1     -30.931  18.425   0.733  1.00 20.00     0.012 C 
HETATM   10  C3  UNL     1     -34.254  17.884  -0.786  1.00 20.00     0.277 C 
HETATM   11  C7  UNL     1     -34.168  19.263   1.342  1.00 20.00     0.012 C 
ENDBRANCH   4   5
ENDBRANCH   2   4
TORSDOF 2
ENDMDL
MODEL 5
REMARK VINA RESULT:      -3.7      1.620      2.152
REMARK  2 active torsions:
REMARK  status: ('A' for Active; 'I' for Inactive)
REMARK    1  A    between atoms: C8_8  and  C9_9 
REMARK    2  A    between atoms: C9_9  and  N11_11 
ROOT
HETATM    1  C1  UNL     1     -31.385  18.745   1.613  1.00 20.00     0.060 C 
HETATM    2  C8  UNL     1     -31.099  18.543   0.186  1.00 20.00     0.154 C 
HETATM    3  N10 UNL     1     -31.609  18.903   2.741  1.00 20.00    -0.197 NA
ENDROOT
BRANCH   2   4
HETATM    4  C9  UNL     1     -32.132  19.227  -0.705  1.00 20.00     0.286 C 
BRANCH   4   5
HETATM    5  N11 UNL     1     -32.335  18.475  -1.935  1.00 20.00     0.090 N 
HETATM    6  C2  UNL     1     -33.167  17.284  -1.737  1.00 20.00     0.277 C 
HETATM    7  C4  UNL     1     -33.789  17.001  -3.114  1.00 20.00     0.015 C 
HETATM    8  C5  UNL     1     -33.336  18.180  -3.990  1.00 20.00     0.015 C 
HETATM    9  C6  UNL     1     -33.362  15.657  -3.691  1.00 20.00     0.012 C 
HETATM   10  C3  UNL     1     -33.003  19.262  -2.971  1.00 20.00     0.277 C 
HETATM   11  C7  UNL     1     -34.383  18.622  -5.002  1.00 20.00     0.012 C 
ENDBRANCH   4   5
ENDBRANCH   2   4
TORSDOF 2
ENDMDL
MODEL 6
REMARK VINA RESULT:      -3.7      1.703      2.841
REMARK  2 active torsions:
REMARK  status: ('A' for Active; 'I' for Inactive)
REMARK    1  A    between atoms: C8_8  and  C9_9 
REMARK    2  A    between atoms: C9_9  and  N11_11 
ROOT
HETATM    1  C1  UNL     1     -30.650  18.794   1.329  1.00 20.00     0.060 C 
HETATM    2  C8  UNL     1     -31.343  18.954   0.043  1.00 20.00     0.154 C 
HETATM    3  N10 UNL     1     -30.101  18.669   2.342  1.00 20.00    -0.197 NA
ENDROOT
BRANCH   2   4
HETATM    4  C9  UNL     1     -32.828  18.620   0.150  1.00 20.00     0.286 C 
BRANCH   4   5
HETATM    5  N11 UNL     1     -33.409  18.409  -1.168  1.00 20.00     0.090 N 
HETATM    6  C2  UNL     1     -32.647  19.068  -2.233  1.00 20.00     0.277 C 
HETATM    7  C4  UNL     1     -32.968  18.268  -3.505  1.00 20.00     0.015 C 
HETATM    8  C5  UNL     1     -33.828  17.093  -3.014  1.00 20.00     0.015 C 
HETATM    9  C6  UNL     1     -33.682  19.101  -4.563  1.00 20.00     0.012 C 
HETATM   10  C3  UNL     1     -33.470  16.994  -1.536  1.00 20.00     0.277 C 
HETATM   11  C7  UNL     1     -33.577  15.797  -3.771  1.00 20.00     0.012 C 
ENDBRANCH   4   5
ENDBRANCH   2   4
TORSDOF 2
ENDMDL
MODEL 7
REMARK VINA RESULT:      -3.7     12.187     13.461
REMARK  2 active torsions:
REMARK  status: ('A' for Active; 'I' for Inactive)
REMARK    1  A    between atoms: C8_8  and  C9_9 
REMARK    2  A    between atoms: C9_9  and  N11_11 
ROOT
HETATM    1  C1  UNL     1     -39.360  11.790   4.470  1.00 20.00     0.060 C 
HETATM    2  C8  UNL     1     -39.707  11.793   5.898  1.00 20.00     0.154 C 
HETATM    3  N10 UNL     1     -39.084  11.786   3.343  1.00 20.00    -0.197 NA
ENDROOT
BRANCH   2   4
HETATM    4  C9  UNL     1     -40.998  12.558   6.169  1.00 20.00     0.286 C 
BRANCH   4   5
HETATM    5  N11 UNL     1     -40.714  13.914   6.616  1.00 20.00     0.090 N 
HETATM    6  C2  UNL     1     -41.850  14.821   6.424  1.00 20.00     0.277 C 
HETATM    7  C4  UNL     1     -41.649  15.935   7.463  1.00 20.00     0.015 C 
HETATM    8  C5  UNL     1     -40.427  15.484   8.279  1.00 20.00     0.015 C 
HETATM    9  C6  UNL     1     -41.445  17.305   6.828  1.00 20.00     0.012 C 
HETATM   10  C3  UNL     1     -40.385  13.980   8.040  1.00 20.00     0.277 C 
HETATM   11  C7  UNL     1     -40.515  15.847   9.754  1.00 20.00     0.012 C 
ENDBRANCH   4   5
ENDBRANCH   2   4
TORSDOF 2
ENDMDL
MODEL 8
REMARK VINA RESULT:      -3.6     12.331     13.486
REMARK  2 active torsions:
REMARK  status: ('A' for Active; 'I' for Inactive)
REMARK    1  A    between atoms: C8_8  and  C9_9 
REMARK    2  A    between atoms: C9_9  and  N11_11 
ROOT
HETATM    1  C1  UNL     1     -39.500  11.942   4.691  1.00 20.00     0.060 C 
HETATM    2  C8  UNL     1     -39.859  12.160   6.099  1.00 20.00     0.154 C 
HETATM    3  N10 UNL     1     -39.214  11.768   3.580  1.00 20.00    -0.197 NA
ENDROOT
BRANCH   2   4
HETATM    4  C9  UNL     1     -41.330  12.528   6.262  1.00 20.00     0.286 C 
BRANCH   4   5
HETATM    5  N11 UNL     1     -41.483  13.677   7.143  1.00 20.00     0.090 N 
HETATM    6  C2  UNL     1     -40.299  13.910   7.977  1.00 20.00     0.277 C 
HETATM    7  C4  UNL     1     -40.347  15.406   8.325  1.00 20.00     0.015 C 
HETATM    8  C5  UNL     1     -41.541  15.950   7.523  1.00 20.00     0.015 C 
HETATM    9  C6  UNL     1     -40.494  15.661   9.820  1.00 20.00     0.012 C 
HETATM   10  C3  UNL     1     -41.709  14.923   6.411  1.00 20.00     0.277 C 
HETATM   11  C7  UNL     1     -41.327  17.361   6.997  1.00 20.00     0.012 C 
ENDBRANCH   4   5
ENDBRANCH   2   4
TORSDOF 2
ENDMDL
MODEL 9
REMARK VINA RESULT:      -3.5      1.610      1.673
REMARK  2 active torsions:
REMARK  status: ('A' for Active; 'I' for Inactive)
REMARK    1  A    between atoms: C8_8  and  C9_9 
REMARK    2  A    between atoms: C9_9  and  N11_11 
ROOT
HETATM    1  C1  UNL     1     -33.793  17.961  -0.327  1.00 20.00     0.060 C 
HETATM    2  C8  UNL     1     -33.421  17.273  -1.571  1.00 20.00     0.154 C 
HETATM    3  N10 UNL     1     -34.087  18.502   0.656  1.00 20.00    -0.197 NA
ENDROOT
BRANCH   2   4
HETATM    4  C9  UNL     1     -33.246  18.247  -2.732  1.00 20.00     0.286 C 
BRANCH   4   5
HETATM    5  N11 UNL     1     -33.736  17.668  -3.974  1.00 20.00     0.090 N 
HETATM    6  C2  UNL     1     -33.561  16.213  -4.026  1.00 20.00     0.277 C 
HETATM    7  C4  UNL     1     -34.635  15.719  -5.007  1.00 20.00     0.015 C 
HETATM    8  C5  UNL     1     -35.448  16.976  -5.354  1.00 20.00     0.015 C 
HETATM    9  C6  UNL     1     -34.044  15.056  -6.246  1.00 20.00     0.012 C 
HETATM   10  C3  UNL     1     -35.164  17.907  -4.182  1.00 20.00     0.277 C 
HETATM   11  C7  UNL     1     -36.932  16.705  -5.548  1.00 20.00     0.012 C 
ENDBRANCH   4   5
ENDBRANCH   2   4
TORSDOF 2
ENDMDL
