MODEL 1
REMARK VINA RESULT:      -4.2      0.000      0.000
REMARK  2 active torsions:
REMARK  status: ('A' for Active; 'I' for Inactive)
REMARK    1  A    between atoms: C4_4  and  C9_9 
REMARK    2  A    between atoms: C5_5  and  C8_8 
ROOT
HETATM    1  C1  UNL     1     -33.615   7.843   5.365  1.00 20.00     0.032 C 
HETATM    2  C2  UNL     1     -33.181   6.686   3.175  1.00 20.00     0.038 C 
HETATM    3  C3  UNL     1     -32.500   8.843   5.058  1.00 20.00     0.168 C 
HETATM    4  C4  UNL     1     -33.343   6.499   4.693  1.00 20.00     0.008 C 
HETATM    5  C5  UNL     1     -32.705   8.099   2.810  1.00 20.00     0.121 C 
HETATM    6  O10 UNL     1     -31.829   8.589   3.822  1.00 20.00    -0.386 OA
ENDROOT
BRANCH   4   7
HETATM    7  C9  UNL     1     -34.430   5.478   5.012  1.00 20.00     0.082 C 
HETATM    8  C7  UNL     1     -34.649   5.352   6.509  1.00 20.00     0.027 C 
HETATM    9 CL11 UNL     1     -35.951   5.970   4.218  1.00 20.00    -0.125 Cl
ENDBRANCH   4   7
BRANCH   5  10
HETATM   10  C8  UNL     1     -31.963   8.110   1.480  1.00 20.00     0.027 C 
HETATM   11  C6  UNL     1     -32.597   9.043   0.499  1.00 20.00     0.007 C 
ENDBRANCH   5  10
TORSDOF 2
ENDMDL
MODEL 2
REMARK VINA RESULT:      -4.1     11.659     12.427
REMARK  2 active torsions:
REMARK  status: ('A' for Active; 'I' for Inactive)
REMARK    1  A    between atoms: C4_4  and  C9_9 
REMARK    2  A    between atoms: C5_5  and  C8_8 
ROOT
HETATM    1  C1  UNL     1     -34.633  18.767  -0.825  1.00 20.00     0.032 C 
HETATM    2  C2  UNL     1     -32.218  18.128  -1.107  1.00 20.00     0.038 C 
HETATM    3  C3  UNL     1     -34.413  18.935   0.679  1.00 20.00     0.168 C 
HETATM    4  C4  UNL     1     -33.674  17.730  -1.404  1.00 20.00     0.008 C 
HETATM    5  C5  UNL     1     -32.098  19.008   0.143  1.00 20.00     0.121 C 
HETATM    6  O10 UNL     1     -33.083  18.623   1.100  1.00 20.00    -0.386 OA
ENDROOT
BRANCH   4   7
HETATM    7  C9  UNL     1     -33.898  17.526  -2.899  1.00 20.00     0.082 C 
HETATM    8  C7  UNL     1     -33.171  18.579  -3.716  1.00 20.00     0.027 C 
HETATM    9 CL11 UNL     1     -33.328  15.900  -3.364  1.00 20.00    -0.125 Cl
ENDBRANCH   4   7
BRANCH   5  10
HETATM   10  C8  UNL     1     -30.724  18.880   0.786  1.00 20.00     0.027 C 
HETATM   11  C6  UNL     1     -30.817  18.463   2.218  1.00 20.00     0.007 C 
ENDBRANCH   5  10
TORSDOF 2
ENDMDL
MODEL 3
REMARK VINA RESULT:      -4.1     10.062     10.909
REMARK  2 active torsions:
REMARK  status: ('A' for Active; 'I' for Inactive)
REMARK    1  A    between atoms: C4_4  and  C9_9 
REMARK    2  A    between atoms: C5_5  and  C8_8 
ROOT
HETATM    1  C1  UNL     1     -41.170  15.299   7.115  1.00 20.00     0.032 C 
HETATM    2  C2  UNL     1     -41.220  13.498   5.360  1.00 20.00     0.038 C 
HETATM    3  C3  UNL     1     -40.426  14.355   8.061  1.00 20.00     0.168 C 
HETATM    4  C4  UNL     1     -42.060  14.515   6.153  1.00 20.00     0.008 C 
HETATM    5  C5  UNL     1     -39.953  13.076   6.114  1.00 20.00     0.121 C 
HETATM    6  O10 UNL     1     -40.211  13.051   7.516  1.00 20.00    -0.386 OA
ENDROOT
BRANCH   4   7
HETATM    7  C9  UNL     1     -42.834  15.441   5.220  1.00 20.00     0.082 C 
HETATM    8  C7  UNL     1     -42.500  16.898   5.485  1.00 20.00     0.027 C 
HETATM    9 CL11 UNL     1     -42.446  15.030   3.527  1.00 20.00    -0.125 Cl
ENDBRANCH   4   7
BRANCH   5  10
HETATM   10  C8  UNL     1     -39.484  11.693   5.684  1.00 20.00     0.027 C 
HETATM   11  C6  UNL     1     -39.101  11.661   4.240  1.00 20.00     0.007 C 
ENDBRANCH   5  10
TORSDOF 2
ENDMDL
MODEL 4
REMARK VINA RESULT:      -4.1      2.316      4.627
REMARK  2 active torsions:
REMARK  status: ('A' for Active; 'I' for Inactive)
REMARK    1  A    between atoms: C4_4  and  C9_9 
REMARK    2  A    between atoms: C5_5  and  C8_8 
ROOT
HETATM    1  C1  UNL     1     -32.597   6.484   2.286  1.00 20.00     0.032 C 
HETATM    2  C2  UNL     1     -33.623   6.984   4.527  1.00 20.00     0.038 C 
HETATM    3  C3  UNL     1     -32.937   5.003   2.461  1.00 20.00     0.168 C 
HETATM    4  C4  UNL     1     -32.378   7.157   3.639  1.00 20.00     0.008 C 
HETATM    5  C5  UNL     1     -34.437   5.739   4.152  1.00 20.00     0.121 C 
HETATM    6  O10 UNL     1     -33.560   4.704   3.712  1.00 20.00    -0.386 OA
ENDROOT
BRANCH   4   7
HETATM    7  C9  UNL     1     -32.008   8.629   3.484  1.00 20.00     0.082 C 
HETATM    8  C7  UNL     1     -32.832   9.294   2.396  1.00 20.00     0.027 C 
HETATM    9 CL11 UNL     1     -32.268   9.467   5.038  1.00 20.00    -0.125 Cl
ENDBRANCH   4   7
BRANCH   5  10
HETATM   10  C8  UNL     1     -35.240   5.222   5.337  1.00 20.00     0.027 C 
HETATM   11  C6  UNL     1     -34.542   5.475   6.634  1.00 20.00     0.007 C 
ENDBRANCH   5  10
TORSDOF 2
ENDMDL
MODEL 5
REMARK VINA RESULT:      -4.1     10.062     10.935
REMARK  2 active torsions:
REMARK  status: ('A' for Active; 'I' for Inactive)
REMARK    1  A    between atoms: C4_4  and  C9_9 
REMARK    2  A    between atoms: C5_5  and  C8_8 
ROOT
HETATM    1  C1  UNL     1     -42.296  14.883   6.239  1.00 20.00     0.032 C 
HETATM    2  C2  UNL     1     -40.292  13.620   7.082  1.00 20.00     0.038 C 
HETATM    3  C3  UNL     1     -42.120  14.242   4.861  1.00 20.00     0.168 C 
HETATM    4  C4  UNL     1     -40.955  15.003   6.960  1.00 20.00     0.008 C 
HETATM    5  C5  UNL     1     -40.750  12.655   5.980  1.00 20.00     0.121 C 
HETATM    6  O10 UNL     1     -40.986  13.378   4.774  1.00 20.00    -0.386 OA
ENDROOT
BRANCH   4   7
HETATM    7  C9  UNL     1     -41.105  15.667   8.325  1.00 20.00     0.082 C 
HETATM    8  C7  UNL     1     -40.194  15.026   9.355  1.00 20.00     0.027 C 
HETATM    9 CL11 UNL     1     -40.725  17.405   8.179  1.00 20.00    -0.125 Cl
ENDBRANCH   4   7
BRANCH   5  10
HETATM   10  C8  UNL     1     -39.702  11.586   5.706  1.00 20.00     0.027 C 
HETATM   11  C6  UNL     1     -39.138  11.701   4.327  1.00 20.00     0.007 C 
ENDBRANCH   5  10
TORSDOF 2
ENDMDL
MODEL 6
REMARK VINA RESULT:      -3.9     11.564     12.535
REMARK  2 active torsions:
REMARK  status: ('A' for Active; 'I' for Inactive)
REMARK    1  A    between atoms: C4_4  and  C9_9 
REMARK    2  A    between atoms: C5_5  and  C8_8 
ROOT
HETATM    1  C1  UNL     1     -34.277  19.152  -2.586  1.00 20.00     0.032 C 
HETATM    2  C2  UNL     1     -32.948  17.047  -2.230  1.00 20.00     0.038 C 
HETATM    3  C3  UNL     1     -34.412  18.815  -4.072  1.00 20.00     0.168 C 
HETATM    4  C4  UNL     1     -32.989  18.569  -2.010  1.00 20.00     0.008 C 
HETATM    5  C5  UNL     1     -33.788  16.611  -3.438  1.00 20.00     0.121 C 
HETATM    6  O10 UNL     1     -33.735  17.614  -4.449  1.00 20.00    -0.386 OA
ENDROOT
BRANCH   4   7
HETATM    7  C9  UNL     1     -32.821  18.920  -0.535  1.00 20.00     0.082 C 
HETATM    8  C7  UNL     1     -33.810  18.160   0.330  1.00 20.00     0.027 C 
HETATM    9 CL11 UNL     1     -31.154  18.538  -0.026  1.00 20.00    -0.125 Cl
ENDBRANCH   4   7
BRANCH   5  10
HETATM   10  C8  UNL     1     -33.278  15.303  -4.028  1.00 20.00     0.027 C 
HETATM   11  C6  UNL     1     -34.398  14.425  -4.483  1.00 20.00     0.007 C 
ENDBRANCH   5  10
TORSDOF 2
ENDMDL
MODEL 7
REMARK VINA RESULT:      -3.7     11.330     12.650
REMARK  2 active torsions:
REMARK  status: ('A' for Active; 'I' for Inactive)
REMARK    1  A    between atoms: C4_4  and  C9_9 
REMARK    2  A    between atoms: C5_5  and  C8_8 
ROOT
HETATM    1  C1  UNL     1     -34.037  17.804  -4.711  1.00 20.00     0.032 C 
HETATM    2  C2  UNL     1     -33.258  16.646  -2.619  1.00 20.00     0.038 C 
HETATM    3  C3  UNL     1     -34.446  19.023  -3.883  1.00 20.00     0.168 C 
HETATM    4  C4  UNL     1     -34.130  16.526  -3.881  1.00 20.00     0.008 C 
HETATM    5  C5  UNL     1     -33.058  18.105  -2.187  1.00 20.00     0.121 C 
HETATM    6  O10 UNL     1     -34.232  18.859  -2.480  1.00 20.00    -0.386 OA
ENDROOT
BRANCH   4   7
HETATM    7  C9  UNL     1     -33.754  15.293  -4.698  1.00 20.00     0.082 C 
HETATM    8  C7  UNL     1     -34.458  14.052  -4.180  1.00 20.00     0.027 C 
HETATM    9 CL11 UNL     1     -34.187  15.566  -6.407  1.00 20.00    -0.125 Cl
ENDBRANCH   4   7
BRANCH   5  10
HETATM   10  C8  UNL     1     -32.777  18.209  -0.694  1.00 20.00     0.027 C 
HETATM   11  C6  UNL     1     -31.336  18.494  -0.419  1.00 20.00     0.007 C 
ENDBRANCH   5  10
TORSDOF 2
ENDMDL
MODEL 8
REMARK VINA RESULT:      -3.7      1.724      2.333
REMARK  2 active torsions:
REMARK  status: ('A' for Active; 'I' for Inactive)
REMARK    1  A    between atoms: C4_4  and  C9_9 
REMARK    2  A    between atoms: C5_5  and  C8_8 
ROOT
HETATM    1  C1  UNL     1     -33.520   4.920   4.020  1.00 20.00     0.032 C 
HETATM    2  C2  UNL     1     -33.419   7.430   4.132  1.00 20.00     0.038 C 
HETATM    3  C3  UNL     1     -33.027   4.965   2.573  1.00 20.00     0.168 C 
HETATM    4  C4  UNL     1     -34.295   6.189   4.371  1.00 20.00     0.008 C 
HETATM    5  C5  UNL     1     -32.337   7.183   3.073  1.00 20.00     0.121 C 
HETATM    6  O10 UNL     1     -32.831   6.290   2.077  1.00 20.00    -0.386 OA
ENDROOT
BRANCH   4   7
HETATM    7  C9  UNL     1     -34.821   6.150   5.803  1.00 20.00     0.082 C 
HETATM    8  C7  UNL     1     -34.448   4.852   6.495  1.00 20.00     0.027 C 
HETATM    9 CL11 UNL     1     -34.154   7.533   6.712  1.00 20.00    -0.125 Cl
ENDBRANCH   4   7
BRANCH   5  10
HETATM   10  C8  UNL     1     -31.916   8.480   2.394  1.00 20.00     0.027 C 
HETATM   11  C6  UNL     1     -32.245   8.476   0.936  1.00 20.00     0.007 C 
ENDBRANCH   5  10
TORSDOF 2
ENDMDL
MODEL 9
REMARK VINA RESULT:      -3.7     11.597     12.801
REMARK  2 active torsions:
REMARK  status: ('A' for Active; 'I' for Inactive)
REMARK    1  A    between atoms: C4_4  and  C9_9 
REMARK    2  A    between atoms: C5_5  and  C8_8 
ROOT
HETATM    1  C1  UNL     1     -32.986  15.561  -3.776  1.00 20.00     0.032 C 
HETATM    2  C2  UNL     1     -34.586  17.468  -4.133  1.00 20.00     0.038 C 
HETATM    3  C3  UNL     1     -33.859  14.665  -4.657  1.00 20.00     0.168 C 
HETATM    4  C4  UNL     1     -33.827  16.633  -3.087  1.00 20.00     0.008 C 
HETATM    5  C5  UNL     1     -34.831  16.690  -5.432  1.00 20.00     0.121 C 
HETATM    6  O10 UNL     1     -35.039  15.311  -5.137  1.00 20.00    -0.386 OA
ENDROOT
BRANCH   4   7
HETATM    7  C9  UNL     1     -32.979  17.519  -2.180  1.00 20.00     0.082 C 
HETATM    8  C7  UNL     1     -32.802  18.906  -2.772  1.00 20.00     0.027 C 
HETATM    9 CL11 UNL     1     -33.757  17.639  -0.579  1.00 20.00    -0.125 Cl
ENDBRANCH   4   7
BRANCH   5  10
HETATM   10  C8  UNL     1     -36.053  17.216  -6.173  1.00 20.00     0.027 C 
HETATM   11  C6  UNL     1     -37.318  16.604  -5.664  1.00 20.00     0.007 C 
ENDBRANCH   5  10
TORSDOF 2
ENDMDL
