MODEL 1
REMARK VINA RESULT:      -4.7      0.000      0.000
REMARK  2 active torsions:
REMARK  status: ('A' for Active; 'I' for Inactive)
REMARK    1  A    between atoms: C1_1  and  C7_7 
REMARK    2  A    between atoms: C8_8  and  C12_12 
ROOT
HETATM    1  C2  UNL     1     -35.269  18.192  -3.897  1.00 20.00     0.001 C 
HETATM    2  C3  UNL     1     -33.853  18.722  -3.675  1.00 20.00     0.012 C 
HETATM    3  C4  UNL     1     -33.446  16.390  -2.578  1.00 20.00     0.012 C 
HETATM    4  C5  UNL     1     -35.382  17.017  -4.876  1.00 20.00     0.005 C 
HETATM    5  C6  UNL     1     -33.596  15.496  -3.808  1.00 20.00     0.006 C 
HETATM    6  C7  UNL     1     -32.926  17.803  -2.856  1.00 20.00     0.055 C 
HETATM    7  C8  UNL     1     -34.122  16.165  -5.085  1.00 20.00    -0.011 C 
ENDROOT
BRANCH   6   8
HETATM    8  C1  UNL     1     -32.652  18.462  -1.534  1.00 20.00     0.127 C 
HETATM    9  C9  UNL     1     -33.571  18.106  -0.397  1.00 20.00     0.091 C 
HETATM   10  O13 UNL     1     -31.721  19.253  -1.389  1.00 20.00    -0.298 OA
ENDBRANCH   6   8
BRANCH   7  11
HETATM   11  C12 UNL     1     -34.392  15.092  -6.149  1.00 20.00    -0.019 C 
HETATM   12  C10 UNL     1     -35.827  14.592  -6.044  1.00 20.00     0.010 C 
HETATM   13  C11 UNL     1     -34.109  15.645  -7.542  1.00 20.00     0.010 C 
ENDBRANCH   7  11
TORSDOF 2
ENDMDL
MODEL 2
REMARK VINA RESULT:      -4.7      2.462      5.167
REMARK  2 active torsions:
REMARK  status: ('A' for Active; 'I' for Inactive)
REMARK    1  A    between atoms: C1_1  and  C7_7 
REMARK    2  A    between atoms: C8_8  and  C12_12 
ROOT
HETATM    1  C2  UNL     1     -34.153  18.286  -5.088  1.00 20.00     0.001 C 
HETATM    2  C3  UNL     1     -35.305  17.302  -5.281  1.00 20.00     0.012 C 
HETATM    3  C4  UNL     1     -33.563  15.528  -4.489  1.00 20.00     0.012 C 
HETATM    4  C5  UNL     1     -33.690  18.475  -3.638  1.00 20.00     0.005 C 
HETATM    5  C6  UNL     1     -33.365  15.988  -3.045  1.00 20.00     0.006 C 
HETATM    6  C7  UNL     1     -34.944  15.817  -5.083  1.00 20.00     0.055 C 
HETATM    7  C8  UNL     1     -33.994  17.333  -2.658  1.00 20.00    -0.011 C 
ENDROOT
BRANCH   6   8
HETATM    8  C1  UNL     1     -35.026  15.127  -6.415  1.00 20.00     0.127 C 
HETATM    9  C9  UNL     1     -33.953  15.459  -7.416  1.00 20.00     0.091 C 
HETATM   10  O13 UNL     1     -35.926  14.328  -6.673  1.00 20.00    -0.298 OA
ENDBRANCH   6   8
BRANCH   7  11
HETATM   11  C12 UNL     1     -33.535  17.724  -1.247  1.00 20.00    -0.019 C 
HETATM   12  C10 UNL     1     -32.098  18.230  -1.279  1.00 20.00     0.010 C 
HETATM   13  C11 UNL     1     -34.468  18.777  -0.659  1.00 20.00     0.010 C 
ENDBRANCH   7  11
TORSDOF 2
ENDMDL
MODEL 3
REMARK VINA RESULT:      -4.6      0.977      1.346
REMARK  2 active torsions:
REMARK  status: ('A' for Active; 'I' for Inactive)
REMARK    1  A    between atoms: C1_1  and  C7_7 
REMARK    2  A    between atoms: C8_8  and  C12_12 
ROOT
HETATM    1  C2  UNL     1     -35.108  18.886  -2.825  1.00 20.00     0.001 C 
HETATM    2  C3  UNL     1     -33.631  19.263  -2.721  1.00 20.00     0.012 C 
HETATM    3  C4  UNL     1     -33.297  16.719  -2.248  1.00 20.00     0.012 C 
HETATM    4  C5  UNL     1     -35.471  17.981  -4.009  1.00 20.00     0.005 C 
HETATM    5  C6  UNL     1     -33.706  16.148  -3.605  1.00 20.00     0.006 C 
HETATM    6  C7  UNL     1     -32.689  18.123  -2.286  1.00 20.00     0.055 C 
HETATM    7  C8  UNL     1     -34.341  17.127  -4.601  1.00 20.00    -0.011 C 
ENDROOT
BRANCH   6   8
HETATM    8  C1  UNL     1     -32.168  18.437  -0.913  1.00 20.00     0.127 C 
HETATM    9  C9  UNL     1     -33.147  18.326   0.225  1.00 20.00     0.091 C 
HETATM   10  O13 UNL     1     -30.997  18.767  -0.727  1.00 20.00    -0.298 OA
ENDBRANCH   6   8
BRANCH   7  11
HETATM   11  C12 UNL     1     -34.862  16.352  -5.818  1.00 20.00    -0.019 C 
HETATM   12  C10 UNL     1     -34.031  15.094  -6.040  1.00 20.00     0.010 C 
HETATM   13  C11 UNL     1     -36.335  16.005  -5.635  1.00 20.00     0.010 C 
ENDBRANCH   7  11
TORSDOF 2
ENDMDL
MODEL 4
REMARK VINA RESULT:      -4.4      1.630      2.719
REMARK  2 active torsions:
REMARK  status: ('A' for Active; 'I' for Inactive)
REMARK    1  A    between atoms: C1_1  and  C7_7 
REMARK    2  A    between atoms: C8_8  and  C12_12 
ROOT
HETATM    1  C2  UNL     1     -33.247  16.305  -2.842  1.00 20.00     0.001 C 
HETATM    2  C3  UNL     1     -33.597  17.045  -1.552  1.00 20.00     0.012 C 
HETATM    3  C4  UNL     1     -32.631  19.121  -2.804  1.00 20.00     0.012 C 
HETATM    4  C5  UNL     1     -34.059  16.719  -4.075  1.00 20.00     0.005 C 
HETATM    5  C6  UNL     1     -33.674  19.262  -3.912  1.00 20.00     0.006 C 
HETATM    6  C7  UNL     1     -33.147  18.518  -1.494  1.00 20.00     0.055 C 
HETATM    7  C8  UNL     1     -34.688  18.120  -4.053  1.00 20.00    -0.011 C 
ENDROOT
BRANCH   6   8
HETATM    8  C1  UNL     1     -32.056  18.641  -0.469  1.00 20.00     0.127 C 
HETATM    9  C9  UNL     1     -32.478  18.610   0.975  1.00 20.00     0.091 C 
HETATM   10  O13 UNL     1     -30.875  18.758  -0.795  1.00 20.00    -0.298 OA
ENDBRANCH   6   8
BRANCH   7  11
HETATM   11  C12 UNL     1     -35.523  18.332  -5.322  1.00 20.00    -0.019 C 
HETATM   12  C10 UNL     1     -34.687  18.040  -6.562  1.00 20.00     0.010 C 
HETATM   13  C11 UNL     1     -36.770  17.455  -5.289  1.00 20.00     0.010 C 
ENDBRANCH   7  11
TORSDOF 2
ENDMDL
MODEL 5
REMARK VINA RESULT:      -4.3      2.772      5.452
REMARK  2 active torsions:
REMARK  status: ('A' for Active; 'I' for Inactive)
REMARK    1  A    between atoms: C1_1  and  C7_7 
REMARK    2  A    between atoms: C8_8  and  C12_12 
ROOT
HETATM    1  C2  UNL     1     -34.112  14.789  -4.385  1.00 20.00     0.001 C 
HETATM    2  C3  UNL     1     -34.030  15.184  -5.859  1.00 20.00     0.012 C 
HETATM    3  C4  UNL     1     -35.931  16.859  -5.233  1.00 20.00     0.012 C 
HETATM    4  C5  UNL     1     -33.680  15.874  -3.392  1.00 20.00     0.005 C 
HETATM    5  C6  UNL     1     -35.160  17.783  -4.291  1.00 20.00     0.006 C 
HETATM    6  C7  UNL     1     -35.092  16.197  -6.329  1.00 20.00     0.055 C 
HETATM    7  C8  UNL     1     -33.754  17.329  -3.878  1.00 20.00    -0.011 C 
ENDROOT
BRANCH   6   8
HETATM    8  C1  UNL     1     -36.032  15.496  -7.269  1.00 20.00     0.127 C 
HETATM    9  C9  UNL     1     -37.099  16.340  -7.913  1.00 20.00     0.091 C 
HETATM   10  O13 UNL     1     -35.933  14.292  -7.502  1.00 20.00    -0.298 OA
ENDBRANCH   6   8
BRANCH   7  11
HETATM   11  C12 UNL     1     -33.213  18.267  -2.791  1.00 20.00    -0.019 C 
HETATM   12  C10 UNL     1     -34.286  19.262  -2.368  1.00 20.00     0.010 C 
HETATM   13  C11 UNL     1     -32.717  17.461  -1.595  1.00 20.00     0.010 C 
ENDBRANCH   7  11
TORSDOF 2
ENDMDL
MODEL 6
REMARK VINA RESULT:      -4.1     11.402     12.658
REMARK  2 active torsions:
REMARK  status: ('A' for Active; 'I' for Inactive)
REMARK    1  A    between atoms: C1_1  and  C7_7 
REMARK    2  A    between atoms: C8_8  and  C12_12 
ROOT
HETATM    1  C2  UNL     1     -32.791   5.494   3.167  1.00 20.00     0.001 C 
HETATM    2  C3  UNL     1     -34.137   5.847   3.799  1.00 20.00     0.012 C 
HETATM    3  C4  UNL     1     -32.807   7.823   4.866  1.00 20.00     0.012 C 
HETATM    4  C5  UNL     1     -32.261   6.508   2.146  1.00 20.00     0.005 C 
HETATM    5  C6  UNL     1     -32.476   8.621   3.606  1.00 20.00     0.006 C 
HETATM    6  C7  UNL     1     -34.106   7.014   4.804  1.00 20.00     0.055 C 
HETATM    7  C8  UNL     1     -32.784   7.947   2.263  1.00 20.00    -0.011 C 
ENDROOT
BRANCH   6   8
HETATM    8  C1  UNL     1     -34.372   6.464   6.177  1.00 20.00     0.127 C 
HETATM    9  C9  UNL     1     -34.537   4.972   6.288  1.00 20.00     0.091 C 
HETATM   10  O13 UNL     1     -34.449   7.198   7.162  1.00 20.00    -0.298 OA
ENDBRANCH   6   8
BRANCH   7  11
HETATM   11  C12 UNL     1     -32.214   8.799   1.121  1.00 20.00    -0.019 C 
HETATM   12  C10 UNL     1     -32.340   8.060  -0.205  1.00 20.00     0.010 C 
HETATM   13  C11 UNL     1     -32.924  10.148   1.061  1.00 20.00     0.010 C 
ENDBRANCH   7  11
TORSDOF 2
ENDMDL
MODEL 7
REMARK VINA RESULT:      -3.9     12.595     14.994
REMARK  2 active torsions:
REMARK  status: ('A' for Active; 'I' for Inactive)
REMARK    1  A    between atoms: C1_1  and  C7_7 
REMARK    2  A    between atoms: C8_8  and  C12_12 
ROOT
HETATM    1  C2  UNL     1     -43.209  13.699   7.078  1.00 20.00     0.001 C 
HETATM    2  C3  UNL     1     -42.278  12.543   6.716  1.00 20.00     0.012 C 
HETATM    3  C4  UNL     1     -40.397  14.329   6.995  1.00 20.00     0.012 C 
HETATM    4  C5  UNL     1     -43.066  14.231   8.509  1.00 20.00     0.005 C 
HETATM    5  C6  UNL     1     -40.515  14.595   8.495  1.00 20.00     0.006 C 
HETATM    6  C7  UNL     1     -40.794  12.920   6.548  1.00 20.00     0.055 C 
HETATM    7  C8  UNL     1     -41.724  13.980   9.211  1.00 20.00    -0.011 C 
ENDROOT
BRANCH   6   8
HETATM    8  C1  UNL     1     -40.428  12.776   5.098  1.00 20.00     0.127 C 
HETATM    9  C9  UNL     1     -39.302  11.832   4.774  1.00 20.00     0.091 C 
HETATM   10  O13 UNL     1     -41.023  13.398   4.219  1.00 20.00    -0.298 OA
ENDBRANCH   6   8
BRANCH   7  11
HETATM   11  C12 UNL     1     -41.787  14.505  10.651  1.00 20.00    -0.019 C 
HETATM   12  C10 UNL     1     -42.488  13.497  11.553  1.00 20.00     0.010 C 
HETATM   13  C11 UNL     1     -40.384  14.810  11.166  1.00 20.00     0.010 C 
ENDBRANCH   7  11
TORSDOF 2
ENDMDL
MODEL 8
REMARK VINA RESULT:      -3.8      2.537      5.270
REMARK  2 active torsions:
REMARK  status: ('A' for Active; 'I' for Inactive)
REMARK    1  A    between atoms: C1_1  and  C7_7 
REMARK    2  A    between atoms: C8_8  and  C12_12 
ROOT
HETATM    1  C2  UNL     1     -33.680  16.391  -3.252  1.00 20.00     0.001 C 
HETATM    2  C3  UNL     1     -33.734  17.362  -4.431  1.00 20.00     0.012 C 
HETATM    3  C4  UNL     1     -35.623  18.511  -3.046  1.00 20.00     0.012 C 
HETATM    4  C5  UNL     1     -33.199  16.996  -1.928  1.00 20.00     0.005 C 
HETATM    5  C6  UNL     1     -34.804  19.011  -1.857  1.00 20.00     0.006 C 
HETATM    6  C7  UNL     1     -34.860  18.412  -4.369  1.00 20.00     0.055 C 
HETATM    7  C8  UNL     1     -33.355  18.514  -1.761  1.00 20.00    -0.011 C 
ENDROOT
BRANCH   6   8
HETATM    8  C1  UNL     1     -35.855  18.104  -5.453  1.00 20.00     0.127 C 
HETATM    9  C9  UNL     1     -36.861  17.023  -5.160  1.00 20.00     0.091 C 
HETATM   10  O13 UNL     1     -35.848  18.707  -6.525  1.00 20.00    -0.298 OA
ENDBRANCH   6   8
BRANCH   7  11
HETATM   11  C12 UNL     1     -32.753  18.952  -0.420  1.00 20.00    -0.019 C 
HETATM   12  C10 UNL     1     -33.576  18.400   0.737  1.00 20.00     0.010 C 
HETATM   13  C11 UNL     1     -31.300  18.499  -0.318  1.00 20.00     0.010 C 
ENDBRANCH   7  11
TORSDOF 2
ENDMDL
MODEL 9
REMARK VINA RESULT:      -3.5     24.859     26.128
REMARK  2 active torsions:
REMARK  status: ('A' for Active; 'I' for Inactive)
REMARK    1  A    between atoms: C1_1  and  C7_7 
REMARK    2  A    between atoms: C8_8  and  C12_12 
ROOT
HETATM    1  C2  UNL     1     -26.629  -4.313  11.109  1.00 20.00     0.001 C 
HETATM    2  C3  UNL     1     -27.497  -3.249  10.438  1.00 20.00     0.012 C 
HETATM    3  C4  UNL     1     -26.348  -1.635  12.137  1.00 20.00     0.012 C 
HETATM    4  C5  UNL     1     -25.119  -4.158  10.893  1.00 20.00     0.005 C 
HETATM    5  C6  UNL     1     -24.913  -1.693  11.618  1.00 20.00     0.006 C 
HETATM    6  C7  UNL     1     -27.434  -1.849  11.079  1.00 20.00     0.055 C 
HETATM    7  C8  UNL     1     -24.609  -2.751  10.549  1.00 20.00    -0.011 C 
ENDROOT
BRANCH   6   8
HETATM    8  C1  UNL     1     -28.763  -1.560  11.718  1.00 20.00     0.127 C 
HETATM    9  C9  UNL     1     -29.827  -2.615  11.573  1.00 20.00     0.091 C 
HETATM   10  O13 UNL     1     -28.970  -0.514  12.331  1.00 20.00    -0.298 OA
ENDBRANCH   6   8
BRANCH   7  11
HETATM   11  C12 UNL     1     -23.097  -2.797  10.291  1.00 20.00    -0.019 C 
HETATM   12  C10 UNL     1     -22.454  -3.911  11.108  1.00 20.00     0.010 C 
HETATM   13  C11 UNL     1     -22.819  -2.985   8.803  1.00 20.00     0.010 C 
ENDBRANCH   7  11
TORSDOF 2
ENDMDL
