MODEL 1
REMARK VINA RESULT:      -3.5      0.000      0.000
REMARK  2 active torsions:
REMARK  status: ('A' for Active; 'I' for Inactive)
REMARK    1  A    between atoms: C5_5  and  S10_10 
REMARK    2  A    between atoms: C8_8  and  S10_10 
ROOT
HETATM    1  C1  UNL     1     -35.119  14.088  -4.646  1.00 20.00     0.080 C 
HETATM    2  C2  UNL     1     -33.428  16.082  -3.176  1.00 20.00     0.009 C 
HETATM    3  C3  UNL     1     -32.843  15.152  -4.261  1.00 20.00     0.037 C 
HETATM    4  C4  UNL     1     -34.505  16.527  -4.204  1.00 20.00     0.014 C 
HETATM    5  C5  UNL     1     -34.225  15.183  -4.960  1.00 20.00     0.100 C 
HETATM    6  C6  UNL     1     -34.211  17.886  -4.832  1.00 20.00     0.012 C 
HETATM    7  N9  UNL     1     -35.835  13.211  -4.394  1.00 20.00    -0.196 NA
ENDROOT
BRANCH   5   8
HETATM    8  S10 UNL     1     -34.072  15.345  -6.774  1.00 20.00    -0.144 SA
BRANCH   8   9
HETATM    9  C8  UNL     1     -35.815  15.119  -7.184  1.00 20.00     0.071 C 
HETATM   10  C7  UNL     1     -36.489  16.459  -7.409  1.00 20.00     0.016 C 
ENDBRANCH   8   9
ENDBRANCH   5   8
TORSDOF 2
ENDMDL
MODEL 2
REMARK VINA RESULT:      -3.2      1.729      3.635
REMARK  2 active torsions:
REMARK  status: ('A' for Active; 'I' for Inactive)
REMARK    1  A    between atoms: C5_5  and  S10_10 
REMARK    2  A    between atoms: C8_8  and  S10_10 
ROOT
HETATM    1  C1  UNL     1     -34.479  14.792  -4.644  1.00 20.00     0.080 C 
HETATM    2  C2  UNL     1     -35.799  15.306  -7.289  1.00 20.00     0.009 C 
HETATM    3  C3  UNL     1     -36.438  15.745  -5.953  1.00 20.00     0.037 C 
HETATM    4  C4  UNL     1     -34.506  16.057  -6.862  1.00 20.00     0.014 C 
HETATM    5  C5  UNL     1     -35.008  15.919  -5.384  1.00 20.00     0.100 C 
HETATM    6  C6  UNL     1     -34.348  17.414  -7.541  1.00 20.00     0.012 C 
HETATM    7  N9  UNL     1     -34.055  13.889  -4.052  1.00 20.00    -0.196 NA
ENDROOT
BRANCH   5   8
HETATM    8  S10 UNL     1     -34.849  17.437  -4.379  1.00 20.00    -0.144 SA
BRANCH   8   9
HETATM    9  C8  UNL     1     -33.299  17.020  -3.555  1.00 20.00     0.071 C 
HETATM   10  C7  UNL     1     -33.473  17.045  -2.048  1.00 20.00     0.016 C 
ENDBRANCH   8   9
ENDBRANCH   5   8
TORSDOF 2
ENDMDL
MODEL 3
REMARK VINA RESULT:      -3.1      3.374      4.304
REMARK  2 active torsions:
REMARK  status: ('A' for Active; 'I' for Inactive)
REMARK    1  A    between atoms: C5_5  and  S10_10 
REMARK    2  A    between atoms: C8_8  and  S10_10 
ROOT
HETATM    1  C1  UNL     1     -33.460  16.788  -2.812  1.00 20.00     0.080 C 
HETATM    2  C2  UNL     1     -31.959  18.390  -0.767  1.00 20.00     0.009 C 
HETATM    3  C3  UNL     1     -32.512  19.024  -2.062  1.00 20.00     0.037 C 
HETATM    4  C4  UNL     1     -33.384  17.838  -0.485  1.00 20.00     0.014 C 
HETATM    5  C5  UNL     1     -33.660  17.985  -2.021  1.00 20.00     0.100 C 
HETATM    6  C6  UNL     1     -34.148  18.650   0.557  1.00 20.00     0.012 C 
HETATM    7  N9  UNL     1     -33.299  15.830  -3.445  1.00 20.00    -0.196 NA
ENDROOT
BRANCH   5   8
HETATM    8  S10 UNL     1     -35.275  18.730  -2.438  1.00 20.00    -0.144 SA
BRANCH   8   9
HETATM    9  C8  UNL     1     -35.207  18.470  -4.223  1.00 20.00     0.071 C 
HETATM   10  C7  UNL     1     -36.487  17.824  -4.717  1.00 20.00     0.016 C 
ENDBRANCH   8   9
ENDBRANCH   5   8
TORSDOF 2
ENDMDL
MODEL 4
REMARK VINA RESULT:      -3.1      2.387      4.022
REMARK  2 active torsions:
REMARK  status: ('A' for Active; 'I' for Inactive)
REMARK    1  A    between atoms: C5_5  and  S10_10 
REMARK    2  A    between atoms: C8_8  and  S10_10 
ROOT
HETATM    1  C1  UNL     1     -36.212  17.386  -4.818  1.00 20.00     0.080 C 
HETATM    2  C2  UNL     1     -34.841  15.225  -6.383  1.00 20.00     0.009 C 
HETATM    3  C3  UNL     1     -34.487  16.717  -6.560  1.00 20.00     0.037 C 
HETATM    4  C4  UNL     1     -34.608  15.399  -4.857  1.00 20.00     0.014 C 
HETATM    5  C5  UNL     1     -34.861  16.931  -5.072  1.00 20.00     0.100 C 
HETATM    6  C6  UNL     1     -33.260  14.858  -4.389  1.00 20.00     0.012 C 
HETATM    7  N9  UNL     1     -37.295  17.749  -4.614  1.00 20.00    -0.196 NA
ENDROOT
BRANCH   5   8
HETATM    8  S10 UNL     1     -33.676  18.028  -4.216  1.00 20.00    -0.144 SA
BRANCH   8   9
HETATM    9  C8  UNL     1     -34.461  18.009  -2.591  1.00 20.00     0.071 C 
HETATM   10  C7  UNL     1     -33.603  17.255  -1.593  1.00 20.00     0.016 C 
ENDBRANCH   8   9
ENDBRANCH   5   8
TORSDOF 2
ENDMDL
MODEL 5
REMARK VINA RESULT:      -3.0     12.653     13.506
REMARK  2 active torsions:
REMARK  status: ('A' for Active; 'I' for Inactive)
REMARK    1  A    between atoms: C5_5  and  S10_10 
REMARK    2  A    between atoms: C8_8  and  S10_10 
ROOT
HETATM    1  C1  UNL     1     -42.113  14.361   4.576  1.00 20.00     0.080 C 
HETATM    2  C2  UNL     1     -42.702  15.888   7.090  1.00 20.00     0.009 C 
HETATM    3  C3  UNL     1     -43.263  14.472   6.839  1.00 20.00     0.037 C 
HETATM    4  C4  UNL     1     -41.284  15.327   6.790  1.00 20.00     0.014 C 
HETATM    5  C5  UNL     1     -41.993  14.170   6.007  1.00 20.00     0.100 C 
HETATM    6  C6  UNL     1     -40.461  15.069   8.049  1.00 20.00     0.012 C 
HETATM    7  N9  UNL     1     -42.208  14.515   3.430  1.00 20.00    -0.196 NA
ENDROOT
BRANCH   5   8
HETATM    8  S10 UNL     1     -41.331  12.501   6.347  1.00 20.00    -0.144 SA
BRANCH   8   9
HETATM    9  C8  UNL     1     -40.104  12.454   5.023  1.00 20.00     0.071 C 
HETATM   10  C7  UNL     1     -38.739  12.087   5.574  1.00 20.00     0.016 C 
ENDBRANCH   8   9
ENDBRANCH   5   8
TORSDOF 2
ENDMDL
MODEL 6
REMARK VINA RESULT:      -3.0      1.841      2.735
REMARK  2 active torsions:
REMARK  status: ('A' for Active; 'I' for Inactive)
REMARK    1  A    between atoms: C5_5  and  S10_10 
REMARK    2  A    between atoms: C8_8  and  S10_10 
ROOT
HETATM    1  C1  UNL     1     -36.242  15.678  -5.411  1.00 20.00     0.080 C 
HETATM    2  C2  UNL     1     -33.671  14.424  -4.507  1.00 20.00     0.009 C 
HETATM    3  C3  UNL     1     -33.795  15.156  -5.860  1.00 20.00     0.037 C 
HETATM    4  C4  UNL     1     -34.244  15.695  -3.820  1.00 20.00     0.014 C 
HETATM    5  C5  UNL     1     -34.862  16.071  -5.210  1.00 20.00     0.100 C 
HETATM    6  C6  UNL     1     -33.173  16.551  -3.151  1.00 20.00     0.012 C 
HETATM    7  N9  UNL     1     -37.346  15.362  -5.571  1.00 20.00    -0.196 NA
ENDROOT
BRANCH   5   8
HETATM    8  S10 UNL     1     -34.651  17.822  -5.691  1.00 20.00    -0.144 SA
BRANCH   8   9
HETATM    9  C8  UNL     1     -36.149  18.467  -4.918  1.00 20.00     0.071 C 
HETATM   10  C7  UNL     1     -35.822  19.135  -3.596  1.00 20.00     0.016 C 
ENDBRANCH   8   9
ENDBRANCH   5   8
TORSDOF 2
ENDMDL
MODEL 7
REMARK VINA RESULT:      -2.9     13.313     14.079
REMARK  2 active torsions:
REMARK  status: ('A' for Active; 'I' for Inactive)
REMARK    1  A    between atoms: C5_5  and  S10_10 
REMARK    2  A    between atoms: C8_8  and  S10_10 
ROOT
HETATM    1  C1  UNL     1     -42.321  13.356   7.861  1.00 20.00     0.080 C 
HETATM    2  C2  UNL     1     -41.419  16.209   8.073  1.00 20.00     0.009 C 
HETATM    3  C3  UNL     1     -40.468  15.079   7.621  1.00 20.00     0.037 C 
HETATM    4  C4  UNL     1     -42.414  15.748   6.972  1.00 20.00     0.014 C 
HETATM    5  C5  UNL     1     -41.697  14.355   7.018  1.00 20.00     0.100 C 
HETATM    6  C6  UNL     1     -42.387  16.632   5.729  1.00 20.00     0.012 C 
HETATM    7  N9  UNL     1     -42.820  12.556   8.537  1.00 20.00    -0.196 NA
ENDROOT
BRANCH   5   8
HETATM    8  S10 UNL     1     -41.331  13.630   5.381  1.00 20.00    -0.144 SA
BRANCH   8   9
HETATM    9  C8  UNL     1     -40.506  12.133   5.960  1.00 20.00     0.071 C 
HETATM   10  C7  UNL     1     -39.060  12.109   5.500  1.00 20.00     0.016 C 
ENDBRANCH   8   9
ENDBRANCH   5   8
TORSDOF 2
ENDMDL
MODEL 8
REMARK VINA RESULT:      -2.9      2.799      3.531
REMARK  2 active torsions:
REMARK  status: ('A' for Active; 'I' for Inactive)
REMARK    1  A    between atoms: C5_5  and  S10_10 
REMARK    2  A    between atoms: C8_8  and  S10_10 
ROOT
HETATM    1  C1  UNL     1     -33.237  16.419  -3.428  1.00 20.00     0.080 C 
HETATM    2  C2  UNL     1     -33.466  17.646  -0.700  1.00 20.00     0.009 C 
HETATM    3  C3  UNL     1     -32.366  18.066  -1.699  1.00 20.00     0.037 C 
HETATM    4  C4  UNL     1     -34.516  17.926  -1.811  1.00 20.00     0.014 C 
HETATM    5  C5  UNL     1     -33.354  17.740  -2.847  1.00 20.00     0.100 C 
HETATM    6  C6  UNL     1     -35.238  19.259  -1.634  1.00 20.00     0.012 C 
HETATM    7  N9  UNL     1     -33.143  15.360  -3.893  1.00 20.00    -0.196 NA
ENDROOT
BRANCH   5   8
HETATM    8  S10 UNL     1     -33.305  18.997  -4.172  1.00 20.00    -0.144 SA
BRANCH   8   9
HETATM    9  C8  UNL     1     -34.401  18.161  -5.338  1.00 20.00     0.071 C 
HETATM   10  C7  UNL     1     -35.791  18.767  -5.290  1.00 20.00     0.016 C 
ENDBRANCH   8   9
ENDBRANCH   5   8
TORSDOF 2
ENDMDL
MODEL 9
REMARK VINA RESULT:      -2.7     12.225     13.678
REMARK  2 active torsions:
REMARK  status: ('A' for Active; 'I' for Inactive)
REMARK    1  A    between atoms: C5_5  and  S10_10 
REMARK    2  A    between atoms: C8_8  and  S10_10 
ROOT
HETATM    1  C1  UNL     1     -42.870   5.626  -0.834  1.00 20.00     0.080 C 
HETATM    2  C2  UNL     1     -41.724   8.391  -0.634  1.00 20.00     0.009 C 
HETATM    3  C3  UNL     1     -43.114   8.036  -0.064  1.00 20.00     0.037 C 
HETATM    4  C4  UNL     1     -41.139   7.205   0.182  1.00 20.00     0.014 C 
HETATM    5  C5  UNL     1     -42.586   6.603   0.197  1.00 20.00     0.100 C 
HETATM    6  C6  UNL     1     -40.431   7.645   1.460  1.00 20.00     0.012 C 
HETATM    7  N9  UNL     1     -43.097   4.843  -1.660  1.00 20.00    -0.196 NA
ENDROOT
BRANCH   5   8
HETATM    8  S10 UNL     1     -43.127   5.956   1.817  1.00 20.00    -0.144 SA
BRANCH   8   9
HETATM    9  C8  UNL     1     -42.364   4.326   1.693  1.00 20.00     0.071 C 
HETATM   10  C7  UNL     1     -43.417   3.260   1.456  1.00 20.00     0.016 C 
ENDBRANCH   8   9
ENDBRANCH   5   8
TORSDOF 2
ENDMDL
