MODEL 1
REMARK VINA RESULT:      -3.8      0.000      0.000
REMARK  1 active torsions:
REMARK  status: ('A' for Active; 'I' for Inactive)
REMARK    1  A    between atoms: C4_4  and  C9_9 
ROOT
HETATM    1  C1  UNL     1     -33.248  15.766  -3.621  1.00 20.00     0.032 C 
HETATM    2  C2  UNL     1     -34.424  17.202  -5.300  1.00 20.00     0.043 C 
HETATM    3  C3  UNL     1     -33.648  14.559  -4.457  1.00 20.00     0.169 C 
HETATM    4  C4  UNL     1     -34.249  16.910  -3.805  1.00 20.00     0.008 C 
HETATM    5  C5  UNL     1     -34.745  15.934  -6.115  1.00 20.00     0.054 C 
HETATM    6  C6  UNL     1     -34.598  16.246  -7.611  1.00 20.00     0.045 C 
HETATM    7  C7  UNL     1     -36.175  15.432  -5.868  1.00 20.00     0.045 C 
HETATM    8  O10 UNL     1     -33.787  14.902  -5.834  1.00 20.00    -0.381 OA
ENDROOT
BRANCH   4   9
HETATM    9  C9  UNL     1     -33.795  18.159  -3.053  1.00 20.00     0.082 C 
HETATM   10  C8  UNL     1     -33.022  19.103  -3.959  1.00 20.00     0.027 C 
HETATM   11 CL11 UNL     1     -32.773  17.679  -1.669  1.00 20.00    -0.125 Cl
ENDBRANCH   4   9
TORSDOF 1
ENDMDL
MODEL 2
REMARK VINA RESULT:      -3.8      1.241      1.495
REMARK  1 active torsions:
REMARK  status: ('A' for Active; 'I' for Inactive)
REMARK    1  A    between atoms: C4_4  and  C9_9 
ROOT
HETATM    1  C1  UNL     1     -33.150  15.464  -3.824  1.00 20.00     0.032 C 
HETATM    2  C2  UNL     1     -34.110  17.640  -4.605  1.00 20.00     0.043 C 
HETATM    3  C3  UNL     1     -33.934  14.784  -4.936  1.00 20.00     0.169 C 
HETATM    4  C4  UNL     1     -33.845  16.755  -3.381  1.00 20.00     0.008 C 
HETATM    5  C5  UNL     1     -34.831  16.881  -5.736  1.00 20.00     0.054 C 
HETATM    6  C6  UNL     1     -34.781  17.722  -7.019  1.00 20.00     0.045 C 
HETATM    7  C7  UNL     1     -36.304  16.602  -5.402  1.00 20.00     0.045 C 
HETATM    8  O10 UNL     1     -34.139  15.660  -6.042  1.00 20.00    -0.381 OA
ENDROOT
BRANCH   4   9
HETATM    9  C9  UNL     1     -33.008  17.496  -2.341  1.00 20.00     0.082 C 
HETATM   10  C8  UNL     1     -33.711  17.546  -0.994  1.00 20.00     0.027 C 
HETATM   11 CL11 UNL     1     -32.685  19.156  -2.914  1.00 20.00    -0.125 Cl
ENDBRANCH   4   9
TORSDOF 1
ENDMDL
MODEL 3
REMARK VINA RESULT:      -3.7     13.555     14.283
REMARK  1 active torsions:
REMARK  status: ('A' for Active; 'I' for Inactive)
REMARK    1  A    between atoms: C4_4  and  C9_9 
ROOT
HETATM    1  C1  UNL     1     -42.668  13.833   8.193  1.00 20.00     0.032 C 
HETATM    2  C2  UNL     1     -40.398  14.073   7.165  1.00 20.00     0.043 C 
HETATM    3  C3  UNL     1     -42.948  12.732   7.181  1.00 20.00     0.169 C 
HETATM    4  C4  UNL     1     -41.645  14.829   7.643  1.00 20.00     0.008 C 
HETATM    5  C5  UNL     1     -40.743  12.915   6.209  1.00 20.00     0.054 C 
HETATM    6  C6  UNL     1     -39.504  12.027   6.026  1.00 20.00     0.045 C 
HETATM    7  C7  UNL     1     -41.182  13.416   4.825  1.00 20.00     0.045 C 
HETATM    8  O10 UNL     1     -41.749  12.069   6.786  1.00 20.00    -0.381 OA
ENDROOT
BRANCH   4   9
HETATM    9  C9  UNL     1     -41.280  15.875   8.694  1.00 20.00     0.082 C 
HETATM   10  C8  UNL     1     -40.800  17.166   8.052  1.00 20.00     0.027 C 
HETATM   11 CL11 UNL     1     -40.007  15.223   9.762  1.00 20.00    -0.125 Cl
ENDBRANCH   4   9
TORSDOF 1
ENDMDL
MODEL 4
REMARK VINA RESULT:      -3.7     12.696     13.686
REMARK  1 active torsions:
REMARK  status: ('A' for Active; 'I' for Inactive)
REMARK    1  A    between atoms: C4_4  and  C9_9 
ROOT
HETATM    1  C1  UNL     1     -41.175  13.437   4.777  1.00 20.00     0.032 C 
HETATM    2  C2  UNL     1     -40.165  13.563   7.064  1.00 20.00     0.043 C 
HETATM    3  C3  UNL     1     -42.253  14.395   5.262  1.00 20.00     0.169 C 
HETATM    4  C4  UNL     1     -40.612  12.618   5.941  1.00 20.00     0.008 C 
HETATM    5  C5  UNL     1     -41.264  14.569   7.460  1.00 20.00     0.054 C 
HETATM    6  C6  UNL     1     -40.651  15.660   8.348  1.00 20.00     0.045 C 
HETATM    7  C7  UNL     1     -42.407  13.902   8.240  1.00 20.00     0.045 C 
HETATM    8  O10 UNL     1     -41.768  15.245   6.299  1.00 20.00    -0.381 OA
ENDROOT
BRANCH   4   9
HETATM    9  C9  UNL     1     -39.457  11.733   5.479  1.00 20.00     0.082 C 
HETATM   10  C8  UNL     1     -38.147  12.141   6.134  1.00 20.00     0.027 C 
HETATM   11 CL11 UNL     1     -39.303  11.839   3.704  1.00 20.00    -0.125 Cl
ENDBRANCH   4   9
TORSDOF 1
ENDMDL
MODEL 5
REMARK VINA RESULT:      -3.6     24.967     26.023
REMARK  1 active torsions:
REMARK  status: ('A' for Active; 'I' for Inactive)
REMARK    1  A    between atoms: C4_4  and  C9_9 
ROOT
HETATM    1  C1  UNL     1     -25.679  -1.144  11.973  1.00 20.00     0.032 C 
HETATM    2  C2  UNL     1     -25.641  -2.800  10.096  1.00 20.00     0.043 C 
HETATM    3  C3  UNL     1     -24.242  -1.542  12.278  1.00 20.00     0.169 C 
HETATM    4  C4  UNL     1     -26.433  -2.299  11.311  1.00 20.00     0.008 C 
HETATM    5  C5  UNL     1     -24.170  -3.109  10.439  1.00 20.00     0.054 C 
HETATM    6  C6  UNL     1     -23.379  -3.299   9.138  1.00 20.00     0.045 C 
HETATM    7  C7  UNL     1     -24.027  -4.387  11.279  1.00 20.00     0.045 C 
HETATM    8  O10 UNL     1     -23.565  -1.991  11.107  1.00 20.00    -0.381 OA
ENDROOT
BRANCH   4   9
HETATM    9  C9  UNL     1     -27.842  -1.870  10.905  1.00 20.00     0.082 C 
HETATM   10  C8  UNL     1     -28.472  -2.866   9.945  1.00 20.00     0.027 C 
HETATM   11 CL11 UNL     1     -27.774  -0.257  10.142  1.00 20.00    -0.125 Cl
ENDBRANCH   4   9
TORSDOF 1
ENDMDL
MODEL 6
REMARK VINA RESULT:      -3.5     12.321     13.716
REMARK  1 active torsions:
REMARK  status: ('A' for Active; 'I' for Inactive)
REMARK    1  A    between atoms: C4_4  and  C9_9 
ROOT
HETATM    1  C1  UNL     1     -33.507   7.841   6.018  1.00 20.00     0.032 C 
HETATM    2  C2  UNL     1     -33.548   6.416   3.960  1.00 20.00     0.043 C 
HETATM    3  C3  UNL     1     -34.385   6.796   6.690  1.00 20.00     0.169 C 
HETATM    4  C4  UNL     1     -33.725   7.840   4.503  1.00 20.00     0.008 C 
HETATM    5  C5  UNL     1     -34.394   5.383   4.730  1.00 20.00     0.054 C 
HETATM    6  C6  UNL     1     -33.935   3.970   4.345  1.00 20.00     0.045 C 
HETATM    7  C7  UNL     1     -35.891   5.505   4.410  1.00 20.00     0.045 C 
HETATM    8  O10 UNL     1     -34.165   5.498   6.143  1.00 20.00    -0.381 OA
ENDROOT
BRANCH   4   9
HETATM    9  C9  UNL     1     -32.770   8.811   3.812  1.00 20.00     0.082 C 
HETATM   10  C8  UNL     1     -31.909   8.104   2.779  1.00 20.00     0.027 C 
HETATM   11 CL11 UNL     1     -31.728   9.588   5.036  1.00 20.00    -0.125 Cl
ENDBRANCH   4   9
TORSDOF 1
ENDMDL
MODEL 7
REMARK VINA RESULT:      -3.5      1.673      2.011
REMARK  1 active torsions:
REMARK  status: ('A' for Active; 'I' for Inactive)
REMARK    1  A    between atoms: C4_4  and  C9_9 
ROOT
HETATM    1  C1  UNL     1     -34.475  14.677  -4.510  1.00 20.00     0.032 C 
HETATM    2  C2  UNL     1     -35.153  16.781  -5.685  1.00 20.00     0.043 C 
HETATM    3  C3  UNL     1     -35.709  14.014  -5.105  1.00 20.00     0.169 C 
HETATM    4  C4  UNL     1     -34.692  16.184  -4.349  1.00 20.00     0.008 C 
HETATM    5  C5  UNL     1     -36.352  16.021  -6.287  1.00 20.00     0.054 C 
HETATM    6  C6  UNL     1     -36.552  16.469  -7.742  1.00 20.00     0.045 C 
HETATM    7  C7  UNL     1     -37.654  16.291  -5.519  1.00 20.00     0.045 C 
HETATM    8  O10 UNL     1     -36.077  14.613  -6.345  1.00 20.00    -0.381 OA
ENDROOT
BRANCH   4   9
HETATM    9  C9  UNL     1     -33.421  16.869  -3.854  1.00 20.00     0.082 C 
HETATM   10  C8  UNL     1     -33.301  16.793  -2.341  1.00 20.00     0.027 C 
HETATM   11 CL11 UNL     1     -33.428  18.578  -4.373  1.00 20.00    -0.125 Cl
ENDBRANCH   4   9
TORSDOF 1
ENDMDL
MODEL 8
REMARK VINA RESULT:      -3.4      2.054      2.571
REMARK  1 active torsions:
REMARK  status: ('A' for Active; 'I' for Inactive)
REMARK    1  A    between atoms: C4_4  and  C9_9 
ROOT
HETATM    1  C1  UNL     1     -33.200  16.668  -2.329  1.00 20.00     0.032 C 
HETATM    2  C2  UNL     1     -33.968  18.858  -3.267  1.00 20.00     0.043 C 
HETATM    3  C3  UNL     1     -33.778  15.999  -3.567  1.00 20.00     0.169 C 
HETATM    4  C4  UNL     1     -33.944  17.969  -2.017  1.00 20.00     0.008 C 
HETATM    5  C5  UNL     1     -34.482  18.108  -4.513  1.00 20.00     0.054 C 
HETATM    6  C6  UNL     1     -34.187  18.949  -5.763  1.00 20.00     0.045 C 
HETATM    7  C7  UNL     1     -35.995  17.853  -4.453  1.00 20.00     0.045 C 
HETATM    8  O10 UNL     1     -33.765  16.877  -4.690  1.00 20.00    -0.381 OA
ENDROOT
BRANCH   4   9
HETATM    9  C9  UNL     1     -33.299  18.699  -0.841  1.00 20.00     0.082 C 
HETATM   10  C8  UNL     1     -31.794  18.489  -0.813  1.00 20.00     0.027 C 
HETATM   11 CL11 UNL     1     -34.018  18.113   0.685  1.00 20.00    -0.125 Cl
ENDBRANCH   4   9
TORSDOF 1
ENDMDL
MODEL 9
REMARK VINA RESULT:      -3.4      2.472      3.925
REMARK  1 active torsions:
REMARK  status: ('A' for Active; 'I' for Inactive)
REMARK    1  A    between atoms: C4_4  and  C9_9 
ROOT
HETATM    1  C1  UNL     1     -33.681  15.564  -3.449  1.00 20.00     0.032 C 
HETATM    2  C2  UNL     1     -35.203  17.057  -4.760  1.00 20.00     0.043 C 
HETATM    3  C3  UNL     1     -33.275  16.784  -2.636  1.00 20.00     0.169 C 
HETATM    4  C4  UNL     1     -34.124  15.970  -4.856  1.00 20.00     0.008 C 
HETATM    5  C5  UNL     1     -34.776  18.232  -3.858  1.00 20.00     0.054 C 
HETATM    6  C6  UNL     1     -36.000  19.110  -3.562  1.00 20.00     0.045 C 
HETATM    7  C7  UNL     1     -33.704  19.111  -4.518  1.00 20.00     0.045 C 
HETATM    8  O10 UNL     1     -34.324  17.748  -2.584  1.00 20.00    -0.381 OA
ENDROOT
BRANCH   4   9
HETATM    9  C9  UNL     1     -34.634  14.763  -5.639  1.00 20.00     0.082 C 
HETATM   10  C8  UNL     1     -35.523  15.186  -6.798  1.00 20.00     0.027 C 
HETATM   11 CL11 UNL     1     -35.543  13.686  -4.543  1.00 20.00    -0.125 Cl
ENDBRANCH   4   9
TORSDOF 1
ENDMDL
