MODEL 1
REMARK VINA RESULT:      -3.7      0.000      0.000
REMARK  1 active torsions:
REMARK  status: ('A' for Active; 'I' for Inactive)
REMARK    1  A    between atoms: C1_1  and  C2_2 
ROOT
HETATM    1  C2  UNL     1     -40.743  13.629   5.930  1.00 20.00     0.089 A 
HETATM    2  C3  UNL     1     -41.241  14.452   7.110  1.00 20.00    -0.028 A 
HETATM    3  C4  UNL     1     -42.202  13.522   6.349  1.00 20.00    -0.028 A 
HETATM    4  C5  UNL     1     -41.349  15.950   6.915  1.00 20.00     0.016 C 
HETATM    5  C6  UNL     1     -40.815  14.095   8.517  1.00 20.00     0.016 C 
HETATM    6  C7  UNL     1     -42.708  12.263   7.020  1.00 20.00     0.016 C 
HETATM    7  C8  UNL     1     -43.236  14.121   5.422  1.00 20.00     0.016 C 
ENDROOT
BRANCH   1   8
HETATM    8  C1  UNL     1     -39.812  12.509   6.122  1.00 20.00     0.224 C 
HETATM    9  O9  UNL     1     -39.300  12.276   7.213  1.00 20.00    -0.279 OA
HETATM   10 CL10 UNL     1     -39.553  11.614   4.655  1.00 20.00    -0.043 Cl
ENDBRANCH   1   8
TORSDOF 1
ENDMDL
MODEL 2
REMARK VINA RESULT:      -3.6     13.215     14.019
REMARK  1 active torsions:
REMARK  status: ('A' for Active; 'I' for Inactive)
REMARK    1  A    between atoms: C1_1  and  C2_2 
ROOT
HETATM    1  C2  UNL     1     -33.766  15.975  -5.307  1.00 20.00     0.089 A 
HETATM    2  C3  UNL     1     -34.812  17.007  -5.703  1.00 20.00    -0.028 A 
HETATM    3  C4  UNL     1     -34.706  15.674  -6.464  1.00 20.00    -0.028 A 
HETATM    4  C5  UNL     1     -34.319  18.278  -6.362  1.00 20.00     0.016 C 
HETATM    5  C6  UNL     1     -36.005  17.262  -4.807  1.00 20.00     0.016 C 
HETATM    6  C7  UNL     1     -35.797  14.636  -6.306  1.00 20.00     0.016 C 
HETATM    7  C8  UNL     1     -34.112  15.659  -7.856  1.00 20.00     0.016 C 
ENDROOT
BRANCH   1   8
HETATM    8  C1  UNL     1     -33.862  15.242  -4.037  1.00 20.00     0.224 C 
HETATM    9  O9  UNL     1     -34.169  14.054  -4.001  1.00 20.00    -0.279 OA
HETATM   10 CL10 UNL     1     -33.499  16.251  -2.670  1.00 20.00    -0.043 Cl
ENDBRANCH   1   8
TORSDOF 1
ENDMDL
MODEL 3
REMARK VINA RESULT:      -3.6     13.301     14.214
REMARK  1 active torsions:
REMARK  status: ('A' for Active; 'I' for Inactive)
REMARK    1  A    between atoms: C1_1  and  C2_2 
ROOT
HETATM    1  C2  UNL     1     -35.560  15.882  -5.538  1.00 20.00     0.089 A 
HETATM    2  C3  UNL     1     -34.502  16.626  -6.340  1.00 20.00    -0.028 A 
HETATM    3  C4  UNL     1     -34.218  16.191  -4.892  1.00 20.00    -0.028 A 
HETATM    4  C5  UNL     1     -34.758  18.088  -6.639  1.00 20.00     0.016 C 
HETATM    5  C6  UNL     1     -33.789  15.933  -7.481  1.00 20.00     0.016 C 
HETATM    6  C7  UNL     1     -33.227  15.077  -4.628  1.00 20.00     0.016 C 
HETATM    7  C8  UNL     1     -34.198  17.234  -3.795  1.00 20.00     0.016 C 
ENDROOT
BRANCH   1   8
HETATM    8  C1  UNL     1     -35.943  14.505  -5.875  1.00 20.00     0.224 C 
HETATM    9  O9  UNL     1     -36.156  14.160  -7.034  1.00 20.00    -0.279 OA
HETATM   10 CL10 UNL     1     -36.046  13.490  -4.468  1.00 20.00    -0.043 Cl
ENDBRANCH   1   8
TORSDOF 1
ENDMDL
MODEL 4
REMARK VINA RESULT:      -3.6      1.407      2.262
REMARK  1 active torsions:
REMARK  status: ('A' for Active; 'I' for Inactive)
REMARK    1  A    between atoms: C1_1  and  C2_2 
ROOT
HETATM    1  C2  UNL     1     -40.871  13.853   6.319  1.00 20.00     0.089 A 
HETATM    2  C3  UNL     1     -42.068  13.560   7.212  1.00 20.00    -0.028 A 
HETATM    3  C4  UNL     1     -42.147  14.662   6.141  1.00 20.00    -0.028 A 
HETATM    4  C5  UNL     1     -41.958  13.950   8.671  1.00 20.00     0.016 C 
HETATM    5  C6  UNL     1     -42.857  12.282   7.027  1.00 20.00     0.016 C 
HETATM    6  C7  UNL     1     -43.015  14.453   4.918  1.00 20.00     0.016 C 
HETATM    7  C8  UNL     1     -42.115  16.114   6.567  1.00 20.00     0.016 C 
ENDROOT
BRANCH   1   8
HETATM    8  C1  UNL     1     -40.429  12.894   5.298  1.00 20.00     0.224 C 
HETATM    9  O9  UNL     1     -40.612  13.098   4.101  1.00 20.00    -0.279 OA
HETATM   10 CL10 UNL     1     -39.655  11.504   5.996  1.00 20.00    -0.043 Cl
ENDBRANCH   1   8
TORSDOF 1
ENDMDL
MODEL 5
REMARK VINA RESULT:      -3.5      9.485     10.675
REMARK  1 active torsions:
REMARK  status: ('A' for Active; 'I' for Inactive)
REMARK    1  A    between atoms: C1_1  and  C2_2 
ROOT
HETATM    1  C2  UNL     1     -33.047   6.257   4.540  1.00 20.00     0.089 A 
HETATM    2  C3  UNL     1     -34.482   6.095   5.019  1.00 20.00    -0.028 A 
HETATM    3  C4  UNL     1     -33.716   7.403   5.283  1.00 20.00    -0.028 A 
HETATM    4  C5  UNL     1     -34.728   5.135   6.164  1.00 20.00     0.016 C 
HETATM    5  C6  UNL     1     -35.619   6.084   4.020  1.00 20.00     0.016 C 
HETATM    6  C7  UNL     1     -34.112   8.662   4.540  1.00 20.00     0.016 C 
HETATM    7  C8  UNL     1     -33.225   7.706   6.682  1.00 20.00     0.016 C 
ENDROOT
BRANCH   1   8
HETATM    8  C1  UNL     1     -32.728   6.361   3.109  1.00 20.00     0.224 C 
HETATM    9  O9  UNL     1     -32.317   7.406   2.615  1.00 20.00    -0.279 OA
HETATM   10 CL10 UNL     1     -33.006   4.866   2.267  1.00 20.00    -0.043 Cl
ENDBRANCH   1   8
TORSDOF 1
ENDMDL
MODEL 6
REMARK VINA RESULT:      -3.4     13.019     13.882
REMARK  1 active torsions:
REMARK  status: ('A' for Active; 'I' for Inactive)
REMARK    1  A    between atoms: C1_1  and  C2_2 
ROOT
HETATM    1  C2  UNL     1     -34.731  15.593  -4.469  1.00 20.00     0.089 A 
HETATM    2  C3  UNL     1     -34.887  15.464  -5.977  1.00 20.00    -0.028 A 
HETATM    3  C4  UNL     1     -35.211  16.793  -5.272  1.00 20.00    -0.028 A 
HETATM    4  C5  UNL     1     -36.021  14.599  -6.486  1.00 20.00     0.016 C 
HETATM    5  C6  UNL     1     -33.663  15.368  -6.861  1.00 20.00     0.016 C 
HETATM    6  C7  UNL     1     -34.300  17.985  -5.474  1.00 20.00     0.016 C 
HETATM    7  C8  UNL     1     -36.655  17.210  -5.102  1.00 20.00     0.016 C 
ENDROOT
BRANCH   1   8
HETATM    8  C1  UNL     1     -33.405  15.582  -3.837  1.00 20.00     0.224 C 
HETATM    9  O9  UNL     1     -32.490  14.887  -4.271  1.00 20.00    -0.279 OA
HETATM   10 CL10 UNL     1     -33.326  16.638  -2.459  1.00 20.00    -0.043 Cl
ENDBRANCH   1   8
TORSDOF 1
ENDMDL
MODEL 7
REMARK VINA RESULT:      -3.3     20.653     22.149
REMARK  1 active torsions:
REMARK  status: ('A' for Active; 'I' for Inactive)
REMARK    1  A    between atoms: C1_1  and  C2_2 
ROOT
HETATM    1  C2  UNL     1     -26.156  -2.496  10.195  1.00 20.00     0.089 A 
HETATM    2  C3  UNL     1     -26.946  -1.461  10.983  1.00 20.00    -0.028 A 
HETATM    3  C4  UNL     1     -27.424  -2.923  10.920  1.00 20.00    -0.028 A 
HETATM    4  C5  UNL     1     -27.687  -0.404  10.193  1.00 20.00     0.016 C 
HETATM    5  C6  UNL     1     -26.394  -0.913  12.281  1.00 20.00     0.016 C 
HETATM    6  C7  UNL     1     -27.336  -3.790  12.157  1.00 20.00     0.016 C 
HETATM    7  C8  UNL     1     -28.626  -3.274  10.070  1.00 20.00     0.016 C 
ENDROOT
BRANCH   1   8
HETATM    8  C1  UNL     1     -24.833  -2.949  10.645  1.00 20.00     0.224 C 
HETATM    9  O9  UNL     1     -24.027  -2.177  11.156  1.00 20.00    -0.279 OA
HETATM   10 CL10 UNL     1     -24.591  -4.646  10.361  1.00 20.00    -0.043 Cl
ENDBRANCH   1   8
TORSDOF 1
ENDMDL
MODEL 8
REMARK VINA RESULT:      -3.3      2.513      3.057
REMARK  1 active torsions:
REMARK  status: ('A' for Active; 'I' for Inactive)
REMARK    1  A    between atoms: C1_1  and  C2_2 
ROOT
HETATM    1  C2  UNL     1     -42.883  14.164   5.798  1.00 20.00     0.089 A 
HETATM    2  C3  UNL     1     -42.262  14.482   7.150  1.00 20.00    -0.028 A 
HETATM    3  C4  UNL     1     -42.209  13.051   6.586  1.00 20.00    -0.028 A 
HETATM    4  C5  UNL     1     -43.206  14.794   8.292  1.00 20.00     0.016 C 
HETATM    5  C6  UNL     1     -40.992  15.301   7.228  1.00 20.00     0.016 C 
HETATM    6  C7  UNL     1     -40.886  12.484   6.117  1.00 20.00     0.016 C 
HETATM    7  C8  UNL     1     -43.100  11.984   7.184  1.00 20.00     0.016 C 
ENDROOT
BRANCH   1   8
HETATM    8  C1  UNL     1     -42.298  14.676   4.551  1.00 20.00     0.224 C 
HETATM    9  O9  UNL     1     -41.634  13.959   3.809  1.00 20.00    -0.279 OA
HETATM   10 CL10 UNL     1     -42.665  16.356   4.298  1.00 20.00    -0.043 Cl
ENDBRANCH   1   8
TORSDOF 1
ENDMDL
MODEL 9
REMARK VINA RESULT:      -3.2     19.888     20.988
REMARK  1 active torsions:
REMARK  status: ('A' for Active; 'I' for Inactive)
REMARK    1  A    between atoms: C1_1  and  C2_2 
ROOT
HETATM    1  C2  UNL     1     -28.553  -2.350  10.317  1.00 20.00     0.089 A 
HETATM    2  C3  UNL     1     -27.206  -2.523  11.003  1.00 20.00    -0.028 A 
HETATM    3  C4  UNL     1     -27.925  -1.163  11.031  1.00 20.00    -0.028 A 
HETATM    4  C5  UNL     1     -25.993  -2.702  10.115  1.00 20.00     0.016 C 
HETATM    5  C6  UNL     1     -27.100  -3.337  12.274  1.00 20.00     0.016 C 
HETATM    6  C7  UNL     1     -28.515  -0.658  12.331  1.00 20.00     0.016 C 
HETATM    7  C8  UNL     1     -27.405  -0.031  10.172  1.00 20.00     0.016 C 
ENDROOT
BRANCH   1   8
HETATM    8  C1  UNL     1     -29.763  -2.999  10.840  1.00 20.00     0.224 C 
HETATM    9  O9  UNL     1     -30.707  -2.347  11.277  1.00 20.00    -0.279 OA
HETATM   10 CL10 UNL     1     -29.665  -4.732  10.755  1.00 20.00    -0.043 Cl
ENDBRANCH   1   8
TORSDOF 1
ENDMDL
