MODEL 1
REMARK VINA RESULT:      -3.9      0.000      0.000
REMARK  2 active torsions:
REMARK  status: ('A' for Active; 'I' for Inactive)
REMARK    1  A    between atoms: C2_2  and  C3_3 
REMARK    2  A    between atoms: C2_2  and  C10_10 
ROOT
HETATM    1  C1  UNL     1     -39.442  11.852   4.764  1.00 20.00     0.066 C 
HETATM    2  C10 UNL     1     -40.196  12.166   5.982  1.00 20.00     0.202 C 
HETATM    3  N11 UNL     1     -38.845  11.600   3.801  1.00 20.00    -0.197 NA
ENDROOT
BRANCH   2   4
HETATM    4  C2  UNL     1     -40.860  13.520   5.912  1.00 20.00     0.145 C 
HETATM    5  O12 UNL     1     -41.657  13.866   5.048  1.00 20.00    -0.296 OA
BRANCH   4   6
HETATM    6  C3  UNL     1     -40.490  14.456   6.983  1.00 20.00     0.073 A 
HETATM    7  C4  UNL     1     -41.266  14.508   8.290  1.00 20.00    -0.029 A 
HETATM    8  C5  UNL     1     -41.341  15.678   7.292  1.00 20.00    -0.029 A 
HETATM    9  C6  UNL     1     -40.468  14.671   9.565  1.00 20.00     0.016 C 
HETATM   10  C7  UNL     1     -42.474  13.620   8.490  1.00 20.00     0.016 C 
HETATM   11  C8  UNL     1     -42.623  15.923   6.527  1.00 20.00     0.016 C 
HETATM   12  C9  UNL     1     -40.616  16.968   7.606  1.00 20.00     0.016 C 
ENDBRANCH   4   6
ENDBRANCH   2   4
TORSDOF 2
ENDMDL
MODEL 2
REMARK VINA RESULT:      -3.8      1.069      1.865
REMARK  2 active torsions:
REMARK  status: ('A' for Active; 'I' for Inactive)
REMARK    1  A    between atoms: C2_2  and  C3_3 
REMARK    2  A    between atoms: C2_2  and  C10_10 
ROOT
HETATM    1  C1  UNL     1     -39.422  12.041   4.782  1.00 20.00     0.066 C 
HETATM    2  C10 UNL     1     -39.594  12.451   6.179  1.00 20.00     0.202 C 
HETATM    3  N11 UNL     1     -39.281  11.716   3.677  1.00 20.00    -0.197 NA
ENDROOT
BRANCH   2   4
HETATM    4  C2  UNL     1     -41.029  12.793   6.502  1.00 20.00     0.145 C 
HETATM    5  O12 UNL     1     -41.916  11.974   6.713  1.00 20.00    -0.296 OA
BRANCH   4   6
HETATM    6  C3  UNL     1     -41.334  14.230   6.556  1.00 20.00     0.073 A 
HETATM    7  C4  UNL     1     -40.965  15.071   7.769  1.00 20.00    -0.029 A 
HETATM    8  C5  UNL     1     -42.440  14.769   7.449  1.00 20.00    -0.029 A 
HETATM    9  C6  UNL     1     -40.418  16.459   7.512  1.00 20.00     0.016 C 
HETATM   10  C7  UNL     1     -40.315  14.422   8.971  1.00 20.00     0.016 C 
HETATM   11  C8  UNL     1     -43.219  13.830   8.343  1.00 20.00     0.016 C 
HETATM   12  C9  UNL     1     -43.316  15.867   6.885  1.00 20.00     0.016 C 
ENDBRANCH   4   6
ENDBRANCH   2   4
TORSDOF 2
ENDMDL
MODEL 3
REMARK VINA RESULT:      -3.7     12.447     14.021
REMARK  2 active torsions:
REMARK  status: ('A' for Active; 'I' for Inactive)
REMARK    1  A    between atoms: C2_2  and  C3_3 
REMARK    2  A    between atoms: C2_2  and  C10_10 
ROOT
HETATM    1  C1  UNL     1     -33.297  16.382  -2.646  1.00 20.00     0.066 C 
HETATM    2  C10 UNL     1     -32.829  15.710  -3.862  1.00 20.00     0.202 C 
HETATM    3  N11 UNL     1     -33.663  16.916  -1.682  1.00 20.00    -0.197 NA
ENDROOT
BRANCH   2   4
HETATM    4  C2  UNL     1     -33.938  14.965  -4.566  1.00 20.00     0.145 C 
HETATM    5  O12 UNL     1     -34.561  14.022  -4.093  1.00 20.00    -0.296 OA
BRANCH   4   6
HETATM    6  C3  UNL     1     -34.255  15.446  -5.919  1.00 20.00     0.073 A 
HETATM    7  C4  UNL     1     -34.873  16.817  -6.145  1.00 20.00    -0.029 A 
HETATM    8  C5  UNL     1     -35.692  15.541  -6.406  1.00 20.00    -0.029 A 
HETATM    9  C6  UNL     1     -34.362  17.625  -7.319  1.00 20.00     0.016 C 
HETATM   10  C7  UNL     1     -35.219  17.696  -4.964  1.00 20.00     0.016 C 
HETATM   11  C8  UNL     1     -36.833  15.185  -5.478  1.00 20.00     0.016 C 
HETATM   12  C9  UNL     1     -35.972  15.118  -7.832  1.00 20.00     0.016 C 
ENDBRANCH   4   6
ENDBRANCH   2   4
TORSDOF 2
ENDMDL
MODEL 4
REMARK VINA RESULT:      -3.6     21.008     22.915
REMARK  2 active torsions:
REMARK  status: ('A' for Active; 'I' for Inactive)
REMARK    1  A    between atoms: C2_2  and  C3_3 
REMARK    2  A    between atoms: C2_2  and  C10_10 
ROOT
HETATM    1  C1  UNL     1     -23.503  -3.569   8.612  1.00 20.00     0.066 C 
HETATM    2  C10 UNL     1     -24.145  -3.919   9.883  1.00 20.00     0.202 C 
HETATM    3  N11 UNL     1     -22.995  -3.297   7.605  1.00 20.00    -0.197 NA
ENDROOT
BRANCH   2   4
HETATM    4  C2  UNL     1     -24.727  -2.714  10.581  1.00 20.00     0.145 C 
HETATM    5  O12 UNL     1     -24.132  -2.021  11.399  1.00 20.00    -0.296 OA
BRANCH   4   6
HETATM    6  C3  UNL     1     -26.114  -2.388  10.219  1.00 20.00     0.073 A 
HETATM    7  C4  UNL     1     -26.947  -1.433  11.060  1.00 20.00    -0.029 A 
HETATM    8  C5  UNL     1     -27.287  -2.933  11.018  1.00 20.00    -0.029 A 
HETATM    9  C6  UNL     1     -27.831  -0.450  10.324  1.00 20.00     0.016 C 
HETATM   10  C7  UNL     1     -26.369  -0.835  12.324  1.00 20.00     0.016 C 
HETATM   11  C8  UNL     1     -27.041  -3.788  12.242  1.00 20.00     0.016 C 
HETATM   12  C9  UNL     1     -28.501  -3.396  10.242  1.00 20.00     0.016 C 
ENDBRANCH   4   6
ENDBRANCH   2   4
TORSDOF 2
ENDMDL
MODEL 5
REMARK VINA RESULT:      -3.6     12.489     13.932
REMARK  2 active torsions:
REMARK  status: ('A' for Active; 'I' for Inactive)
REMARK    1  A    between atoms: C2_2  and  C3_3 
REMARK    2  A    between atoms: C2_2  and  C10_10 
ROOT
HETATM    1  C1  UNL     1     -33.039  17.671  -2.422  1.00 20.00     0.066 C 
HETATM    2  C10 UNL     1     -33.596  16.322  -2.561  1.00 20.00     0.202 C 
HETATM    3  N11 UNL     1     -32.599  18.739  -2.307  1.00 20.00    -0.197 NA
ENDROOT
BRANCH   2   4
HETATM    4  C2  UNL     1     -33.618  15.857  -3.997  1.00 20.00     0.145 C 
HETATM    5  O12 UNL     1     -32.897  14.983  -4.464  1.00 20.00    -0.296 OA
BRANCH   4   6
HETATM    6  C3  UNL     1     -34.596  16.536  -4.861  1.00 20.00     0.073 A 
HETATM    7  C4  UNL     1     -35.791  15.792  -5.436  1.00 20.00    -0.029 A 
HETATM    8  C5  UNL     1     -34.651  16.263  -6.356  1.00 20.00    -0.029 A 
HETATM    9  C6  UNL     1     -37.117  16.522  -5.462  1.00 20.00     0.016 C 
HETATM   10  C7  UNL     1     -35.967  14.314  -5.164  1.00 20.00     0.016 C 
HETATM   11  C8  UNL     1     -33.724  15.242  -6.976  1.00 20.00     0.016 C 
HETATM   12  C9  UNL     1     -34.878  17.448  -7.270  1.00 20.00     0.016 C 
ENDBRANCH   4   6
ENDBRANCH   2   4
TORSDOF 2
ENDMDL
MODEL 6
REMARK VINA RESULT:      -3.6     12.032     13.848
REMARK  2 active torsions:
REMARK  status: ('A' for Active; 'I' for Inactive)
REMARK    1  A    between atoms: C2_2  and  C3_3 
REMARK    2  A    between atoms: C2_2  and  C10_10 
ROOT
HETATM    1  C1  UNL     1     -33.526  17.240  -1.716  1.00 20.00     0.066 C 
HETATM    2  C10 UNL     1     -33.349  16.648  -3.046  1.00 20.00     0.202 C 
HETATM    3  N11 UNL     1     -33.665  17.705  -0.662  1.00 20.00    -0.197 NA
ENDROOT
BRANCH   2   4
HETATM    4  C2  UNL     1     -33.999  17.472  -4.131  1.00 20.00     0.145 C 
HETATM    5  O12 UNL     1     -33.594  18.559  -4.524  1.00 20.00    -0.296 OA
BRANCH   4   6
HETATM    6  C3  UNL     1     -35.205  16.881  -4.729  1.00 20.00     0.073 A 
HETATM    7  C4  UNL     1     -35.128  15.629  -5.590  1.00 20.00    -0.029 A 
HETATM    8  C5  UNL     1     -35.480  16.988  -6.221  1.00 20.00    -0.029 A 
HETATM    9  C6  UNL     1     -36.215  14.592  -5.406  1.00 20.00     0.016 C 
HETATM   10  C7  UNL     1     -33.787  14.995  -5.886  1.00 20.00     0.016 C 
HETATM   11  C8  UNL     1     -34.480  17.669  -7.130  1.00 20.00     0.016 C 
HETATM   12  C9  UNL     1     -36.906  17.261  -6.646  1.00 20.00     0.016 C 
ENDBRANCH   4   6
ENDBRANCH   2   4
TORSDOF 2
ENDMDL
MODEL 7
REMARK VINA RESULT:      -3.5      0.813      1.831
REMARK  2 active torsions:
REMARK  status: ('A' for Active; 'I' for Inactive)
REMARK    1  A    between atoms: C2_2  and  C3_3 
REMARK    2  A    between atoms: C2_2  and  C10_10 
ROOT
HETATM    1  C1  UNL     1     -39.333  11.867   4.435  1.00 20.00     0.066 C 
HETATM    2  C10 UNL     1     -39.702  12.037   5.844  1.00 20.00     0.202 C 
HETATM    3  N11 UNL     1     -39.039  11.730   3.321  1.00 20.00    -0.197 NA
ENDROOT
BRANCH   2   4
HETATM    4  C2  UNL     1     -40.816  13.040   6.027  1.00 20.00     0.145 C 
HETATM    5  O12 UNL     1     -41.340  13.680   5.123  1.00 20.00    -0.296 OA
BRANCH   4   6
HETATM    6  C3  UNL     1     -41.271  13.225   7.413  1.00 20.00     0.073 A 
HETATM    7  C4  UNL     1     -42.434  14.147   7.746  1.00 20.00    -0.029 A 
HETATM    8  C5  UNL     1     -41.001  14.518   8.166  1.00 20.00    -0.029 A 
HETATM    9  C6  UNL     1     -43.417  13.674   8.796  1.00 20.00     0.016 C 
HETATM   10  C7  UNL     1     -43.116  14.933   6.648  1.00 20.00     0.016 C 
HETATM   11  C8  UNL     1     -40.295  15.665   7.476  1.00 20.00     0.016 C 
HETATM   12  C9  UNL     1     -40.602  14.404   9.622  1.00 20.00     0.016 C 
ENDBRANCH   4   6
ENDBRANCH   2   4
TORSDOF 2
ENDMDL
MODEL 8
REMARK VINA RESULT:      -3.5     20.825     22.184
REMARK  2 active torsions:
REMARK  status: ('A' for Active; 'I' for Inactive)
REMARK    1  A    between atoms: C2_2  and  C3_3 
REMARK    2  A    between atoms: C2_2  and  C10_10 
ROOT
HETATM    1  C1  UNL     1     -30.012  -3.128  11.728  1.00 20.00     0.066 C 
HETATM    2  C10 UNL     1     -28.953  -3.942  12.332  1.00 20.00     0.202 C 
HETATM    3  N11 UNL     1     -30.853  -2.485  11.253  1.00 20.00    -0.197 NA
ENDROOT
BRANCH   2   4
HETATM    4  C2  UNL     1     -27.628  -3.772  11.627  1.00 20.00     0.145 C 
HETATM    5  O12 UNL     1     -27.204  -4.508  10.744  1.00 20.00    -0.296 OA
BRANCH   4   6
HETATM    6  C3  UNL     1     -26.825  -2.623  12.070  1.00 20.00     0.073 A 
HETATM    7  C4  UNL     1     -26.833  -1.311  11.301  1.00 20.00    -0.029 A 
HETATM    8  C5  UNL     1     -25.575  -2.197  11.317  1.00 20.00    -0.029 A 
HETATM    9  C6  UNL     1     -26.850  -0.032  12.109  1.00 20.00     0.016 C 
HETATM   10  C7  UNL     1     -27.638  -1.184  10.027  1.00 20.00     0.016 C 
HETATM   11  C8  UNL     1     -25.161  -2.927  10.058  1.00 20.00     0.016 C 
HETATM   12  C9  UNL     1     -24.379  -1.772  12.142  1.00 20.00     0.016 C 
ENDBRANCH   4   6
ENDBRANCH   2   4
TORSDOF 2
ENDMDL
MODEL 9
REMARK VINA RESULT:      -3.4     12.063     13.846
REMARK  2 active torsions:
REMARK  status: ('A' for Active; 'I' for Inactive)
REMARK    1  A    between atoms: C2_2  and  C3_3 
REMARK    2  A    between atoms: C2_2  and  C10_10 
ROOT
HETATM    1  C1  UNL     1     -33.347  17.343  -1.827  1.00 20.00     0.066 C 
HETATM    2  C10 UNL     1     -33.390  16.866  -3.213  1.00 20.00     0.202 C 
HETATM    3  N11 UNL     1     -33.309  17.718  -0.730  1.00 20.00    -0.197 NA
ENDROOT
BRANCH   2   4
HETATM    4  C2  UNL     1     -34.544  17.457  -3.986  1.00 20.00     0.145 C 
HETATM    5  O12 UNL     1     -35.437  18.142  -3.501  1.00 20.00    -0.296 OA
BRANCH   4   6
HETATM    6  C3  UNL     1     -34.552  17.159  -5.426  1.00 20.00     0.073 A 
HETATM    7  C4  UNL     1     -35.836  16.776  -6.146  1.00 20.00    -0.029 A 
HETATM    8  C5  UNL     1     -34.721  15.736  -5.937  1.00 20.00    -0.029 A 
HETATM    9  C6  UNL     1     -36.059  17.358  -7.525  1.00 20.00     0.016 C 
HETATM   10  C7  UNL     1     -37.130  16.648  -5.372  1.00 20.00     0.016 C 
HETATM   11  C8  UNL     1     -34.936  14.600  -4.961  1.00 20.00     0.016 C 
HETATM   12  C9  UNL     1     -33.869  15.316  -7.115  1.00 20.00     0.016 C 
ENDBRANCH   4   6
ENDBRANCH   2   4
TORSDOF 2
ENDMDL
