MODEL 1
REMARK VINA RESULT:      -3.6      0.000      0.000
REMARK  4 active torsions:
REMARK  status: ('A' for Active; 'I' for Inactive)
REMARK    1  A    between atoms: C1_1  and  C7_7 
REMARK    2  A    between atoms: C1_1  and  C9_9 
REMARK    3  A    between atoms: C8_8  and  C9_9 
REMARK    4  A    between atoms: C9_9  and  N10_10 
ROOT
HETATM    1  C4  UNL     1     -42.514  12.421   7.018  1.00 20.00     0.058 C 
HETATM    2  C9  UNL     1     -41.335  13.333   6.654  1.00 20.00     0.214 C 
ENDROOT
BRANCH   2   3
HETATM    3  C1  UNL     1     -40.133  12.496   6.168  1.00 20.00     0.165 C 
HETATM    4  O11 UNL     1     -39.313  12.024   6.961  1.00 20.00    -0.295 OA
BRANCH   3   5
HETATM    5  C7  UNL     1     -39.979  12.282   4.668  1.00 20.00     0.076 C 
HETATM    6  C2  UNL     1     -38.642  11.658   4.303  1.00 20.00     0.013 C 
ENDBRANCH   3   5
ENDBRANCH   2   3
BRANCH   2   7
HETATM    7  C8  UNL     1     -41.774  14.360   5.587  1.00 20.00     0.045 C 
HETATM    8  C3  UNL     1     -43.244  14.296   5.186  1.00 20.00     0.008 C 
ENDBRANCH   2   7
BRANCH   2   9
HETATM    9  N10 UNL     1     -40.930  14.023   7.886  1.00 20.00     0.096 N 
HETATM   10  C5  UNL     1     -42.038  14.049   8.836  1.00 20.00     0.310 C 
HETATM   11  C6  UNL     1     -40.479  15.377   7.581  1.00 20.00     0.310 C 
ENDBRANCH   2   9
TORSDOF 4
ENDMDL
MODEL 2
REMARK VINA RESULT:      -3.3      1.668      2.321
REMARK  4 active torsions:
REMARK  status: ('A' for Active; 'I' for Inactive)
REMARK    1  A    between atoms: C1_1  and  C7_7 
REMARK    2  A    between atoms: C1_1  and  C9_9 
REMARK    3  A    between atoms: C8_8  and  C9_9 
REMARK    4  A    between atoms: C9_9  and  N10_10 
ROOT
HETATM    1  C4  UNL     1     -40.902  13.702   7.730  1.00 20.00     0.058 C 
HETATM    2  C9  UNL     1     -41.711  13.892   6.440  1.00 20.00     0.214 C 
ENDROOT
BRANCH   2   3
HETATM    3  C1  UNL     1     -40.982  13.246   5.243  1.00 20.00     0.165 C 
HETATM    4  O11 UNL     1     -41.199  13.608   4.084  1.00 20.00    -0.295 OA
BRANCH   3   5
HETATM    5  C7  UNL     1     -39.992  12.126   5.539  1.00 20.00     0.076 C 
HETATM    6  C2  UNL     1     -39.149  11.761   4.329  1.00 20.00     0.013 C 
ENDBRANCH   3   5
ENDBRANCH   2   3
BRANCH   2   7
HETATM    7  C8  UNL     1     -43.130  13.310   6.618  1.00 20.00     0.045 C 
HETATM    8  C3  UNL     1     -43.195  11.945   7.295  1.00 20.00     0.008 C 
ENDBRANCH   2   7
BRANCH   2   9
HETATM    9  N10 UNL     1     -41.783  15.339   6.190  1.00 20.00     0.096 N 
HETATM   10  C5  UNL     1     -41.048  16.065   7.220  1.00 20.00     0.310 C 
HETATM   11  C6  UNL     1     -43.176  15.773   6.146  1.00 20.00     0.310 C 
ENDBRANCH   2   9
TORSDOF 4
ENDMDL
MODEL 3
REMARK VINA RESULT:      -3.3     12.317     13.634
REMARK  4 active torsions:
REMARK  status: ('A' for Active; 'I' for Inactive)
REMARK    1  A    between atoms: C1_1  and  C7_7 
REMARK    2  A    between atoms: C1_1  and  C9_9 
REMARK    3  A    between atoms: C8_8  and  C9_9 
REMARK    4  A    between atoms: C9_9  and  N10_10 
ROOT
HETATM    1  C4  UNL     1     -35.902  14.574  -6.170  1.00 20.00     0.058 C 
HETATM    2  C9  UNL     1     -35.097  15.737  -5.577  1.00 20.00     0.214 C 
ENDROOT
BRANCH   2   3
HETATM    3  C1  UNL     1     -34.189  15.240  -4.432  1.00 20.00     0.165 C 
HETATM    4  O11 UNL     1     -34.277  14.091  -3.991  1.00 20.00    -0.295 OA
BRANCH   3   5
HETATM    5  C7  UNL     1     -33.184  16.226  -3.848  1.00 20.00     0.076 C 
HETATM    6  C2  UNL     1     -33.486  16.575  -2.400  1.00 20.00     0.013 C 
ENDBRANCH   3   5
ENDBRANCH   2   3
BRANCH   2   7
HETATM    7  C8  UNL     1     -34.277  16.430  -6.687  1.00 20.00     0.045 C 
HETATM    8  C3  UNL     1     -33.768  15.510  -7.792  1.00 20.00     0.008 C 
ENDBRANCH   2   7
BRANCH   2   9
HETATM    9  N10 UNL     1     -36.067  16.678  -5.000  1.00 20.00     0.096 N 
HETATM   10  C5  UNL     1     -37.429  16.240  -5.290  1.00 20.00     0.310 C 
HETATM   11  C6  UNL     1     -35.835  18.023  -5.520  1.00 20.00     0.310 C 
ENDBRANCH   2   9
TORSDOF 4
ENDMDL
MODEL 4
REMARK VINA RESULT:      -3.2     12.614     14.006
REMARK  4 active torsions:
REMARK  status: ('A' for Active; 'I' for Inactive)
REMARK    1  A    between atoms: C1_1  and  C7_7 
REMARK    2  A    between atoms: C1_1  and  C9_9 
REMARK    3  A    between atoms: C8_8  and  C9_9 
REMARK    4  A    between atoms: C9_9  and  N10_10 
ROOT
HETATM    1  C4  UNL     1     -36.404  16.686  -5.301  1.00 20.00     0.058 C 
HETATM    2  C9  UNL     1     -34.928  16.283  -5.420  1.00 20.00     0.214 C 
ENDROOT
BRANCH   2   3
HETATM    3  C1  UNL     1     -34.073  17.046  -4.386  1.00 20.00     0.165 C 
HETATM    4  O11 UNL     1     -33.908  18.266  -4.460  1.00 20.00    -0.295 OA
BRANCH   3   5
HETATM    5  C7  UNL     1     -33.421  16.236  -3.272  1.00 20.00     0.076 C 
HETATM    6  C2  UNL     1     -33.464  16.951  -1.931  1.00 20.00     0.013 C 
ENDBRANCH   3   5
ENDBRANCH   2   3
BRANCH   2   7
HETATM    7  C8  UNL     1     -34.785  14.754  -5.251  1.00 20.00     0.045 C 
HETATM    8  C3  UNL     1     -36.079  14.008  -4.943  1.00 20.00     0.008 C 
ENDBRANCH   2   7
BRANCH   2   9
HETATM    9  N10 UNL     1     -34.479  16.691  -6.758  1.00 20.00     0.096 N 
HETATM   10  C5  UNL     1     -35.578  17.311  -7.491  1.00 20.00     0.310 C 
HETATM   11  C6  UNL     1     -33.957  15.539  -7.487  1.00 20.00     0.310 C 
ENDBRANCH   2   9
TORSDOF 4
ENDMDL
MODEL 5
REMARK VINA RESULT:      -3.2      1.484      2.522
REMARK  4 active torsions:
REMARK  status: ('A' for Active; 'I' for Inactive)
REMARK    1  A    between atoms: C1_1  and  C7_7 
REMARK    2  A    between atoms: C1_1  and  C9_9 
REMARK    3  A    between atoms: C8_8  and  C9_9 
REMARK    4  A    between atoms: C9_9  and  N10_10 
ROOT
HETATM    1  C4  UNL     1     -42.538  15.110   6.417  1.00 20.00     0.058 C 
HETATM    2  C9  UNL     1     -41.524  14.035   6.830  1.00 20.00     0.214 C 
ENDROOT
BRANCH   2   3
HETATM    3  C1  UNL     1     -40.932  13.342   5.585  1.00 20.00     0.165 C 
HETATM    4  O11 UNL     1     -41.292  13.647   4.444  1.00 20.00    -0.295 OA
BRANCH   3   5
HETATM    5  C7  UNL     1     -39.894  12.250   5.810  1.00 20.00     0.076 C 
HETATM    6  C2  UNL     1     -39.273  11.761   4.512  1.00 20.00     0.013 C 
ENDBRANCH   3   5
ENDBRANCH   2   3
BRANCH   2   7
HETATM    7  C8  UNL     1     -40.418  14.664   7.705  1.00 20.00     0.045 C 
HETATM    8  C3  UNL     1     -40.431  16.187   7.779  1.00 20.00     0.008 C 
ENDBRANCH   2   7
BRANCH   2   9
HETATM    9  N10 UNL     1     -42.263  13.021   7.596  1.00 20.00     0.096 N 
HETATM   10  C5  UNL     1     -43.417  12.556   6.834  1.00 20.00     0.310 C 
HETATM   11  C6  UNL     1     -42.680  13.568   8.883  1.00 20.00     0.310 C 
ENDBRANCH   2   9
TORSDOF 4
ENDMDL
MODEL 6
REMARK VINA RESULT:      -3.2     12.534     13.951
REMARK  4 active torsions:
REMARK  status: ('A' for Active; 'I' for Inactive)
REMARK    1  A    between atoms: C1_1  and  C7_7 
REMARK    2  A    between atoms: C1_1  and  C9_9 
REMARK    3  A    between atoms: C8_8  and  C9_9 
REMARK    4  A    between atoms: C9_9  and  N10_10 
ROOT
HETATM    1  C4  UNL     1     -34.420  17.280  -5.948  1.00 20.00     0.058 C 
HETATM    2  C9  UNL     1     -35.039  15.907  -5.656  1.00 20.00     0.214 C 
ENDROOT
BRANCH   2   3
HETATM    3  C1  UNL     1     -34.258  15.187  -4.537  1.00 20.00     0.165 C 
HETATM    4  O11 UNL     1     -34.526  14.030  -4.204  1.00 20.00    -0.295 OA
BRANCH   3   5
HETATM    5  C7  UNL     1     -33.147  15.962  -3.839  1.00 20.00     0.076 C 
HETATM    6  C2  UNL     1     -33.566  16.475  -2.471  1.00 20.00     0.013 C 
ENDBRANCH   3   5
ENDBRANCH   2   3
BRANCH   2   7
HETATM    7  C8  UNL     1     -36.530  16.070  -5.288  1.00 20.00     0.045 C 
HETATM    8  C3  UNL     1     -36.944  17.470  -4.846  1.00 20.00     0.008 C 
ENDBRANCH   2   7
BRANCH   2   9
HETATM    9  N10 UNL     1     -34.903  15.106  -6.881  1.00 20.00     0.096 N 
HETATM   10  C5  UNL     1     -33.670  15.458  -7.579  1.00 20.00     0.310 C 
HETATM   11  C6  UNL     1     -36.062  15.307  -7.746  1.00 20.00     0.310 C 
ENDBRANCH   2   9
TORSDOF 4
ENDMDL
MODEL 7
REMARK VINA RESULT:      -3.1      1.713      3.585
REMARK  4 active torsions:
REMARK  status: ('A' for Active; 'I' for Inactive)
REMARK    1  A    between atoms: C1_1  and  C7_7 
REMARK    2  A    between atoms: C1_1  and  C9_9 
REMARK    3  A    between atoms: C8_8  and  C9_9 
REMARK    4  A    between atoms: C9_9  and  N10_10 
ROOT
HETATM    1  C4  UNL     1     -40.491  14.465   7.074  1.00 20.00     0.058 C 
HETATM    2  C9  UNL     1     -41.486  13.564   6.332  1.00 20.00     0.214 C 
ENDROOT
BRANCH   2   3
HETATM    3  C1  UNL     1     -41.956  14.236   5.025  1.00 20.00     0.165 C 
HETATM    4  O11 UNL     1     -41.523  13.882   3.925  1.00 20.00    -0.295 OA
BRANCH   3   5
HETATM    5  C7  UNL     1     -42.967  15.371   5.137  1.00 20.00     0.076 C 
HETATM    6  C2  UNL     1     -42.847  16.372   4.000  1.00 20.00     0.013 C 
ENDBRANCH   3   5
ENDBRANCH   2   3
BRANCH   2   7
HETATM    7  C8  UNL     1     -40.845  12.186   6.058  1.00 20.00     0.045 C 
HETATM    8  C3  UNL     1     -39.321  12.152   6.114  1.00 20.00     0.008 C 
ENDBRANCH   2   7
BRANCH   2   9
HETATM    9  N10 UNL     1     -42.660  13.414   7.204  1.00 20.00     0.096 N 
HETATM   10  C5  UNL     1     -42.333  13.828   8.565  1.00 20.00     0.310 C 
HETATM   11  C6  UNL     1     -43.130  12.032   7.183  1.00 20.00     0.310 C 
ENDBRANCH   2   9
TORSDOF 4
ENDMDL
MODEL 8
REMARK VINA RESULT:      -3.0      1.590      2.445
REMARK  4 active torsions:
REMARK  status: ('A' for Active; 'I' for Inactive)
REMARK    1  A    between atoms: C1_1  and  C7_7 
REMARK    2  A    between atoms: C1_1  and  C9_9 
REMARK    3  A    between atoms: C8_8  and  C9_9 
REMARK    4  A    between atoms: C9_9  and  N10_10 
ROOT
HETATM    1  C4  UNL     1     -42.844  15.209   7.185  1.00 20.00     0.058 C 
HETATM    2  C9  UNL     1     -41.630  14.478   7.773  1.00 20.00     0.214 C 
ENDROOT
BRANCH   2   3
HETATM    3  C1  UNL     1     -41.343  13.183   6.984  1.00 20.00     0.165 C 
HETATM    4  O11 UNL     1     -42.106  12.215   7.033  1.00 20.00    -0.295 OA
BRANCH   3   5
HETATM    5  C7  UNL     1     -40.069  13.131   6.150  1.00 20.00     0.076 C 
HETATM    6  C2  UNL     1     -39.704  11.716   5.733  1.00 20.00     0.013 C 
ENDBRANCH   3   5
ENDBRANCH   2   3
BRANCH   2   7
HETATM    7  C8  UNL     1     -40.404  15.417   7.781  1.00 20.00     0.045 C 
HETATM    8  C3  UNL     1     -40.699  16.879   7.463  1.00 20.00     0.008 C 
ENDBRANCH   2   7
BRANCH   2   9
HETATM    9  N10 UNL     1     -41.985  14.094   9.146  1.00 20.00     0.096 N 
HETATM   10  C5  UNL     1     -43.133  14.870   9.606  1.00 20.00     0.310 C 
HETATM   11  C6  UNL     1     -40.843  14.286  10.034  1.00 20.00     0.310 C 
ENDBRANCH   2   9
TORSDOF 4
ENDMDL
MODEL 9
REMARK VINA RESULT:      -2.9      1.364      1.832
REMARK  4 active torsions:
REMARK  status: ('A' for Active; 'I' for Inactive)
REMARK    1  A    between atoms: C1_1  and  C7_7 
REMARK    2  A    between atoms: C1_1  and  C9_9 
REMARK    3  A    between atoms: C8_8  and  C9_9 
REMARK    4  A    between atoms: C9_9  and  N10_10 
ROOT
HETATM    1  C4  UNL     1     -42.694  14.899   8.258  1.00 20.00     0.058 C 
HETATM    2  C9  UNL     1     -41.607  14.837   7.177  1.00 20.00     0.214 C 
ENDROOT
BRANCH   2   3
HETATM    3  C1  UNL     1     -41.170  13.378   6.931  1.00 20.00     0.165 C 
HETATM    4  O11 UNL     1     -41.835  12.426   7.348  1.00 20.00    -0.295 OA
BRANCH   3   5
HETATM    5  C7  UNL     1     -39.871  13.148   6.167  1.00 20.00     0.076 C 
HETATM    6  C2  UNL     1     -40.003  12.064   5.110  1.00 20.00     0.013 C 
ENDBRANCH   3   5
ENDBRANCH   2   3
BRANCH   2   7
HETATM    7  C8  UNL     1     -42.118  15.498   5.878  1.00 20.00     0.045 C 
HETATM    8  C3  UNL     1     -43.089  14.657   5.056  1.00 20.00     0.008 C 
ENDBRANCH   2   7
BRANCH   2   9
HETATM    9  N10 UNL     1     -40.445  15.570   7.697  1.00 20.00     0.096 N 
HETATM   10  C5  UNL     1     -40.221  15.232   9.098  1.00 20.00     0.310 C 
HETATM   11  C6  UNL     1     -40.643  17.008   7.537  1.00 20.00     0.310 C 
ENDBRANCH   2   9
TORSDOF 4
ENDMDL
