MODEL 1
REMARK VINA RESULT:      -3.7      0.000      0.000
REMARK  4 active torsions:
REMARK  status: ('A' for Active; 'I' for Inactive)
REMARK    1  A    between atoms: C6_6  and  C9_9 
REMARK    2  A    between atoms: C7_7  and  C8_8 
REMARK    3  A    between atoms: C8_8  and  C9_9 
REMARK    4  A    between atoms: C8_8  and  O11_11 
ROOT
HETATM    1  C1  UNL     1     -35.608  14.541  -5.093  1.00 20.00     0.071 C 
HETATM    2  C5  UNL     1     -33.260  14.521  -4.457  1.00 20.00     0.034 C 
HETATM    3  C9  UNL     1     -34.334  15.289  -5.268  1.00 20.00     0.071 C 
HETATM    4  N10 UNL     1     -36.595  13.948  -4.942  1.00 20.00    -0.196 NA
ENDROOT
BRANCH   3   5
HETATM    5  C6  UNL     1     -33.966  15.261  -6.777  1.00 20.00     0.022 C 
HETATM    6  C2  UNL     1     -34.368  16.495  -7.578  1.00 20.00     0.007 C 
ENDBRANCH   3   5
BRANCH   3   7
HETATM    7  C8  UNL     1     -34.453  16.742  -4.694  1.00 20.00     0.143 C 
BRANCH   7   8
HETATM    8  C7  UNL     1     -33.362  17.223  -3.697  1.00 20.00     0.008 C 
HETATM    9  C3  UNL     1     -33.702  16.996  -2.223  1.00 20.00     0.012 C 
HETATM   10  C4  UNL     1     -33.064  18.717  -3.902  1.00 20.00     0.012 C 
ENDBRANCH   7   8
BRANCH   7  11
HETATM   11  O11 UNL     1     -35.755  16.907  -4.121  1.00 20.00    -0.393 OA
HETATM   12  H28 UNL     1     -36.381  16.857  -4.858  1.00 20.00     0.210 HD
ENDBRANCH   7  11
ENDBRANCH   3   7
TORSDOF 4
ENDMDL
MODEL 2
REMARK VINA RESULT:      -3.6      1.447      2.002
REMARK  4 active torsions:
REMARK  status: ('A' for Active; 'I' for Inactive)
REMARK    1  A    between atoms: C6_6  and  C9_9 
REMARK    2  A    between atoms: C7_7  and  C8_8 
REMARK    3  A    between atoms: C8_8  and  C9_9 
REMARK    4  A    between atoms: C8_8  and  O11_11 
ROOT
HETATM    1  C1  UNL     1     -35.537  14.174  -4.750  1.00 20.00     0.071 C 
HETATM    2  C5  UNL     1     -33.978  15.137  -6.349  1.00 20.00     0.034 C 
HETATM    3  C9  UNL     1     -34.784  15.420  -5.057  1.00 20.00     0.071 C 
HETATM    4  N10 UNL     1     -36.113  13.192  -4.522  1.00 20.00    -0.196 NA
ENDROOT
BRANCH   3   5
HETATM    5  C6  UNL     1     -35.817  16.549  -5.325  1.00 20.00     0.022 C 
HETATM    6  C2  UNL     1     -35.578  17.377  -6.583  1.00 20.00     0.007 C 
ENDBRANCH   3   5
BRANCH   3   7
HETATM    7  C8  UNL     1     -33.782  15.769  -3.905  1.00 20.00     0.143 C 
BRANCH   7   8
HETATM    8  C7  UNL     1     -33.921  17.155  -3.213  1.00 20.00     0.008 C 
HETATM    9  C3  UNL     1     -33.091  18.271  -3.851  1.00 20.00     0.012 C 
HETATM   10  C4  UNL     1     -33.543  17.056  -1.727  1.00 20.00     0.012 C 
ENDBRANCH   7   8
BRANCH   7  11
HETATM   11  O11 UNL     1     -32.445  15.588  -4.386  1.00 20.00    -0.393 OA
HETATM   12  H28 UNL     1     -32.311  14.632  -4.452  1.00 20.00     0.210 HD
ENDBRANCH   7  11
ENDBRANCH   3   7
TORSDOF 4
ENDMDL
MODEL 3
REMARK VINA RESULT:      -3.6      2.357      3.710
REMARK  4 active torsions:
REMARK  status: ('A' for Active; 'I' for Inactive)
REMARK    1  A    between atoms: C6_6  and  C9_9 
REMARK    2  A    between atoms: C7_7  and  C8_8 
REMARK    3  A    between atoms: C8_8  and  C9_9 
REMARK    4  A    between atoms: C8_8  and  O11_11 
ROOT
HETATM    1  C1  UNL     1     -34.199  15.213  -6.544  1.00 20.00     0.071 C 
HETATM    2  C5  UNL     1     -34.419  14.228  -4.331  1.00 20.00     0.034 C 
HETATM    3  C9  UNL     1     -34.956  15.338  -5.269  1.00 20.00     0.071 C 
HETATM    4  N10 UNL     1     -33.603  15.099  -7.533  1.00 20.00    -0.196 NA
ENDROOT
BRANCH   3   5
HETATM    5  C6  UNL     1     -34.640  16.732  -4.660  1.00 20.00     0.022 C 
HETATM    6  C2  UNL     1     -33.647  16.737  -3.503  1.00 20.00     0.007 C 
ENDBRANCH   3   5
BRANCH   3   7
HETATM    7  C8  UNL     1     -36.487  15.104  -5.500  1.00 20.00     0.143 C 
BRANCH   7   8
HETATM    8  C7  UNL     1     -37.433  16.336  -5.423  1.00 20.00     0.008 C 
HETATM    9  C3  UNL     1     -38.785  16.060  -4.762  1.00 20.00     0.012 C 
HETATM   10  C4  UNL     1     -37.685  16.911  -6.825  1.00 20.00     0.012 C 
ENDBRANCH   7   8
BRANCH   7  11
HETATM   11  O11 UNL     1     -36.937  14.077  -4.608  1.00 20.00    -0.393 OA
HETATM   12  H28 UNL     1     -37.883  13.969  -4.779  1.00 20.00     0.210 HD
ENDBRANCH   7  11
ENDBRANCH   3   7
TORSDOF 4
ENDMDL
MODEL 4
REMARK VINA RESULT:      -3.6     12.892     14.539
REMARK  4 active torsions:
REMARK  status: ('A' for Active; 'I' for Inactive)
REMARK    1  A    between atoms: C6_6  and  C9_9 
REMARK    2  A    between atoms: C7_7  and  C8_8 
REMARK    3  A    between atoms: C8_8  and  C9_9 
REMARK    4  A    between atoms: C8_8  and  O11_11 
ROOT
HETATM    1  C1  UNL     1     -41.115  14.073   9.402  1.00 20.00     0.071 C 
HETATM    2  C5  UNL     1     -42.829  13.247   7.885  1.00 20.00     0.034 C 
HETATM    3  C9  UNL     1     -41.604  14.189   8.001  1.00 20.00     0.071 C 
HETATM    4  N10 UNL     1     -40.744  13.966  10.496  1.00 20.00    -0.196 NA
ENDROOT
BRANCH   3   5
HETATM    5  C6  UNL     1     -42.053  15.658   7.772  1.00 20.00     0.022 C 
HETATM    6  C2  UNL     1     -40.928  16.674   7.601  1.00 20.00     0.007 C 
ENDBRANCH   3   5
BRANCH   3   7
HETATM    7  C8  UNL     1     -40.510  13.718   6.984  1.00 20.00     0.143 C 
BRANCH   7   8
HETATM    8  C7  UNL     1     -40.970  12.892   5.749  1.00 20.00     0.008 C 
HETATM    9  C3  UNL     1     -39.898  11.971   5.165  1.00 20.00     0.012 C 
HETATM   10  C4  UNL     1     -41.471  13.823   4.634  1.00 20.00     0.012 C 
ENDBRANCH   7   8
BRANCH   7  11
HETATM   11  O11 UNL     1     -39.488  13.013   7.698  1.00 20.00    -0.393 OA
HETATM   12  H28 UNL     1     -39.305  13.537   8.491  1.00 20.00     0.210 HD
ENDBRANCH   7  11
ENDBRANCH   3   7
TORSDOF 4
ENDMDL
MODEL 5
REMARK VINA RESULT:      -3.6      1.453      2.052
REMARK  4 active torsions:
REMARK  status: ('A' for Active; 'I' for Inactive)
REMARK    1  A    between atoms: C6_6  and  C9_9 
REMARK    2  A    between atoms: C7_7  and  C8_8 
REMARK    3  A    between atoms: C8_8  and  C9_9 
REMARK    4  A    between atoms: C8_8  and  O11_11 
ROOT
HETATM    1  C1  UNL     1     -37.167  15.979  -5.474  1.00 20.00     0.071 C 
HETATM    2  C5  UNL     1     -35.950  13.976  -4.822  1.00 20.00     0.034 C 
HETATM    3  C9  UNL     1     -35.825  15.340  -5.547  1.00 20.00     0.071 C 
HETATM    4  N10 UNL     1     -38.218  16.466  -5.402  1.00 20.00    -0.196 NA
ENDROOT
BRANCH   3   5
HETATM    5  C6  UNL     1     -35.490  15.103  -7.046  1.00 20.00     0.022 C 
HETATM    6  C2  UNL     1     -34.175  15.704  -7.531  1.00 20.00     0.007 C 
ENDBRANCH   3   5
BRANCH   3   7
HETATM    7  C8  UNL     1     -34.749  16.205  -4.810  1.00 20.00     0.143 C 
BRANCH   7   8
HETATM    8  C7  UNL     1     -33.886  15.518  -3.714  1.00 20.00     0.008 C 
HETATM    9  C3  UNL     1     -33.460  16.438  -2.569  1.00 20.00     0.012 C 
HETATM   10  C4  UNL     1     -32.625  14.894  -4.333  1.00 20.00     0.012 C 
ENDBRANCH   7   8
BRANCH   7  11
HETATM   11  O11 UNL     1     -35.382  17.376  -4.279  1.00 20.00    -0.393 OA
HETATM   12  H28 UNL     1     -34.772  17.736  -3.620  1.00 20.00     0.210 HD
ENDBRANCH   7  11
ENDBRANCH   3   7
TORSDOF 4
ENDMDL
MODEL 6
REMARK VINA RESULT:      -3.6      1.834      2.868
REMARK  4 active torsions:
REMARK  status: ('A' for Active; 'I' for Inactive)
REMARK    1  A    between atoms: C6_6  and  C9_9 
REMARK    2  A    between atoms: C7_7  and  C8_8 
REMARK    3  A    between atoms: C8_8  and  C9_9 
REMARK    4  A    between atoms: C8_8  and  O11_11 
ROOT
HETATM    1  C1  UNL     1     -34.171  15.414  -6.708  1.00 20.00     0.071 C 
HETATM    2  C5  UNL     1     -35.462  17.260  -5.792  1.00 20.00     0.034 C 
HETATM    3  C9  UNL     1     -34.932  15.834  -5.501  1.00 20.00     0.071 C 
HETATM    4  N10 UNL     1     -33.576  15.104  -7.655  1.00 20.00    -0.196 NA
ENDROOT
BRANCH   3   5
HETATM    5  C6  UNL     1     -36.129  14.859  -5.327  1.00 20.00     0.022 C 
HETATM    6  C2  UNL     1     -35.827  13.572  -4.567  1.00 20.00     0.007 C 
ENDBRANCH   3   5
BRANCH   3   7
HETATM    7  C8  UNL     1     -34.002  15.891  -4.242  1.00 20.00     0.143 C 
BRANCH   7   8
HETATM    8  C7  UNL     1     -33.999  17.196  -3.396  1.00 20.00     0.008 C 
HETATM    9  C3  UNL     1     -33.092  18.303  -3.936  1.00 20.00     0.012 C 
HETATM   10  C4  UNL     1     -33.590  16.896  -1.945  1.00 20.00     0.012 C 
ENDBRANCH   7   8
BRANCH   7  11
HETATM   11  O11 UNL     1     -32.667  15.555  -4.638  1.00 20.00    -0.393 OA
HETATM   12  H28 UNL     1     -32.204  16.396  -4.762  1.00 20.00     0.210 HD
ENDBRANCH   7  11
ENDBRANCH   3   7
TORSDOF 4
ENDMDL
MODEL 7
REMARK VINA RESULT:      -3.5      2.222      3.373
REMARK  4 active torsions:
REMARK  status: ('A' for Active; 'I' for Inactive)
REMARK    1  A    between atoms: C6_6  and  C9_9 
REMARK    2  A    between atoms: C7_7  and  C8_8 
REMARK    3  A    between atoms: C8_8  and  C9_9 
REMARK    4  A    between atoms: C8_8  and  O11_11 
ROOT
HETATM    1  C1  UNL     1     -34.012  15.280  -6.818  1.00 20.00     0.071 C 
HETATM    2  C5  UNL     1     -35.986  14.794  -5.483  1.00 20.00     0.034 C 
HETATM    3  C9  UNL     1     -34.640  15.560  -5.499  1.00 20.00     0.071 C 
HETATM    4  N10 UNL     1     -33.538  15.056  -7.854  1.00 20.00    -0.196 NA
ENDROOT
BRANCH   3   5
HETATM    5  C6  UNL     1     -33.706  14.993  -4.395  1.00 20.00     0.022 C 
HETATM    6  C2  UNL     1     -33.336  15.964  -3.279  1.00 20.00     0.007 C 
ENDBRANCH   3   5
BRANCH   3   7
HETATM    7  C8  UNL     1     -34.929  17.090  -5.328  1.00 20.00     0.143 C 
BRANCH   7   8
HETATM    8  C7  UNL     1     -36.409  17.563  -5.389  1.00 20.00     0.008 C 
HETATM    9  C3  UNL     1     -36.747  18.439  -6.596  1.00 20.00     0.012 C 
HETATM   10  C4  UNL     1     -36.783  18.331  -4.111  1.00 20.00     0.012 C 
ENDBRANCH   7   8
BRANCH   7  11
HETATM   11  O11 UNL     1     -34.137  17.818  -6.273  1.00 20.00    -0.393 OA
HETATM   12  H28 UNL     1     -34.109  17.276  -7.075  1.00 20.00     0.210 HD
ENDBRANCH   7  11
ENDBRANCH   3   7
TORSDOF 4
ENDMDL
MODEL 8
REMARK VINA RESULT:      -3.5      2.016      2.883
REMARK  4 active torsions:
REMARK  status: ('A' for Active; 'I' for Inactive)
REMARK    1  A    between atoms: C6_6  and  C9_9 
REMARK    2  A    between atoms: C7_7  and  C8_8 
REMARK    3  A    between atoms: C8_8  and  C9_9 
REMARK    4  A    between atoms: C8_8  and  O11_11 
ROOT
HETATM    1  C1  UNL     1     -35.904  15.205  -7.037  1.00 20.00     0.071 C 
HETATM    2  C5  UNL     1     -34.539  17.144  -6.493  1.00 20.00     0.034 C 
HETATM    3  C9  UNL     1     -35.589  16.151  -5.933  1.00 20.00     0.071 C 
HETATM    4  N10 UNL     1     -36.133  14.472  -7.908  1.00 20.00    -0.196 NA
ENDROOT
BRANCH   3   5
HETATM    5  C6  UNL     1     -36.892  16.919  -5.577  1.00 20.00     0.022 C 
HETATM    6  C2  UNL     1     -36.760  17.968  -4.477  1.00 20.00     0.007 C 
ENDBRANCH   3   5
BRANCH   3   7
HETATM    7  C8  UNL     1     -34.968  15.399  -4.708  1.00 20.00     0.143 C 
BRANCH   7   8
HETATM    8  C7  UNL     1     -33.534  15.799  -4.258  1.00 20.00     0.008 C 
HETATM    9  C3  UNL     1     -32.514  14.660  -4.298  1.00 20.00     0.012 C 
HETATM   10  C4  UNL     1     -33.558  16.381  -2.836  1.00 20.00     0.012 C 
ENDBRANCH   7   8
BRANCH   7  11
HETATM   11  O11 UNL     1     -35.036  13.989  -4.950  1.00 20.00    -0.393 OA
HETATM   12  H28 UNL     1     -34.120  13.684  -5.019  1.00 20.00     0.210 HD
ENDBRANCH   7  11
ENDBRANCH   3   7
TORSDOF 4
ENDMDL
MODEL 9
REMARK VINA RESULT:      -3.5     12.654     13.772
REMARK  4 active torsions:
REMARK  status: ('A' for Active; 'I' for Inactive)
REMARK    1  A    between atoms: C6_6  and  C9_9 
REMARK    2  A    between atoms: C7_7  and  C8_8 
REMARK    3  A    between atoms: C8_8  and  C9_9 
REMARK    4  A    between atoms: C8_8  and  O11_11 
ROOT
HETATM    1  C1  UNL     1     -41.742  13.871   5.181  1.00 20.00     0.071 C 
HETATM    2  C5  UNL     1     -42.396  12.112   6.728  1.00 20.00     0.034 C 
HETATM    3  C9  UNL     1     -41.407  13.284   6.506  1.00 20.00     0.071 C 
HETATM    4  N10 UNL     1     -42.019  14.321   4.147  1.00 20.00    -0.196 NA
ENDROOT
BRANCH   3   5
HETATM    5  C6  UNL     1     -39.956  12.734   6.433  1.00 20.00     0.022 C 
HETATM    6  C2  UNL     1     -39.673  11.771   5.284  1.00 20.00     0.007 C 
ENDBRANCH   3   5
BRANCH   3   7
HETATM    7  C8  UNL     1     -41.605  14.334   7.652  1.00 20.00     0.143 C 
BRANCH   7   8
HETATM    8  C7  UNL     1     -40.410  15.264   8.003  1.00 20.00     0.008 C 
HETATM    9  C3  UNL     1     -40.060  15.317   9.491  1.00 20.00     0.012 C 
HETATM   10  C4  UNL     1     -40.682  16.697   7.516  1.00 20.00     0.012 C 
ENDBRANCH   7   8
BRANCH   7  11
HETATM   11  O11 UNL     1     -42.065  13.654   8.826  1.00 20.00    -0.393 OA
HETATM   12  H28 UNL     1     -42.714  14.240   9.239  1.00 20.00     0.210 HD
ENDBRANCH   7  11
ENDBRANCH   3   7
TORSDOF 4
ENDMDL
