MODEL 1
REMARK VINA RESULT:      -3.8      0.000      0.000
REMARK  4 active torsions:
REMARK  status: ('A' for Active; 'I' for Inactive)
REMARK    1  A    between atoms: C4_4  and  C9_9 
REMARK    2  A    between atoms: C7_7  and  C9_9 
REMARK    3  A    between atoms: C8_8  and  C9_9 
REMARK    4  A    between atoms: C9_9  and  O11_11 
ROOT
HETATM    1  C1  UNL     1     -41.889  13.677   8.560  1.00 20.00     0.066 C 
HETATM    2  C6  UNL     1     -43.070  12.035   7.192  1.00 20.00     0.028 C 
HETATM    3  C8  UNL     1     -42.354  13.395   7.182  1.00 20.00     0.123 C 
HETATM    4  N10 UNL     1     -41.528  13.899   9.641  1.00 20.00    -0.197 NA
ENDROOT
BRANCH   3   5
HETATM    5  C9  UNL     1     -41.183  13.472   6.153  1.00 20.00     0.077 C 
BRANCH   5   6
HETATM    6  C4  UNL     1     -40.540  12.109   5.961  1.00 20.00     0.021 A 
HETATM    7  C2  UNL     1     -39.611  11.864   4.804  1.00 20.00     0.008 A 
HETATM    8  C3  UNL     1     -39.067  11.924   6.204  1.00 20.00     0.008 A 
ENDBRANCH   5   6
BRANCH   5   9
HETATM    9  C7  UNL     1     -41.603  14.053   4.775  1.00 20.00     0.035 C 
HETATM   10  C5  UNL     1     -42.743  15.063   4.808  1.00 20.00     0.008 C 
ENDBRANCH   5   9
BRANCH   5  11
HETATM   11  O11 UNL     1     -40.178  14.350   6.685  1.00 20.00    -0.388 OA
HETATM   12  H26 UNL     1     -39.972  14.014   7.567  1.00 20.00     0.210 HD
ENDBRANCH   5  11
ENDBRANCH   3   5
TORSDOF 4
ENDMDL
MODEL 2
REMARK VINA RESULT:      -3.7     12.162     13.473
REMARK  4 active torsions:
REMARK  status: ('A' for Active; 'I' for Inactive)
REMARK    1  A    between atoms: C4_4  and  C9_9 
REMARK    2  A    between atoms: C7_7  and  C9_9 
REMARK    3  A    between atoms: C8_8  and  C9_9 
REMARK    4  A    between atoms: C9_9  and  O11_11 
ROOT
HETATM    1  C1  UNL     1     -35.429  15.592  -5.321  1.00 20.00     0.066 C 
HETATM    2  C6  UNL     1     -33.439  14.673  -4.246  1.00 20.00     0.028 C 
HETATM    3  C8  UNL     1     -34.069  15.939  -4.848  1.00 20.00     0.123 C 
HETATM    4  N10 UNL     1     -36.494  15.318  -5.695  1.00 20.00    -0.197 NA
ENDROOT
BRANCH   3   5
HETATM    5  C9  UNL     1     -34.096  17.148  -3.859  1.00 20.00     0.077 C 
BRANCH   5   6
HETATM    6  C4  UNL     1     -33.344  16.820  -2.581  1.00 20.00     0.021 A 
HETATM    7  C2  UNL     1     -32.584  17.893  -1.851  1.00 20.00     0.008 A 
HETATM    8  C3  UNL     1     -33.843  17.326  -1.256  1.00 20.00     0.008 A 
ENDBRANCH   5   6
BRANCH   5   9
HETATM    9  C7  UNL     1     -33.542  18.464  -4.471  1.00 20.00     0.035 C 
HETATM   10  C5  UNL     1     -34.527  19.260  -5.318  1.00 20.00     0.008 C 
ENDBRANCH   5   9
BRANCH   5  11
HETATM   11  O11 UNL     1     -35.463  17.401  -3.500  1.00 20.00    -0.388 OA
HETATM   12  H26 UNL     1     -35.806  18.007  -4.169  1.00 20.00     0.210 HD
ENDBRANCH   5  11
ENDBRANCH   3   5
TORSDOF 4
ENDMDL
MODEL 3
REMARK VINA RESULT:      -3.6      1.316      2.295
REMARK  4 active torsions:
REMARK  status: ('A' for Active; 'I' for Inactive)
REMARK    1  A    between atoms: C4_4  and  C9_9 
REMARK    2  A    between atoms: C7_7  and  C9_9 
REMARK    3  A    between atoms: C8_8  and  C9_9 
REMARK    4  A    between atoms: C9_9  and  O11_11 
ROOT
HETATM    1  C1  UNL     1     -40.637  14.116   8.974  1.00 20.00     0.066 C 
HETATM    2  C6  UNL     1     -40.623  15.984   7.402  1.00 20.00     0.028 C 
HETATM    3  C8  UNL     1     -40.443  14.465   7.547  1.00 20.00     0.123 C 
HETATM    4  N10 UNL     1     -40.785  13.843  10.093  1.00 20.00    -0.197 NA
ENDROOT
BRANCH   3   5
HETATM    5  C9  UNL     1     -41.389  13.638   6.620  1.00 20.00     0.077 C 
BRANCH   5   6
HETATM    6  C4  UNL     1     -40.747  12.317   6.230  1.00 20.00     0.021 A 
HETATM    7  C2  UNL     1     -39.982  12.197   4.940  1.00 20.00     0.008 A 
HETATM    8  C3  UNL     1     -39.252  12.165   6.254  1.00 20.00     0.008 A 
ENDBRANCH   5   6
BRANCH   5   9
HETATM    9  C7  UNL     1     -42.791  13.378   7.236  1.00 20.00     0.035 C 
HETATM   10  C5  UNL     1     -43.223  11.918   7.295  1.00 20.00     0.008 C 
ENDBRANCH   5   9
BRANCH   5  11
HETATM   11  O11 UNL     1     -41.598  14.387   5.413  1.00 20.00    -0.388 OA
HETATM   12  H26 UNL     1     -42.366  13.988   4.982  1.00 20.00     0.210 HD
ENDBRANCH   5  11
ENDBRANCH   3   5
TORSDOF 4
ENDMDL
MODEL 4
REMARK VINA RESULT:      -3.6      9.838     11.008
REMARK  4 active torsions:
REMARK  status: ('A' for Active; 'I' for Inactive)
REMARK    1  A    between atoms: C4_4  and  C9_9 
REMARK    2  A    between atoms: C7_7  and  C9_9 
REMARK    3  A    between atoms: C8_8  and  C9_9 
REMARK    4  A    between atoms: C9_9  and  O11_11 
ROOT
HETATM    1  C1  UNL     1     -32.341   7.347   2.260  1.00 20.00     0.066 C 
HETATM    2  C6  UNL     1     -33.069   5.052   2.668  1.00 20.00     0.028 C 
HETATM    3  C8  UNL     1     -32.638   6.369   3.333  1.00 20.00     0.123 C 
HETATM    4  N10 UNL     1     -32.105   8.111   1.419  1.00 20.00    -0.197 NA
ENDROOT
BRANCH   3   5
HETATM    5  C9  UNL     1     -33.689   6.927   4.343  1.00 20.00     0.077 C 
BRANCH   5   6
HETATM    6  C4  UNL     1     -33.553   6.251   5.697  1.00 20.00     0.021 A 
HETATM    7  C2  UNL     1     -34.555   6.523   6.785  1.00 20.00     0.008 A 
HETATM    8  C3  UNL     1     -34.524   5.180   6.110  1.00 20.00     0.008 A 
ENDBRANCH   5   6
BRANCH   5   9
HETATM    9  C7  UNL     1     -33.626   8.469   4.518  1.00 20.00     0.035 C 
HETATM   10  C5  UNL     1     -32.335   9.010   5.119  1.00 20.00     0.008 C 
ENDBRANCH   5   9
BRANCH   5  11
HETATM   11  O11 UNL     1     -34.999   6.620   3.840  1.00 20.00    -0.388 OA
HETATM   12  H26 UNL     1     -34.956   5.706   3.527  1.00 20.00     0.210 HD
ENDBRANCH   5  11
ENDBRANCH   3   5
TORSDOF 4
ENDMDL
MODEL 5
REMARK VINA RESULT:      -3.6      2.423      3.230
REMARK  4 active torsions:
REMARK  status: ('A' for Active; 'I' for Inactive)
REMARK    1  A    between atoms: C4_4  and  C9_9 
REMARK    2  A    between atoms: C7_7  and  C9_9 
REMARK    3  A    between atoms: C8_8  and  C9_9 
REMARK    4  A    between atoms: C9_9  and  O11_11 
ROOT
HETATM    1  C1  UNL     1     -42.200  14.356   4.211  1.00 20.00     0.066 C 
HETATM    2  C6  UNL     1     -43.150  15.073   6.343  1.00 20.00     0.028 C 
HETATM    3  C8  UNL     1     -42.486  13.907   5.594  1.00 20.00     0.123 C 
HETATM    4  N10 UNL     1     -41.979  14.707   3.127  1.00 20.00    -0.197 NA
ENDROOT
BRANCH   3   5
HETATM    5  C9  UNL     1     -41.202  13.367   6.300  1.00 20.00     0.077 C 
BRANCH   5   6
HETATM    6  C4  UNL     1     -40.242  12.761   5.291  1.00 20.00     0.021 A 
HETATM    7  C2  UNL     1     -38.860  12.344   5.714  1.00 20.00     0.008 A 
HETATM    8  C3  UNL     1     -39.886  11.302   5.366  1.00 20.00     0.008 A 
ENDBRANCH   5   6
BRANCH   5   9
HETATM    9  C7  UNL     1     -40.464  14.439   7.149  1.00 20.00     0.035 C 
HETATM   10  C5  UNL     1     -40.325  14.121   8.632  1.00 20.00     0.008 C 
ENDBRANCH   5   9
BRANCH   5  11
HETATM   11  O11 UNL     1     -41.595  12.321   7.202  1.00 20.00    -0.388 OA
HETATM   12  H26 UNL     1     -41.461  11.493   6.723  1.00 20.00     0.210 HD
ENDBRANCH   5  11
ENDBRANCH   3   5
TORSDOF 4
ENDMDL
MODEL 6
REMARK VINA RESULT:      -3.6     13.027     13.949
REMARK  4 active torsions:
REMARK  status: ('A' for Active; 'I' for Inactive)
REMARK    1  A    between atoms: C4_4  and  C9_9 
REMARK    2  A    between atoms: C7_7  and  C9_9 
REMARK    3  A    between atoms: C8_8  and  C9_9 
REMARK    4  A    between atoms: C9_9  and  O11_11 
ROOT
HETATM    1  C1  UNL     1     -35.857  14.013  -4.926  1.00 20.00     0.066 C 
HETATM    2  C6  UNL     1     -35.921  15.038  -7.141  1.00 20.00     0.028 C 
HETATM    3  C8  UNL     1     -35.786  15.312  -5.634  1.00 20.00     0.123 C 
HETATM    4  N10 UNL     1     -35.917  12.995  -4.371  1.00 20.00    -0.197 NA
ENDROOT
BRANCH   3   5
HETATM    5  C9  UNL     1     -34.489  16.099  -5.262  1.00 20.00     0.077 C 
BRANCH   5   6
HETATM    6  C4  UNL     1     -34.821  17.517  -4.832  1.00 20.00     0.021 A 
HETATM    7  C2  UNL     1     -35.305  18.523  -5.840  1.00 20.00     0.008 A 
HETATM    8  C3  UNL     1     -36.249  17.986  -4.801  1.00 20.00     0.008 A 
ENDBRANCH   5   6
BRANCH   5   9
HETATM    9  C7  UNL     1     -33.634  15.404  -4.167  1.00 20.00     0.035 C 
HETATM   10  C5  UNL     1     -33.292  16.263  -2.956  1.00 20.00     0.008 C 
ENDBRANCH   5   9
BRANCH   5  11
HETATM   11  O11 UNL     1     -33.668  16.187  -6.437  1.00 20.00    -0.388 OA
HETATM   12  H26 UNL     1     -32.918  16.747  -6.195  1.00 20.00     0.210 HD
ENDBRANCH   5  11
ENDBRANCH   3   5
TORSDOF 4
ENDMDL
MODEL 7
REMARK VINA RESULT:      -3.5     13.150     14.252
REMARK  4 active torsions:
REMARK  status: ('A' for Active; 'I' for Inactive)
REMARK    1  A    between atoms: C4_4  and  C9_9 
REMARK    2  A    between atoms: C7_7  and  C9_9 
REMARK    3  A    between atoms: C8_8  and  C9_9 
REMARK    4  A    between atoms: C9_9  and  O11_11 
ROOT
HETATM    1  C1  UNL     1     -34.069  15.216  -6.721  1.00 20.00     0.066 C 
HETATM    2  C6  UNL     1     -36.027  14.602  -5.399  1.00 20.00     0.028 C 
HETATM    3  C8  UNL     1     -34.687  15.354  -5.382  1.00 20.00     0.123 C 
HETATM    4  N10 UNL     1     -33.583  15.105  -7.770  1.00 20.00    -0.197 NA
ENDROOT
BRANCH   3   5
HETATM    5  C9  UNL     1     -34.822  16.852  -4.963  1.00 20.00     0.077 C 
BRANCH   5   6
HETATM    6  C4  UNL     1     -33.718  17.247  -3.997  1.00 20.00     0.021 A 
HETATM    7  C2  UNL     1     -34.044  17.579  -2.567  1.00 20.00     0.008 A 
HETATM    8  C3  UNL     1     -33.305  16.312  -2.895  1.00 20.00     0.008 A 
ENDBRANCH   5   6
BRANCH   5   9
HETATM    9  C7  UNL     1     -34.844  17.834  -6.166  1.00 20.00     0.035 C 
HETATM   10  C5  UNL     1     -33.986  19.083  -6.010  1.00 20.00     0.008 C 
ENDBRANCH   5   9
BRANCH   5  11
HETATM   11  O11 UNL     1     -36.073  17.011  -4.275  1.00 20.00    -0.388 OA
HETATM   12  H26 UNL     1     -36.595  17.623  -4.810  1.00 20.00     0.210 HD
ENDBRANCH   5  11
ENDBRANCH   3   5
TORSDOF 4
ENDMDL
MODEL 8
REMARK VINA RESULT:      -3.5     12.855     14.117
REMARK  4 active torsions:
REMARK  status: ('A' for Active; 'I' for Inactive)
REMARK    1  A    between atoms: C4_4  and  C9_9 
REMARK    2  A    between atoms: C7_7  and  C9_9 
REMARK    3  A    between atoms: C8_8  and  C9_9 
REMARK    4  A    between atoms: C9_9  and  O11_11 
ROOT
HETATM    1  C1  UNL     1     -35.927  17.331  -5.461  1.00 20.00     0.066 C 
HETATM    2  C6  UNL     1     -34.387  17.267  -7.355  1.00 20.00     0.028 C 
HETATM    3  C8  UNL     1     -34.600  16.836  -5.895  1.00 20.00     0.123 C 
HETATM    4  N10 UNL     1     -36.965  17.722  -5.121  1.00 20.00    -0.197 NA
ENDROOT
BRANCH   3   5
HETATM    5  C9  UNL     1     -34.462  15.296  -5.678  1.00 20.00     0.077 C 
BRANCH   5   6
HETATM    6  C4  UNL     1     -33.895  14.991  -4.302  1.00 20.00     0.021 A 
HETATM    7  C2  UNL     1     -32.408  14.987  -4.078  1.00 20.00     0.008 A 
HETATM    8  C3  UNL     1     -33.254  16.080  -3.488  1.00 20.00     0.008 A 
ENDBRANCH   5   6
BRANCH   5   9
HETATM    9  C7  UNL     1     -35.791  14.518  -5.882  1.00 20.00     0.035 C 
HETATM   10  C5  UNL     1     -36.242  13.666  -4.702  1.00 20.00     0.008 C 
ENDBRANCH   5   9
BRANCH   5  11
HETATM   11  O11 UNL     1     -33.531  14.790  -6.648  1.00 20.00    -0.388 OA
HETATM   12  H26 UNL     1     -33.359  15.520  -7.257  1.00 20.00     0.210 HD
ENDBRANCH   5  11
ENDBRANCH   3   5
TORSDOF 4
ENDMDL
MODEL 9
REMARK VINA RESULT:      -3.5      2.234      3.823
REMARK  4 active torsions:
REMARK  status: ('A' for Active; 'I' for Inactive)
REMARK    1  A    between atoms: C4_4  and  C9_9 
REMARK    2  A    between atoms: C7_7  and  C9_9 
REMARK    3  A    between atoms: C8_8  and  C9_9 
REMARK    4  A    between atoms: C9_9  and  O11_11 
ROOT
HETATM    1  C1  UNL     1     -39.666  12.571   5.467  1.00 20.00     0.066 C 
HETATM    2  C6  UNL     1     -41.529  13.892   4.603  1.00 20.00     0.028 C 
HETATM    3  C8  UNL     1     -41.048  13.012   5.768  1.00 20.00     0.123 C 
HETATM    4  N10 UNL     1     -38.585  12.222   5.229  1.00 20.00    -0.197 NA
ENDROOT
BRANCH   3   5
HETATM    5  C9  UNL     1     -41.135  13.721   7.157  1.00 20.00     0.077 C 
BRANCH   5   6
HETATM    6  C4  UNL     1     -41.135  15.231   6.996  1.00 20.00     0.021 A 
HETATM    7  C2  UNL     1     -41.983  16.090   7.893  1.00 20.00     0.008 A 
HETATM    8  C3  UNL     1     -40.487  16.104   8.035  1.00 20.00     0.008 A 
ENDBRANCH   5   6
BRANCH   5   9
HETATM    9  C7  UNL     1     -42.363  13.283   8.001  1.00 20.00     0.035 C 
HETATM   10  C5  UNL     1     -43.187  12.141   7.421  1.00 20.00     0.008 C 
ENDBRANCH   5   9
BRANCH   5  11
HETATM   11  O11 UNL     1     -39.965  13.369   7.912  1.00 20.00    -0.388 OA
HETATM   12  H26 UNL     1     -40.224  12.627   8.473  1.00 20.00     0.210 HD
ENDBRANCH   5  11
ENDBRANCH   3   5
TORSDOF 4
ENDMDL
