MODEL 1
REMARK VINA RESULT:      -4.5      0.000      0.000
REMARK  4 active torsions:
REMARK  status: ('A' for Active; 'I' for Inactive)
REMARK    1  A    between atoms: C4_4  and  C5_5 
REMARK    2  A    between atoms: C5_5  and  C7_7 
REMARK    3  A    between atoms: C6_6  and  C7_7 
REMARK    4  A    between atoms: C7_7  and  O9_9 
ROOT
HETATM    1  C1  UNL     1     -32.285   7.959   1.834  1.00 20.00     0.066 C 
HETATM    2  C3  UNL     1     -32.988   5.826   2.824  1.00 20.00     0.028 C 
HETATM    3  C6  UNL     1     -32.143   7.088   3.017  1.00 20.00     0.117 C 
HETATM    4  N8  UNL     1     -32.395   8.645   0.904  1.00 20.00    -0.197 NA
ENDROOT
BRANCH   3   5
HETATM    5  C7  UNL     1     -32.522   7.816   4.326  1.00 20.00     0.135 C 
BRANCH   5   6
HETATM    6  C5  UNL     1     -33.947   7.482   4.800  1.00 20.00     0.033 C 
BRANCH   6   7
HETATM    7  C4  UNL     1     -33.974   6.902   6.218  1.00 20.00    -0.002 C 
HETATM    8  C2  UNL     1     -34.585   5.509   6.237  1.00 20.00     0.005 C 
ENDBRANCH   6   7
ENDBRANCH   5   6
BRANCH   5   9
HETATM    9  O9  UNL     1     -32.381   9.224   4.145  1.00 20.00    -0.394 OA
HETATM   10  H22 UNL     1     -32.442   9.622   5.026  1.00 20.00     0.210 HD
ENDBRANCH   5   9
ENDBRANCH   3   5
TORSDOF 4
ENDMDL
MODEL 2
REMARK VINA RESULT:      -4.0     11.367     12.151
REMARK  4 active torsions:
REMARK  status: ('A' for Active; 'I' for Inactive)
REMARK    1  A    between atoms: C4_4  and  C5_5 
REMARK    2  A    between atoms: C5_5  and  C7_7 
REMARK    3  A    between atoms: C6_6  and  C7_7 
REMARK    4  A    between atoms: C7_7  and  O9_9 
ROOT
HETATM    1  C1  UNL     1     -34.166  15.142  -6.676  1.00 20.00     0.066 C 
HETATM    2  C3  UNL     1     -35.582  16.566  -5.264  1.00 20.00     0.028 C 
HETATM    3  C6  UNL     1     -34.897  15.202  -5.395  1.00 20.00     0.117 C 
HETATM    4  N8  UNL     1     -33.592  15.092  -7.684  1.00 20.00    -0.197 NA
ENDROOT
BRANCH   3   5
HETATM    5  C7  UNL     1     -33.976  14.924  -4.186  1.00 20.00     0.135 C 
BRANCH   5   6
HETATM    6  C5  UNL     1     -33.230  16.181  -3.705  1.00 20.00     0.033 C 
BRANCH   6   7
HETATM    7  C4  UNL     1     -33.555  16.537  -2.251  1.00 20.00    -0.002 C 
HETATM    8  C2  UNL     1     -32.745  17.734  -1.778  1.00 20.00     0.005 C 
ENDBRANCH   6   7
ENDBRANCH   5   6
BRANCH   5   9
HETATM    9  O9  UNL     1     -33.045  13.898  -4.523  1.00 20.00    -0.394 OA
HETATM   10  H22 UNL     1     -32.494  14.251  -5.238  1.00 20.00     0.210 HD
ENDBRANCH   5   9
ENDBRANCH   3   5
TORSDOF 4
ENDMDL
MODEL 3
REMARK VINA RESULT:      -3.9     11.146     11.690
REMARK  4 active torsions:
REMARK  status: ('A' for Active; 'I' for Inactive)
REMARK    1  A    between atoms: C4_4  and  C5_5 
REMARK    2  A    between atoms: C5_5  and  C7_7 
REMARK    3  A    between atoms: C6_6  and  C7_7 
REMARK    4  A    between atoms: C7_7  and  O9_9 
ROOT
HETATM    1  C1  UNL     1     -35.339  14.011  -4.654  1.00 20.00     0.066 C 
HETATM    2  C3  UNL     1     -34.012  15.149  -6.378  1.00 20.00     0.028 C 
HETATM    3  C6  UNL     1     -34.528  15.213  -4.937  1.00 20.00     0.117 C 
HETATM    4  N8  UNL     1     -35.978  13.069  -4.430  1.00 20.00    -0.197 NA
ENDROOT
BRANCH   3   5
HETATM    5  C7  UNL     1     -33.362  15.377  -3.936  1.00 20.00     0.135 C 
BRANCH   5   6
HETATM    6  C5  UNL     1     -33.222  16.819  -3.419  1.00 20.00     0.033 C 
BRANCH   6   7
HETATM    7  C4  UNL     1     -33.474  16.930  -1.912  1.00 20.00    -0.002 C 
HETATM    8  C2  UNL     1     -32.599  18.001  -1.280  1.00 20.00     0.005 C 
ENDBRANCH   6   7
ENDBRANCH   5   6
BRANCH   5   9
HETATM    9  O9  UNL     1     -32.146  14.953  -4.549  1.00 20.00    -0.394 OA
HETATM   10  H22 UNL     1     -32.019  15.517  -5.327  1.00 20.00     0.210 HD
ENDBRANCH   5   9
ENDBRANCH   3   5
TORSDOF 4
ENDMDL
MODEL 4
REMARK VINA RESULT:      -3.8      2.574      4.120
REMARK  4 active torsions:
REMARK  status: ('A' for Active; 'I' for Inactive)
REMARK    1  A    between atoms: C4_4  and  C5_5 
REMARK    2  A    between atoms: C5_5  and  C7_7 
REMARK    3  A    between atoms: C6_6  and  C7_7 
REMARK    4  A    between atoms: C7_7  and  O9_9 
ROOT
HETATM    1  C1  UNL     1     -34.400   5.699   5.440  1.00 20.00     0.066 C 
HETATM    2  C3  UNL     1     -33.314   5.394   3.259  1.00 20.00     0.028 C 
HETATM    3  C6  UNL     1     -34.093   6.360   4.155  1.00 20.00     0.117 C 
HETATM    4  N8  UNL     1     -34.644   5.179   6.449  1.00 20.00    -0.197 NA
ENDROOT
BRANCH   3   5
HETATM    5  C7  UNL     1     -33.318   7.682   4.353  1.00 20.00     0.135 C 
BRANCH   5   6
HETATM    6  C5  UNL     1     -32.244   7.908   3.275  1.00 20.00     0.033 C 
BRANCH   6   7
HETATM    7  C4  UNL     1     -32.626   9.014   2.286  1.00 20.00    -0.002 C 
HETATM    8  C2  UNL     1     -32.318   8.609   0.853  1.00 20.00     0.005 C 
ENDBRANCH   6   7
ENDBRANCH   5   6
BRANCH   5   9
HETATM    9  O9  UNL     1     -32.725   7.697   5.650  1.00 20.00    -0.394 OA
HETATM   10  H22 UNL     1     -32.662   8.628   5.912  1.00 20.00     0.210 HD
ENDBRANCH   5   9
ENDBRANCH   3   5
TORSDOF 4
ENDMDL
MODEL 5
REMARK VINA RESULT:      -3.8      9.418     10.453
REMARK  4 active torsions:
REMARK  status: ('A' for Active; 'I' for Inactive)
REMARK    1  A    between atoms: C4_4  and  C5_5 
REMARK    2  A    between atoms: C5_5  and  C7_7 
REMARK    3  A    between atoms: C6_6  and  C7_7 
REMARK    4  A    between atoms: C7_7  and  O9_9 
ROOT
HETATM    1  C1  UNL     1     -42.577  12.606   7.089  1.00 20.00     0.066 C 
HETATM    2  C3  UNL     1     -42.137  14.036   5.143  1.00 20.00     0.028 C 
HETATM    3  C6  UNL     1     -41.733  13.706   6.583  1.00 20.00     0.117 C 
HETATM    4  N8  UNL     1     -43.242  11.742   7.489  1.00 20.00    -0.197 NA
ENDROOT
BRANCH   3   5
HETATM    5  C7  UNL     1     -40.227  13.374   6.675  1.00 20.00     0.135 C 
BRANCH   5   6
HETATM    6  C5  UNL     1     -39.887  11.990   6.095  1.00 20.00     0.033 C 
BRANCH   6   7
HETATM    7  C4  UNL     1     -38.622  12.010   5.232  1.00 20.00    -0.002 C 
HETATM    8  C2  UNL     1     -38.933  11.672   3.782  1.00 20.00     0.005 C 
ENDBRANCH   6   7
ENDBRANCH   5   6
BRANCH   5   9
HETATM    9  O9  UNL     1     -39.804  13.455   8.035  1.00 20.00    -0.394 OA
HETATM   10  H22 UNL     1     -40.525  13.085   8.569  1.00 20.00     0.210 HD
ENDBRANCH   5   9
ENDBRANCH   3   5
TORSDOF 4
ENDMDL
MODEL 6
REMARK VINA RESULT:      -3.8      2.192      2.630
REMARK  4 active torsions:
REMARK  status: ('A' for Active; 'I' for Inactive)
REMARK    1  A    between atoms: C4_4  and  C5_5 
REMARK    2  A    between atoms: C5_5  and  C7_7 
REMARK    3  A    between atoms: C6_6  and  C7_7 
REMARK    4  A    between atoms: C7_7  and  O9_9 
ROOT
HETATM    1  C1  UNL     1     -32.350   8.137   4.183  1.00 20.00     0.066 C 
HETATM    2  C3  UNL     1     -32.123   7.954   1.745  1.00 20.00     0.028 C 
HETATM    3  C6  UNL     1     -32.239   7.182   3.062  1.00 20.00     0.117 C 
HETATM    4  N8  UNL     1     -32.435   8.887   5.065  1.00 20.00    -0.197 NA
ENDROOT
BRANCH   3   5
HETATM    5  C7  UNL     1     -33.425   6.191   3.022  1.00 20.00     0.135 C 
BRANCH   5   6
HETATM    6  C5  UNL     1     -34.391   6.374   4.205  1.00 20.00     0.033 C 
BRANCH   6   7
HETATM    7  C4  UNL     1     -34.572   5.089   5.020  1.00 20.00    -0.002 C 
HETATM    8  C2  UNL     1     -34.453   5.356   6.512  1.00 20.00     0.005 C 
ENDBRANCH   6   7
ENDBRANCH   5   6
BRANCH   5   9
HETATM    9  O9  UNL     1     -32.927   4.855   2.994  1.00 20.00    -0.394 OA
HETATM   10  H22 UNL     1     -33.701   4.273   3.036  1.00 20.00     0.210 HD
ENDBRANCH   5   9
ENDBRANCH   3   5
TORSDOF 4
ENDMDL
MODEL 7
REMARK VINA RESULT:      -3.8     11.500     12.208
REMARK  4 active torsions:
REMARK  status: ('A' for Active; 'I' for Inactive)
REMARK    1  A    between atoms: C4_4  and  C5_5 
REMARK    2  A    between atoms: C5_5  and  C7_7 
REMARK    3  A    between atoms: C6_6  and  C7_7 
REMARK    4  A    between atoms: C7_7  and  O9_9 
ROOT
HETATM    1  C1  UNL     1     -36.145  15.546  -5.583  1.00 20.00     0.066 C 
HETATM    2  C3  UNL     1     -34.074  15.299  -6.876  1.00 20.00     0.028 C 
HETATM    3  C6  UNL     1     -34.682  15.740  -5.542  1.00 20.00     0.117 C 
HETATM    4  N8  UNL     1     -37.296  15.396  -5.614  1.00 20.00    -0.197 NA
ENDROOT
BRANCH   3   5
HETATM    5  C7  UNL     1     -34.028  14.991  -4.359  1.00 20.00     0.135 C 
BRANCH   5   6
HETATM    6  C5  UNL     1     -33.087  15.886  -3.536  1.00 20.00     0.033 C 
BRANCH   6   7
HETATM    7  C4  UNL     1     -33.789  17.135  -2.992  1.00 20.00    -0.002 C 
HETATM    8  C2  UNL     1     -33.579  17.282  -1.493  1.00 20.00     0.005 C 
ENDBRANCH   6   7
ENDBRANCH   5   6
BRANCH   5   9
HETATM    9  O9  UNL     1     -33.322  13.852  -4.848  1.00 20.00    -0.394 OA
HETATM   10  H22 UNL     1     -32.909  13.434  -4.078  1.00 20.00     0.210 HD
ENDBRANCH   5   9
ENDBRANCH   3   5
TORSDOF 4
ENDMDL
MODEL 8
REMARK VINA RESULT:      -3.7      9.241     10.242
REMARK  4 active torsions:
REMARK  status: ('A' for Active; 'I' for Inactive)
REMARK    1  A    between atoms: C4_4  and  C5_5 
REMARK    2  A    between atoms: C5_5  and  C7_7 
REMARK    3  A    between atoms: C6_6  and  C7_7 
REMARK    4  A    between atoms: C7_7  and  O9_9 
ROOT
HETATM    1  C1  UNL     1     -41.821  14.015   4.765  1.00 20.00     0.066 C 
HETATM    2  C3  UNL     1     -42.276  14.673   7.086  1.00 20.00     0.028 C 
HETATM    3  C6  UNL     1     -41.661  13.607   6.175  1.00 20.00     0.117 C 
HETATM    4  N8  UNL     1     -41.947  14.334   3.656  1.00 20.00    -0.197 NA
ENDROOT
BRANCH   3   5
HETATM    5  C7  UNL     1     -40.183  13.348   6.542  1.00 20.00     0.135 C 
BRANCH   5   6
HETATM    6  C5  UNL     1     -39.711  11.938   6.149  1.00 20.00     0.033 C 
BRANCH   6   7
HETATM    7  C4  UNL     1     -38.530  11.964   5.174  1.00 20.00    -0.002 C 
HETATM    8  C2  UNL     1     -38.975  11.655   3.753  1.00 20.00     0.005 C 
ENDBRANCH   6   7
ENDBRANCH   5   6
BRANCH   5   9
HETATM    9  O9  UNL     1     -39.996  13.557   7.941  1.00 20.00    -0.394 OA
HETATM   10  H22 UNL     1     -39.478  14.372   8.029  1.00 20.00     0.210 HD
ENDBRANCH   5   9
ENDBRANCH   3   5
TORSDOF 4
ENDMDL
MODEL 9
REMARK VINA RESULT:      -3.7      2.617      3.850
REMARK  4 active torsions:
REMARK  status: ('A' for Active; 'I' for Inactive)
REMARK    1  A    between atoms: C4_4  and  C5_5 
REMARK    2  A    between atoms: C5_5  and  C7_7 
REMARK    3  A    between atoms: C6_6  and  C7_7 
REMARK    4  A    between atoms: C7_7  and  O9_9 
ROOT
HETATM    1  C1  UNL     1     -34.286   4.742   4.887  1.00 20.00     0.066 C 
HETATM    2  C3  UNL     1     -35.927   6.402   4.129  1.00 20.00     0.028 C 
HETATM    3  C6  UNL     1     -35.102   5.895   5.315  1.00 20.00     0.117 C 
HETATM    4  N8  UNL     1     -33.644   3.834   4.553  1.00 20.00    -0.197 NA
ENDROOT
BRANCH   3   5
HETATM    5  C7  UNL     1     -34.240   7.028   5.916  1.00 20.00     0.135 C 
BRANCH   5   6
HETATM    6  C5  UNL     1     -33.878   8.110   4.884  1.00 20.00     0.033 C 
BRANCH   6   7
HETATM    7  C4  UNL     1     -32.400   8.069   4.483  1.00 20.00    -0.002 C 
HETATM    8  C2  UNL     1     -32.207   7.378   3.142  1.00 20.00     0.005 C 
ENDBRANCH   6   7
ENDBRANCH   5   6
BRANCH   5   9
HETATM    9  O9  UNL     1     -33.055   6.473   6.484  1.00 20.00    -0.394 OA
HETATM   10  H22 UNL     1     -32.969   6.859   7.369  1.00 20.00     0.210 HD
ENDBRANCH   5   9
ENDBRANCH   3   5
TORSDOF 4
ENDMDL
