MODEL 1
REMARK VINA RESULT:      -4.3      0.000      0.000
REMARK  3 active torsions:
REMARK  status: ('A' for Active; 'I' for Inactive)
REMARK    1  A    between atoms: C5_5  and  C6_6 
REMARK    2  A    between atoms: C6_6  and  C7_7 
REMARK    3  A    between atoms: C6_6  and  O9_9 
ROOT
HETATM    1  C1  UNL     1     -34.172  15.184  -6.639  1.00 20.00     0.071 C 
HETATM    2  C3  UNL     1     -36.081  14.338  -5.356  1.00 20.00     0.033 C 
HETATM    3  C4  UNL     1     -35.422  16.740  -5.203  1.00 20.00     0.033 C 
HETATM    4  C7  UNL     1     -34.878  15.305  -5.341  1.00 20.00     0.067 C 
HETATM    5  N8  UNL     1     -33.620  15.090  -7.657  1.00 20.00    -0.196 NA
ENDROOT
BRANCH   4   6
HETATM    6  C6  UNL     1     -33.922  14.959  -4.157  1.00 20.00     0.139 C 
BRANCH   6   7
HETATM    7  C5  UNL     1     -33.077  16.137  -3.639  1.00 20.00     0.029 C 
HETATM    8  C2  UNL     1     -33.490  16.570  -2.237  1.00 20.00     0.007 C 
ENDBRANCH   6   7
BRANCH   6   9
HETATM    9  O9  UNL     1     -33.025  13.910  -4.535  1.00 20.00    -0.394 OA
HETATM   10  H22 UNL     1     -33.273  13.137  -4.008  1.00 20.00     0.210 HD
ENDBRANCH   6   9
ENDBRANCH   4   6
TORSDOF 3
ENDMDL
MODEL 2
REMARK VINA RESULT:      -4.2     12.479     13.177
REMARK  3 active torsions:
REMARK  status: ('A' for Active; 'I' for Inactive)
REMARK    1  A    between atoms: C5_5  and  C6_6 
REMARK    2  A    between atoms: C6_6  and  C7_7 
REMARK    3  A    between atoms: C6_6  and  O9_9 
ROOT
HETATM    1  C1  UNL     1     -33.583   5.426   3.577  1.00 20.00     0.071 C 
HETATM    2  C3  UNL     1     -34.383   4.893   5.831  1.00 20.00     0.033 C 
HETATM    3  C4  UNL     1     -35.866   6.081   4.215  1.00 20.00     0.033 C 
HETATM    4  C7  UNL     1     -34.410   5.938   4.696  1.00 20.00     0.067 C 
HETATM    5  N8  UNL     1     -32.937   5.024   2.700  1.00 20.00    -0.196 NA
ENDROOT
BRANCH   4   6
HETATM    6  C6  UNL     1     -33.860   7.306   5.209  1.00 20.00     0.139 C 
BRANCH   6   7
HETATM    7  C5  UNL     1     -33.007   8.085   4.191  1.00 20.00     0.029 C 
HETATM    8  C2  UNL     1     -32.139   9.146   4.859  1.00 20.00     0.007 C 
ENDBRANCH   6   7
BRANCH   6   9
HETATM    9  O9  UNL     1     -33.068   7.113   6.385  1.00 20.00    -0.394 OA
HETATM   10  H22 UNL     1     -33.372   6.284   6.784  1.00 20.00     0.210 HD
ENDBRANCH   6   9
ENDBRANCH   4   6
TORSDOF 3
ENDMDL
MODEL 3
REMARK VINA RESULT:      -4.1     12.078     12.969
REMARK  3 active torsions:
REMARK  status: ('A' for Active; 'I' for Inactive)
REMARK    1  A    between atoms: C5_5  and  C6_6 
REMARK    2  A    between atoms: C6_6  and  C7_7 
REMARK    3  A    between atoms: C6_6  and  O9_9 
ROOT
HETATM    1  C1  UNL     1     -41.667  13.959   4.834  1.00 20.00     0.071 C 
HETATM    2  C3  UNL     1     -42.248  12.548   6.752  1.00 20.00     0.033 C 
HETATM    3  C4  UNL     1     -41.215  14.792   7.104  1.00 20.00     0.033 C 
HETATM    4  C7  UNL     1     -41.220  13.553   6.189  1.00 20.00     0.067 C 
HETATM    5  N8  UNL     1     -42.017  14.278   3.774  1.00 20.00    -0.196 NA
ENDROOT
BRANCH   4   6
HETATM    6  C6  UNL     1     -39.803  12.901   6.132  1.00 20.00     0.139 C 
BRANCH   6   7
HETATM    7  C5  UNL     1     -39.736  11.560   5.378  1.00 20.00     0.029 C 
HETATM    8  C2  UNL     1     -38.952  11.670   4.075  1.00 20.00     0.007 C 
ENDBRANCH   6   7
BRANCH   6   9
HETATM    9  O9  UNL     1     -39.302  12.684   7.454  1.00 20.00    -0.394 OA
HETATM   10  H22 UNL     1     -39.667  11.836   7.746  1.00 20.00     0.210 HD
ENDBRANCH   6   9
ENDBRANCH   4   6
TORSDOF 3
ENDMDL
MODEL 4
REMARK VINA RESULT:      -4.0     12.644     13.574
REMARK  3 active torsions:
REMARK  status: ('A' for Active; 'I' for Inactive)
REMARK    1  A    between atoms: C5_5  and  C6_6 
REMARK    2  A    between atoms: C6_6  and  C7_7 
REMARK    3  A    between atoms: C6_6  and  O9_9 
ROOT
HETATM    1  C1  UNL     1     -42.181  12.680   6.949  1.00 20.00     0.071 C 
HETATM    2  C3  UNL     1     -41.101  14.873   7.127  1.00 20.00     0.033 C 
HETATM    3  C4  UNL     1     -41.789  13.982   4.901  1.00 20.00     0.033 C 
HETATM    4  C7  UNL     1     -41.221  13.590   6.278  1.00 20.00     0.067 C 
HETATM    5  N8  UNL     1     -42.932  11.968   7.475  1.00 20.00    -0.196 NA
ENDROOT
BRANCH   4   6
HETATM    6  C6  UNL     1     -39.825  12.908   6.129  1.00 20.00     0.139 C 
BRANCH   6   7
HETATM    7  C5  UNL     1     -39.825  11.601   5.316  1.00 20.00     0.029 C 
HETATM    8  C2  UNL     1     -38.946  11.695   4.073  1.00 20.00     0.007 C 
ENDBRANCH   6   7
BRANCH   6   9
HETATM    9  O9  UNL     1     -39.272  12.622   7.417  1.00 20.00    -0.394 OA
HETATM   10  H22 UNL     1     -39.671  11.788   7.704  1.00 20.00     0.210 HD
ENDBRANCH   6   9
ENDBRANCH   4   6
TORSDOF 3
ENDMDL
MODEL 5
REMARK VINA RESULT:      -4.0      1.617      2.132
REMARK  3 active torsions:
REMARK  status: ('A' for Active; 'I' for Inactive)
REMARK    1  A    between atoms: C5_5  and  C6_6 
REMARK    2  A    between atoms: C6_6  and  C7_7 
REMARK    3  A    between atoms: C6_6  and  O9_9 
ROOT
HETATM    1  C1  UNL     1     -35.476  14.170  -4.785  1.00 20.00     0.071 C 
HETATM    2  C3  UNL     1     -35.430  16.597  -5.119  1.00 20.00     0.033 C 
HETATM    3  C4  UNL     1     -33.961  15.109  -6.479  1.00 20.00     0.033 C 
HETATM    4  C7  UNL     1     -34.577  15.312  -5.082  1.00 20.00     0.067 C 
HETATM    5  N8  UNL     1     -36.180  13.276  -4.553  1.00 20.00    -0.196 NA
ENDROOT
BRANCH   4   6
HETATM    6  C6  UNL     1     -33.463  15.435  -3.996  1.00 20.00     0.139 C 
BRANCH   6   7
HETATM    7  C5  UNL     1     -33.255  16.854  -3.437  1.00 20.00     0.029 C 
HETATM    8  C2  UNL     1     -33.465  16.915  -1.928  1.00 20.00     0.007 C 
ENDBRANCH   6   7
BRANCH   6   9
HETATM    9  O9  UNL     1     -32.209  14.984  -4.518  1.00 20.00    -0.394 OA
HETATM   10  H22 UNL     1     -32.382  14.694  -5.426  1.00 20.00     0.210 HD
ENDBRANCH   6   9
ENDBRANCH   4   6
TORSDOF 3
ENDMDL
MODEL 6
REMARK VINA RESULT:      -3.9      1.446      2.037
REMARK  3 active torsions:
REMARK  status: ('A' for Active; 'I' for Inactive)
REMARK    1  A    between atoms: C5_5  and  C6_6 
REMARK    2  A    between atoms: C6_6  and  C7_7 
REMARK    3  A    between atoms: C6_6  and  O9_9 
ROOT
HETATM    1  C1  UNL     1     -35.386  16.729  -5.189  1.00 20.00     0.071 C 
HETATM    2  C3  UNL     1     -34.081  15.265  -6.659  1.00 20.00     0.033 C 
HETATM    3  C4  UNL     1     -36.058  14.376  -5.425  1.00 20.00     0.033 C 
HETATM    4  C7  UNL     1     -34.867  15.347  -5.333  1.00 20.00     0.067 C 
HETATM    5  N8  UNL     1     -35.793  17.811  -5.078  1.00 20.00    -0.196 NA
ENDROOT
BRANCH   4   6
HETATM    6  C6  UNL     1     -33.940  14.978  -4.133  1.00 20.00     0.139 C 
BRANCH   6   7
HETATM    7  C5  UNL     1     -33.057  16.128  -3.616  1.00 20.00     0.029 C 
HETATM    8  C2  UNL     1     -33.471  16.593  -2.224  1.00 20.00     0.007 C 
ENDBRANCH   6   7
BRANCH   6   9
HETATM    9  O9  UNL     1     -33.079  13.891  -4.487  1.00 20.00    -0.394 OA
HETATM   10  H22 UNL     1     -32.488  14.227  -5.177  1.00 20.00     0.210 HD
ENDBRANCH   6   9
ENDBRANCH   4   6
TORSDOF 3
ENDMDL
MODEL 7
REMARK VINA RESULT:      -3.8     18.244     19.053
REMARK  3 active torsions:
REMARK  status: ('A' for Active; 'I' for Inactive)
REMARK    1  A    between atoms: C5_5  and  C6_6 
REMARK    2  A    between atoms: C6_6  and  C7_7 
REMARK    3  A    between atoms: C6_6  and  O9_9 
ROOT
HETATM    1  C1  UNL     1     -25.513  18.521  11.867  1.00 20.00     0.071 C 
HETATM    2  C3  UNL     1     -24.298  16.419  11.529  1.00 20.00     0.033 C 
HETATM    3  C4  UNL     1     -23.057  18.532  11.996  1.00 20.00     0.033 C 
HETATM    4  C7  UNL     1     -24.283  17.941  11.274  1.00 20.00     0.067 C 
HETATM    5  N8  UNL     1     -26.475  18.975  12.332  1.00 20.00    -0.196 NA
ENDROOT
BRANCH   4   6
HETATM    6  C6  UNL     1     -24.217  18.232   9.742  1.00 20.00     0.139 C 
BRANCH   6   7
HETATM    7  C5  UNL     1     -22.975  19.017   9.283  1.00 20.00     0.029 C 
HETATM    8  C2  UNL     1     -22.070  18.187   8.379  1.00 20.00     0.007 C 
ENDBRANCH   6   7
BRANCH   6   9
HETATM    9  O9  UNL     1     -25.375  18.962   9.326  1.00 20.00    -0.394 OA
HETATM   10  H22 UNL     1     -26.041  18.301   9.086  1.00 20.00     0.210 HD
ENDBRANCH   6   9
ENDBRANCH   4   6
TORSDOF 3
ENDMDL
MODEL 8
REMARK VINA RESULT:      -3.8     12.965     13.881
REMARK  3 active torsions:
REMARK  status: ('A' for Active; 'I' for Inactive)
REMARK    1  A    between atoms: C5_5  and  C6_6 
REMARK    2  A    between atoms: C6_6  and  C7_7 
REMARK    3  A    between atoms: C6_6  and  O9_9 
ROOT
HETATM    1  C1  UNL     1     -41.791  14.572   7.515  1.00 20.00     0.071 C 
HETATM    2  C3  UNL     1     -42.027  14.113   5.119  1.00 20.00     0.033 C 
HETATM    3  C4  UNL     1     -42.517  12.334   6.799  1.00 20.00     0.033 C 
HETATM    4  C7  UNL     1     -41.596  13.527   6.480  1.00 20.00     0.067 C 
HETATM    5  N8  UNL     1     -41.945  15.390   8.325  1.00 20.00    -0.196 NA
ENDROOT
BRANCH   4   6
HETATM    6  C6  UNL     1     -40.103  13.076   6.425  1.00 20.00     0.139 C 
BRANCH   6   7
HETATM    7  C5  UNL     1     -39.870  11.677   5.826  1.00 20.00     0.029 C 
HETATM    8  C2  UNL     1     -39.201  11.741   4.457  1.00 20.00     0.007 C 
ENDBRANCH   6   7
BRANCH   6   9
HETATM    9  O9  UNL     1     -39.532  13.089   7.737  1.00 20.00    -0.394 OA
HETATM   10  H22 UNL     1     -39.187  12.198   7.892  1.00 20.00     0.210 HD
ENDBRANCH   6   9
ENDBRANCH   4   6
TORSDOF 3
ENDMDL
MODEL 9
REMARK VINA RESULT:      -3.8     18.581     19.291
REMARK  3 active torsions:
REMARK  status: ('A' for Active; 'I' for Inactive)
REMARK    1  A    between atoms: C5_5  and  C6_6 
REMARK    2  A    between atoms: C6_6  and  C7_7 
REMARK    3  A    between atoms: C6_6  and  O9_9 
ROOT
HETATM    1  C1  UNL     1     -22.930  17.389  10.037  1.00 20.00     0.071 C 
HETATM    2  C3  UNL     1     -22.496  18.141  12.329  1.00 20.00     0.033 C 
HETATM    3  C4  UNL     1     -24.242  16.418  11.876  1.00 20.00     0.033 C 
HETATM    4  C7  UNL     1     -23.587  17.700  11.330  1.00 20.00     0.067 C 
HETATM    5  N8  UNL     1     -22.415  17.145   9.025  1.00 20.00    -0.196 NA
ENDROOT
BRANCH   4   6
HETATM    6  C6  UNL     1     -24.647  18.833  11.153  1.00 20.00     0.139 C 
BRANCH   6   7
HETATM    7  C5  UNL     1     -25.623  18.997  12.332  1.00 20.00     0.029 C 
HETATM    8  C2  UNL     1     -27.051  19.261  11.865  1.00 20.00     0.007 C 
ENDBRANCH   6   7
BRANCH   6   9
HETATM    9  O9  UNL     1     -25.422  18.607   9.972  1.00 20.00    -0.394 OA
HETATM   10  H22 UNL     1     -26.344  18.546  10.261  1.00 20.00     0.210 HD
ENDBRANCH   6   9
ENDBRANCH   4   6
TORSDOF 3
ENDMDL
