MODEL 1
REMARK VINA RESULT:      -3.8      0.000      0.000
REMARK  4 active torsions:
REMARK  status: ('A' for Active; 'I' for Inactive)
REMARK    1  A    between atoms: C5_5  and  C7_7 
REMARK    2  A    between atoms: C6_6  and  C8_8 
REMARK    3  A    between atoms: C7_7  and  C8_8 
REMARK    4  A    between atoms: C8_8  and  O10_10 
ROOT
HETATM    1  C1  UNL     1     -31.768  18.724  -0.526  1.00 20.00     0.067 C 
HETATM    2  C7  UNL     1     -33.238  18.787  -0.725  1.00 20.00     0.126 C 
HETATM    3  N9  UNL     1     -30.619  18.679  -0.371  1.00 20.00    -0.197 NA
ENDROOT
BRANCH   2   4
HETATM    4  C5  UNL     1     -33.957  18.118   0.466  1.00 20.00     0.018 C 
HETATM    5  C2  UNL     1     -34.775  19.102   1.297  1.00 20.00     0.006 C 
ENDBRANCH   2   4
BRANCH   2   6
HETATM    6  C8  UNL     1     -33.635  18.196  -2.120  1.00 20.00     0.070 C 
HETATM    7  C4  UNL     1     -35.043  18.617  -2.564  1.00 20.00     0.047 C 
BRANCH   6   8
HETATM    8  C6  UNL     1     -33.494  16.651  -2.127  1.00 20.00     0.034 C 
HETATM    9  C3  UNL     1     -33.381  16.024  -3.514  1.00 20.00     0.008 C 
ENDBRANCH   6   8
BRANCH   6  10
HETATM   10  O10 UNL     1     -32.716  18.714  -3.096  1.00 20.00    -0.389 OA
HETATM   11  H25 UNL     1     -32.429  19.573  -2.759  1.00 20.00     0.210 HD
ENDBRANCH   6  10
ENDBRANCH   2   6
TORSDOF 4
ENDMDL
MODEL 2
REMARK VINA RESULT:      -3.8      4.328      5.933
REMARK  4 active torsions:
REMARK  status: ('A' for Active; 'I' for Inactive)
REMARK    1  A    between atoms: C5_5  and  C7_7 
REMARK    2  A    between atoms: C6_6  and  C8_8 
REMARK    3  A    between atoms: C7_7  and  C8_8 
REMARK    4  A    between atoms: C8_8  and  O10_10 
ROOT
HETATM    1  C1  UNL     1     -35.827  15.031  -6.643  1.00 20.00     0.067 C 
HETATM    2  C7  UNL     1     -35.567  15.782  -5.389  1.00 20.00     0.126 C 
HETATM    3  N9  UNL     1     -36.033  14.441  -7.621  1.00 20.00    -0.197 NA
ENDROOT
BRANCH   2   4
HETATM    4  C5  UNL     1     -35.882  17.279  -5.601  1.00 20.00     0.018 C 
HETATM    5  C2  UNL     1     -37.090  17.753  -4.797  1.00 20.00     0.006 C 
ENDBRANCH   2   4
BRANCH   2   6
HETATM    6  C8  UNL     1     -34.116  15.506  -4.868  1.00 20.00     0.070 C 
HETATM    7  C4  UNL     1     -34.030  14.251  -3.987  1.00 20.00     0.047 C 
BRANCH   6   8
HETATM    8  C6  UNL     1     -33.551  16.742  -4.121  1.00 20.00     0.034 C 
HETATM    9  C3  UNL     1     -33.408  16.569  -2.611  1.00 20.00     0.008 C 
ENDBRANCH   6   8
BRANCH   6  10
HETATM   10  O10 UNL     1     -33.275  15.274  -6.010  1.00 20.00    -0.389 OA
HETATM   11  H25 UNL     1     -33.223  14.314  -6.109  1.00 20.00     0.210 HD
ENDBRANCH   6  10
ENDBRANCH   2   6
TORSDOF 4
ENDMDL
MODEL 3
REMARK VINA RESULT:      -3.6      4.718      6.284
REMARK  4 active torsions:
REMARK  status: ('A' for Active; 'I' for Inactive)
REMARK    1  A    between atoms: C5_5  and  C7_7 
REMARK    2  A    between atoms: C6_6  and  C8_8 
REMARK    3  A    between atoms: C7_7  and  C8_8 
REMARK    4  A    between atoms: C8_8  and  O10_10 
ROOT
HETATM    1  C1  UNL     1     -35.249  14.001  -4.837  1.00 20.00     0.067 C 
HETATM    2  C7  UNL     1     -34.440  15.090  -5.440  1.00 20.00     0.126 C 
HETATM    3  N9  UNL     1     -35.879  13.147  -4.367  1.00 20.00    -0.197 NA
ENDROOT
BRANCH   2   4
HETATM    4  C5  UNL     1     -34.335  16.273  -4.452  1.00 20.00     0.018 C 
HETATM    5  C2  UNL     1     -33.277  16.056  -3.374  1.00 20.00     0.006 C 
ENDBRANCH   2   4
BRANCH   2   6
HETATM    6  C8  UNL     1     -35.004  15.486  -6.846  1.00 20.00     0.070 C 
HETATM    7  C4  UNL     1     -33.908  15.585  -7.918  1.00 20.00     0.047 C 
BRANCH   6   8
HETATM    8  C6  UNL     1     -35.817  16.804  -6.767  1.00 20.00     0.034 C 
HETATM    9  C3  UNL     1     -37.328  16.621  -6.664  1.00 20.00     0.008 C 
ENDBRANCH   6   8
BRANCH   6  10
HETATM   10  O10 UNL     1     -35.906  14.451  -7.267  1.00 20.00    -0.389 OA
HETATM   11  H25 UNL     1     -36.424  14.828  -7.991  1.00 20.00     0.210 HD
ENDBRANCH   6  10
ENDBRANCH   2   6
TORSDOF 4
ENDMDL
MODEL 4
REMARK VINA RESULT:      -3.6      2.793      3.807
REMARK  4 active torsions:
REMARK  status: ('A' for Active; 'I' for Inactive)
REMARK    1  A    between atoms: C5_5  and  C7_7 
REMARK    2  A    between atoms: C6_6  and  C8_8 
REMARK    3  A    between atoms: C7_7  and  C8_8 
REMARK    4  A    between atoms: C8_8  and  O10_10 
ROOT
HETATM    1  C1  UNL     1     -33.525  15.403  -3.832  1.00 20.00     0.067 C 
HETATM    2  C7  UNL     1     -33.227  16.793  -3.407  1.00 20.00     0.126 C 
HETATM    3  N9  UNL     1     -33.753  14.315  -4.166  1.00 20.00    -0.197 NA
ENDROOT
BRANCH   2   4
HETATM    4  C5  UNL     1     -33.574  16.970  -1.913  1.00 20.00     0.018 C 
HETATM    5  C2  UNL     1     -32.618  17.912  -1.187  1.00 20.00     0.006 C 
ENDBRANCH   2   4
BRANCH   2   6
HETATM    6  C8  UNL     1     -33.935  17.825  -4.349  1.00 20.00     0.070 C 
HETATM    7  C4  UNL     1     -33.137  19.127  -4.510  1.00 20.00     0.047 C 
BRANCH   6   8
HETATM    8  C6  UNL     1     -35.378  18.120  -3.863  1.00 20.00     0.034 C 
HETATM    9  C3  UNL     1     -36.482  17.660  -4.812  1.00 20.00     0.008 C 
ENDBRANCH   6   8
BRANCH   6  10
HETATM   10  O10 UNL     1     -34.036  17.233  -5.654  1.00 20.00    -0.389 OA
HETATM   11  H25 UNL     1     -33.960  16.279  -5.519  1.00 20.00     0.210 HD
ENDBRANCH   6  10
ENDBRANCH   2   6
TORSDOF 4
ENDMDL
MODEL 5
REMARK VINA RESULT:      -3.6      3.462      4.914
REMARK  4 active torsions:
REMARK  status: ('A' for Active; 'I' for Inactive)
REMARK    1  A    between atoms: C5_5  and  C7_7 
REMARK    2  A    between atoms: C6_6  and  C8_8 
REMARK    3  A    between atoms: C7_7  and  C8_8 
REMARK    4  A    between atoms: C8_8  and  O10_10 
ROOT
HETATM    1  C1  UNL     1     -34.312  17.754  -5.027  1.00 20.00     0.067 C 
HETATM    2  C7  UNL     1     -34.416  16.345  -4.574  1.00 20.00     0.126 C 
HETATM    3  N9  UNL     1     -34.235  18.857  -5.381  1.00 20.00    -0.197 NA
ENDROOT
BRANCH   2   4
HETATM    4  C5  UNL     1     -33.276  16.028  -3.582  1.00 20.00     0.018 C 
HETATM    5  C2  UNL     1     -33.394  16.803  -2.272  1.00 20.00     0.006 C 
ENDBRANCH   2   4
BRANCH   2   6
HETATM    6  C8  UNL     1     -34.480  15.371  -5.799  1.00 20.00     0.070 C 
HETATM    7  C4  UNL     1     -34.294  16.093  -7.142  1.00 20.00     0.047 C 
BRANCH   6   8
HETATM    8  C6  UNL     1     -35.799  14.555  -5.791  1.00 20.00     0.034 C 
HETATM    9  C3  UNL     1     -35.968  13.620  -4.596  1.00 20.00     0.008 C 
ENDBRANCH   6   8
BRANCH   6  10
HETATM   10  O10 UNL     1     -33.397  14.435  -5.674  1.00 20.00    -0.389 OA
HETATM   11  H25 UNL     1     -33.105  14.489  -4.755  1.00 20.00     0.210 HD
ENDBRANCH   6  10
ENDBRANCH   2   6
TORSDOF 4
ENDMDL
MODEL 6
REMARK VINA RESULT:      -3.6     11.208     12.418
REMARK  4 active torsions:
REMARK  status: ('A' for Active; 'I' for Inactive)
REMARK    1  A    between atoms: C5_5  and  C7_7 
REMARK    2  A    between atoms: C6_6  and  C8_8 
REMARK    3  A    between atoms: C7_7  and  C8_8 
REMARK    4  A    between atoms: C8_8  and  O10_10 
ROOT
HETATM    1  C1  UNL     1     -41.572  13.954   4.980  1.00 20.00     0.067 C 
HETATM    2  C7  UNL     1     -40.463  13.513   5.861  1.00 20.00     0.126 C 
HETATM    3  N9  UNL     1     -42.437  14.303   4.288  1.00 20.00    -0.197 NA
ENDROOT
BRANCH   2   4
HETATM    4  C5  UNL     1     -40.215  12.000   5.674  1.00 20.00     0.018 C 
HETATM    5  C2  UNL     1     -39.232  11.692   4.547  1.00 20.00     0.006 C 
ENDBRANCH   2   4
BRANCH   2   6
HETATM    6  C8  UNL     1     -40.733  13.933   7.346  1.00 20.00     0.070 C 
HETATM    7  C4  UNL     1     -42.119  13.497   7.843  1.00 20.00     0.047 C 
BRANCH   6   8
HETATM    8  C6  UNL     1     -40.535  15.459   7.535  1.00 20.00     0.034 C 
HETATM    9  C3  UNL     1     -40.456  15.920   8.988  1.00 20.00     0.008 C 
ENDBRANCH   6   8
BRANCH   6  10
HETATM   10  O10 UNL     1     -39.765  13.269   8.174  1.00 20.00    -0.389 OA
HETATM   11  H25 UNL     1     -39.867  13.649   9.057  1.00 20.00     0.210 HD
ENDBRANCH   6  10
ENDBRANCH   2   6
TORSDOF 4
ENDMDL
MODEL 7
REMARK VINA RESULT:      -3.5      3.759      4.968
REMARK  4 active torsions:
REMARK  status: ('A' for Active; 'I' for Inactive)
REMARK    1  A    between atoms: C5_5  and  C7_7 
REMARK    2  A    between atoms: C6_6  and  C8_8 
REMARK    3  A    between atoms: C7_7  and  C8_8 
REMARK    4  A    between atoms: C8_8  and  O10_10 
ROOT
HETATM    1  C1  UNL     1     -33.779  16.458  -3.779  1.00 20.00     0.067 C 
HETATM    2  C7  UNL     1     -34.367  16.640  -5.130  1.00 20.00     0.126 C 
HETATM    3  N9  UNL     1     -33.315  16.318  -2.724  1.00 20.00    -0.197 NA
ENDROOT
BRANCH   2   4
HETATM    4  C5  UNL     1     -35.748  17.321  -5.012  1.00 20.00     0.018 C 
HETATM    5  C2  UNL     1     -35.711  18.604  -4.186  1.00 20.00     0.006 C 
ENDBRANCH   2   4
BRANCH   2   6
HETATM    6  C8  UNL     1     -34.394  15.282  -5.911  1.00 20.00     0.070 C 
HETATM    7  C4  UNL     1     -33.974  15.435  -7.380  1.00 20.00     0.047 C 
BRANCH   6   8
HETATM    8  C6  UNL     1     -35.786  14.608  -5.803  1.00 20.00     0.034 C 
HETATM    9  C3  UNL     1     -35.933  13.619  -4.649  1.00 20.00     0.008 C 
ENDBRANCH   6   8
BRANCH   6  10
HETATM   10  O10 UNL     1     -33.442  14.401  -5.294  1.00 20.00    -0.389 OA
HETATM   11  H25 UNL     1     -33.586  14.480  -4.341  1.00 20.00     0.210 HD
ENDBRANCH   6  10
ENDBRANCH   2   6
TORSDOF 4
ENDMDL
MODEL 8
REMARK VINA RESULT:      -3.5      2.856      4.594
REMARK  4 active torsions:
REMARK  status: ('A' for Active; 'I' for Inactive)
REMARK    1  A    between atoms: C5_5  and  C7_7 
REMARK    2  A    between atoms: C6_6  and  C8_8 
REMARK    3  A    between atoms: C7_7  and  C8_8 
REMARK    4  A    between atoms: C8_8  and  O10_10 
ROOT
HETATM    1  C1  UNL     1     -34.825  16.864  -5.041  1.00 20.00     0.067 C 
HETATM    2  C7  UNL     1     -33.660  16.965  -4.127  1.00 20.00     0.126 C 
HETATM    3  N9  UNL     1     -35.734  16.788  -5.759  1.00 20.00    -0.197 NA
ENDROOT
BRANCH   2   4
HETATM    4  C5  UNL     1     -33.145  15.552  -3.777  1.00 20.00     0.018 C 
HETATM    5  C2  UNL     1     -34.125  14.448  -4.164  1.00 20.00     0.006 C 
ENDBRANCH   2   4
BRANCH   2   6
HETATM    6  C8  UNL     1     -34.011  17.840  -2.876  1.00 20.00     0.070 C 
HETATM    7  C4  UNL     1     -33.439  19.263  -2.968  1.00 20.00     0.047 C 
BRANCH   6   8
HETATM    8  C6  UNL     1     -33.551  17.146  -1.567  1.00 20.00     0.034 C 
HETATM    9  C3  UNL     1     -33.760  17.968  -0.298  1.00 20.00     0.008 C 
ENDBRANCH   6   8
BRANCH   6  10
HETATM   10  O10 UNL     1     -35.440  17.967  -2.814  1.00 20.00    -0.389 OA
HETATM   11  H25 UNL     1     -35.681  17.808  -1.892  1.00 20.00     0.210 HD
ENDBRANCH   6  10
ENDBRANCH   2   6
TORSDOF 4
ENDMDL
MODEL 9
REMARK VINA RESULT:      -3.5      3.945      5.953
REMARK  4 active torsions:
REMARK  status: ('A' for Active; 'I' for Inactive)
REMARK    1  A    between atoms: C5_5  and  C7_7 
REMARK    2  A    between atoms: C6_6  and  C8_8 
REMARK    3  A    between atoms: C7_7  and  C8_8 
REMARK    4  A    between atoms: C8_8  and  O10_10 
ROOT
HETATM    1  C1  UNL     1     -36.512  15.947  -5.595  1.00 20.00     0.067 C 
HETATM    2  C7  UNL     1     -35.135  16.457  -5.814  1.00 20.00     0.126 C 
HETATM    3  N9  UNL     1     -37.590  15.552  -5.426  1.00 20.00    -0.197 NA
ENDROOT
BRANCH   2   4
HETATM    4  C5  UNL     1     -34.221  15.308  -6.292  1.00 20.00     0.018 C 
HETATM    5  C2  UNL     1     -33.777  15.464  -7.743  1.00 20.00     0.006 C 
ENDBRANCH   2   4
BRANCH   2   6
HETATM    6  C8  UNL     1     -34.609  17.199  -4.539  1.00 20.00     0.070 C 
HETATM    7  C4  UNL     1     -33.954  18.549  -4.866  1.00 20.00     0.047 C 
BRANCH   6   8
HETATM    8  C6  UNL     1     -33.637  16.297  -3.735  1.00 20.00     0.034 C 
HETATM    9  C3  UNL     1     -33.366  16.760  -2.306  1.00 20.00     0.008 C 
ENDBRANCH   6   8
BRANCH   6  10
HETATM   10  O10 UNL     1     -35.736  17.475  -3.693  1.00 20.00    -0.389 OA
HETATM   11  H25 UNL     1     -36.294  16.686  -3.728  1.00 20.00     0.210 HD
ENDBRANCH   6  10
ENDBRANCH   2   6
TORSDOF 4
ENDMDL
