MODEL 1
REMARK VINA RESULT:      -4.0      0.000      0.000
REMARK  3 active torsions:
REMARK  status: ('A' for Active; 'I' for Inactive)
REMARK    1  A    between atoms: C6_6  and  C7_7 
REMARK    2  A    between atoms: C7_7  and  C8_8 
REMARK    3  A    between atoms: C8_8  and  O10_10 
ROOT
HETATM    1  C1  UNL     1     -24.154  16.768  11.466  1.00 20.00     0.072 C 
HETATM    2  C3  UNL     1     -22.900  18.711  12.257  1.00 20.00     0.034 C 
HETATM    3  C7  UNL     1     -23.685  18.124  11.060  1.00 20.00     0.075 C 
HETATM    4  N9  UNL     1     -24.518  15.713  11.785  1.00 20.00    -0.196 NA
ENDROOT
BRANCH   3   5
HETATM    5  C6  UNL     1     -24.935  19.006  10.753  1.00 20.00     0.023 C 
HETATM    6  C2  UNL     1     -25.968  19.108  11.875  1.00 20.00     0.007 C 
ENDBRANCH   3   5
BRANCH   3   7
HETATM    7  C8  UNL     1     -22.745  17.989   9.789  1.00 20.00     0.071 C 
HETATM    8  C4  UNL     1     -21.325  18.532  10.024  1.00 20.00     0.047 C 
HETATM    9  C5  UNL     1     -23.310  18.666   8.526  1.00 20.00     0.047 C 
BRANCH   7  10
HETATM   10  O10 UNL     1     -22.563  16.596   9.477  1.00 20.00    -0.389 OA
HETATM   11  H25 UNL     1     -23.400  16.166   9.696  1.00 20.00     0.210 HD
ENDBRANCH   7  10
ENDBRANCH   3   7
TORSDOF 3
ENDMDL
MODEL 2
REMARK VINA RESULT:      -3.9     18.984     20.254
REMARK  3 active torsions:
REMARK  status: ('A' for Active; 'I' for Inactive)
REMARK    1  A    between atoms: C6_6  and  C7_7 
REMARK    2  A    between atoms: C7_7  and  C8_8 
REMARK    3  A    between atoms: C8_8  and  O10_10 
ROOT
HETATM    1  C1  UNL     1     -33.841  15.279  -6.900  1.00 20.00     0.072 C 
HETATM    2  C3  UNL     1     -34.785  17.027  -5.477  1.00 20.00     0.034 C 
HETATM    3  C7  UNL     1     -34.523  15.506  -5.594  1.00 20.00     0.075 C 
HETATM    4  N9  UNL     1     -33.309  15.104  -7.918  1.00 20.00    -0.196 NA
ENDROOT
BRANCH   3   5
HETATM    5  C6  UNL     1     -33.570  15.037  -4.452  1.00 20.00     0.023 C 
HETATM    6  C2  UNL     1     -33.305  16.059  -3.346  1.00 20.00     0.007 C 
ENDBRANCH   3   5
BRANCH   3   7
HETATM    7  C8  UNL     1     -35.890  14.702  -5.575  1.00 20.00     0.071 C 
HETATM    8  C4  UNL     1     -37.124  15.605  -5.406  1.00 20.00     0.047 C 
HETATM    9  C5  UNL     1     -35.950  13.608  -4.493  1.00 20.00     0.047 C 
BRANCH   7  10
HETATM   10  O10 UNL     1     -36.077  14.051  -6.845  1.00 20.00    -0.389 OA
HETATM   11  H25 UNL     1     -35.233  13.627  -7.050  1.00 20.00     0.210 HD
ENDBRANCH   7  10
ENDBRANCH   3   7
TORSDOF 3
ENDMDL
MODEL 3
REMARK VINA RESULT:      -3.5     18.343     19.613
REMARK  3 active torsions:
REMARK  status: ('A' for Active; 'I' for Inactive)
REMARK    1  A    between atoms: C6_6  and  C7_7 
REMARK    2  A    between atoms: C7_7  and  C8_8 
REMARK    3  A    between atoms: C8_8  and  O10_10 
ROOT
HETATM    1  C1  UNL     1     -34.061  15.521  -6.903  1.00 20.00     0.072 C 
HETATM    2  C3  UNL     1     -36.070  15.592  -5.512  1.00 20.00     0.034 C 
HETATM    3  C7  UNL     1     -34.586  16.022  -5.600  1.00 20.00     0.075 C 
HETATM    4  N9  UNL     1     -33.655  15.129  -7.918  1.00 20.00    -0.196 NA
ENDROOT
BRANCH   3   5
HETATM    5  C6  UNL     1     -34.478  17.579  -5.592  1.00 20.00     0.023 C 
HETATM    6  C2  UNL     1     -35.788  18.337  -5.805  1.00 20.00     0.007 C 
ENDBRANCH   3   5
BRANCH   3   7
HETATM    7  C8  UNL     1     -33.747  15.378  -4.419  1.00 20.00     0.071 C 
HETATM    8  C4  UNL     1     -34.360  14.075  -3.879  1.00 20.00     0.047 C 
HETATM    9  C5  UNL     1     -33.522  16.327  -3.228  1.00 20.00     0.047 C 
BRANCH   7  10
HETATM   10  O10 UNL     1     -32.447  15.000  -4.909  1.00 20.00    -0.389 OA
HETATM   11  H25 UNL     1     -31.896  15.790  -4.828  1.00 20.00     0.210 HD
ENDBRANCH   7  10
ENDBRANCH   3   7
TORSDOF 3
ENDMDL
MODEL 4
REMARK VINA RESULT:      -3.5     17.519     18.843
REMARK  3 active torsions:
REMARK  status: ('A' for Active; 'I' for Inactive)
REMARK    1  A    between atoms: C6_6  and  C7_7 
REMARK    2  A    between atoms: C7_7  and  C8_8 
REMARK    3  A    between atoms: C8_8  and  O10_10 
ROOT
HETATM    1  C1  UNL     1     -40.451  12.243   6.011  1.00 20.00     0.072 C 
HETATM    2  C3  UNL     1     -42.713  12.322   6.931  1.00 20.00     0.034 C 
HETATM    3  C7  UNL     1     -41.505  13.182   6.489  1.00 20.00     0.075 C 
HETATM    4  N9  UNL     1     -39.631  11.510   5.639  1.00 20.00    -0.196 NA
ENDROOT
BRANCH   3   5
HETATM    5  C6  UNL     1     -41.913  14.111   5.304  1.00 20.00     0.023 C 
HETATM    6  C2  UNL     1     -43.412  14.361   5.141  1.00 20.00     0.007 C 
ENDBRANCH   3   5
BRANCH   3   7
HETATM    7  C8  UNL     1     -40.939  14.020   7.712  1.00 20.00     0.071 C 
HETATM    8  C4  UNL     1     -41.905  14.077   8.908  1.00 20.00     0.047 C 
HETATM    9  C5  UNL     1     -40.550  15.464   7.347  1.00 20.00     0.047 C 
BRANCH   7  10
HETATM   10  O10 UNL     1     -39.756  13.378   8.221  1.00 20.00    -0.389 OA
HETATM   11  H25 UNL     1     -39.925  13.220   9.159  1.00 20.00     0.210 HD
ENDBRANCH   7  10
ENDBRANCH   3   7
TORSDOF 3
ENDMDL
MODEL 5
REMARK VINA RESULT:      -3.5     24.207     24.945
REMARK  3 active torsions:
REMARK  status: ('A' for Active; 'I' for Inactive)
REMARK    1  A    between atoms: C6_6  and  C7_7 
REMARK    2  A    between atoms: C7_7  and  C8_8 
REMARK    3  A    between atoms: C8_8  and  O10_10 
ROOT
HETATM    1  C1  UNL     1     -42.785   4.947  -1.074  1.00 20.00     0.072 C 
HETATM    2  C3  UNL     1     -40.520   5.572  -0.403  1.00 20.00     0.034 C 
HETATM    3  C7  UNL     1     -42.011   5.624   0.006  1.00 20.00     0.075 C 
HETATM    4  N9  UNL     1     -43.385   4.420  -1.917  1.00 20.00    -0.196 NA
ENDROOT
BRANCH   3   5
HETATM    5  C6  UNL     1     -42.231   4.837   1.335  1.00 20.00     0.023 C 
HETATM    6  C2  UNL     1     -43.385   3.834   1.331  1.00 20.00     0.007 C 
ENDBRANCH   3   5
BRANCH   3   7
HETATM    7  C8  UNL     1     -42.503   7.126   0.135  1.00 20.00     0.071 C 
HETATM    8  C4  UNL     1     -41.367   8.152  -0.020  1.00 20.00     0.047 C 
HETATM    9  C5  UNL     1     -43.239   7.427   1.453  1.00 20.00     0.047 C 
BRANCH   7  10
HETATM   10  O10 UNL     1     -43.417   7.421  -0.936  1.00 20.00    -0.389 OA
HETATM   11  H25 UNL     1     -43.659   8.350  -0.827  1.00 20.00     0.210 HD
ENDBRANCH   7  10
ENDBRANCH   3   7
TORSDOF 3
ENDMDL
MODEL 6
REMARK VINA RESULT:      -3.5     17.762     18.830
REMARK  3 active torsions:
REMARK  status: ('A' for Active; 'I' for Inactive)
REMARK    1  A    between atoms: C6_6  and  C7_7 
REMARK    2  A    between atoms: C7_7  and  C8_8 
REMARK    3  A    between atoms: C8_8  and  O10_10 
ROOT
HETATM    1  C1  UNL     1     -42.481  12.291   6.906  1.00 20.00     0.072 C 
HETATM    2  C3  UNL     1     -41.679  13.918   5.268  1.00 20.00     0.034 C 
HETATM    3  C7  UNL     1     -41.281  13.082   6.508  1.00 20.00     0.075 C 
HETATM    4  N9  UNL     1     -43.417  11.677   7.215  1.00 20.00    -0.196 NA
ENDROOT
BRANCH   3   5
HETATM    5  C6  UNL     1     -40.136  12.087   6.139  1.00 20.00     0.023 C 
HETATM    6  C2  UNL     1     -39.673  12.117   4.683  1.00 20.00     0.007 C 
ENDBRANCH   3   5
BRANCH   3   7
HETATM    7  C8  UNL     1     -40.860  14.029   7.708  1.00 20.00     0.071 C 
HETATM    8  C4  UNL     1     -41.951  14.169   8.782  1.00 20.00     0.047 C 
HETATM    9  C5  UNL     1     -40.444  15.444   7.265  1.00 20.00     0.047 C 
BRANCH   7  10
HETATM   10  O10 UNL     1     -39.734  13.454   8.395  1.00 20.00    -0.389 OA
HETATM   11  H25 UNL     1     -39.931  13.536   9.338  1.00 20.00     0.210 HD
ENDBRANCH   7  10
ENDBRANCH   3   7
TORSDOF 3
ENDMDL
MODEL 7
REMARK VINA RESULT:      -3.4     18.611     19.817
REMARK  3 active torsions:
REMARK  status: ('A' for Active; 'I' for Inactive)
REMARK    1  A    between atoms: C6_6  and  C7_7 
REMARK    2  A    between atoms: C7_7  and  C8_8 
REMARK    3  A    between atoms: C8_8  and  O10_10 
ROOT
HETATM    1  C1  UNL     1     -33.958  15.298  -6.837  1.00 20.00     0.072 C 
HETATM    2  C3  UNL     1     -33.518  14.682  -4.513  1.00 20.00     0.034 C 
HETATM    3  C7  UNL     1     -34.475  15.460  -5.448  1.00 20.00     0.075 C 
HETATM    4  N9  UNL     1     -33.553  15.170  -7.917  1.00 20.00    -0.196 NA
ENDROOT
BRANCH   3   5
HETATM    5  C6  UNL     1     -35.907  14.846  -5.380  1.00 20.00     0.023 C 
HETATM    6  C2  UNL     1     -36.042  13.563  -4.561  1.00 20.00     0.007 C 
ENDBRANCH   3   5
BRANCH   3   7
HETATM    7  C8  UNL     1     -34.488  17.002  -5.075  1.00 20.00     0.071 C 
HETATM    8  C4  UNL     1     -33.671  17.329  -3.813  1.00 20.00     0.047 C 
HETATM    9  C5  UNL     1     -35.902  17.582  -4.889  1.00 20.00     0.047 C 
BRANCH   7  10
HETATM   10  O10 UNL     1     -33.859  17.752  -6.129  1.00 20.00    -0.389 OA
HETATM   11  H25 UNL     1     -33.946  17.211  -6.925  1.00 20.00     0.210 HD
ENDBRANCH   7  10
ENDBRANCH   3   7
TORSDOF 3
ENDMDL
MODEL 8
REMARK VINA RESULT:      -3.4     19.148     20.400
REMARK  3 active torsions:
REMARK  status: ('A' for Active; 'I' for Inactive)
REMARK    1  A    between atoms: C6_6  and  C7_7 
REMARK    2  A    between atoms: C7_7  and  C8_8 
REMARK    3  A    between atoms: C8_8  and  O10_10 
ROOT
HETATM    1  C1  UNL     1     -35.477  14.178  -4.896  1.00 20.00     0.072 C 
HETATM    2  C3  UNL     1     -34.120  15.174  -6.667  1.00 20.00     0.034 C 
HETATM    3  C7  UNL     1     -35.106  15.482  -5.515  1.00 20.00     0.075 C 
HETATM    4  N9  UNL     1     -35.765  13.161  -4.416  1.00 20.00    -0.196 NA
ENDROOT
BRANCH   3   5
HETATM    5  C6  UNL     1     -34.407  16.361  -4.431  1.00 20.00     0.023 C 
HETATM    6  C2  UNL     1     -33.228  15.710  -3.707  1.00 20.00     0.007 C 
ENDBRANCH   3   5
BRANCH   3   7
HETATM    7  C8  UNL     1     -36.414  16.184  -6.073  1.00 20.00     0.071 C 
HETATM    8  C4  UNL     1     -36.525  16.130  -7.606  1.00 20.00     0.047 C 
HETATM    9  C5  UNL     1     -36.563  17.653  -5.637  1.00 20.00     0.047 C 
BRANCH   7  10
HETATM   10  O10 UNL     1     -37.573  15.481  -5.592  1.00 20.00    -0.389 OA
HETATM   11  H25 UNL     1     -37.621  14.667  -6.111  1.00 20.00     0.210 HD
ENDBRANCH   7  10
ENDBRANCH   3   7
TORSDOF 3
ENDMDL
MODEL 9
REMARK VINA RESULT:      -3.4     24.011     24.810
REMARK  3 active torsions:
REMARK  status: ('A' for Active; 'I' for Inactive)
REMARK    1  A    between atoms: C6_6  and  C7_7 
REMARK    2  A    between atoms: C7_7  and  C8_8 
REMARK    3  A    between atoms: C8_8  and  O10_10 
ROOT
HETATM    1  C1  UNL     1     -42.410   5.203  -1.202  1.00 20.00     0.072 C 
HETATM    2  C3  UNL     1     -43.367   7.190  -0.148  1.00 20.00     0.034 C 
HETATM    3  C7  UNL     1     -42.320   6.062   0.013  1.00 20.00     0.075 C 
HETATM    4  N9  UNL     1     -42.482   4.536  -2.150  1.00 20.00    -0.196 NA
ENDROOT
BRANCH   3   5
HETATM    5  C6  UNL     1     -40.884   6.668   0.083  1.00 20.00     0.023 C 
HETATM    6  C2  UNL     1     -40.809   8.166   0.380  1.00 20.00     0.007 C 
ENDBRANCH   3   5
BRANCH   3   7
HETATM    7  C8  UNL     1     -42.639   5.183   1.295  1.00 20.00     0.071 C 
HETATM    8  C4  UNL     1     -43.417   3.897   0.971  1.00 20.00     0.047 C 
HETATM    9  C5  UNL     1     -43.410   5.942   2.390  1.00 20.00     0.047 C 
BRANCH   7  10
HETATM   10  O10 UNL     1     -41.405   4.732   1.882  1.00 20.00    -0.389 OA
HETATM   11  H25 UNL     1     -40.794   5.478   1.816  1.00 20.00     0.210 HD
ENDBRANCH   7  10
ENDBRANCH   3   7
TORSDOF 3
ENDMDL
