MODEL 1
REMARK VINA RESULT:      -3.8      0.000      0.000
REMARK  4 active torsions:
REMARK  status: ('A' for Active; 'I' for Inactive)
REMARK    1  A    between atoms: C4_4  and  C9_9 
REMARK    2  A    between atoms: C7_7  and  C8_8 
REMARK    3  A    between atoms: C8_8  and  C9_9 
REMARK    4  A    between atoms: C9_9  and  O11_11 
ROOT
HETATM    1  C1  UNL     1     -41.263  15.534   6.753  1.00 20.00     0.067 C 
HETATM    2  C8  UNL     1     -40.516  14.276   6.997  1.00 20.00     0.126 C 
HETATM    3  N10 UNL     1     -41.845  16.520   6.564  1.00 20.00    -0.197 NA
ENDROOT
BRANCH   2   4
HETATM    4  C7  UNL     1     -40.500  13.989   8.517  1.00 20.00     0.018 C 
HETATM    5  C5  UNL     1     -40.131  15.211   9.354  1.00 20.00     0.006 C 
ENDBRANCH   2   4
BRANCH   2   6
HETATM    6  C9  UNL     1     -41.113  13.099   6.156  1.00 20.00     0.074 C 
HETATM    7  C6  UNL     1     -42.356  12.530   6.814  1.00 20.00     0.047 C 
BRANCH   6   8
HETATM    8  C4  UNL     1     -40.096  11.958   5.962  1.00 20.00     0.021 A 
HETATM    9  C2  UNL     1     -39.473  11.719   4.614  1.00 20.00     0.008 A 
HETATM   10  C3  UNL     1     -38.642  12.270   5.740  1.00 20.00     0.008 A 
ENDBRANCH   6   8
BRANCH   6  11
HETATM   11  O11 UNL     1     -41.477  13.592   4.862  1.00 20.00    -0.388 OA
HETATM   12  H26 UNL     1     -42.398  13.881   4.932  1.00 20.00     0.210 HD
ENDBRANCH   6  11
ENDBRANCH   2   6
TORSDOF 4
ENDMDL
MODEL 2
REMARK VINA RESULT:      -3.7     12.699     14.056
REMARK  4 active torsions:
REMARK  status: ('A' for Active; 'I' for Inactive)
REMARK    1  A    between atoms: C4_4  and  C9_9 
REMARK    2  A    between atoms: C7_7  and  C8_8 
REMARK    3  A    between atoms: C8_8  and  C9_9 
REMARK    4  A    between atoms: C9_9  and  O11_11 
ROOT
HETATM    1  C1  UNL     1     -35.467  13.927  -4.650  1.00 20.00     0.067 C 
HETATM    2  C8  UNL     1     -34.899  15.230  -5.074  1.00 20.00     0.126 C 
HETATM    3  N10 UNL     1     -35.911  12.909  -4.313  1.00 20.00    -0.197 NA
ENDROOT
BRANCH   2   4
HETATM    4  C7  UNL     1     -33.429  15.314  -4.598  1.00 20.00     0.018 C 
HETATM    5  C5  UNL     1     -33.246  16.208  -3.373  1.00 20.00     0.006 C 
ENDBRANCH   2   4
BRANCH   2   6
HETATM    6  C9  UNL     1     -35.057  15.432  -6.617  1.00 20.00     0.074 C 
HETATM    7  C6  UNL     1     -33.720  15.315  -7.326  1.00 20.00     0.047 C 
BRANCH   6   8
HETATM    8  C4  UNL     1     -35.672  16.804  -6.957  1.00 20.00     0.021 A 
HETATM    9  C2  UNL     1     -36.200  17.689  -5.862  1.00 20.00     0.008 A 
HETATM   10  C3  UNL     1     -34.944  18.069  -6.595  1.00 20.00     0.008 A 
ENDBRANCH   6   8
BRANCH   6  11
HETATM   11  O11 UNL     1     -35.928  14.418  -7.131  1.00 20.00    -0.388 OA
HETATM   12  H26 UNL     1     -35.806  13.645  -6.562  1.00 20.00     0.210 HD
ENDBRANCH   6  11
ENDBRANCH   2   6
TORSDOF 4
ENDMDL
MODEL 3
REMARK VINA RESULT:      -3.7      1.763      3.703
REMARK  4 active torsions:
REMARK  status: ('A' for Active; 'I' for Inactive)
REMARK    1  A    between atoms: C4_4  and  C9_9 
REMARK    2  A    between atoms: C7_7  and  C8_8 
REMARK    3  A    between atoms: C8_8  and  C9_9 
REMARK    4  A    between atoms: C9_9  and  O11_11 
ROOT
HETATM    1  C1  UNL     1     -41.542  13.644   4.805  1.00 20.00     0.067 C 
HETATM    2  C8  UNL     1     -41.206  12.888   6.037  1.00 20.00     0.126 C 
HETATM    3  N10 UNL     1     -41.804  14.230   3.839  1.00 20.00    -0.197 NA
ENDROOT
BRANCH   2   4
HETATM    4  C7  UNL     1     -39.713  12.486   5.987  1.00 20.00     0.018 C 
HETATM    5  C5  UNL     1     -39.333  11.752   4.703  1.00 20.00     0.006 C 
ENDBRANCH   2   4
BRANCH   2   6
HETATM    6  C9  UNL     1     -41.578  13.710   7.315  1.00 20.00     0.074 C 
HETATM    7  C6  UNL     1     -42.579  14.805   6.992  1.00 20.00     0.047 C 
BRANCH   6   8
HETATM    8  C4  UNL     1     -40.339  14.358   7.962  1.00 20.00     0.021 A 
HETATM    9  C2  UNL     1     -40.373  15.799   8.390  1.00 20.00     0.008 A 
HETATM   10  C3  UNL     1     -40.346  14.709   9.425  1.00 20.00     0.008 A 
ENDBRANCH   6   8
BRANCH   6  11
HETATM   11  O11 UNL     1     -42.171  12.831   8.277  1.00 20.00    -0.388 OA
HETATM   12  H26 UNL     1     -41.701  12.984   9.109  1.00 20.00     0.210 HD
ENDBRANCH   6  11
ENDBRANCH   2   6
TORSDOF 4
ENDMDL
MODEL 4
REMARK VINA RESULT:      -3.6      9.919     10.974
REMARK  4 active torsions:
REMARK  status: ('A' for Active; 'I' for Inactive)
REMARK    1  A    between atoms: C4_4  and  C9_9 
REMARK    2  A    between atoms: C7_7  and  C8_8 
REMARK    3  A    between atoms: C8_8  and  C9_9 
REMARK    4  A    between atoms: C9_9  and  O11_11 
ROOT
HETATM    1  C1  UNL     1     -32.652   6.162   2.789  1.00 20.00     0.067 C 
HETATM    2  C8  UNL     1     -32.338   7.539   3.243  1.00 20.00     0.126 C 
HETATM    3  N10 UNL     1     -32.895   5.086   2.430  1.00 20.00    -0.197 NA
ENDROOT
BRANCH   2   4
HETATM    4  C7  UNL     1     -32.588   8.522   2.074  1.00 20.00     0.018 C 
HETATM    5  C5  UNL     1     -31.903   8.097   0.777  1.00 20.00     0.006 C 
ENDBRANCH   2   4
BRANCH   2   6
HETATM    6  C9  UNL     1     -33.147   7.900   4.533  1.00 20.00     0.074 C 
HETATM    7  C6  UNL     1     -32.422   8.945   5.361  1.00 20.00     0.047 C 
BRANCH   6   8
HETATM    8  C4  UNL     1     -33.399   6.665   5.418  1.00 20.00     0.021 A 
HETATM    9  C2  UNL     1     -34.276   6.770   6.634  1.00 20.00     0.008 A 
HETATM   10  C3  UNL     1     -34.751   6.005   5.430  1.00 20.00     0.008 A 
ENDBRANCH   6   8
BRANCH   6  11
HETATM   11  O11 UNL     1     -34.418   8.435   4.148  1.00 20.00    -0.388 OA
HETATM   12  H26 UNL     1     -34.651   9.088   4.824  1.00 20.00     0.210 HD
ENDBRANCH   6  11
ENDBRANCH   2   6
TORSDOF 4
ENDMDL
MODEL 5
REMARK VINA RESULT:      -3.6     12.221     13.190
REMARK  4 active torsions:
REMARK  status: ('A' for Active; 'I' for Inactive)
REMARK    1  A    between atoms: C4_4  and  C9_9 
REMARK    2  A    between atoms: C7_7  and  C8_8 
REMARK    3  A    between atoms: C8_8  and  C9_9 
REMARK    4  A    between atoms: C9_9  and  O11_11 
ROOT
HETATM    1  C1  UNL     1     -35.034  17.885  -3.805  1.00 20.00     0.067 C 
HETATM    2  C8  UNL     1     -34.009  16.854  -4.102  1.00 20.00     0.126 C 
HETATM    3  N10 UNL     1     -35.832  18.694  -3.571  1.00 20.00    -0.197 NA
ENDROOT
BRANCH   2   4
HETATM    4  C7  UNL     1     -33.324  16.433  -2.780  1.00 20.00     0.018 C 
HETATM    5  C5  UNL     1     -32.956  17.619  -1.891  1.00 20.00     0.006 C 
ENDBRANCH   2   4
BRANCH   2   6
HETATM    6  C9  UNL     1     -34.637  15.650  -4.878  1.00 20.00     0.074 C 
HETATM    7  C6  UNL     1     -34.257  14.326  -4.240  1.00 20.00     0.047 C 
BRANCH   6   8
HETATM    8  C4  UNL     1     -34.195  15.624  -6.354  1.00 20.00     0.021 A 
HETATM    9  C2  UNL     1     -35.214  15.460  -7.447  1.00 20.00     0.008 A 
HETATM   10  C3  UNL     1     -34.518  16.780  -7.261  1.00 20.00     0.008 A 
ENDBRANCH   6   8
BRANCH   6  11
HETATM   11  O11 UNL     1     -36.063  15.770  -4.846  1.00 20.00    -0.388 OA
HETATM   12  H26 UNL     1     -36.353  15.331  -4.033  1.00 20.00     0.210 HD
ENDBRANCH   6  11
ENDBRANCH   2   6
TORSDOF 4
ENDMDL
MODEL 6
REMARK VINA RESULT:      -3.6     11.712     13.353
REMARK  4 active torsions:
REMARK  status: ('A' for Active; 'I' for Inactive)
REMARK    1  A    between atoms: C4_4  and  C9_9 
REMARK    2  A    between atoms: C7_7  and  C8_8 
REMARK    3  A    between atoms: C8_8  and  C9_9 
REMARK    4  A    between atoms: C9_9  and  O11_11 
ROOT
HETATM    1  C1  UNL     1     -34.135  15.024  -4.422  1.00 20.00     0.067 C 
HETATM    2  C8  UNL     1     -34.218  16.399  -4.973  1.00 20.00     0.126 C 
HETATM    3  N10 UNL     1     -34.070  13.947  -3.996  1.00 20.00    -0.197 NA
ENDROOT
BRANCH   2   4
HETATM    4  C7  UNL     1     -35.487  16.512  -5.851  1.00 20.00     0.018 C 
HETATM    5  C5  UNL     1     -35.619  15.376  -6.862  1.00 20.00     0.006 C 
ENDBRANCH   2   4
BRANCH   2   6
HETATM    6  C9  UNL     1     -34.168  17.463  -3.827  1.00 20.00     0.074 C 
HETATM    7  C6  UNL     1     -33.616  18.785  -4.329  1.00 20.00     0.047 C 
BRANCH   6   8
HETATM    8  C4  UNL     1     -33.303  16.992  -2.642  1.00 20.00     0.021 A 
HETATM    9  C2  UNL     1     -32.549  17.991  -1.809  1.00 20.00     0.008 A 
HETATM   10  C3  UNL     1     -33.736  17.273  -1.230  1.00 20.00     0.008 A 
ENDBRANCH   6   8
BRANCH   6  11
HETATM   11  O11 UNL     1     -35.496  17.687  -3.343  1.00 20.00    -0.388 OA
HETATM   12  H26 UNL     1     -35.435  18.421  -2.714  1.00 20.00     0.210 HD
ENDBRANCH   6  11
ENDBRANCH   2   6
TORSDOF 4
ENDMDL
MODEL 7
REMARK VINA RESULT:      -3.6     12.116     13.737
REMARK  4 active torsions:
REMARK  status: ('A' for Active; 'I' for Inactive)
REMARK    1  A    between atoms: C4_4  and  C9_9 
REMARK    2  A    between atoms: C7_7  and  C8_8 
REMARK    3  A    between atoms: C8_8  and  C9_9 
REMARK    4  A    between atoms: C9_9  and  O11_11 
ROOT
HETATM    1  C1  UNL     1     -36.716  16.088  -5.542  1.00 20.00     0.067 C 
HETATM    2  C8  UNL     1     -35.261  16.373  -5.586  1.00 20.00     0.126 C 
HETATM    3  N10 UNL     1     -37.853  15.860  -5.510  1.00 20.00    -0.197 NA
ENDROOT
BRANCH   2   4
HETATM    4  C7  UNL     1     -34.856  16.691  -7.045  1.00 20.00     0.018 C 
HETATM    5  C5  UNL     1     -33.960  15.621  -7.666  1.00 20.00     0.006 C 
ENDBRANCH   2   4
BRANCH   2   6
HETATM    6  C9  UNL     1     -34.885  17.513  -4.583  1.00 20.00     0.074 C 
HETATM    7  C6  UNL     1     -34.771  18.852  -5.290  1.00 20.00     0.047 C 
BRANCH   6   8
HETATM    8  C4  UNL     1     -33.554  17.228  -3.861  1.00 20.00     0.021 A 
HETATM    9  C2  UNL     1     -33.552  16.762  -2.432  1.00 20.00     0.008 A 
HETATM   10  C3  UNL     1     -33.160  15.815  -3.531  1.00 20.00     0.008 A 
ENDBRANCH   6   8
BRANCH   6  11
HETATM   11  O11 UNL     1     -35.912  17.616  -3.591  1.00 20.00    -0.388 OA
HETATM   12  H26 UNL     1     -36.582  16.959  -3.827  1.00 20.00     0.210 HD
ENDBRANCH   6  11
ENDBRANCH   2   6
TORSDOF 4
ENDMDL
MODEL 8
REMARK VINA RESULT:      -3.5     11.522     12.997
REMARK  4 active torsions:
REMARK  status: ('A' for Active; 'I' for Inactive)
REMARK    1  A    between atoms: C4_4  and  C9_9 
REMARK    2  A    between atoms: C7_7  and  C8_8 
REMARK    3  A    between atoms: C8_8  and  C9_9 
REMARK    4  A    between atoms: C9_9  and  O11_11 
ROOT
HETATM    1  C1  UNL     1     -34.412  17.505  -5.180  1.00 20.00     0.067 C 
HETATM    2  C8  UNL     1     -34.314  16.928  -3.817  1.00 20.00     0.126 C 
HETATM    3  N10 UNL     1     -34.490  17.951  -6.248  1.00 20.00    -0.197 NA
ENDROOT
BRANCH   2   4
HETATM    4  C7  UNL     1     -33.262  15.793  -3.827  1.00 20.00     0.018 C 
HETATM    5  C5  UNL     1     -33.837  14.447  -4.260  1.00 20.00     0.006 C 
ENDBRANCH   2   4
BRANCH   2   6
HETATM    6  C9  UNL     1     -34.006  18.041  -2.761  1.00 20.00     0.074 C 
HETATM    7  C6  UNL     1     -33.045  19.075  -3.317  1.00 20.00     0.047 C 
BRANCH   6   8
HETATM    8  C4  UNL     1     -33.401  17.457  -1.470  1.00 20.00     0.021 A 
HETATM    9  C2  UNL     1     -32.353  18.222  -0.711  1.00 20.00     0.008 A 
HETATM   10  C3  UNL     1     -33.733  18.066  -0.136  1.00 20.00     0.008 A 
ENDBRANCH   6   8
BRANCH   6  11
HETATM   11  O11 UNL     1     -35.227  18.704  -2.416  1.00 20.00    -0.388 OA
HETATM   12  H26 UNL     1     -35.801  18.634  -3.193  1.00 20.00     0.210 HD
ENDBRANCH   6  11
ENDBRANCH   2   6
TORSDOF 4
ENDMDL
MODEL 9
REMARK VINA RESULT:      -3.5     13.225     14.039
REMARK  4 active torsions:
REMARK  status: ('A' for Active; 'I' for Inactive)
REMARK    1  A    between atoms: C4_4  and  C9_9 
REMARK    2  A    between atoms: C7_7  and  C8_8 
REMARK    3  A    between atoms: C8_8  and  C9_9 
REMARK    4  A    between atoms: C9_9  and  O11_11 
ROOT
HETATM    1  C1  UNL     1     -34.410  17.463  -6.990  1.00 20.00     0.067 C 
HETATM    2  C8  UNL     1     -34.997  16.795  -5.803  1.00 20.00     0.126 C 
HETATM    3  N10 UNL     1     -33.952  17.990  -7.917  1.00 20.00    -0.197 NA
ENDROOT
BRANCH   2   4
HETATM    4  C7  UNL     1     -36.527  17.030  -5.801  1.00 20.00     0.018 C 
HETATM    5  C5  UNL     1     -37.012  17.807  -4.579  1.00 20.00     0.006 C 
ENDBRANCH   2   4
BRANCH   2   6
HETATM    6  C9  UNL     1     -34.609  15.279  -5.766  1.00 20.00     0.074 C 
HETATM    7  C6  UNL     1     -35.807  14.398  -6.068  1.00 20.00     0.047 C 
BRANCH   6   8
HETATM    8  C4  UNL     1     -34.033  14.867  -4.398  1.00 20.00     0.021 A 
HETATM    9  C2  UNL     1     -32.550  14.915  -4.155  1.00 20.00     0.008 A 
HETATM   10  C3  UNL     1     -33.455  15.906  -3.476  1.00 20.00     0.008 A 
ENDBRANCH   6   8
BRANCH   6  11
HETATM   11  O11 UNL     1     -33.608  15.033  -6.760  1.00 20.00    -0.388 OA
HETATM   12  H26 UNL     1     -33.595  15.815  -7.329  1.00 20.00     0.210 HD
ENDBRANCH   6  11
ENDBRANCH   2   6
TORSDOF 4
ENDMDL
