MODEL 1
REMARK VINA RESULT:      -4.5      0.000      0.000
REMARK  3 active torsions:
REMARK  status: ('A' for Active; 'I' for Inactive)
REMARK    1  A    between atoms: C3_3  and  C11_11 
REMARK    2  A    between atoms: C8_8  and  N12_12 
REMARK    3  A    between atoms: C11_11  and  N12_12 
ROOT
HETATM    1  C1  UNL     1     -35.202  15.017  -5.373  1.00 20.00     0.127 C 
HETATM    2  C4  UNL     1     -35.270  16.448  -5.860  1.00 20.00     0.080 C 
HETATM    3  C5  UNL     1     -33.961  14.620  -4.606  1.00 20.00     0.080 C 
HETATM    4  C6  UNL     1     -34.954  17.417  -4.726  1.00 20.00     0.040 C 
HETATM    5  C7  UNL     1     -33.671  15.626  -3.497  1.00 20.00     0.040 C 
HETATM    6  C8  UNL     1     -33.638  17.052  -4.044  1.00 20.00     0.189 C 
HETATM    7  O13 UNL     1     -36.065  14.192  -5.676  1.00 20.00    -0.298 OA
ENDROOT
BRANCH   6   8
HETATM    8  N12 UNL     1     -33.409  17.992  -2.913  1.00 20.00    -0.067 N 
HETATM    9  C10 UNL     1     -34.250  19.238  -3.020  1.00 20.00     0.270 C 
HETATM   10  H33 UNL     1     -32.424  18.303  -2.960  1.00 20.00     0.280 HD
BRANCH   8  11
HETATM   11  C11 UNL     1     -33.575  17.330  -1.569  1.00 20.00     0.268 C 
BRANCH  11  12
HETATM   12  C3  UNL     1     -33.010  18.129  -0.429  1.00 20.00    -0.068 C 
HETATM   13  C2  UNL     1     -33.758  18.464   0.632  1.00 20.00     0.015 C 
HETATM   14  C9  UNL     1     -31.560  18.510  -0.519  1.00 20.00     0.044 C 
ENDBRANCH  11  12
ENDBRANCH   8  11
ENDBRANCH   6   8
TORSDOF 3
ENDMDL
MODEL 2
REMARK VINA RESULT:      -4.2      2.998      5.728
REMARK  3 active torsions:
REMARK  status: ('A' for Active; 'I' for Inactive)
REMARK    1  A    between atoms: C3_3  and  C11_11 
REMARK    2  A    between atoms: C8_8  and  N12_12 
REMARK    3  A    between atoms: C11_11  and  N12_12 
ROOT
HETATM    1  C1  UNL     1     -31.807  18.619   1.235  1.00 20.00     0.127 C 
HETATM    2  C4  UNL     1     -31.190  18.780  -0.137  1.00 20.00     0.080 C 
HETATM    3  C5  UNL     1     -33.228  19.111   1.401  1.00 20.00     0.080 C 
HETATM    4  C6  UNL     1     -32.122  18.235  -1.213  1.00 20.00     0.040 C 
HETATM    5  C7  UNL     1     -34.119  18.559   0.294  1.00 20.00     0.040 C 
HETATM    6  C8  UNL     1     -33.520  18.837  -1.083  1.00 20.00     0.189 C 
HETATM    7  O13 UNL     1     -31.152  18.205   2.191  1.00 20.00    -0.298 OA
ENDROOT
BRANCH   6   8
HETATM    8  N12 UNL     1     -34.399  18.229  -2.119  1.00 20.00    -0.067 N 
HETATM    9  C10 UNL     1     -35.705  18.966  -2.270  1.00 20.00     0.270 C 
HETATM   10  H33 UNL     1     -34.641  17.275  -1.803  1.00 20.00     0.280 HD
BRANCH   8  11
HETATM   11  C11 UNL     1     -33.703  18.069  -3.446  1.00 20.00     0.268 C 
BRANCH  11  12
HETATM   12  C3  UNL     1     -33.943  16.736  -4.096  1.00 20.00    -0.068 C 
HETATM   13  C2  UNL     1     -33.305  15.629  -3.685  1.00 20.00     0.015 C 
HETATM   14  C9  UNL     1     -34.953  16.693  -5.207  1.00 20.00     0.044 C 
ENDBRANCH  11  12
ENDBRANCH   8  11
ENDBRANCH   6   8
TORSDOF 3
ENDMDL
MODEL 3
REMARK VINA RESULT:      -4.2      0.905      1.340
REMARK  3 active torsions:
REMARK  status: ('A' for Active; 'I' for Inactive)
REMARK    1  A    between atoms: C3_3  and  C11_11 
REMARK    2  A    between atoms: C8_8  and  N12_12 
REMARK    3  A    between atoms: C11_11  and  N12_12 
ROOT
HETATM    1  C1  UNL     1     -35.233  14.380  -4.715  1.00 20.00     0.127 C 
HETATM    2  C4  UNL     1     -35.715  15.657  -5.367  1.00 20.00     0.080 C 
HETATM    3  C5  UNL     1     -33.756  14.297  -4.397  1.00 20.00     0.080 C 
HETATM    4  C6  UNL     1     -35.219  16.874  -4.596  1.00 20.00     0.040 C 
HETATM    5  C7  UNL     1     -33.299  15.543  -3.645  1.00 20.00     0.040 C 
HETATM    6  C8  UNL     1     -33.708  16.813  -4.388  1.00 20.00     0.189 C 
HETATM    7  O13 UNL     1     -35.983  13.418  -4.547  1.00 20.00    -0.298 OA
ENDROOT
BRANCH   6   8
HETATM    8  N12 UNL     1     -33.287  17.993  -3.585  1.00 20.00    -0.067 N 
HETATM    9  C10 UNL     1     -33.260  19.263  -4.396  1.00 20.00     0.270 C 
HETATM   10  H33 UNL     1     -32.316  17.829  -3.273  1.00 20.00     0.280 HD
BRANCH   8  11
HETATM   11  C11 UNL     1     -34.108  18.159  -2.331  1.00 20.00     0.268 C 
BRANCH  11  12
HETATM   12  C3  UNL     1     -33.291  18.142  -1.070  1.00 20.00    -0.068 C 
HETATM   13  C2  UNL     1     -31.950  18.159  -1.102  1.00 20.00     0.015 C 
HETATM   14  C9  UNL     1     -34.046  18.136   0.229  1.00 20.00     0.044 C 
ENDBRANCH  11  12
ENDBRANCH   8  11
ENDBRANCH   6   8
TORSDOF 3
ENDMDL
MODEL 4
REMARK VINA RESULT:      -4.1     11.211     13.191
REMARK  3 active torsions:
REMARK  status: ('A' for Active; 'I' for Inactive)
REMARK    1  A    between atoms: C3_3  and  C11_11 
REMARK    2  A    between atoms: C8_8  and  N12_12 
REMARK    3  A    between atoms: C11_11  and  N12_12 
ROOT
HETATM    1  C1  UNL     1     -40.919  17.176   7.533  1.00 20.00     0.127 C 
HETATM    2  C4  UNL     1     -42.089  16.775   6.662  1.00 20.00     0.080 C 
HETATM    3  C5  UNL     1     -40.566  16.240   8.667  1.00 20.00     0.080 C 
HETATM    4  C6  UNL     1     -41.943  15.331   6.197  1.00 20.00     0.040 C 
HETATM    5  C7  UNL     1     -40.450  14.806   8.162  1.00 20.00     0.040 C 
HETATM    6  C8  UNL     1     -41.696  14.396   7.380  1.00 20.00     0.189 C 
HETATM    7  O13 UNL     1     -40.350  18.259   7.389  1.00 20.00    -0.298 OA
ENDROOT
BRANCH   6   8
HETATM    8  N12 UNL     1     -41.506  13.013   6.866  1.00 20.00    -0.067 N 
HETATM    9  C10 UNL     1     -42.763  12.188   6.951  1.00 20.00     0.270 C 
HETATM   10  H33 UNL     1     -40.812  12.547   7.473  1.00 20.00     0.280 HD
BRANCH   8  11
HETATM   11  C11 UNL     1     -40.927  12.990   5.474  1.00 20.00     0.268 C 
BRANCH  11  12
HETATM   12  C3  UNL     1     -39.630  12.238   5.373  1.00 20.00    -0.068 C 
HETATM   13  C2  UNL     1     -38.890  11.966   6.459  1.00 20.00     0.015 C 
HETATM   14  C9  UNL     1     -39.213  11.780   4.005  1.00 20.00     0.044 C 
ENDBRANCH  11  12
ENDBRANCH   8  11
ENDBRANCH   6   8
TORSDOF 3
ENDMDL
MODEL 5
REMARK VINA RESULT:      -3.9      2.504      5.468
REMARK  3 active torsions:
REMARK  status: ('A' for Active; 'I' for Inactive)
REMARK    1  A    between atoms: C3_3  and  C11_11 
REMARK    2  A    between atoms: C8_8  and  N12_12 
REMARK    3  A    between atoms: C11_11  and  N12_12 
ROOT
HETATM    1  C1  UNL     1     -34.374  18.663  -1.385  1.00 20.00     0.127 C 
HETATM    2  C4  UNL     1     -33.209  17.701  -1.307  1.00 20.00     0.080 C 
HETATM    3  C5  UNL     1     -34.671  19.258  -2.743  1.00 20.00     0.080 C 
HETATM    4  C6  UNL     1     -33.315  16.639  -2.395  1.00 20.00     0.040 C 
HETATM    5  C7  UNL     1     -34.748  18.165  -3.803  1.00 20.00     0.040 C 
HETATM    6  C8  UNL     1     -33.504  17.278  -3.769  1.00 20.00     0.189 C 
HETATM    7  O13 UNL     1     -34.982  19.021  -0.376  1.00 20.00    -0.298 OA
ENDROOT
BRANCH   6   8
HETATM    8  N12 UNL     1     -33.658  16.199  -4.781  1.00 20.00    -0.067 N 
HETATM    9  C10 UNL     1     -33.761  14.832  -4.156  1.00 20.00     0.270 C 
HETATM   10  H33 UNL     1     -32.801  16.189  -5.360  1.00 20.00     0.280 HD
BRANCH   8  11
HETATM   11  C11 UNL     1     -34.801  16.457  -5.730  1.00 20.00     0.268 C 
BRANCH  11  12
HETATM   12  C3  UNL     1     -34.367  16.665  -7.154  1.00 20.00    -0.068 C 
HETATM   13  C2  UNL     1     -33.953  15.643  -7.918  1.00 20.00     0.015 C 
HETATM   14  C9  UNL     1     -34.447  18.065  -7.692  1.00 20.00     0.044 C 
ENDBRANCH  11  12
ENDBRANCH   8  11
ENDBRANCH   6   8
TORSDOF 3
ENDMDL
MODEL 6
REMARK VINA RESULT:      -3.9      1.908      2.661
REMARK  3 active torsions:
REMARK  status: ('A' for Active; 'I' for Inactive)
REMARK    1  A    between atoms: C3_3  and  C11_11 
REMARK    2  A    between atoms: C8_8  and  N12_12 
REMARK    3  A    between atoms: C11_11  and  N12_12 
ROOT
HETATM    1  C1  UNL     1     -35.262  14.051  -4.714  1.00 20.00     0.127 C 
HETATM    2  C4  UNL     1     -35.906  14.906  -5.783  1.00 20.00     0.080 C 
HETATM    3  C5  UNL     1     -33.895  14.485  -4.232  1.00 20.00     0.080 C 
HETATM    4  C6  UNL     1     -35.870  16.378  -5.389  1.00 20.00     0.040 C 
HETATM    5  C7  UNL     1     -33.899  15.965  -3.868  1.00 20.00     0.040 C 
HETATM    6  C8  UNL     1     -34.454  16.810  -5.013  1.00 20.00     0.189 C 
HETATM    7  O13 UNL     1     -35.777  13.001  -4.332  1.00 20.00    -0.298 OA
ENDROOT
BRANCH   6   8
HETATM    8  N12 UNL     1     -34.487  18.235  -4.584  1.00 20.00    -0.067 N 
HETATM    9  C10 UNL     1     -33.751  19.142  -5.536  1.00 20.00     0.270 C 
HETATM   10  H33 UNL     1     -33.990  18.301  -3.680  1.00 20.00     0.280 HD
BRANCH   8  11
HETATM   11  C11 UNL     1     -35.888  18.728  -4.328  1.00 20.00     0.268 C 
BRANCH  11  12
HETATM   12  C3  UNL     1     -36.206  18.914  -2.871  1.00 20.00    -0.068 C 
HETATM   13  C2  UNL     1     -37.468  19.057  -2.440  1.00 20.00     0.015 C 
HETATM   14  C9  UNL     1     -35.047  18.903  -1.916  1.00 20.00     0.044 C 
ENDBRANCH  11  12
ENDBRANCH   8  11
ENDBRANCH   6   8
TORSDOF 3
ENDMDL
MODEL 7
REMARK VINA RESULT:      -3.8     11.388     13.552
REMARK  3 active torsions:
REMARK  status: ('A' for Active; 'I' for Inactive)
REMARK    1  A    between atoms: C3_3  and  C11_11 
REMARK    2  A    between atoms: C8_8  and  N12_12 
REMARK    3  A    between atoms: C11_11  and  N12_12 
ROOT
HETATM    1  C1  UNL     1     -41.167  16.817   8.954  1.00 20.00     0.127 C 
HETATM    2  C4  UNL     1     -40.255  15.663   9.306  1.00 20.00     0.080 C 
HETATM    3  C5  UNL     1     -41.447  17.036   7.484  1.00 20.00     0.080 C 
HETATM    4  C6  UNL     1     -40.708  14.387   8.606  1.00 20.00     0.040 C 
HETATM    5  C7  UNL     1     -41.876  15.733   6.819  1.00 20.00     0.040 C 
HETATM    6  C8  UNL     1     -40.874  14.615   7.105  1.00 20.00     0.189 C 
HETATM    7  O13 UNL     1     -41.577  17.599   9.812  1.00 20.00    -0.298 OA
ENDROOT
BRANCH   6   8
HETATM    8  N12 UNL     1     -41.370  13.358   6.482  1.00 20.00    -0.067 N 
HETATM    9  C10 UNL     1     -42.874  13.300   6.419  1.00 20.00     0.270 C 
HETATM   10  H33 UNL     1     -41.076  12.573   7.086  1.00 20.00     0.280 HD
BRANCH   8  11
HETATM   11  C11 UNL     1     -40.753  13.102   5.130  1.00 20.00     0.268 C 
BRANCH  11  12
HETATM   12  C3  UNL     1     -39.557  12.193   5.176  1.00 20.00    -0.068 C 
HETATM   13  C2  UNL     1     -38.970  11.864   6.337  1.00 20.00     0.015 C 
HETATM   14  C9  UNL     1     -39.068  11.646   3.866  1.00 20.00     0.044 C 
ENDBRANCH  11  12
ENDBRANCH   8  11
ENDBRANCH   6   8
TORSDOF 3
ENDMDL
MODEL 8
REMARK VINA RESULT:      -3.8      1.277      2.245
REMARK  3 active torsions:
REMARK  status: ('A' for Active; 'I' for Inactive)
REMARK    1  A    between atoms: C3_3  and  C11_11 
REMARK    2  A    between atoms: C8_8  and  N12_12 
REMARK    3  A    between atoms: C11_11  and  N12_12 
ROOT
HETATM    1  C1  UNL     1     -35.602  14.932  -5.648  1.00 20.00     0.127 C 
HETATM    2  C4  UNL     1     -34.521  14.615  -4.638  1.00 20.00     0.080 C 
HETATM    3  C5  UNL     1     -36.265  16.287  -5.528  1.00 20.00     0.080 C 
HETATM    4  C6  UNL     1     -33.509  15.752  -4.559  1.00 20.00     0.040 C 
HETATM    5  C7  UNL     1     -35.218  17.390  -5.431  1.00 20.00     0.040 C 
HETATM    6  C8  UNL     1     -34.205  17.091  -4.327  1.00 20.00     0.189 C 
HETATM    7  O13 UNL     1     -35.992  14.093  -6.460  1.00 20.00    -0.298 OA
ENDROOT
BRANCH   6   8
HETATM    8  N12 UNL     1     -33.179  18.168  -4.315  1.00 20.00    -0.067 N 
HETATM    9  C10 UNL     1     -33.470  19.253  -5.319  1.00 20.00     0.270 C 
HETATM   10  H33 UNL     1     -32.279  17.746  -4.598  1.00 20.00     0.280 HD
BRANCH   8  11
HETATM   11  C11 UNL     1     -32.959  18.740  -2.937  1.00 20.00     0.268 C 
BRANCH  11  12
HETATM   12  C3  UNL     1     -33.982  18.296  -1.930  1.00 20.00    -0.068 C 
HETATM   13  C2  UNL     1     -33.740  17.285  -1.082  1.00 20.00     0.015 C 
HETATM   14  C9  UNL     1     -35.277  19.055  -1.896  1.00 20.00     0.044 C 
ENDBRANCH  11  12
ENDBRANCH   8  11
ENDBRANCH   6   8
TORSDOF 3
ENDMDL
MODEL 9
REMARK VINA RESULT:      -3.8      2.658      5.504
REMARK  3 active torsions:
REMARK  status: ('A' for Active; 'I' for Inactive)
REMARK    1  A    between atoms: C3_3  and  C11_11 
REMARK    2  A    between atoms: C8_8  and  N12_12 
REMARK    3  A    between atoms: C11_11  and  N12_12 
ROOT
HETATM    1  C1  UNL     1     -32.657  18.677  -2.070  1.00 20.00     0.127 C 
HETATM    2  C4  UNL     1     -33.210  19.263  -3.350  1.00 20.00     0.080 C 
HETATM    3  C5  UNL     1     -33.302  17.401  -1.575  1.00 20.00     0.080 C 
HETATM    4  C6  UNL     1     -33.296  18.197  -4.436  1.00 20.00     0.040 C 
HETATM    5  C7  UNL     1     -33.386  16.372  -2.697  1.00 20.00     0.040 C 
HETATM    6  C8  UNL     1     -34.050  16.966  -3.938  1.00 20.00     0.189 C 
HETATM    7  O13 UNL     1     -31.798  19.263  -1.412  1.00 20.00    -0.298 OA
ENDROOT
BRANCH   6   8
HETATM    8  N12 UNL     1     -34.054  15.939  -5.015  1.00 20.00    -0.067 N 
HETATM    9  C10 UNL     1     -33.560  14.599  -4.536  1.00 20.00     0.270 C 
HETATM   10  H33 UNL     1     -33.391  16.248  -5.744  1.00 20.00     0.280 HD
BRANCH   8  11
HETATM   11  C11 UNL     1     -35.396  15.820  -5.692  1.00 20.00     0.268 C 
BRANCH  11  12
HETATM   12  C3  UNL     1     -35.355  16.107  -7.166  1.00 20.00    -0.068 C 
HETATM   13  C2  UNL     1     -36.435  16.555  -7.824  1.00 20.00     0.015 C 
HETATM   14  C9  UNL     1     -34.041  15.898  -7.864  1.00 20.00     0.044 C 
ENDBRANCH  11  12
ENDBRANCH   8  11
ENDBRANCH   6   8
TORSDOF 3
ENDMDL
