MODEL 1
REMARK VINA RESULT:      -4.2      0.000      0.000
REMARK  3 active torsions:
REMARK  status: ('A' for Active; 'I' for Inactive)
REMARK    1  A    between atoms: C5_5  and  C7_7 
REMARK    2  A    between atoms: C6_6  and  C7_7 
REMARK    3  A    between atoms: C6_6  and  O9_9 
ROOT
HETATM    1  C1  UNL     1     -22.688  17.393   9.690  1.00 20.00     0.071 C 
HETATM    2  C4  UNL     1     -22.512  18.449  11.898  1.00 20.00     0.034 C 
HETATM    3  C7  UNL     1     -23.489  17.907  10.831  1.00 20.00     0.070 C 
HETATM    4  N8  UNL     1     -22.061  16.991   8.800  1.00 20.00    -0.196 NA
ENDROOT
BRANCH   3   5
HETATM    5  C5  UNL     1     -24.438  19.033  10.332  1.00 20.00     0.022 C 
HETATM    6  C2  UNL     1     -24.644  19.107   8.821  1.00 20.00     0.007 C 
ENDBRANCH   3   5
BRANCH   3   7
HETATM    7  C6  UNL     1     -24.329  16.744  11.456  1.00 20.00     0.136 C 
HETATM    8  C3  UNL     1     -25.573  17.176  12.232  1.00 20.00     0.041 C 
BRANCH   7   9
HETATM    9  O9  UNL     1     -23.507  15.968  12.332  1.00 20.00    -0.394 OA
HETATM   10  H22 UNL     1     -23.043  16.601  12.900  1.00 20.00     0.210 HD
ENDBRANCH   7   9
ENDBRANCH   3   7
TORSDOF 3
ENDMDL
MODEL 2
REMARK VINA RESULT:      -4.0     18.061     19.449
REMARK  3 active torsions:
REMARK  status: ('A' for Active; 'I' for Inactive)
REMARK    1  A    between atoms: C5_5  and  C7_7 
REMARK    2  A    between atoms: C6_6  and  C7_7 
REMARK    3  A    between atoms: C6_6  and  O9_9 
ROOT
HETATM    1  C1  UNL     1     -33.995  15.330  -6.770  1.00 20.00     0.071 C 
HETATM    2  C4  UNL     1     -34.814  17.168  -5.365  1.00 20.00     0.034 C 
HETATM    3  C7  UNL     1     -34.610  15.639  -5.453  1.00 20.00     0.070 C 
HETATM    4  N8  UNL     1     -33.514  15.090  -7.799  1.00 20.00    -0.196 NA
ENDROOT
BRANCH   3   5
HETATM    5  C5  UNL     1     -35.969  14.895  -5.329  1.00 20.00     0.022 C 
HETATM    6  C2  UNL     1     -35.935  13.571  -4.569  1.00 20.00     0.007 C 
ENDBRANCH   3   5
BRANCH   3   7
HETATM    7  C6  UNL     1     -33.652  15.189  -4.301  1.00 20.00     0.136 C 
HETATM    8  C3  UNL     1     -33.422  16.220  -3.197  1.00 20.00     0.041 C 
BRANCH   7   9
HETATM    9  O9  UNL     1     -32.379  14.827  -4.843  1.00 20.00    -0.394 OA
HETATM   10  H22 UNL     1     -31.720  15.089  -4.183  1.00 20.00     0.210 HD
ENDBRANCH   7   9
ENDBRANCH   3   7
TORSDOF 3
ENDMDL
MODEL 3
REMARK VINA RESULT:      -3.8     17.656     18.534
REMARK  3 active torsions:
REMARK  status: ('A' for Active; 'I' for Inactive)
REMARK    1  A    between atoms: C5_5  and  C7_7 
REMARK    2  A    between atoms: C6_6  and  C7_7 
REMARK    3  A    between atoms: C6_6  and  O9_9 
ROOT
HETATM    1  C1  UNL     1     -42.002  12.601   6.748  1.00 20.00     0.071 C 
HETATM    2  C4  UNL     1     -41.573  13.897   4.709  1.00 20.00     0.034 C 
HETATM    3  C7  UNL     1     -40.983  13.434   6.060  1.00 20.00     0.070 C 
HETATM    4  N8  UNL     1     -42.798  11.948   7.284  1.00 20.00    -0.196 NA
ENDROOT
BRANCH   3   5
HETATM    5  C5  UNL     1     -40.626  14.657   6.952  1.00 20.00     0.022 C 
HETATM    6  C2  UNL     1     -40.347  14.350   8.421  1.00 20.00     0.007 C 
ENDBRANCH   3   5
BRANCH   3   7
HETATM    7  C6  UNL     1     -39.698  12.585   5.788  1.00 20.00     0.136 C 
HETATM    8  C3  UNL     1     -39.509  12.122   4.344  1.00 20.00     0.041 C 
BRANCH   7   9
HETATM    9  O9  UNL     1     -39.693  11.428   6.629  1.00 20.00    -0.394 OA
HETATM   10  H22 UNL     1     -38.917  11.513   7.201  1.00 20.00     0.210 HD
ENDBRANCH   7   9
ENDBRANCH   3   7
TORSDOF 3
ENDMDL
MODEL 4
REMARK VINA RESULT:      -3.8     18.221     19.668
REMARK  3 active torsions:
REMARK  status: ('A' for Active; 'I' for Inactive)
REMARK    1  A    between atoms: C5_5  and  C7_7 
REMARK    2  A    between atoms: C6_6  and  C7_7 
REMARK    3  A    between atoms: C6_6  and  O9_9 
ROOT
HETATM    1  C1  UNL     1     -35.315  14.215  -4.713  1.00 20.00     0.071 C 
HETATM    2  C4  UNL     1     -35.557  16.655  -4.614  1.00 20.00     0.034 C 
HETATM    3  C7  UNL     1     -34.611  15.494  -4.992  1.00 20.00     0.070 C 
HETATM    4  N8  UNL     1     -35.866  13.217  -4.496  1.00 20.00    -0.196 NA
ENDROOT
BRANCH   3   5
HETATM    5  C5  UNL     1     -33.302  15.557  -4.156  1.00 20.00     0.022 C 
HETATM    6  C2  UNL     1     -33.351  16.435  -2.908  1.00 20.00     0.007 C 
ENDBRANCH   3   5
BRANCH   3   7
HETATM    7  C6  UNL     1     -34.272  15.591  -6.516  1.00 20.00     0.136 C 
HETATM    8  C3  UNL     1     -35.442  15.342  -7.467  1.00 20.00     0.041 C 
BRANCH   7   9
HETATM    9  O9  UNL     1     -33.231  14.666  -6.842  1.00 20.00    -0.394 OA
HETATM   10  H22 UNL     1     -33.588  14.089  -7.533  1.00 20.00     0.210 HD
ENDBRANCH   7   9
ENDBRANCH   3   7
TORSDOF 3
ENDMDL
MODEL 5
REMARK VINA RESULT:      -3.8     17.667     18.682
REMARK  3 active torsions:
REMARK  status: ('A' for Active; 'I' for Inactive)
REMARK    1  A    between atoms: C5_5  and  C7_7 
REMARK    2  A    between atoms: C6_6  and  C7_7 
REMARK    3  A    between atoms: C6_6  and  O9_9 
ROOT
HETATM    1  C1  UNL     1     -41.528  13.989   4.830  1.00 20.00     0.071 C 
HETATM    2  C4  UNL     1     -40.812  14.675   7.074  1.00 20.00     0.034 C 
HETATM    3  C7  UNL     1     -40.982  13.478   6.114  1.00 20.00     0.070 C 
HETATM    4  N8  UNL     1     -41.953  14.389   3.826  1.00 20.00    -0.196 NA
ENDROOT
BRANCH   3   5
HETATM    5  C5  UNL     1     -41.962  12.428   6.711  1.00 20.00     0.022 C 
HETATM    6  C2  UNL     1     -43.417  12.874   6.838  1.00 20.00     0.007 C 
ENDBRANCH   3   5
BRANCH   3   7
HETATM    7  C6  UNL     1     -39.584  12.819   5.872  1.00 20.00     0.136 C 
HETATM    8  C3  UNL     1     -39.539  11.757   4.774  1.00 20.00     0.041 C 
BRANCH   7   9
HETATM    9  O9  UNL     1     -39.112  12.224   7.084  1.00 20.00    -0.394 OA
HETATM   10  H22 UNL     1     -39.606  11.398   7.190  1.00 20.00     0.210 HD
ENDBRANCH   7   9
ENDBRANCH   3   7
TORSDOF 3
ENDMDL
MODEL 6
REMARK VINA RESULT:      -3.7     18.205     19.611
REMARK  3 active torsions:
REMARK  status: ('A' for Active; 'I' for Inactive)
REMARK    1  A    between atoms: C5_5  and  C7_7 
REMARK    2  A    between atoms: C6_6  and  C7_7 
REMARK    3  A    between atoms: C6_6  and  O9_9 
ROOT
HETATM    1  C1  UNL     1     -35.292  16.643  -5.170  1.00 20.00     0.071 C 
HETATM    2  C4  UNL     1     -36.034  14.323  -5.469  1.00 20.00     0.034 C 
HETATM    3  C7  UNL     1     -34.805  15.254  -5.371  1.00 20.00     0.070 C 
HETATM    4  N8  UNL     1     -35.673  17.728  -5.011  1.00 20.00    -0.196 NA
ENDROOT
BRANCH   3   5
HETATM    5  C5  UNL     1     -33.959  15.186  -6.674  1.00 20.00     0.022 C 
HETATM    6  C2  UNL     1     -34.524  15.942  -7.874  1.00 20.00     0.007 C 
ENDBRANCH   3   5
BRANCH   3   7
HETATM    7  C6  UNL     1     -33.931  14.815  -4.150  1.00 20.00     0.136 C 
HETATM    8  C3  UNL     1     -33.161  15.937  -3.456  1.00 20.00     0.041 C 
BRANCH   7   9
HETATM    9  O9  UNL     1     -32.990  13.818  -4.559  1.00 20.00    -0.394 OA
HETATM   10  H22 UNL     1     -33.089  13.082  -3.938  1.00 20.00     0.210 HD
ENDBRANCH   7   9
ENDBRANCH   3   7
TORSDOF 3
ENDMDL
MODEL 7
REMARK VINA RESULT:      -3.7     17.858     19.244
REMARK  3 active torsions:
REMARK  status: ('A' for Active; 'I' for Inactive)
REMARK    1  A    between atoms: C5_5  and  C7_7 
REMARK    2  A    between atoms: C6_6  and  C7_7 
REMARK    3  A    between atoms: C6_6  and  O9_9 
ROOT
HETATM    1  C1  UNL     1     -35.503  14.172  -4.777  1.00 20.00     0.071 C 
HETATM    2  C4  UNL     1     -33.932  15.088  -6.424  1.00 20.00     0.034 C 
HETATM    3  C7  UNL     1     -34.548  15.284  -5.021  1.00 20.00     0.070 C 
HETATM    4  N8  UNL     1     -36.247  13.301  -4.586  1.00 20.00    -0.196 NA
ENDROOT
BRANCH   3   5
HETATM    5  C5  UNL     1     -35.303  16.641  -4.937  1.00 20.00     0.022 C 
HETATM    6  C2  UNL     1     -36.596  16.734  -5.744  1.00 20.00     0.007 C 
ENDBRANCH   3   5
BRANCH   3   7
HETATM    7  C6  UNL     1     -33.405  15.246  -3.955  1.00 20.00     0.136 C 
HETATM    8  C3  UNL     1     -33.229  16.524  -3.135  1.00 20.00     0.041 C 
BRANCH   7   9
HETATM    9  O9  UNL     1     -32.158  14.952  -4.590  1.00 20.00    -0.394 OA
HETATM   10  H22 UNL     1     -31.570  15.695  -4.390  1.00 20.00     0.210 HD
ENDBRANCH   7   9
ENDBRANCH   3   7
TORSDOF 3
ENDMDL
MODEL 8
REMARK VINA RESULT:      -3.7     15.638     16.482
REMARK  3 active torsions:
REMARK  status: ('A' for Active; 'I' for Inactive)
REMARK    1  A    between atoms: C5_5  and  C7_7 
REMARK    2  A    between atoms: C6_6  and  C7_7 
REMARK    3  A    between atoms: C6_6  and  O9_9 
ROOT
HETATM    1  C1  UNL     1     -33.377   5.636   3.440  1.00 20.00     0.071 C 
HETATM    2  C4  UNL     1     -35.587   6.254   4.309  1.00 20.00     0.034 C 
HETATM    3  C7  UNL     1     -34.063   6.393   4.519  1.00 20.00     0.070 C 
HETATM    4  N8  UNL     1     -32.842   5.045   2.596  1.00 20.00    -0.196 NA
ENDROOT
BRANCH   3   5
HETATM    5  C5  UNL     1     -33.644   5.817   5.902  1.00 20.00     0.022 C 
HETATM    6  C2  UNL     1     -34.763   5.181   6.724  1.00 20.00     0.007 C 
ENDBRANCH   3   5
BRANCH   3   7
HETATM    7  C6  UNL     1     -33.675   7.906   4.436  1.00 20.00     0.136 C 
HETATM    8  C3  UNL     1     -32.211   8.191   4.103  1.00 20.00     0.041 C 
BRANCH   7   9
HETATM    9  O9  UNL     1     -33.983   8.555   5.672  1.00 20.00    -0.394 OA
HETATM   10  H22 UNL     1     -33.148   8.915   6.005  1.00 20.00     0.210 HD
ENDBRANCH   7   9
ENDBRANCH   3   7
TORSDOF 3
ENDMDL
MODEL 9
REMARK VINA RESULT:      -3.7     23.929     24.581
REMARK  3 active torsions:
REMARK  status: ('A' for Active; 'I' for Inactive)
REMARK    1  A    between atoms: C5_5  and  C7_7 
REMARK    2  A    between atoms: C6_6  and  C7_7 
REMARK    3  A    between atoms: C6_6  and  O9_9 
ROOT
HETATM    1  C1  UNL     1     -42.669   4.905  -1.406  1.00 20.00     0.071 C 
HETATM    2  C4  UNL     1     -40.639   5.745  -0.312  1.00 20.00     0.034 C 
HETATM    3  C7  UNL     1     -42.183   5.736  -0.273  1.00 20.00     0.070 C 
HETATM    4  N8  UNL     1     -43.047   4.255  -2.290  1.00 20.00    -0.196 NA
ENDROOT
BRANCH   3   5
HETATM    5  C5  UNL     1     -42.746   7.179  -0.412  1.00 20.00     0.022 C 
HETATM    6  C2  UNL     1     -41.707   8.298  -0.440  1.00 20.00     0.007 C 
ENDBRANCH   3   5
BRANCH   3   7
HETATM    7  C6  UNL     1     -42.653   5.112   1.082  1.00 20.00     0.136 C 
HETATM    8  C3  UNL     1     -43.372   6.069   2.031  1.00 20.00     0.041 C 
BRANCH   7   9
HETATM    9  O9  UNL     1     -41.531   4.559   1.776  1.00 20.00    -0.394 OA
HETATM   10  H22 UNL     1     -40.743   4.868   1.306  1.00 20.00     0.210 HD
ENDBRANCH   7   9
ENDBRANCH   3   7
TORSDOF 3
ENDMDL
