MODEL 1
REMARK VINA RESULT:      -3.8      0.000      0.000
REMARK  4 active torsions:
REMARK  status: ('A' for Active; 'I' for Inactive)
REMARK    1  A    between atoms: C5_5  and  C7_7 
REMARK    2  A    between atoms: C6_6  and  C8_8 
REMARK    3  A    between atoms: C7_7  and  C8_8 
REMARK    4  A    between atoms: C8_8  and  O10_10 
ROOT
HETATM    1  C1  UNL     1     -35.299  14.039  -4.581  1.00 20.00     0.067 C 
HETATM    2  C7  UNL     1     -34.647  15.345  -4.853  1.00 20.00     0.126 C 
HETATM    3  N9  UNL     1     -35.812  13.020  -4.366  1.00 20.00    -0.197 NA
ENDROOT
BRANCH   2   4
HETATM    4  C5  UNL     1     -33.295  15.419  -4.113  1.00 20.00     0.018 C 
HETATM    5  C2  UNL     1     -33.312  16.390  -2.934  1.00 20.00     0.006 C 
ENDBRANCH   2   4
BRANCH   2   6
HETATM    6  C8  UNL     1     -34.539  15.602  -6.394  1.00 20.00     0.070 C 
HETATM    7  C4  UNL     1     -35.723  15.016  -7.176  1.00 20.00     0.047 C 
BRANCH   6   8
HETATM    8  C6  UNL     1     -34.374  17.114  -6.694  1.00 20.00     0.034 C 
HETATM    9  C3  UNL     1     -35.268  18.035  -5.865  1.00 20.00     0.008 C 
ENDBRANCH   6   8
BRANCH   6  10
HETATM   10  O10 UNL     1     -33.355  14.939  -6.869  1.00 20.00    -0.389 OA
HETATM   11  H25 UNL     1     -33.185  14.223  -6.242  1.00 20.00     0.210 HD
ENDBRANCH   6  10
ENDBRANCH   2   6
TORSDOF 4
ENDMDL
MODEL 2
REMARK VINA RESULT:      -3.8      1.988      2.491
REMARK  4 active torsions:
REMARK  status: ('A' for Active; 'I' for Inactive)
REMARK    1  A    between atoms: C5_5  and  C7_7 
REMARK    2  A    between atoms: C6_6  and  C8_8 
REMARK    3  A    between atoms: C7_7  and  C8_8 
REMARK    4  A    between atoms: C8_8  and  O10_10 
ROOT
HETATM    1  C1  UNL     1     -35.071  17.230  -4.545  1.00 20.00     0.067 C 
HETATM    2  C7  UNL     1     -33.942  16.266  -4.528  1.00 20.00     0.126 C 
HETATM    3  N9  UNL     1     -35.951  17.987  -4.561  1.00 20.00    -0.197 NA
ENDROOT
BRANCH   2   4
HETATM    4  C5  UNL     1     -33.575  15.916  -3.070  1.00 20.00     0.018 C 
HETATM    5  C2  UNL     1     -33.254  17.145  -2.224  1.00 20.00     0.006 C 
ENDBRANCH   2   4
BRANCH   2   6
HETATM    6  C8  UNL     1     -34.264  15.017  -5.417  1.00 20.00     0.070 C 
HETATM    7  C4  UNL     1     -35.699  14.506  -5.223  1.00 20.00     0.047 C 
BRANCH   6   8
HETATM    8  C6  UNL     1     -33.982  15.314  -6.913  1.00 20.00     0.034 C 
HETATM    9  C3  UNL     1     -35.226  15.537  -7.769  1.00 20.00     0.008 C 
ENDBRANCH   6   8
BRANCH   6  10
HETATM   10  O10 UNL     1     -33.383  13.954  -5.017  1.00 20.00    -0.389 OA
HETATM   11  H25 UNL     1     -32.524  14.164  -5.405  1.00 20.00     0.210 HD
ENDBRANCH   6  10
ENDBRANCH   2   6
TORSDOF 4
ENDMDL
MODEL 3
REMARK VINA RESULT:      -3.8     11.769     13.273
REMARK  4 active torsions:
REMARK  status: ('A' for Active; 'I' for Inactive)
REMARK    1  A    between atoms: C5_5  and  C7_7 
REMARK    2  A    between atoms: C6_6  and  C8_8 
REMARK    3  A    between atoms: C7_7  and  C8_8 
REMARK    4  A    between atoms: C8_8  and  O10_10 
ROOT
HETATM    1  C1  UNL     1     -32.744   6.092   3.104  1.00 20.00     0.067 C 
HETATM    2  C7  UNL     1     -32.545   7.342   3.882  1.00 20.00     0.126 C 
HETATM    3  N9  UNL     1     -32.895   5.114   2.498  1.00 20.00    -0.197 NA
ENDROOT
BRANCH   2   4
HETATM    4  C5  UNL     1     -32.617   8.562   2.940  1.00 20.00     0.018 C 
HETATM    5  C2  UNL     1     -32.154   8.247   1.520  1.00 20.00     0.006 C 
ENDBRANCH   2   4
BRANCH   2   6
HETATM    6  C8  UNL     1     -33.546   7.413   5.085  1.00 20.00     0.070 C 
HETATM    7  C4  UNL     1     -34.132   8.817   5.287  1.00 20.00     0.047 C 
BRANCH   6   8
HETATM    8  C6  UNL     1     -34.675   6.361   4.929  1.00 20.00     0.034 C 
HETATM    9  C3  UNL     1     -34.762   5.339   6.062  1.00 20.00     0.008 C 
ENDBRANCH   6   8
BRANCH   6  10
HETATM   10  O10 UNL     1     -32.819   7.087   6.281  1.00 20.00    -0.389 OA
HETATM   11  H25 UNL     1     -33.027   6.163   6.473  1.00 20.00     0.210 HD
ENDBRANCH   6  10
ENDBRANCH   2   6
TORSDOF 4
ENDMDL
MODEL 4
REMARK VINA RESULT:      -3.7     12.718     13.938
REMARK  4 active torsions:
REMARK  status: ('A' for Active; 'I' for Inactive)
REMARK    1  A    between atoms: C5_5  and  C7_7 
REMARK    2  A    between atoms: C6_6  and  C8_8 
REMARK    3  A    between atoms: C7_7  and  C8_8 
REMARK    4  A    between atoms: C8_8  and  O10_10 
ROOT
HETATM    1  C1  UNL     1     -41.391  13.638   4.752  1.00 20.00     0.067 C 
HETATM    2  C7  UNL     1     -40.899  12.899   5.943  1.00 20.00     0.126 C 
HETATM    3  N9  UNL     1     -41.779  14.212   3.821  1.00 20.00    -0.197 NA
ENDROOT
BRANCH   2   4
HETATM    4  C5  UNL     1     -39.445  12.439   5.709  1.00 20.00     0.018 C 
HETATM    5  C2  UNL     1     -39.261  11.691   4.391  1.00 20.00     0.006 C 
ENDBRANCH   2   4
BRANCH   2   6
HETATM    6  C8  UNL     1     -41.091  13.750   7.243  1.00 20.00     0.070 C 
HETATM    7  C4  UNL     1     -41.056  15.261   6.973  1.00 20.00     0.047 C 
BRANCH   6   8
HETATM    8  C6  UNL     1     -42.398  13.352   7.978  1.00 20.00     0.034 C 
HETATM    9  C3  UNL     1     -43.115  12.135   7.398  1.00 20.00     0.008 C 
ENDBRANCH   6   8
BRANCH   6  10
HETATM   10  O10 UNL     1     -39.996  13.458   8.127  1.00 20.00    -0.389 OA
HETATM   11  H25 UNL     1     -40.317  13.651   9.017  1.00 20.00     0.210 HD
ENDBRANCH   6  10
ENDBRANCH   2   6
TORSDOF 4
ENDMDL
MODEL 5
REMARK VINA RESULT:      -3.6     11.442     12.664
REMARK  4 active torsions:
REMARK  status: ('A' for Active; 'I' for Inactive)
REMARK    1  A    between atoms: C5_5  and  C7_7 
REMARK    2  A    between atoms: C6_6  and  C8_8 
REMARK    3  A    between atoms: C7_7  and  C8_8 
REMARK    4  A    between atoms: C8_8  and  O10_10 
ROOT
HETATM    1  C1  UNL     1     -33.918   5.851   4.067  1.00 20.00     0.067 C 
HETATM    2  C7  UNL     1     -33.833   7.299   4.390  1.00 20.00     0.126 C 
HETATM    3  N9  UNL     1     -33.989   4.721   3.813  1.00 20.00    -0.197 NA
ENDROOT
BRANCH   2   4
HETATM    4  C5  UNL     1     -33.838   7.495   5.920  1.00 20.00     0.018 C 
HETATM    5  C2  UNL     1     -34.476   6.329   6.669  1.00 20.00     0.006 C 
ENDBRANCH   2   4
BRANCH   2   6
HETATM    6  C8  UNL     1     -32.606   7.957   3.672  1.00 20.00     0.070 C 
HETATM    7  C4  UNL     1     -31.959   7.028   2.634  1.00 20.00     0.047 C 
BRANCH   6   8
HETATM    8  C6  UNL     1     -33.002   9.312   3.029  1.00 20.00     0.034 C 
HETATM    9  C3  UNL     1     -32.826   9.379   1.513  1.00 20.00     0.008 C 
ENDBRANCH   6   8
BRANCH   6  10
HETATM   10  O10 UNL     1     -31.608   8.231   4.669  1.00 20.00    -0.389 OA
HETATM   11  H25 UNL     1     -30.957   7.521   4.592  1.00 20.00     0.210 HD
ENDBRANCH   6  10
ENDBRANCH   2   6
TORSDOF 4
ENDMDL
MODEL 6
REMARK VINA RESULT:      -3.6      1.439      2.653
REMARK  4 active torsions:
REMARK  status: ('A' for Active; 'I' for Inactive)
REMARK    1  A    between atoms: C5_5  and  C7_7 
REMARK    2  A    between atoms: C6_6  and  C8_8 
REMARK    3  A    between atoms: C7_7  and  C8_8 
REMARK    4  A    between atoms: C8_8  and  O10_10 
ROOT
HETATM    1  C1  UNL     1     -35.909  13.899  -5.018  1.00 20.00     0.067 C 
HETATM    2  C7  UNL     1     -35.903  15.047  -5.961  1.00 20.00     0.126 C 
HETATM    3  N9  UNL     1     -35.914  12.999  -4.285  1.00 20.00    -0.197 NA
ENDROOT
BRANCH   2   4
HETATM    4  C5  UNL     1     -36.954  16.089  -5.524  1.00 20.00     0.018 C 
HETATM    5  C2  UNL     1     -37.660  16.754  -6.702  1.00 20.00     0.006 C 
ENDBRANCH   2   4
BRANCH   2   6
HETATM    6  C8  UNL     1     -34.458  15.632  -6.116  1.00 20.00     0.070 C 
HETATM    7  C4  UNL     1     -34.155  16.091  -7.549  1.00 20.00     0.047 C 
BRANCH   6   8
HETATM    8  C6  UNL     1     -34.216  16.783  -5.105  1.00 20.00     0.034 C 
HETATM    9  C3  UNL     1     -33.530  16.363  -3.806  1.00 20.00     0.008 C 
ENDBRANCH   6   8
BRANCH   6  10
HETATM   10  O10 UNL     1     -33.524  14.585  -5.805  1.00 20.00    -0.389 OA
HETATM   11  H25 UNL     1     -33.091  14.853  -4.984  1.00 20.00     0.210 HD
ENDBRANCH   6  10
ENDBRANCH   2   6
TORSDOF 4
ENDMDL
MODEL 7
REMARK VINA RESULT:      -3.5      1.726      3.363
REMARK  4 active torsions:
REMARK  status: ('A' for Active; 'I' for Inactive)
REMARK    1  A    between atoms: C5_5  and  C7_7 
REMARK    2  A    between atoms: C6_6  and  C8_8 
REMARK    3  A    between atoms: C7_7  and  C8_8 
REMARK    4  A    between atoms: C8_8  and  O10_10 
ROOT
HETATM    1  C1  UNL     1     -35.376  15.146  -7.052  1.00 20.00     0.067 C 
HETATM    2  C7  UNL     1     -34.368  15.970  -6.337  1.00 20.00     0.126 C 
HETATM    3  N9  UNL     1     -36.161  14.501  -7.613  1.00 20.00    -0.197 NA
ENDROOT
BRANCH   2   4
HETATM    4  C5  UNL     1     -34.640  17.468  -6.591  1.00 20.00     0.018 C 
HETATM    5  C2  UNL     1     -34.052  17.966  -7.908  1.00 20.00     0.006 C 
ENDBRANCH   2   4
BRANCH   2   6
HETATM    6  C8  UNL     1     -34.311  15.586  -4.820  1.00 20.00     0.070 C 
HETATM    7  C4  UNL     1     -33.198  14.576  -4.505  1.00 20.00     0.047 C 
BRANCH   6   8
HETATM    8  C6  UNL     1     -34.176  16.851  -3.933  1.00 20.00     0.034 C 
HETATM    9  C3  UNL     1     -33.323  16.668  -2.678  1.00 20.00     0.008 C 
ENDBRANCH   6   8
BRANCH   6  10
HETATM   10  O10 UNL     1     -35.557  14.955  -4.479  1.00 20.00    -0.389 OA
HETATM   11  H25 UNL     1     -35.788  15.286  -3.601  1.00 20.00     0.210 HD
ENDBRANCH   6  10
ENDBRANCH   2   6
TORSDOF 4
ENDMDL
MODEL 8
REMARK VINA RESULT:      -3.5     13.497     14.555
REMARK  4 active torsions:
REMARK  status: ('A' for Active; 'I' for Inactive)
REMARK    1  A    between atoms: C5_5  and  C7_7 
REMARK    2  A    between atoms: C6_6  and  C8_8 
REMARK    3  A    between atoms: C7_7  and  C8_8 
REMARK    4  A    between atoms: C8_8  and  O10_10 
ROOT
HETATM    1  C1  UNL     1     -42.344  13.442   8.726  1.00 20.00     0.067 C 
HETATM    2  C7  UNL     1     -41.626  14.126   7.620  1.00 20.00     0.126 C 
HETATM    3  N9  UNL     1     -42.909  12.911   9.589  1.00 20.00    -0.197 NA
ENDROOT
BRANCH   2   4
HETATM    4  C5  UNL     1     -40.432  14.923   8.185  1.00 20.00     0.018 C 
HETATM    5  C2  UNL     1     -40.442  16.390   7.766  1.00 20.00     0.006 C 
ENDBRANCH   2   4
BRANCH   2   6
HETATM    6  C8  UNL     1     -41.232  13.105   6.499  1.00 20.00     0.070 C 
HETATM    7  C4  UNL     1     -41.622  13.587   5.095  1.00 20.00     0.047 C 
BRANCH   6   8
HETATM    8  C6  UNL     1     -39.721  12.765   6.566  1.00 20.00     0.034 C 
HETATM    9  C3  UNL     1     -39.168  12.050   5.334  1.00 20.00     0.008 C 
ENDBRANCH   6   8
BRANCH   6  10
HETATM   10  O10 UNL     1     -41.957  11.887   6.739  1.00 20.00    -0.389 OA
HETATM   11  H25 UNL     1     -41.329  11.287   7.163  1.00 20.00     0.210 HD
ENDBRANCH   6  10
ENDBRANCH   2   6
TORSDOF 4
ENDMDL
MODEL 9
REMARK VINA RESULT:      -3.5     12.798     13.994
REMARK  4 active torsions:
REMARK  status: ('A' for Active; 'I' for Inactive)
REMARK    1  A    between atoms: C5_5  and  C7_7 
REMARK    2  A    between atoms: C6_6  and  C8_8 
REMARK    3  A    between atoms: C7_7  and  C8_8 
REMARK    4  A    between atoms: C8_8  and  O10_10 
ROOT
HETATM    1  C1  UNL     1     -41.542  13.726   4.736  1.00 20.00     0.067 C 
HETATM    2  C7  UNL     1     -41.200  13.029   6.002  1.00 20.00     0.126 C 
HETATM    3  N9  UNL     1     -41.812  14.267   3.745  1.00 20.00    -0.197 NA
ENDROOT
BRANCH   2   4
HETATM    4  C5  UNL     1     -39.719  12.594   5.977  1.00 20.00     0.018 C 
HETATM    5  C2  UNL     1     -39.357  11.784   4.736  1.00 20.00     0.006 C 
ENDBRANCH   2   4
BRANCH   2   6
HETATM    6  C8  UNL     1     -41.580  13.909   7.241  1.00 20.00     0.070 C 
HETATM    7  C4  UNL     1     -42.754  13.329   8.042  1.00 20.00     0.047 C 
BRANCH   6   8
HETATM    8  C6  UNL     1     -40.349  14.140   8.155  1.00 20.00     0.034 C 
HETATM    9  C3  UNL     1     -40.299  15.508   8.833  1.00 20.00     0.008 C 
ENDBRANCH   6   8
BRANCH   6  10
HETATM   10  O10 UNL     1     -42.000  15.194   6.755  1.00 20.00    -0.389 OA
HETATM   11  H25 UNL     1     -41.449  15.843   7.214  1.00 20.00     0.210 HD
ENDBRANCH   6  10
ENDBRANCH   2   6
TORSDOF 4
ENDMDL
