MODEL 1
REMARK VINA RESULT:      -5.9      0.000      0.000
REMARK  0 active torsions:
REMARK  status: ('A' for Active; 'I' for Inactive)
ROOT
HETATM    1  C1  UNL     1     -32.899   7.946   4.333  1.00 20.00    -0.058 C 
HETATM    2  C2  UNL     1     -32.600   7.206   3.107  1.00 20.00    -0.061 C 
HETATM    3  C3  UNL     1     -34.341   6.055   5.117  1.00 20.00    -0.085 C 
HETATM    4  C4  UNL     1     -32.078   8.882   4.835  1.00 20.00     0.020 C 
HETATM    5  C5  UNL     1     -32.229   7.803   1.964  1.00 20.00     0.019 C 
HETATM    6  C6  UNL     1     -34.621   5.420   6.264  1.00 20.00     0.014 C 
HETATM    7  C7  UNL     1     -34.183   7.554   5.031  1.00 20.00     0.071 C 
HETATM    8  C8  UNL     1     -32.779   5.707   3.204  1.00 20.00     0.042 C 
HETATM    9  C9  UNL     1     -34.132   5.324   3.815  1.00 20.00     0.038 C 
ENDROOT
TORSDOF 0
ENDMDL
MODEL 2
REMARK VINA RESULT:      -5.5      0.642      3.190
REMARK  0 active torsions:
REMARK  status: ('A' for Active; 'I' for Inactive)
ROOT
HETATM    1  C1  UNL     1     -33.482   7.721   5.166  1.00 20.00    -0.058 C 
HETATM    2  C2  UNL     1     -34.056   6.376   5.211  1.00 20.00    -0.061 C 
HETATM    3  C3  UNL     1     -32.410   7.184   2.967  1.00 20.00    -0.085 C 
HETATM    4  C4  UNL     1     -34.027   8.766   5.810  1.00 20.00     0.020 C 
HETATM    5  C5  UNL     1     -34.403   5.767   6.356  1.00 20.00     0.019 C 
HETATM    6  C6  UNL     1     -32.159   7.796   1.802  1.00 20.00     0.014 C 
HETATM    7  C7  UNL     1     -32.248   7.873   4.302  1.00 20.00     0.071 C 
HETATM    8  C8  UNL     1     -34.195   5.694   3.869  1.00 20.00     0.042 C 
HETATM    9  C9  UNL     1     -32.902   5.762   3.048  1.00 20.00     0.038 C 
ENDROOT
TORSDOF 0
ENDMDL
MODEL 3
REMARK VINA RESULT:      -5.4      0.859      3.087
REMARK  0 active torsions:
REMARK  status: ('A' for Active; 'I' for Inactive)
ROOT
HETATM    1  C1  UNL     1     -34.097   6.520   5.307  1.00 20.00    -0.058 C 
HETATM    2  C2  UNL     1     -33.401   7.802   5.190  1.00 20.00    -0.061 C 
HETATM    3  C3  UNL     1     -33.203   5.837   3.070  1.00 20.00    -0.085 C 
HETATM    4  C4  UNL     1     -34.419   5.973   6.490  1.00 20.00     0.020 C 
HETATM    5  C5  UNL     1     -33.793   8.908   5.841  1.00 20.00     0.019 C 
HETATM    6  C6  UNL     1     -32.732   4.731   2.476  1.00 20.00     0.014 C 
HETATM    7  C7  UNL     1     -34.394   5.821   3.998  1.00 20.00     0.071 C 
HETATM    8  C8  UNL     1     -32.221   7.806   4.244  1.00 20.00     0.042 C 
HETATM    9  C9  UNL     1     -32.568   7.191   2.883  1.00 20.00     0.038 C 
ENDROOT
TORSDOF 0
ENDMDL
MODEL 4
REMARK VINA RESULT:      -4.9      1.071      3.536
REMARK  0 active torsions:
REMARK  status: ('A' for Active; 'I' for Inactive)
ROOT
HETATM    1  C1  UNL     1     -33.482   6.258   3.772  1.00 20.00    -0.058 C 
HETATM    2  C2  UNL     1     -34.282   5.880   4.938  1.00 20.00    -0.061 C 
HETATM    3  C3  UNL     1     -32.926   8.440   4.869  1.00 20.00    -0.085 C 
HETATM    4  C4  UNL     1     -32.924   5.356   2.950  1.00 20.00     0.020 C 
HETATM    5  C5  UNL     1     -35.286   4.991   4.878  1.00 20.00     0.019 C 
HETATM    6  C6  UNL     1     -31.873   9.262   4.983  1.00 20.00     0.014 C 
HETATM    7  C7  UNL     1     -33.284   7.746   3.576  1.00 20.00     0.071 C 
HETATM    8  C8  UNL     1     -33.923   6.596   6.221  1.00 20.00     0.042 C 
HETATM    9  C9  UNL     1     -33.831   8.114   6.030  1.00 20.00     0.038 C 
ENDROOT
TORSDOF 0
ENDMDL
MODEL 5
REMARK VINA RESULT:      -4.9      1.149      1.710
REMARK  0 active torsions:
REMARK  status: ('A' for Active; 'I' for Inactive)
ROOT
HETATM    1  C1  UNL     1     -32.951   6.835   3.603  1.00 20.00    -0.058 C 
HETATM    2  C2  UNL     1     -33.191   5.456   3.174  1.00 20.00    -0.061 C 
HETATM    3  C3  UNL     1     -34.419   6.463   5.598  1.00 20.00    -0.085 C 
HETATM    4  C4  UNL     1     -31.851   7.522   3.257  1.00 20.00     0.020 C 
HETATM    5  C5  UNL     1     -33.080   5.058   1.897  1.00 20.00     0.019 C 
HETATM    6  C6  UNL     1     -34.451   6.805   6.894  1.00 20.00     0.014 C 
HETATM    7  C7  UNL     1     -34.009   7.426   4.509  1.00 20.00     0.071 C 
HETATM    8  C8  UNL     1     -33.617   4.508   4.273  1.00 20.00     0.042 C 
HETATM    9  C9  UNL     1     -34.764   5.077   5.116  1.00 20.00     0.038 C 
ENDROOT
TORSDOF 0
ENDMDL
MODEL 6
REMARK VINA RESULT:      -4.6      1.080      2.929
REMARK  0 active torsions:
REMARK  status: ('A' for Active; 'I' for Inactive)
ROOT
HETATM    1  C1  UNL     1     -34.172   6.012   4.501  1.00 20.00    -0.058 C 
HETATM    2  C2  UNL     1     -33.235   6.057   3.378  1.00 20.00    -0.061 C 
HETATM    3  C3  UNL     1     -33.179   8.125   5.406  1.00 20.00    -0.085 C 
HETATM    4  C4  UNL     1     -35.357   5.386   4.434  1.00 20.00     0.020 C 
HETATM    5  C5  UNL     1     -32.865   4.965   2.690  1.00 20.00     0.019 C 
HETATM    6  C6  UNL     1     -33.595   9.246   6.012  1.00 20.00     0.014 C 
HETATM    7  C7  UNL     1     -33.735   6.761   5.741  1.00 20.00     0.071 C 
HETATM    8  C8  UNL     1     -32.674   7.426   3.066  1.00 20.00     0.042 C 
HETATM    9  C9  UNL     1     -32.137   8.130   4.317  1.00 20.00     0.038 C 
ENDROOT
TORSDOF 0
ENDMDL
MODEL 7
REMARK VINA RESULT:      -4.6      0.894      2.438
REMARK  0 active torsions:
REMARK  status: ('A' for Active; 'I' for Inactive)
ROOT
HETATM    1  C1  UNL     1     -32.731   7.480   3.618  1.00 20.00    -0.058 C 
HETATM    2  C2  UNL     1     -32.711   8.411   4.747  1.00 20.00    -0.061 C 
HETATM    3  C3  UNL     1     -34.302   5.993   4.879  1.00 20.00    -0.085 C 
HETATM    4  C4  UNL     1     -32.475   7.862   2.357  1.00 20.00     0.020 C 
HETATM    5  C5  UNL     1     -31.696   9.258   4.979  1.00 20.00     0.019 C 
HETATM    6  C6  UNL     1     -35.371   5.225   4.627  1.00 20.00     0.014 C 
HETATM    7  C7  UNL     1     -33.106   6.054   3.960  1.00 20.00     0.071 C 
HETATM    8  C8  UNL     1     -33.907   8.326   5.669  1.00 20.00     0.042 C 
HETATM    9  C9  UNL     1     -34.210   6.884   6.092  1.00 20.00     0.038 C 
ENDROOT
TORSDOF 0
ENDMDL
MODEL 8
REMARK VINA RESULT:      -4.0     11.886     12.719
REMARK  0 active torsions:
REMARK  status: ('A' for Active; 'I' for Inactive)
ROOT
HETATM    1  C1  UNL     1     -32.977  17.981  -1.289  1.00 20.00    -0.058 C 
HETATM    2  C2  UNL     1     -34.201  18.541  -0.714  1.00 20.00    -0.061 C 
HETATM    3  C3  UNL     1     -31.728  18.586   0.795  1.00 20.00    -0.085 C 
HETATM    4  C4  UNL     1     -32.988  17.028  -2.234  1.00 20.00     0.020 C 
HETATM    5  C5  UNL     1     -35.222  18.989  -1.461  1.00 20.00     0.019 C 
HETATM    6  C6  UNL     1     -30.767  18.066   1.572  1.00 20.00     0.014 C 
HETATM    7  C7  UNL     1     -31.685  18.518  -0.713  1.00 20.00     0.071 C 
HETATM    8  C8  UNL     1     -34.222  18.618   0.797  1.00 20.00     0.042 C 
HETATM    9  C9  UNL     1     -32.951  19.263   1.361  1.00 20.00     0.038 C 
ENDROOT
TORSDOF 0
ENDMDL
MODEL 9
REMARK VINA RESULT:      -3.8     11.457     13.002
REMARK  0 active torsions:
REMARK  status: ('A' for Active; 'I' for Inactive)
ROOT
HETATM    1  C1  UNL     1     -33.910  15.744  -4.092  1.00 20.00    -0.058 C 
HETATM    2  C2  UNL     1     -34.617  16.706  -4.938  1.00 20.00    -0.061 C 
HETATM    3  C3  UNL     1     -33.697  17.483  -2.302  1.00 20.00    -0.085 C 
HETATM    4  C4  UNL     1     -34.065  14.416  -4.214  1.00 20.00     0.020 C 
HETATM    5  C5  UNL     1     -34.654  16.614  -6.276  1.00 20.00     0.019 C 
HETATM    6  C6  UNL     1     -33.757  17.554  -0.965  1.00 20.00     0.014 C 
HETATM    7  C7  UNL     1     -33.016  16.348  -3.030  1.00 20.00     0.071 C 
HETATM    8  C8  UNL     1     -35.279  17.846  -4.196  1.00 20.00     0.042 C 
HETATM    9  C9  UNL     1     -34.328  18.517  -3.199  1.00 20.00     0.038 C 
ENDROOT
TORSDOF 0
ENDMDL
