MODEL 1
REMARK VINA RESULT:      -4.0      0.000      0.000
REMARK  1 active torsions:
REMARK  status: ('A' for Active; 'I' for Inactive)
REMARK    1  A    between atoms: C6_6  and  C10_10 
ROOT
HETATM    1  C1  UNL     1     -35.399   6.118   4.611  1.00 20.00    -0.025 A 
HETATM    2  C2  UNL     1     -34.738   6.877   3.722  1.00 20.00    -0.020 A 
HETATM    3  C3  UNL     1     -33.228   5.045   2.732  1.00 20.00     0.020 A 
HETATM    4  C4  UNL     1     -34.535   4.945   5.028  1.00 20.00     0.009 A 
HETATM    5  C5  UNL     1     -33.241   5.119   4.238  1.00 20.00     0.006 A 
HETATM    6  C6  UNL     1     -33.377   6.388   3.409  1.00 20.00    -0.015 A 
HETATM    7  C7  UNL     1     -34.282   4.953   6.530  1.00 20.00     0.014 C 
ENDROOT
BRANCH   6   8
HETATM    8  C10 UNL     1     -32.251   7.369   3.372  1.00 20.00    -0.010 C 
HETATM    9  C8  UNL     1     -32.089   7.997   1.976  1.00 20.00     0.010 C 
HETATM   10  C9  UNL     1     -32.434   8.485   4.415  1.00 20.00     0.010 C 
ENDBRANCH   6   8
TORSDOF 1
ENDMDL
MODEL 2
REMARK VINA RESULT:      -3.8      1.184      2.260
REMARK  1 active torsions:
REMARK  status: ('A' for Active; 'I' for Inactive)
REMARK    1  A    between atoms: C6_6  and  C10_10 
ROOT
HETATM    1  C1  UNL     1     -34.096   5.438   6.453  1.00 20.00    -0.025 A 
HETATM    2  C2  UNL     1     -33.947   6.753   6.226  1.00 20.00    -0.020 A 
HETATM    3  C3  UNL     1     -35.579   6.968   4.249  1.00 20.00     0.020 A 
HETATM    4  C4  UNL     1     -34.499   4.738   5.171  1.00 20.00     0.009 A 
HETATM    5  C5  UNL     1     -34.573   5.851   4.130  1.00 20.00     0.006 A 
HETATM    6  C6  UNL     1     -34.194   7.152   4.823  1.00 20.00    -0.015 A 
HETATM    7  C7  UNL     1     -33.482   3.672   4.782  1.00 20.00     0.014 C 
ENDROOT
BRANCH   6   8
HETATM    8  C10 UNL     1     -33.233   8.087   4.162  1.00 20.00    -0.010 C 
HETATM    9  C8  UNL     1     -32.437   8.908   5.191  1.00 20.00     0.010 C 
HETATM   10  C9  UNL     1     -32.254   7.338   3.240  1.00 20.00     0.010 C 
ENDBRANCH   6   8
TORSDOF 1
ENDMDL
MODEL 3
REMARK VINA RESULT:      -3.8      1.093      2.118
REMARK  1 active torsions:
REMARK  status: ('A' for Active; 'I' for Inactive)
REMARK    1  A    between atoms: C6_6  and  C10_10 
ROOT
HETATM    1  C1  UNL     1     -33.946   7.215   6.432  1.00 20.00    -0.025 A 
HETATM    2  C2  UNL     1     -33.867   7.657   5.166  1.00 20.00    -0.020 A 
HETATM    3  C3  UNL     1     -35.617   6.086   4.123  1.00 20.00     0.020 A 
HETATM    4  C4  UNL     1     -34.390   5.766   6.443  1.00 20.00     0.009 A 
HETATM    5  C5  UNL     1     -34.572   5.407   4.971  1.00 20.00     0.006 A 
HETATM    6  C6  UNL     1     -34.210   6.637   4.151  1.00 20.00    -0.015 A 
HETATM    7  C7  UNL     1     -33.352   4.877   7.115  1.00 20.00     0.014 C 
ENDROOT
BRANCH   6   8
HETATM    8  C10 UNL     1     -33.330   6.491   2.952  1.00 20.00    -0.010 C 
HETATM    9  C8  UNL     1     -32.094   7.404   3.038  1.00 20.00     0.010 C 
HETATM   10  C9  UNL     1     -32.875   5.034   2.754  1.00 20.00     0.010 C 
ENDBRANCH   6   8
TORSDOF 1
ENDMDL
MODEL 4
REMARK VINA RESULT:      -3.6      9.535     10.789
REMARK  1 active torsions:
REMARK  status: ('A' for Active; 'I' for Inactive)
REMARK    1  A    between atoms: C6_6  and  C10_10 
ROOT
HETATM    1  C1  UNL     1     -41.329  14.663   7.877  1.00 20.00    -0.025 A 
HETATM    2  C2  UNL     1     -40.352  14.252   7.052  1.00 20.00    -0.020 A 
HETATM    3  C3  UNL     1     -41.792  13.846   4.959  1.00 20.00     0.020 A 
HETATM    4  C4  UNL     1     -42.651  14.057   7.450  1.00 20.00     0.009 A 
HETATM    5  C5  UNL     1     -42.312  13.213   6.225  1.00 20.00     0.006 A 
HETATM    6  C6  UNL     1     -40.813  13.332   5.988  1.00 20.00    -0.015 A 
HETATM    7  C7  UNL     1     -43.256  13.213   8.565  1.00 20.00     0.014 C 
ENDROOT
BRANCH   6   8
HETATM    8  C10 UNL     1     -40.012  12.103   5.704  1.00 20.00    -0.010 C 
HETATM    9  C8  UNL     1     -39.507  12.076   4.250  1.00 20.00     0.010 C 
HETATM   10  C9  UNL     1     -38.814  11.970   6.661  1.00 20.00     0.010 C 
ENDBRANCH   6   8
TORSDOF 1
ENDMDL
MODEL 5
REMARK VINA RESULT:      -3.5     12.198     13.533
REMARK  1 active torsions:
REMARK  status: ('A' for Active; 'I' for Inactive)
REMARK    1  A    between atoms: C6_6  and  C10_10 
ROOT
HETATM    1  C1  UNL     1     -32.898  15.589  -3.853  1.00 20.00    -0.025 A 
HETATM    2  C2  UNL     1     -33.718  15.237  -4.856  1.00 20.00    -0.020 A 
HETATM    3  C3  UNL     1     -34.340  17.599  -5.664  1.00 20.00     0.020 A 
HETATM    4  C4  UNL     1     -33.290  16.955  -3.324  1.00 20.00     0.009 A 
HETATM    5  C5  UNL     1     -34.482  17.372  -4.180  1.00 20.00     0.006 A 
HETATM    6  C6  UNL     1     -34.764  16.240  -5.158  1.00 20.00    -0.015 A 
HETATM    7  C7  UNL     1     -33.653  16.890  -1.846  1.00 20.00     0.014 C 
ENDROOT
BRANCH   6   8
HETATM    8  C10 UNL     1     -36.168  15.775  -5.363  1.00 20.00    -0.010 C 
HETATM    9  C8  UNL     1     -36.696  16.154  -6.758  1.00 20.00     0.010 C 
HETATM   10  C9  UNL     1     -36.299  14.254  -5.166  1.00 20.00     0.010 C 
ENDBRANCH   6   8
TORSDOF 1
ENDMDL
MODEL 6
REMARK VINA RESULT:      -3.5      1.186      3.849
REMARK  1 active torsions:
REMARK  status: ('A' for Active; 'I' for Inactive)
REMARK    1  A    between atoms: C6_6  and  C10_10 
ROOT
HETATM    1  C1  UNL     1     -31.895   8.922   3.888  1.00 20.00    -0.025 A 
HETATM    2  C2  UNL     1     -32.346   8.033   4.788  1.00 20.00    -0.020 A 
HETATM    3  C3  UNL     1     -32.519   5.993   3.230  1.00 20.00     0.020 A 
HETATM    4  C4  UNL     1     -32.363   8.530   2.501  1.00 20.00     0.009 A 
HETATM    5  C5  UNL     1     -33.169   7.252   2.712  1.00 20.00     0.006 A 
HETATM    6  C6  UNL     1     -33.167   6.950   4.204  1.00 20.00    -0.015 A 
HETATM    7  C7  UNL     1     -33.208   9.631   1.873  1.00 20.00     0.014 C 
ENDROOT
BRANCH   6   8
HETATM    8  C10 UNL     1     -34.444   6.570   4.881  1.00 20.00    -0.010 C 
HETATM    9  C8  UNL     1     -34.766   5.077   4.694  1.00 20.00     0.010 C 
HETATM   10  C9  UNL     1     -34.411   6.900   6.383  1.00 20.00     0.010 C 
ENDBRANCH   6   8
TORSDOF 1
ENDMDL
MODEL 7
REMARK VINA RESULT:      -3.5     12.022     13.045
REMARK  1 active torsions:
REMARK  status: ('A' for Active; 'I' for Inactive)
REMARK    1  A    between atoms: C6_6  and  C10_10 
ROOT
HETATM    1  C1  UNL     1     -34.795  16.330  -5.896  1.00 20.00    -0.025 A 
HETATM    2  C2  UNL     1     -34.219  17.172  -5.023  1.00 20.00    -0.020 A 
HETATM    3  C3  UNL     1     -32.601  15.502  -3.921  1.00 20.00     0.020 A 
HETATM    4  C4  UNL     1     -34.742  14.915  -5.356  1.00 20.00     0.009 A 
HETATM    5  C5  UNL     1     -34.033  15.041  -4.011  1.00 20.00     0.006 A 
HETATM    6  C6  UNL     1     -33.716  16.514  -3.796  1.00 20.00    -0.015 A 
HETATM    7  C7  UNL     1     -36.141  14.331  -5.203  1.00 20.00     0.014 C 
ENDROOT
BRANCH   6   8
HETATM    8  C10 UNL     1     -34.003  17.145  -2.472  1.00 20.00    -0.010 C 
HETATM    9  C8  UNL     1     -32.712  17.580  -1.757  1.00 20.00     0.010 C 
HETATM   10  C9  UNL     1     -34.942  18.356  -2.611  1.00 20.00     0.010 C 
ENDBRANCH   6   8
TORSDOF 1
ENDMDL
MODEL 8
REMARK VINA RESULT:      -3.5      1.218      2.464
REMARK  1 active torsions:
REMARK  status: ('A' for Active; 'I' for Inactive)
REMARK    1  A    between atoms: C6_6  and  C10_10 
ROOT
HETATM    1  C1  UNL     1     -34.175   5.139   3.861  1.00 20.00    -0.025 A 
HETATM    2  C2  UNL     1     -33.103   5.946   3.820  1.00 20.00    -0.020 A 
HETATM    3  C3  UNL     1     -33.423   7.092   6.102  1.00 20.00     0.020 A 
HETATM    4  C4  UNL     1     -35.249   5.755   4.734  1.00 20.00     0.009 A 
HETATM    5  C5  UNL     1     -34.646   7.071   5.219  1.00 20.00     0.006 A 
HETATM    6  C6  UNL     1     -33.259   7.193   4.603  1.00 20.00    -0.015 A 
HETATM    7  C7  UNL     1     -36.535   5.982   3.949  1.00 20.00     0.014 C 
ENDROOT
BRANCH   6   8
HETATM    8  C10 UNL     1     -32.838   8.487   3.986  1.00 20.00    -0.010 C 
HETATM    9  C8  UNL     1     -31.919   9.292   4.922  1.00 20.00     0.010 C 
HETATM   10  C9  UNL     1     -32.128   8.270   2.638  1.00 20.00     0.010 C 
ENDBRANCH   6   8
TORSDOF 1
ENDMDL
MODEL 9
REMARK VINA RESULT:      -3.5     12.173     13.876
REMARK  1 active torsions:
REMARK  status: ('A' for Active; 'I' for Inactive)
REMARK    1  A    between atoms: C6_6  and  C10_10 
ROOT
HETATM    1  C1  UNL     1     -24.199  -1.757  11.793  1.00 20.00    -0.025 A 
HETATM    2  C2  UNL     1     -25.518  -1.506  11.802  1.00 20.00    -0.020 A 
HETATM    3  C3  UNL     1     -26.350  -3.921  11.494  1.00 20.00     0.020 A 
HETATM    4  C4  UNL     1     -23.920  -3.010  10.988  1.00 20.00     0.009 A 
HETATM    5  C5  UNL     1     -25.293  -3.478  10.514  1.00 20.00     0.006 A 
HETATM    6  C6  UNL     1     -26.321  -2.482  11.032  1.00 20.00    -0.015 A 
HETATM    7  C7  UNL     1     -22.991  -2.717   9.817  1.00 20.00     0.014 C 
ENDROOT
BRANCH   6   8
HETATM    8  C10 UNL     1     -27.384  -1.974  10.114  1.00 20.00    -0.010 C 
HETATM    9  C8  UNL     1     -28.726  -2.692  10.343  1.00 20.00     0.010 C 
HETATM   10  C9  UNL     1     -27.586  -0.456  10.263  1.00 20.00     0.010 C 
ENDBRANCH   6   8
TORSDOF 1
ENDMDL
