MODEL 1
REMARK VINA RESULT:      -4.8      0.000      0.000
REMARK  1 active torsions:
REMARK  status: ('A' for Active; 'I' for Inactive)
REMARK    1  A    between atoms: C6_6  and  C10_10 
ROOT
HETATM    1  C1  UNL     1     -32.914   5.812   2.593  1.00 20.00    -0.025 A 
HETATM    2  C2  UNL     1     -33.800   5.716   3.597  1.00 20.00    -0.020 A 
HETATM    3  C3  UNL     1     -33.980   8.212   4.194  1.00 20.00     0.020 A 
HETATM    4  C4  UNL     1     -32.041   7.032   2.797  1.00 20.00     0.009 A 
HETATM    5  C5  UNL     1     -32.570   7.685   4.068  1.00 20.00     0.006 A 
HETATM    6  C6  UNL     1     -33.681   6.792   4.608  1.00 20.00    -0.015 A 
HETATM    7  C7  UNL     1     -32.068   7.981   1.607  1.00 20.00     0.014 C 
ENDROOT
BRANCH   6   8
HETATM    8  C10 UNL     1     -33.693   6.422   6.056  1.00 20.00    -0.010 C 
HETATM    9  C8  UNL     1     -34.237   7.564   6.931  1.00 20.00     0.010 C 
HETATM   10  C9  UNL     1     -34.518   5.148   6.311  1.00 20.00     0.010 C 
ENDBRANCH   6   8
TORSDOF 1
ENDMDL
MODEL 2
REMARK VINA RESULT:      -4.2      1.132      3.615
REMARK  1 active torsions:
REMARK  status: ('A' for Active; 'I' for Inactive)
REMARK    1  A    between atoms: C6_6  and  C10_10 
ROOT
HETATM    1  C1  UNL     1     -33.887   5.092   3.882  1.00 20.00    -0.025 A 
HETATM    2  C2  UNL     1     -32.943   5.928   3.422  1.00 20.00    -0.020 A 
HETATM    3  C3  UNL     1     -32.894   7.576   5.396  1.00 20.00     0.020 A 
HETATM    4  C4  UNL     1     -34.826   5.839   4.806  1.00 20.00     0.009 A 
HETATM    5  C5  UNL     1     -34.271   7.256   4.866  1.00 20.00     0.006 A 
HETATM    6  C6  UNL     1     -33.076   7.316   3.921  1.00 20.00    -0.015 A 
HETATM    7  C7  UNL     1     -34.927   5.200   6.183  1.00 20.00     0.014 C 
ENDROOT
BRANCH   6   8
HETATM    8  C10 UNL     1     -32.959   8.444   2.948  1.00 20.00    -0.010 C 
HETATM    9  C8  UNL     1     -32.321   9.688   3.591  1.00 20.00     0.010 C 
HETATM   10  C9  UNL     1     -32.148   8.041   1.704  1.00 20.00     0.010 C 
ENDBRANCH   6   8
TORSDOF 1
ENDMDL
MODEL 3
REMARK VINA RESULT:      -4.1     11.907     12.855
REMARK  1 active torsions:
REMARK  status: ('A' for Active; 'I' for Inactive)
REMARK    1  A    between atoms: C6_6  and  C10_10 
ROOT
HETATM    1  C1  UNL     1     -31.066  18.576  -0.022  1.00 20.00    -0.025 A 
HETATM    2  C2  UNL     1     -31.818  18.655  -1.131  1.00 20.00    -0.020 A 
HETATM    3  C3  UNL     1     -34.063  19.263  -0.032  1.00 20.00     0.020 A 
HETATM    4  C4  UNL     1     -31.934  18.190   1.157  1.00 20.00     0.009 A 
HETATM    5  C5  UNL     1     -33.344  18.090   0.590  1.00 20.00     0.006 A 
HETATM    6  C6  UNL     1     -33.249  18.344  -0.910  1.00 20.00    -0.015 A 
HETATM    7  C7  UNL     1     -31.843  19.185   2.305  1.00 20.00     0.014 C 
ENDROOT
BRANCH   6   8
HETATM    8  C10 UNL     1     -33.939  17.421  -1.861  1.00 20.00    -0.010 C 
HETATM    9  C8  UNL     1     -34.930  18.173  -2.766  1.00 20.00     0.010 C 
HETATM   10  C9  UNL     1     -32.935  16.650  -2.735  1.00 20.00     0.010 C 
ENDBRANCH   6   8
TORSDOF 1
ENDMDL
MODEL 4
REMARK VINA RESULT:      -3.9     11.929     13.063
REMARK  1 active torsions:
REMARK  status: ('A' for Active; 'I' for Inactive)
REMARK    1  A    between atoms: C6_6  and  C10_10 
ROOT
HETATM    1  C1  UNL     1     -33.363  16.558  -3.278  1.00 20.00    -0.025 A 
HETATM    2  C2  UNL     1     -33.450  16.801  -1.960  1.00 20.00    -0.020 A 
HETATM    3  C3  UNL     1     -35.139  18.739  -2.037  1.00 20.00     0.020 A 
HETATM    4  C4  UNL     1     -33.654  17.826  -4.052  1.00 20.00     0.009 A 
HETATM    5  C5  UNL     1     -33.975  18.869  -2.989  1.00 20.00     0.006 A 
HETATM    6  C6  UNL     1     -33.788  18.204  -1.630  1.00 20.00    -0.015 A 
HETATM    7  C7  UNL     1     -34.787  17.657  -5.054  1.00 20.00     0.014 C 
ENDROOT
BRANCH   6   8
HETATM    8  C10 UNL     1     -33.002  18.901  -0.568  1.00 20.00    -0.010 C 
HETATM    9  C8  UNL     1     -33.632  18.713   0.823  1.00 20.00     0.010 C 
HETATM   10  C9  UNL     1     -31.540  18.422  -0.534  1.00 20.00     0.010 C 
ENDBRANCH   6   8
TORSDOF 1
ENDMDL
MODEL 5
REMARK VINA RESULT:      -3.9      1.014      2.226
REMARK  1 active torsions:
REMARK  status: ('A' for Active; 'I' for Inactive)
REMARK    1  A    between atoms: C6_6  and  C10_10 
ROOT
HETATM    1  C1  UNL     1     -32.238   8.907   3.694  1.00 20.00    -0.025 A 
HETATM    2  C2  UNL     1     -32.471   7.999   4.655  1.00 20.00    -0.020 A 
HETATM    3  C3  UNL     1     -32.692   5.912   3.168  1.00 20.00     0.020 A 
HETATM    4  C4  UNL     1     -32.879   8.456   2.399  1.00 20.00     0.009 A 
HETATM    5  C5  UNL     1     -33.503   7.104   2.720  1.00 20.00     0.006 A 
HETATM    6  C6  UNL     1     -33.276   6.841   4.204  1.00 20.00    -0.015 A 
HETATM    7  C7  UNL     1     -31.886   8.375   1.248  1.00 20.00     0.014 C 
ENDROOT
BRANCH   6   8
HETATM    8  C10 UNL     1     -34.415   6.381   5.055  1.00 20.00    -0.010 C 
HETATM    9  C8  UNL     1     -34.572   4.851   5.019  1.00 20.00     0.010 C 
HETATM   10  C9  UNL     1     -34.257   6.843   6.515  1.00 20.00     0.010 C 
ENDBRANCH   6   8
TORSDOF 1
ENDMDL
MODEL 6
REMARK VINA RESULT:      -3.8      1.163      2.100
REMARK  1 active torsions:
REMARK  status: ('A' for Active; 'I' for Inactive)
REMARK    1  A    between atoms: C6_6  and  C10_10 
ROOT
HETATM    1  C1  UNL     1     -32.214   7.305   3.250  1.00 20.00    -0.025 A 
HETATM    2  C2  UNL     1     -33.311   6.531   3.204  1.00 20.00    -0.020 A 
HETATM    3  C3  UNL     1     -34.810   7.892   4.791  1.00 20.00     0.020 A 
HETATM    4  C4  UNL     1     -32.157   8.031   4.577  1.00 20.00     0.009 A 
HETATM    5  C5  UNL     1     -33.422   7.605   5.312  1.00 20.00     0.006 A 
HETATM    6  C6  UNL     1     -34.138   6.589   4.430  1.00 20.00    -0.015 A 
HETATM    7  C7  UNL     1     -32.064   9.542   4.418  1.00 20.00     0.014 C 
ENDROOT
BRANCH   6   8
HETATM    8  C10 UNL     1     -34.630   5.310   5.026  1.00 20.00    -0.010 C 
HETATM    9  C8  UNL     1     -33.898   4.090   4.440  1.00 20.00     0.010 C 
HETATM   10  C9  UNL     1     -34.487   5.304   6.558  1.00 20.00     0.010 C 
ENDBRANCH   6   8
TORSDOF 1
ENDMDL
MODEL 7
REMARK VINA RESULT:      -3.7     11.795     13.355
REMARK  1 active torsions:
REMARK  status: ('A' for Active; 'I' for Inactive)
REMARK    1  A    between atoms: C6_6  and  C10_10 
ROOT
HETATM    1  C1  UNL     1     -33.300  16.824  -2.162  1.00 20.00    -0.025 A 
HETATM    2  C2  UNL     1     -33.185  16.198  -3.345  1.00 20.00    -0.020 A 
HETATM    3  C3  UNL     1     -33.999  18.103  -4.870  1.00 20.00     0.020 A 
HETATM    4  C4  UNL     1     -34.389  17.873  -2.244  1.00 20.00     0.009 A 
HETATM    5  C5  UNL     1     -34.885  17.812  -3.683  1.00 20.00     0.006 A 
HETATM    6  C6  UNL     1     -34.131  16.683  -4.375  1.00 20.00    -0.015 A 
HETATM    7  C7  UNL     1     -33.897  19.262  -1.863  1.00 20.00     0.014 C 
ENDROOT
BRANCH   6   8
HETATM    8  C10 UNL     1     -34.884  15.680  -5.188  1.00 20.00    -0.010 C 
HETATM    9  C8  UNL     1     -34.348  15.596  -6.628  1.00 20.00     0.010 C 
HETATM   10  C9  UNL     1     -34.843  14.282  -4.547  1.00 20.00     0.010 C 
ENDBRANCH   6   8
TORSDOF 1
ENDMDL
MODEL 8
REMARK VINA RESULT:      -3.7     11.956     13.383
REMARK  1 active torsions:
REMARK  status: ('A' for Active; 'I' for Inactive)
REMARK    1  A    between atoms: C6_6  and  C10_10 
ROOT
HETATM    1  C1  UNL     1     -33.227  16.165  -3.145  1.00 20.00    -0.025 A 
HETATM    2  C2  UNL     1     -33.601  15.475  -4.235  1.00 20.00    -0.020 A 
HETATM    3  C3  UNL     1     -34.342  17.451  -5.706  1.00 20.00     0.020 A 
HETATM    4  C4  UNL     1     -34.016  17.454  -3.061  1.00 20.00     0.009 A 
HETATM    5  C5  UNL     1     -34.899  17.455  -4.302  1.00 20.00     0.006 A 
HETATM    6  C6  UNL     1     -34.658  16.138  -5.031  1.00 20.00    -0.015 A 
HETATM    7  C7  UNL     1     -33.124  18.685  -2.987  1.00 20.00     0.014 C 
ENDROOT
BRANCH   6   8
HETATM    8  C10 UNL     1     -35.824  15.327  -5.496  1.00 20.00    -0.010 C 
HETATM    9  C8  UNL     1     -35.817  15.142  -7.023  1.00 20.00     0.010 C 
HETATM   10  C9  UNL     1     -35.864  13.947  -4.816  1.00 20.00     0.010 C 
ENDBRANCH   6   8
TORSDOF 1
ENDMDL
MODEL 9
REMARK VINA RESULT:      -3.6      8.966     10.872
REMARK  1 active torsions:
REMARK  status: ('A' for Active; 'I' for Inactive)
REMARK    1  A    between atoms: C6_6  and  C10_10 
ROOT
HETATM    1  C1  UNL     1     -40.904  14.506   8.132  1.00 20.00    -0.025 A 
HETATM    2  C2  UNL     1     -40.080  14.180   7.123  1.00 20.00    -0.020 A 
HETATM    3  C3  UNL     1     -41.853  13.632   5.342  1.00 20.00     0.020 A 
HETATM    4  C4  UNL     1     -42.218  13.771   7.977  1.00 20.00     0.009 A 
HETATM    5  C5  UNL     1     -42.074  12.978   6.685  1.00 20.00     0.006 A 
HETATM    6  C6  UNL     1     -40.660  13.212   6.165  1.00 20.00    -0.015 A 
HETATM    7  C7  UNL     1     -43.417  14.709   7.948  1.00 20.00     0.014 C 
ENDROOT
BRANCH   6   8
HETATM    8  C10 UNL     1     -39.831  12.046   5.730  1.00 20.00    -0.010 C 
HETATM    9  C8  UNL     1     -39.552  12.079   4.218  1.00 20.00     0.010 C 
HETATM   10  C9  UNL     1     -38.497  11.981   6.494  1.00 20.00     0.010 C 
ENDBRANCH   6   8
TORSDOF 1
ENDMDL
