MODEL 1
REMARK VINA RESULT:      -4.4      0.000      0.000
REMARK  3 active torsions:
REMARK  status: ('A' for Active; 'I' for Inactive)
REMARK    1  A    between atoms: C2_2  and  C10_10 
REMARK    2  A    between atoms: C5_5  and  C10_10 
REMARK    3  A    between atoms: C7_7  and  O11_11 
ROOT
HETATM    1  C3  UNL     1     -31.470  18.140  -0.598  1.00 20.00     0.008 C 
HETATM    2  C4  UNL     1     -31.023  18.900   0.652  1.00 20.00     0.032 C 
HETATM    3  C5  UNL     1     -32.990  18.311  -0.663  1.00 20.00    -0.004 C 
HETATM    4  C6  UNL     1     -33.384  18.356   0.818  1.00 20.00     0.015 C 
HETATM    5  C7  UNL     1     -32.301  19.262   1.410  1.00 20.00     0.122 C 
HETATM    6  C9  UNL     1     -34.791  18.887   1.060  1.00 20.00     0.013 C 
ENDROOT
BRANCH   3   7
HETATM    7  C10 UNL     1     -33.667  17.199  -1.451  1.00 20.00     0.038 C 
BRANCH   7   8
HETATM    8  C2  UNL     1     -33.372  17.267  -2.929  1.00 20.00    -0.093 C 
HETATM    9  C1  UNL     1     -33.306  18.441  -3.578  1.00 20.00     0.014 C 
HETATM   10  C8  UNL     1     -33.190  15.964  -3.651  1.00 20.00     0.042 C 
ENDBRANCH   7   8
ENDBRANCH   3   7
BRANCH   5  11
HETATM   11  O11 UNL     1     -32.131  19.036   2.799  1.00 20.00    -0.395 OA
HETATM   12  H29 UNL     1     -32.375  18.110   2.969  1.00 20.00     0.210 HD
ENDBRANCH   5  11
TORSDOF 3
ENDMDL
MODEL 2
REMARK VINA RESULT:      -4.3     11.550     12.256
REMARK  3 active torsions:
REMARK  status: ('A' for Active; 'I' for Inactive)
REMARK    1  A    between atoms: C2_2  and  C10_10 
REMARK    2  A    between atoms: C5_5  and  C10_10 
REMARK    3  A    between atoms: C7_7  and  O11_11 
ROOT
HETATM    1  C3  UNL     1     -33.453   7.938   5.270  1.00 20.00     0.008 C 
HETATM    2  C4  UNL     1     -34.325   6.902   5.980  1.00 20.00     0.032 C 
HETATM    3  C5  UNL     1     -33.294   7.430   3.835  1.00 20.00    -0.004 C 
HETATM    4  C6  UNL     1     -33.295   5.908   4.018  1.00 20.00     0.015 C 
HETATM    5  C7  UNL     1     -34.426   5.707   5.029  1.00 20.00     0.122 C 
HETATM    6  C9  UNL     1     -33.519   5.137   2.724  1.00 20.00     0.013 C 
ENDROOT
BRANCH   3   7
HETATM    7  C10 UNL     1     -32.042   7.973   3.161  1.00 20.00     0.038 C 
BRANCH   7   8
HETATM    8  C2  UNL     1     -32.326   8.590   1.813  1.00 20.00    -0.093 C 
HETATM    9  C1  UNL     1     -31.923   8.003   0.674  1.00 20.00     0.014 C 
HETATM   10  C8  UNL     1     -33.046   9.907   1.801  1.00 20.00     0.042 C 
ENDBRANCH   7   8
ENDBRANCH   3   7
BRANCH   5  11
HETATM   11  O11 UNL     1     -34.280   4.494   5.745  1.00 20.00    -0.395 OA
HETATM   12  H29 UNL     1     -34.196   3.783   5.087  1.00 20.00     0.210 HD
ENDBRANCH   5  11
TORSDOF 3
ENDMDL
MODEL 3
REMARK VINA RESULT:      -4.0      3.291      5.474
REMARK  3 active torsions:
REMARK  status: ('A' for Active; 'I' for Inactive)
REMARK    1  A    between atoms: C2_2  and  C10_10 
REMARK    2  A    between atoms: C5_5  and  C10_10 
REMARK    3  A    between atoms: C7_7  and  O11_11 
ROOT
HETATM    1  C3  UNL     1     -32.997  15.898  -3.464  1.00 20.00     0.008 C 
HETATM    2  C4  UNL     1     -33.813  15.185  -4.543  1.00 20.00     0.032 C 
HETATM    3  C5  UNL     1     -33.772  17.178  -3.139  1.00 20.00    -0.004 C 
HETATM    4  C6  UNL     1     -34.396  17.541  -4.491  1.00 20.00     0.015 C 
HETATM    5  C7  UNL     1     -34.882  16.181  -4.997  1.00 20.00     0.122 C 
HETATM    6  C9  UNL     1     -35.519  18.566  -4.390  1.00 20.00     0.013 C 
ENDROOT
BRANCH   3   7
HETATM    7  C10 UNL     1     -32.882  18.265  -2.555  1.00 20.00     0.038 C 
BRANCH   7   8
HETATM    8  C2  UNL     1     -32.754  18.170  -1.053  1.00 20.00    -0.093 C 
HETATM    9  C1  UNL     1     -33.810  17.880  -0.277  1.00 20.00     0.014 C 
HETATM   10  C8  UNL     1     -31.403  18.451  -0.463  1.00 20.00     0.042 C 
ENDBRANCH   7   8
ENDBRANCH   3   7
BRANCH   5  11
HETATM   11  O11 UNL     1     -35.006  16.160  -6.408  1.00 20.00    -0.395 OA
HETATM   12  H29 UNL     1     -35.737  16.759  -6.638  1.00 20.00     0.210 HD
ENDBRANCH   5  11
TORSDOF 3
ENDMDL
MODEL 4
REMARK VINA RESULT:      -4.0      3.594      5.963
REMARK  3 active torsions:
REMARK  status: ('A' for Active; 'I' for Inactive)
REMARK    1  A    between atoms: C2_2  and  C10_10 
REMARK    2  A    between atoms: C5_5  and  C10_10 
REMARK    3  A    between atoms: C7_7  and  O11_11 
ROOT
HETATM    1  C3  UNL     1     -34.926  17.336  -4.120  1.00 20.00     0.008 C 
HETATM    2  C4  UNL     1     -35.220  16.791  -5.518  1.00 20.00     0.032 C 
HETATM    3  C5  UNL     1     -33.641  16.637  -3.667  1.00 20.00    -0.004 C 
HETATM    4  C6  UNL     1     -33.762  15.258  -4.327  1.00 20.00     0.015 C 
HETATM    5  C7  UNL     1     -34.264  15.616  -5.728  1.00 20.00     0.122 C 
HETATM    6  C9  UNL     1     -32.455  14.477  -4.352  1.00 20.00     0.013 C 
ENDROOT
BRANCH   3   7
HETATM    7  C10 UNL     1     -33.507  16.590  -2.152  1.00 20.00     0.038 C 
BRANCH   7   8
HETATM    8  C2  UNL     1     -33.266  17.950  -1.544  1.00 20.00    -0.093 C 
HETATM    9  C1  UNL     1     -32.471  18.853  -2.139  1.00 20.00     0.014 C 
HETATM   10  C8  UNL     1     -33.926  18.237  -0.226  1.00 20.00     0.042 C 
ENDBRANCH   7   8
ENDBRANCH   3   7
BRANCH   5  11
HETATM   11  O11 UNL     1     -34.943  14.531  -6.334  1.00 20.00    -0.395 OA
HETATM   12  H29 UNL     1     -35.383  14.036  -5.622  1.00 20.00     0.210 HD
ENDBRANCH   5  11
TORSDOF 3
ENDMDL
MODEL 5
REMARK VINA RESULT:      -3.9      3.668      5.907
REMARK  3 active torsions:
REMARK  status: ('A' for Active; 'I' for Inactive)
REMARK    1  A    between atoms: C2_2  and  C10_10 
REMARK    2  A    between atoms: C5_5  and  C10_10 
REMARK    3  A    between atoms: C7_7  and  O11_11 
ROOT
HETATM    1  C3  UNL     1     -33.173  15.603  -3.557  1.00 20.00     0.008 C 
HETATM    2  C4  UNL     1     -33.790  14.482  -4.395  1.00 20.00     0.032 C 
HETATM    3  C5  UNL     1     -34.070  16.824  -3.778  1.00 20.00    -0.004 C 
HETATM    4  C6  UNL     1     -34.535  16.638  -5.227  1.00 20.00     0.015 C 
HETATM    5  C7  UNL     1     -34.855  15.142  -5.272  1.00 20.00     0.122 C 
HETATM    6  C9  UNL     1     -35.729  17.506  -5.602  1.00 20.00     0.013 C 
ENDROOT
BRANCH   3   7
HETATM    7  C10 UNL     1     -33.341  18.135  -3.524  1.00 20.00     0.038 C 
BRANCH   7   8
HETATM    8  C2  UNL     1     -33.318  18.517  -2.063  1.00 20.00    -0.093 C 
HETATM    9  C1  UNL     1     -32.174  18.532  -1.361  1.00 20.00     0.014 C 
HETATM   10  C8  UNL     1     -34.634  18.845  -1.421  1.00 20.00     0.042 C 
ENDBRANCH   7   8
ENDBRANCH   3   7
BRANCH   5  11
HETATM   11  O11 UNL     1     -34.792  14.631  -6.592  1.00 20.00    -0.395 OA
HETATM   12  H29 UNL     1     -34.292  13.798  -6.551  1.00 20.00     0.210 HD
ENDBRANCH   5  11
TORSDOF 3
ENDMDL
MODEL 6
REMARK VINA RESULT:      -3.9      4.218      6.714
REMARK  3 active torsions:
REMARK  status: ('A' for Active; 'I' for Inactive)
REMARK    1  A    between atoms: C2_2  and  C10_10 
REMARK    2  A    between atoms: C5_5  and  C10_10 
REMARK    3  A    between atoms: C7_7  and  O11_11 
ROOT
HETATM    1  C3  UNL     1     -34.740  14.243  -4.085  1.00 20.00     0.008 C 
HETATM    2  C4  UNL     1     -35.771  13.798  -5.123  1.00 20.00     0.032 C 
HETATM    3  C5  UNL     1     -34.495  15.730  -4.358  1.00 20.00    -0.004 C 
HETATM    4  C6  UNL     1     -34.661  15.820  -5.880  1.00 20.00     0.015 C 
HETATM    5  C7  UNL     1     -35.897  14.951  -6.121  1.00 20.00     0.122 C 
HETATM    6  C9  UNL     1     -34.834  17.244  -6.392  1.00 20.00     0.013 C 
ENDROOT
BRANCH   3   7
HETATM    7  C10 UNL     1     -33.139  16.199  -3.853  1.00 20.00     0.038 C 
BRANCH   7   8
HETATM    8  C2  UNL     1     -33.235  17.417  -2.968  1.00 20.00    -0.093 C 
HETATM    9  C1  UNL     1     -33.009  18.651  -3.447  1.00 20.00     0.014 C 
HETATM   10  C8  UNL     1     -33.558  17.187  -1.520  1.00 20.00     0.042 C 
ENDBRANCH   7   8
ENDBRANCH   3   7
BRANCH   5  11
HETATM   11  O11 UNL     1     -35.937  14.452  -7.446  1.00 20.00    -0.395 OA
HETATM   12  H29 UNL     1     -35.033  14.510  -7.800  1.00 20.00     0.210 HD
ENDBRANCH   5  11
TORSDOF 3
ENDMDL
MODEL 7
REMARK VINA RESULT:      -3.8     10.552     11.625
REMARK  3 active torsions:
REMARK  status: ('A' for Active; 'I' for Inactive)
REMARK    1  A    between atoms: C2_2  and  C10_10 
REMARK    2  A    between atoms: C5_5  and  C10_10 
REMARK    3  A    between atoms: C7_7  and  O11_11 
ROOT
HETATM    1  C3  UNL     1     -40.552  14.045   7.746  1.00 20.00     0.008 C 
HETATM    2  C4  UNL     1     -41.329  15.343   7.975  1.00 20.00     0.032 C 
HETATM    3  C5  UNL     1     -40.679  13.747   6.250  1.00 20.00    -0.004 C 
HETATM    4  C6  UNL     1     -42.076  14.286   5.920  1.00 20.00     0.015 C 
HETATM    5  C7  UNL     1     -42.095  15.615   6.678  1.00 20.00     0.122 C 
HETATM    6  C9  UNL     1     -42.329  14.456   4.428  1.00 20.00     0.013 C 
ENDROOT
BRANCH   3   7
HETATM    7  C10 UNL     1     -40.494  12.270   5.933  1.00 20.00     0.038 C 
BRANCH   7   8
HETATM    8  C2  UNL     1     -39.206  11.987   5.198  1.00 20.00    -0.093 C 
HETATM    9  C1  UNL     1     -39.203  11.610   3.910  1.00 20.00     0.014 C 
HETATM   10  C8  UNL     1     -37.931  12.112   5.980  1.00 20.00     0.042 C 
ENDBRANCH   7   8
ENDBRANCH   3   7
BRANCH   5  11
HETATM   11  O11 UNL     1     -43.416  16.036   6.967  1.00 20.00    -0.395 OA
HETATM   12  H29 UNL     1     -43.433  16.303   7.902  1.00 20.00     0.210 HD
ENDBRANCH   5  11
TORSDOF 3
ENDMDL
MODEL 8
REMARK VINA RESULT:      -3.8      3.891      6.264
REMARK  3 active torsions:
REMARK  status: ('A' for Active; 'I' for Inactive)
REMARK    1  A    between atoms: C2_2  and  C10_10 
REMARK    2  A    between atoms: C5_5  and  C10_10 
REMARK    3  A    between atoms: C7_7  and  O11_11 
ROOT
HETATM    1  C3  UNL     1     -35.886  16.695  -5.252  1.00 20.00     0.008 C 
HETATM    2  C4  UNL     1     -36.435  15.283  -5.469  1.00 20.00     0.032 C 
HETATM    3  C5  UNL     1     -34.376  16.526  -5.067  1.00 20.00    -0.004 C 
HETATM    4  C6  UNL     1     -34.276  15.169  -4.363  1.00 20.00     0.015 C 
HETATM    5  C7  UNL     1     -35.287  14.326  -5.145  1.00 20.00     0.122 C 
HETATM    6  C9  UNL     1     -32.874  14.572  -4.381  1.00 20.00     0.013 C 
ENDROOT
BRANCH   3   7
HETATM    7  C10 UNL     1     -33.753  17.676  -4.290  1.00 20.00     0.038 C 
BRANCH   7   8
HETATM    8  C2  UNL     1     -34.309  17.805  -2.892  1.00 20.00    -0.093 C 
HETATM    9  C1  UNL     1     -35.405  18.536  -2.638  1.00 20.00     0.014 C 
HETATM   10  C8  UNL     1     -33.560  17.109  -1.792  1.00 20.00     0.042 C 
ENDBRANCH   7   8
ENDBRANCH   3   7
BRANCH   5  11
HETATM   11  O11 UNL     1     -35.759  13.231  -4.380  1.00 20.00    -0.395 OA
HETATM   12  H29 UNL     1     -36.475  12.815  -4.891  1.00 20.00     0.210 HD
ENDBRANCH   5  11
TORSDOF 3
ENDMDL
MODEL 9
REMARK VINA RESULT:      -3.8      4.696      6.230
REMARK  3 active torsions:
REMARK  status: ('A' for Active; 'I' for Inactive)
REMARK    1  A    between atoms: C2_2  and  C10_10 
REMARK    2  A    between atoms: C5_5  and  C10_10 
REMARK    3  A    between atoms: C7_7  and  O11_11 
ROOT
HETATM    1  C3  UNL     1     -33.834  17.198  -4.006  1.00 20.00     0.008 C 
HETATM    2  C4  UNL     1     -33.261  15.892  -3.453  1.00 20.00     0.032 C 
HETATM    3  C5  UNL     1     -35.021  16.790  -4.881  1.00 20.00    -0.004 C 
HETATM    4  C6  UNL     1     -34.569  15.441  -5.449  1.00 20.00     0.015 C 
HETATM    5  C7  UNL     1     -33.955  14.765  -4.221  1.00 20.00     0.122 C 
HETATM    6  C9  UNL     1     -35.699  14.626  -6.065  1.00 20.00     0.013 C 
ENDROOT
BRANCH   3   7
HETATM    7  C10 UNL     1     -35.347  17.832  -5.942  1.00 20.00     0.038 C 
BRANCH   7   8
HETATM    8  C2  UNL     1     -36.804  18.229  -5.943  1.00 20.00    -0.093 C 
HETATM    9  C1  UNL     1     -37.316  19.008  -6.908  1.00 20.00     0.014 C 
HETATM   10  C8  UNL     1     -37.646  17.743  -4.800  1.00 20.00     0.042 C 
ENDBRANCH   7   8
ENDBRANCH   3   7
BRANCH   5  11
HETATM   11  O11 UNL     1     -33.018  13.767  -4.584  1.00 20.00    -0.395 OA
HETATM   12  H29 UNL     1     -32.661  13.396  -3.758  1.00 20.00     0.210 HD
ENDBRANCH   5  11
TORSDOF 3
ENDMDL
