MODEL 1
REMARK VINA RESULT:      -4.7      0.000      0.000
REMARK  3 active torsions:
REMARK  status: ('A' for Active; 'I' for Inactive)
REMARK    1  A    between atoms: C2_2  and  C7_7 
REMARK    2  A    between atoms: C5_5  and  C7_7 
REMARK    3  A    between atoms: C7_7  and  O8_8 
ROOT
HETATM    1  C7  UNL     1     -33.656   7.393   5.223  1.00 20.00     0.150 C 
ENDROOT
BRANCH   1   2
HETATM    2  C2  UNL     1     -32.618   8.116   4.395  1.00 20.00    -0.064 C 
HETATM    3  C1  UNL     1     -32.071   9.266   4.822  1.00 20.00     0.016 C 
HETATM    4  C6  UNL     1     -32.208   7.508   3.082  1.00 20.00     0.045 C 
ENDBRANCH   1   2
BRANCH   1   5
HETATM    5  C5  UNL     1     -34.096   6.074   4.597  1.00 20.00     0.019 A 
HETATM    6  C3  UNL     1     -34.618   4.961   5.463  1.00 20.00     0.008 A 
HETATM    7  C4  UNL     1     -35.553   5.707   4.552  1.00 20.00     0.008 A 
ENDBRANCH   1   5
BRANCH   1   8
HETATM    8  O8  UNL     1     -33.122   7.143   6.521  1.00 20.00    -0.391 OA
HETATM    9  H20 UNL     1     -33.520   6.313   6.828  1.00 20.00     0.210 HD
ENDBRANCH   1   8
TORSDOF 3
ENDMDL
MODEL 2
REMARK VINA RESULT:      -4.6      1.646      2.156
REMARK  3 active torsions:
REMARK  status: ('A' for Active; 'I' for Inactive)
REMARK    1  A    between atoms: C2_2  and  C7_7 
REMARK    2  A    between atoms: C5_5  and  C7_7 
REMARK    3  A    between atoms: C7_7  and  O8_8 
ROOT
HETATM    1  C7  UNL     1     -33.044   6.330   4.057  1.00 20.00     0.150 C 
ENDROOT
BRANCH   1   2
HETATM    2  C2  UNL     1     -32.502   7.660   3.583  1.00 20.00    -0.064 C 
HETATM    3  C1  UNL     1     -32.205   7.865   2.289  1.00 20.00     0.016 C 
HETATM    4  C6  UNL     1     -32.314   8.751   4.600  1.00 20.00     0.045 C 
ENDBRANCH   1   2
BRANCH   1   5
HETATM    5  C5  UNL     1     -34.337   6.469   4.853  1.00 20.00     0.019 A 
HETATM    6  C3  UNL     1     -34.999   5.253   5.440  1.00 20.00     0.008 A 
HETATM    7  C4  UNL     1     -34.335   6.257   6.341  1.00 20.00     0.008 A 
ENDBRANCH   1   5
BRANCH   1   8
HETATM    8  O8  UNL     1     -33.274   5.493   2.925  1.00 20.00    -0.391 OA
HETATM    9  H20 UNL     1     -32.760   4.683   3.072  1.00 20.00     0.210 HD
ENDBRANCH   1   8
TORSDOF 3
ENDMDL
MODEL 3
REMARK VINA RESULT:      -4.5      0.860      3.401
REMARK  3 active torsions:
REMARK  status: ('A' for Active; 'I' for Inactive)
REMARK    1  A    between atoms: C2_2  and  C7_7 
REMARK    2  A    between atoms: C5_5  and  C7_7 
REMARK    3  A    between atoms: C7_7  and  O8_8 
ROOT
HETATM    1  C7  UNL     1     -33.740   6.765   5.504  1.00 20.00     0.150 C 
ENDROOT
BRANCH   1   2
HETATM    2  C2  UNL     1     -34.556   5.726   4.768  1.00 20.00    -0.064 C 
HETATM    3  C1  UNL     1     -35.781   6.014   4.297  1.00 20.00     0.016 C 
HETATM    4  C6  UNL     1     -33.955   4.362   4.570  1.00 20.00     0.045 C 
ENDBRANCH   1   2
BRANCH   1   5
HETATM    5  C5  UNL     1     -33.522   8.032   4.685  1.00 20.00     0.019 A 
HETATM    6  C3  UNL     1     -32.266   8.840   4.860  1.00 20.00     0.008 A 
HETATM    7  C4  UNL     1     -32.486   8.058   3.595  1.00 20.00     0.008 A 
ENDBRANCH   1   5
BRANCH   1   8
HETATM    8  O8  UNL     1     -34.403   7.099   6.722  1.00 20.00    -0.391 OA
HETATM    9  H20 UNL     1     -34.885   6.304   7.000  1.00 20.00     0.210 HD
ENDBRANCH   1   8
TORSDOF 3
ENDMDL
MODEL 4
REMARK VINA RESULT:      -4.4      1.304      1.714
REMARK  3 active torsions:
REMARK  status: ('A' for Active; 'I' for Inactive)
REMARK    1  A    between atoms: C2_2  and  C7_7 
REMARK    2  A    between atoms: C5_5  and  C7_7 
REMARK    3  A    between atoms: C7_7  and  O8_8 
ROOT
HETATM    1  C7  UNL     1     -33.337   7.263   4.458  1.00 20.00     0.150 C 
ENDROOT
BRANCH   1   2
HETATM    2  C2  UNL     1     -32.706   6.890   3.135  1.00 20.00    -0.064 C 
HETATM    3  C1  UNL     1     -32.056   7.804   2.396  1.00 20.00     0.016 C 
HETATM    4  C6  UNL     1     -32.818   5.463   2.674  1.00 20.00     0.045 C 
ENDBRANCH   1   2
BRANCH   1   5
HETATM    5  C5  UNL     1     -33.758   6.047   5.275  1.00 20.00     0.019 A 
HETATM    6  C3  UNL     1     -34.594   6.218   6.513  1.00 20.00     0.008 A 
HETATM    7  C4  UNL     1     -35.193   5.599   5.280  1.00 20.00     0.008 A 
ENDBRANCH   1   5
BRANCH   1   8
HETATM    8  O8  UNL     1     -32.408   8.039   5.212  1.00 20.00    -0.391 OA
HETATM    9  H20 UNL     1     -31.986   7.431   5.839  1.00 20.00     0.210 HD
ENDBRANCH   1   8
TORSDOF 3
ENDMDL
MODEL 5
REMARK VINA RESULT:      -4.3      1.669      3.667
REMARK  3 active torsions:
REMARK  status: ('A' for Active; 'I' for Inactive)
REMARK    1  A    between atoms: C2_2  and  C7_7 
REMARK    2  A    between atoms: C5_5  and  C7_7 
REMARK    3  A    between atoms: C7_7  and  O8_8 
ROOT
HETATM    1  C7  UNL     1     -33.917   6.518   4.193  1.00 20.00     0.150 C 
ENDROOT
BRANCH   1   2
HETATM    2  C2  UNL     1     -34.252   6.303   5.652  1.00 20.00    -0.064 C 
HETATM    3  C1  UNL     1     -34.737   5.127   6.085  1.00 20.00     0.016 C 
HETATM    4  C6  UNL     1     -34.017   7.439   6.608  1.00 20.00     0.045 C 
ENDBRANCH   1   2
BRANCH   1   5
HETATM    5  C5  UNL     1     -32.642   7.330   3.994  1.00 20.00     0.019 A 
HETATM    6  C3  UNL     1     -32.125   7.599   2.608  1.00 20.00     0.008 A 
HETATM    7  C4  UNL     1     -32.712   8.719   3.422  1.00 20.00     0.008 A 
ENDBRANCH   1   5
BRANCH   1   8
HETATM    8  O8  UNL     1     -33.772   5.249   3.558  1.00 20.00    -0.391 OA
HETATM    9  H20 UNL     1     -34.175   5.332   2.680  1.00 20.00     0.210 HD
ENDBRANCH   1   8
TORSDOF 3
ENDMDL
MODEL 6
REMARK VINA RESULT:      -4.3      1.637      3.485
REMARK  3 active torsions:
REMARK  status: ('A' for Active; 'I' for Inactive)
REMARK    1  A    between atoms: C2_2  and  C7_7 
REMARK    2  A    between atoms: C5_5  and  C7_7 
REMARK    3  A    between atoms: C7_7  and  O8_8 
ROOT
HETATM    1  C7  UNL     1     -33.933   6.625   4.289  1.00 20.00     0.150 C 
ENDROOT
BRANCH   1   2
HETATM    2  C2  UNL     1     -34.200   6.449   5.767  1.00 20.00    -0.064 C 
HETATM    3  C1  UNL     1     -34.067   7.477   6.621  1.00 20.00     0.016 C 
HETATM    4  C6  UNL     1     -34.628   5.092   6.253  1.00 20.00     0.045 C 
ENDBRANCH   1   2
BRANCH   1   5
HETATM    5  C5  UNL     1     -32.626   7.359   4.008  1.00 20.00     0.019 A 
HETATM    6  C3  UNL     1     -32.199   7.632   2.593  1.00 20.00     0.008 A 
HETATM    7  C4  UNL     1     -32.647   8.764   3.475  1.00 20.00     0.008 A 
ENDBRANCH   1   5
BRANCH   1   8
HETATM    8  O8  UNL     1     -33.897   5.342   3.668  1.00 20.00    -0.391 OA
HETATM    9  H20 UNL     1     -34.118   4.696   4.357  1.00 20.00     0.210 HD
ENDBRANCH   1   8
TORSDOF 3
ENDMDL
MODEL 7
REMARK VINA RESULT:      -4.2      1.922      3.017
REMARK  3 active torsions:
REMARK  status: ('A' for Active; 'I' for Inactive)
REMARK    1  A    between atoms: C2_2  and  C7_7 
REMARK    2  A    between atoms: C5_5  and  C7_7 
REMARK    3  A    between atoms: C7_7  and  O8_8 
ROOT
HETATM    1  C7  UNL     1     -34.431   5.860   4.354  1.00 20.00     0.150 C 
ENDROOT
BRANCH   1   2
HETATM    2  C2  UNL     1     -34.157   6.839   5.474  1.00 20.00    -0.064 C 
HETATM    3  C1  UNL     1     -34.406   6.514   6.753  1.00 20.00     0.016 C 
HETATM    4  C6  UNL     1     -33.590   8.185   5.117  1.00 20.00     0.045 C 
ENDBRANCH   1   2
BRANCH   1   5
HETATM    5  C5  UNL     1     -33.157   5.371   3.674  1.00 20.00     0.019 A 
HETATM    6  C3  UNL     1     -33.181   4.955   2.229  1.00 20.00     0.008 A 
HETATM    7  C4  UNL     1     -32.480   6.222   2.635  1.00 20.00     0.008 A 
ENDBRANCH   1   5
BRANCH   1   8
HETATM    8  O8  UNL     1     -35.144   4.742   4.878  1.00 20.00    -0.391 OA
HETATM    9  H20 UNL     1     -35.770   5.096   5.529  1.00 20.00     0.210 HD
ENDBRANCH   1   8
TORSDOF 3
ENDMDL
MODEL 8
REMARK VINA RESULT:      -4.0      1.618      3.785
REMARK  3 active torsions:
REMARK  status: ('A' for Active; 'I' for Inactive)
REMARK    1  A    between atoms: C2_2  and  C7_7 
REMARK    2  A    between atoms: C5_5  and  C7_7 
REMARK    3  A    between atoms: C7_7  and  O8_8 
ROOT
HETATM    1  C7  UNL     1     -33.711   6.681   4.247  1.00 20.00     0.150 C 
ENDROOT
BRANCH   1   2
HETATM    2  C2  UNL     1     -34.189   5.409   4.912  1.00 20.00    -0.064 C 
HETATM    3  C1  UNL     1     -34.086   4.222   4.291  1.00 20.00     0.016 C 
HETATM    4  C6  UNL     1     -34.777   5.508   6.292  1.00 20.00     0.045 C 
ENDBRANCH   1   2
BRANCH   1   5
HETATM    5  C5  UNL     1     -33.003   7.622   5.216  1.00 20.00     0.019 A 
HETATM    6  C3  UNL     1     -32.322   8.861   4.706  1.00 20.00     0.008 A 
HETATM    7  C4  UNL     1     -33.584   8.976   5.514  1.00 20.00     0.008 A 
ENDBRANCH   1   5
BRANCH   1   8
HETATM    8  O8  UNL     1     -32.822   6.342   3.184  1.00 20.00    -0.391 OA
HETATM    9  H20 UNL     1     -32.694   7.151   2.665  1.00 20.00     0.210 HD
ENDBRANCH   1   8
TORSDOF 3
ENDMDL
MODEL 9
REMARK VINA RESULT:      -4.0      1.996      2.840
REMARK  3 active torsions:
REMARK  status: ('A' for Active; 'I' for Inactive)
REMARK    1  A    between atoms: C2_2  and  C7_7 
REMARK    2  A    between atoms: C5_5  and  C7_7 
REMARK    3  A    between atoms: C7_7  and  O8_8 
ROOT
HETATM    1  C7  UNL     1     -33.467   5.318   4.462  1.00 20.00     0.150 C 
ENDROOT
BRANCH   1   2
HETATM    2  C2  UNL     1     -32.932   5.822   3.141  1.00 20.00    -0.064 C 
HETATM    3  C1  UNL     1     -32.955   5.047   2.044  1.00 20.00     0.016 C 
HETATM    4  C6  UNL     1     -32.380   7.220   3.085  1.00 20.00     0.045 C 
ENDBRANCH   1   2
BRANCH   1   5
HETATM    5  C5  UNL     1     -34.394   6.319   5.143  1.00 20.00     0.019 A 
HETATM    6  C3  UNL     1     -34.925   6.044   6.522  1.00 20.00     0.008 A 
HETATM    7  C4  UNL     1     -33.905   7.129   6.312  1.00 20.00     0.008 A 
ENDBRANCH   1   5
BRANCH   1   8
HETATM    8  O8  UNL     1     -34.171   4.097   4.243  1.00 20.00    -0.391 OA
HETATM    9  H20 UNL     1     -33.652   3.593   3.597  1.00 20.00     0.210 HD
ENDBRANCH   1   8
TORSDOF 3
ENDMDL
