MODEL 1
REMARK VINA RESULT:      -3.1      0.000      0.000
REMARK  4 active torsions:
REMARK  status: ('A' for Active; 'I' for Inactive)
REMARK    1  A    between atoms: C2_2  and  C7_7 
REMARK    2  A    between atoms: C6_6  and  C7_7 
REMARK    3  A    between atoms: C6_6  and  S9_9 
REMARK    4  A    between atoms: C7_7  and  N8_8 
ROOT
HETATM    1  C7  UNL     1     -34.425  15.394  -5.056  1.00 20.00     0.257 C 
ENDROOT
BRANCH   1   2
HETATM    2  C2  UNL     1     -33.934  16.504  -4.137  1.00 20.00    -0.060 C 
HETATM    3  C1  UNL     1     -33.347  16.218  -2.962  1.00 20.00     0.016 C 
HETATM    4  C3  UNL     1     -34.119  17.934  -4.570  1.00 20.00     0.044 C 
ENDBRANCH   1   2
BRANCH   1   5
HETATM    5  C6  UNL     1     -35.761  15.699  -5.760  1.00 20.00     0.113 C 
BRANCH   5   6
HETATM    6  S9  UNL     1     -35.565  15.961  -7.552  1.00 20.00    -0.171 SA
HETATM    7  C5  UNL     1     -33.826  15.493  -7.692  1.00 20.00     0.089 C 
ENDBRANCH   5   6
ENDBRANCH   1   5
BRANCH   1   8
HETATM    8  N8  UNL     1     -34.566  14.129  -4.318  1.00 20.00     0.088 N 
HETATM    9  C4  UNL     1     -35.876  13.549  -4.553  1.00 20.00     0.307 C 
HETATM   10  H24 UNL     1     -34.445  14.320  -3.328  1.00 20.00     0.316 HD
ENDBRANCH   1   8
TORSDOF 4
ENDMDL
MODEL 2
REMARK VINA RESULT:      -3.0      2.053      3.207
REMARK  4 active torsions:
REMARK  status: ('A' for Active; 'I' for Inactive)
REMARK    1  A    between atoms: C2_2  and  C7_7 
REMARK    2  A    between atoms: C6_6  and  C7_7 
REMARK    3  A    between atoms: C6_6  and  S9_9 
REMARK    4  A    between atoms: C7_7  and  N8_8 
ROOT
HETATM    1  C7  UNL     1     -34.188  17.386  -4.469  1.00 20.00     0.257 C 
ENDROOT
BRANCH   1   2
HETATM    2  C2  UNL     1     -33.487  16.452  -3.492  1.00 20.00    -0.060 C 
HETATM    3  C1  UNL     1     -33.429  16.743  -2.181  1.00 20.00     0.016 C 
HETATM    4  C3  UNL     1     -32.857  15.192  -4.024  1.00 20.00     0.044 C 
ENDBRANCH   1   2
BRANCH   1   5
HETATM    5  C6  UNL     1     -34.629  16.714  -5.783  1.00 20.00     0.113 C 
BRANCH   5   6
HETATM    6  S9  UNL     1     -36.364  16.161  -5.739  1.00 20.00    -0.171 SA
HETATM    7  C5  UNL     1     -36.066  14.406  -5.428  1.00 20.00     0.089 C 
ENDBRANCH   5   6
ENDBRANCH   1   5
BRANCH   1   8
HETATM    8  N8  UNL     1     -33.329  18.534  -4.800  1.00 20.00     0.088 N 
HETATM    9  C4  UNL     1     -33.861  19.251  -5.945  1.00 20.00     0.307 C 
HETATM   10  H24 UNL     1     -32.398  18.189  -5.010  1.00 20.00     0.316 HD
ENDBRANCH   1   8
TORSDOF 4
ENDMDL
MODEL 3
REMARK VINA RESULT:      -3.0      2.196      2.848
REMARK  4 active torsions:
REMARK  status: ('A' for Active; 'I' for Inactive)
REMARK    1  A    between atoms: C2_2  and  C7_7 
REMARK    2  A    between atoms: C6_6  and  C7_7 
REMARK    3  A    between atoms: C6_6  and  S9_9 
REMARK    4  A    between atoms: C7_7  and  N8_8 
ROOT
HETATM    1  C7  UNL     1     -33.360  16.936  -3.571  1.00 20.00     0.257 C 
ENDROOT
BRANCH   1   2
HETATM    2  C2  UNL     1     -33.240  17.800  -2.323  1.00 20.00    -0.060 C 
HETATM    3  C1  UNL     1     -33.680  17.358  -1.132  1.00 20.00     0.016 C 
HETATM    4  C3  UNL     1     -32.618  19.165  -2.449  1.00 20.00     0.044 C 
ENDBRANCH   1   2
BRANCH   1   5
HETATM    5  C6  UNL     1     -34.141  17.593  -4.724  1.00 20.00     0.113 C 
BRANCH   5   6
HETATM    6  S9  UNL     1     -35.827  18.085  -4.238  1.00 20.00    -0.171 SA
HETATM    7  C5  UNL     1     -36.742  16.956  -5.312  1.00 20.00     0.089 C 
ENDBRANCH   5   6
ENDBRANCH   1   5
BRANCH   1   8
HETATM    8  N8  UNL     1     -33.996  15.648  -3.253  1.00 20.00     0.088 N 
HETATM    9  C4  UNL     1     -33.746  14.686  -4.312  1.00 20.00     0.307 C 
HETATM   10  H24 UNL     1     -34.994  15.799  -3.152  1.00 20.00     0.316 HD
ENDBRANCH   1   8
TORSDOF 4
ENDMDL
MODEL 4
REMARK VINA RESULT:      -3.0      1.864      2.480
REMARK  4 active torsions:
REMARK  status: ('A' for Active; 'I' for Inactive)
REMARK    1  A    between atoms: C2_2  and  C7_7 
REMARK    2  A    between atoms: C6_6  and  C7_7 
REMARK    3  A    between atoms: C6_6  and  S9_9 
REMARK    4  A    between atoms: C7_7  and  N8_8 
ROOT
HETATM    1  C7  UNL     1     -34.822  16.547  -4.570  1.00 20.00     0.257 C 
ENDROOT
BRANCH   1   2
HETATM    2  C2  UNL     1     -33.639  16.077  -3.735  1.00 20.00    -0.060 C 
HETATM    3  C1  UNL     1     -32.854  15.070  -4.156  1.00 20.00     0.016 C 
HETATM    4  C3  UNL     1     -33.364  16.762  -2.423  1.00 20.00     0.044 C 
ENDBRANCH   1   2
BRANCH   1   5
HETATM    5  C6  UNL     1     -34.435  17.156  -5.931  1.00 20.00     0.113 C 
BRANCH   5   6
HETATM    6  S9  UNL     1     -34.709  16.005  -7.316  1.00 20.00    -0.171 SA
HETATM    7  C5  UNL     1     -35.788  14.832  -6.466  1.00 20.00     0.089 C 
ENDBRANCH   5   6
ENDBRANCH   1   5
BRANCH   1   8
HETATM    8  N8  UNL     1     -35.623  17.535  -3.829  1.00 20.00     0.088 N 
HETATM    9  C4  UNL     1     -36.766  17.955  -4.620  1.00 20.00     0.307 C 
HETATM   10  H24 UNL     1     -35.034  18.335  -3.621  1.00 20.00     0.316 HD
ENDBRANCH   1   8
TORSDOF 4
ENDMDL
MODEL 5
REMARK VINA RESULT:      -3.0      3.235      4.427
REMARK  4 active torsions:
REMARK  status: ('A' for Active; 'I' for Inactive)
REMARK    1  A    between atoms: C2_2  and  C7_7 
REMARK    2  A    between atoms: C6_6  and  C7_7 
REMARK    3  A    between atoms: C6_6  and  S9_9 
REMARK    4  A    between atoms: C7_7  and  N8_8 
ROOT
HETATM    1  C7  UNL     1     -32.973  17.896  -2.171  1.00 20.00     0.257 C 
ENDROOT
BRANCH   1   2
HETATM    2  C2  UNL     1     -32.613  18.191  -0.721  1.00 20.00    -0.060 C 
HETATM    3  C1  UNL     1     -31.362  18.546  -0.379  1.00 20.00     0.016 C 
HETATM    4  C3  UNL     1     -33.688  18.078   0.326  1.00 20.00     0.044 C 
ENDBRANCH   1   2
BRANCH   1   5
HETATM    5  C6  UNL     1     -33.749  19.025  -2.874  1.00 20.00     0.113 C 
BRANCH   5   6
HETATM    6  S9  UNL     1     -35.555  18.822  -2.741  1.00 20.00    -0.171 SA
HETATM    7  C5  UNL     1     -35.916  18.580  -4.494  1.00 20.00     0.089 C 
ENDBRANCH   5   6
ENDBRANCH   1   5
BRANCH   1   8
HETATM    8  N8  UNL     1     -33.761  16.657  -2.270  1.00 20.00     0.088 N 
HETATM    9  C4  UNL     1     -33.364  15.898  -3.442  1.00 20.00     0.307 C 
HETATM   10  H24 UNL     1     -34.743  16.906  -2.335  1.00 20.00     0.316 HD
ENDBRANCH   1   8
TORSDOF 4
ENDMDL
MODEL 6
REMARK VINA RESULT:      -3.0      2.251      3.361
REMARK  4 active torsions:
REMARK  status: ('A' for Active; 'I' for Inactive)
REMARK    1  A    between atoms: C2_2  and  C7_7 
REMARK    2  A    between atoms: C6_6  and  C7_7 
REMARK    3  A    between atoms: C6_6  and  S9_9 
REMARK    4  A    between atoms: C7_7  and  N8_8 
ROOT
HETATM    1  C7  UNL     1     -34.285  17.305  -4.610  1.00 20.00     0.257 C 
ENDROOT
BRANCH   1   2
HETATM    2  C2  UNL     1     -33.596  16.346  -3.648  1.00 20.00    -0.060 C 
HETATM    3  C1  UNL     1     -33.165  15.142  -4.065  1.00 20.00     0.016 C 
HETATM    4  C3  UNL     1     -33.407  16.772  -2.217  1.00 20.00     0.044 C 
ENDBRANCH   1   2
BRANCH   1   5
HETATM    5  C6  UNL     1     -34.825  16.640  -5.889  1.00 20.00     0.113 C 
BRANCH   5   6
HETATM    6  S9  UNL     1     -36.586  16.190  -5.756  1.00 20.00    -0.171 SA
HETATM    7  C5  UNL     1     -37.146  17.623  -4.810  1.00 20.00     0.089 C 
ENDBRANCH   5   6
ENDBRANCH   1   5
BRANCH   1   8
HETATM    8  N8  UNL     1     -33.377  18.395  -4.999  1.00 20.00     0.088 N 
HETATM    9  C4  UNL     1     -33.944  19.159  -6.095  1.00 20.00     0.307 C 
HETATM   10  H24 UNL     1     -32.491  17.989  -5.283  1.00 20.00     0.316 HD
ENDBRANCH   1   8
TORSDOF 4
ENDMDL
MODEL 7
REMARK VINA RESULT:      -3.0      2.117      3.244
REMARK  4 active torsions:
REMARK  status: ('A' for Active; 'I' for Inactive)
REMARK    1  A    between atoms: C2_2  and  C7_7 
REMARK    2  A    between atoms: C6_6  and  C7_7 
REMARK    3  A    between atoms: C6_6  and  S9_9 
REMARK    4  A    between atoms: C7_7  and  N8_8 
ROOT
HETATM    1  C7  UNL     1     -34.567  16.629  -4.829  1.00 20.00     0.257 C 
ENDROOT
BRANCH   1   2
HETATM    2  C2  UNL     1     -33.590  15.992  -3.850  1.00 20.00    -0.060 C 
HETATM    3  C1  UNL     1     -32.910  14.880  -4.179  1.00 20.00     0.016 C 
HETATM    4  C3  UNL     1     -33.401  16.632  -2.501  1.00 20.00     0.044 C 
ENDBRANCH   1   2
BRANCH   1   5
HETATM    5  C6  UNL     1     -34.808  18.132  -4.596  1.00 20.00     0.113 C 
BRANCH   5   6
HETATM    6  S9  UNL     1     -36.542  18.507  -4.180  1.00 20.00    -0.171 SA
HETATM    7  C5  UNL     1     -36.287  19.035  -2.471  1.00 20.00     0.089 C 
ENDBRANCH   5   6
ENDBRANCH   1   5
BRANCH   1   8
HETATM    8  N8  UNL     1     -35.866  15.938  -4.794  1.00 20.00     0.088 N 
HETATM    9  C4  UNL     1     -36.050  15.144  -5.995  1.00 20.00     0.307 C 
HETATM   10  H24 UNL     1     -36.599  16.637  -4.726  1.00 20.00     0.316 HD
ENDBRANCH   1   8
TORSDOF 4
ENDMDL
MODEL 8
REMARK VINA RESULT:      -2.9     12.589     13.736
REMARK  4 active torsions:
REMARK  status: ('A' for Active; 'I' for Inactive)
REMARK    1  A    between atoms: C2_2  and  C7_7 
REMARK    2  A    between atoms: C6_6  and  C7_7 
REMARK    3  A    between atoms: C6_6  and  S9_9 
REMARK    4  A    between atoms: C7_7  and  N8_8 
ROOT
HETATM    1  C7  UNL     1     -40.594  13.335   6.512  1.00 20.00     0.257 C 
ENDROOT
BRANCH   1   2
HETATM    2  C2  UNL     1     -39.529  12.452   5.878  1.00 20.00    -0.060 C 
HETATM    3  C1  UNL     1     -38.465  12.036   6.587  1.00 20.00     0.016 C 
HETATM    4  C3  UNL     1     -39.689  12.052   4.435  1.00 20.00     0.044 C 
ENDBRANCH   1   2
BRANCH   1   5
HETATM    5  C6  UNL     1     -41.652  13.861   5.524  1.00 20.00     0.113 C 
BRANCH   5   6
HETATM    6  S9  UNL     1     -43.353  13.666   6.149  1.00 20.00    -0.171 SA
HETATM    7  C5  UNL     1     -43.083  12.204   7.175  1.00 20.00     0.089 C 
ENDBRANCH   5   6
ENDBRANCH   1   5
BRANCH   1   8
HETATM    8  N8  UNL     1     -39.980  14.486   7.192  1.00 20.00     0.088 N 
HETATM    9  C4  UNL     1     -40.390  14.530   8.584  1.00 20.00     0.307 C 
HETATM   10  H24 UNL     1     -40.275  15.334   6.719  1.00 20.00     0.316 HD
ENDBRANCH   1   8
TORSDOF 4
ENDMDL
MODEL 9
REMARK VINA RESULT:      -2.9      1.645      2.290
REMARK  4 active torsions:
REMARK  status: ('A' for Active; 'I' for Inactive)
REMARK    1  A    between atoms: C2_2  and  C7_7 
REMARK    2  A    between atoms: C6_6  and  C7_7 
REMARK    3  A    between atoms: C6_6  and  S9_9 
REMARK    4  A    between atoms: C7_7  and  N8_8 
ROOT
HETATM    1  C7  UNL     1     -33.827  16.844  -3.967  1.00 20.00     0.257 C 
ENDROOT
BRANCH   1   2
HETATM    2  C2  UNL     1     -33.421  17.778  -2.834  1.00 20.00    -0.060 C 
HETATM    3  C1  UNL     1     -32.935  19.004  -3.092  1.00 20.00     0.016 C 
HETATM    4  C3  UNL     1     -33.573  17.299  -1.415  1.00 20.00     0.044 C 
ENDBRANCH   1   2
BRANCH   1   5
HETATM    5  C6  UNL     1     -35.078  17.296  -4.742  1.00 20.00     0.113 C 
BRANCH   5   6
HETATM    6  S9  UNL     1     -34.758  17.516  -6.522  1.00 20.00    -0.171 SA
HETATM    7  C5  UNL     1     -35.740  16.127  -7.133  1.00 20.00     0.089 C 
ENDBRANCH   5   6
ENDBRANCH   1   5
BRANCH   1   8
HETATM    8  N8  UNL     1     -34.060  15.482  -3.461  1.00 20.00     0.088 N 
HETATM    9  C4  UNL     1     -33.624  14.499  -4.436  1.00 20.00     0.307 C 
HETATM   10  H24 UNL     1     -35.052  15.372  -3.280  1.00 20.00     0.316 HD
ENDBRANCH   1   8
TORSDOF 4
ENDMDL
