MODEL 1
REMARK VINA RESULT:      -3.8      0.000      0.000
REMARK  3 active torsions:
REMARK  status: ('A' for Active; 'I' for Inactive)
REMARK    1  A    between atoms: C7_7  and  C8_8 
REMARK    2  A    between atoms: C7_7  and  C9_9 
REMARK    3  A    between atoms: C8_8  and  N10_10 
ROOT
HETATM    1  C1  UNL     1     -33.478  16.749  -2.004  1.00 20.00     0.239 C 
HETATM    2  C2  UNL     1     -34.710  18.484  -3.063  1.00 20.00     0.239 C 
HETATM    3  C3  UNL     1     -33.286  16.547  -3.508  1.00 20.00     0.012 C 
HETATM    4  C4  UNL     1     -34.020  17.723  -4.191  1.00 20.00     0.012 C 
HETATM    5  C5  UNL     1     -33.694  15.141  -3.930  1.00 20.00     0.012 C 
HETATM    6  C6  UNL     1     -34.990  17.380  -5.312  1.00 20.00     0.012 C 
HETATM    7  N10 UNL     1     -33.863  18.196  -1.851  1.00 20.00    -0.070 N 
HETATM    8  H30 UNL     1     -34.452  18.275  -1.035  1.00 20.00     0.279 HD
ENDROOT
BRANCH   7   9
HETATM    9  C8  UNL     1     -32.695  19.124  -1.683  1.00 20.00     0.236 C 
BRANCH   9  10
HETATM   10  C7  UNL     1     -31.650  18.510  -0.759  1.00 20.00     0.043 C 
BRANCH  10  11
HETATM   11  C9  UNL     1     -31.454  19.214   0.581  1.00 20.00     0.116 C 
HETATM   12 CL11 UNL     1     -30.673  18.162   1.784  1.00 20.00    -0.130 Cl
ENDBRANCH  10  11
ENDBRANCH   9  10
ENDBRANCH   7   9
TORSDOF 3
ENDMDL
MODEL 2
REMARK VINA RESULT:      -3.7     12.053     13.202
REMARK  3 active torsions:
REMARK  status: ('A' for Active; 'I' for Inactive)
REMARK    1  A    between atoms: C7_7  and  C8_8 
REMARK    2  A    between atoms: C7_7  and  C9_9 
REMARK    3  A    between atoms: C8_8  and  N10_10 
ROOT
HETATM    1  C1  UNL     1     -41.886  15.846   6.629  1.00 20.00     0.239 C 
HETATM    2  C2  UNL     1     -41.483  14.029   8.108  1.00 20.00     0.239 C 
HETATM    3  C3  UNL     1     -40.656  16.235   7.453  1.00 20.00     0.012 C 
HETATM    4  C4  UNL     1     -40.349  15.019   8.356  1.00 20.00     0.012 C 
HETATM    5  C5  UNL     1     -40.863  17.575   8.148  1.00 20.00     0.012 C 
HETATM    6  C6  UNL     1     -40.151  15.288   9.841  1.00 20.00     0.012 C 
HETATM    7  N10 UNL     1     -41.950  14.344   6.712  1.00 20.00    -0.070 N 
HETATM    8  H30 UNL     1     -42.920  14.072   6.640  1.00 20.00     0.279 HD
ENDROOT
BRANCH   7   9
HETATM    9  C8  UNL     1     -41.180  13.640   5.633  1.00 20.00     0.236 C 
BRANCH   9  10
HETATM   10  C7  UNL     1     -40.752  12.252   6.096  1.00 20.00     0.043 C 
BRANCH  10  11
HETATM   11  C9  UNL     1     -39.303  11.873   5.803  1.00 20.00     0.116 C 
HETATM   12 CL11 UNL     1     -39.001  11.672   4.061  1.00 20.00    -0.130 Cl
ENDBRANCH  10  11
ENDBRANCH   9  10
ENDBRANCH   7   9
TORSDOF 3
ENDMDL
MODEL 3
REMARK VINA RESULT:      -3.6      2.899      5.064
REMARK  3 active torsions:
REMARK  status: ('A' for Active; 'I' for Inactive)
REMARK    1  A    between atoms: C7_7  and  C8_8 
REMARK    2  A    between atoms: C7_7  and  C9_9 
REMARK    3  A    between atoms: C8_8  and  N10_10 
ROOT
HETATM    1  C1  UNL     1     -31.973  18.442  -1.051  1.00 20.00     0.239 C 
HETATM    2  C2  UNL     1     -34.340  18.661  -1.083  1.00 20.00     0.239 C 
HETATM    3  C3  UNL     1     -32.435  18.262   0.396  1.00 20.00     0.012 C 
HETATM    4  C4  UNL     1     -33.978  18.323   0.360  1.00 20.00     0.012 C 
HETATM    5  C5  UNL     1     -31.727  19.242   1.324  1.00 20.00     0.012 C 
HETATM    6  C6  UNL     1     -34.660  19.263   1.344  1.00 20.00     0.012 C 
HETATM    7  N10 UNL     1     -33.185  18.127  -1.888  1.00 20.00    -0.070 N 
HETATM    8  H30 UNL     1     -33.122  18.668  -2.738  1.00 20.00     0.279 HD
ENDROOT
BRANCH   7   9
HETATM    9  C8  UNL     1     -33.310  16.678  -2.258  1.00 20.00     0.236 C 
BRANCH   9  10
HETATM   10  C7  UNL     1     -33.549  16.524  -3.756  1.00 20.00     0.043 C 
BRANCH  10  11
HETATM   11  C9  UNL     1     -33.250  15.144  -4.336  1.00 20.00     0.116 C 
HETATM   12 CL11 UNL     1     -34.626  14.031  -4.163  1.00 20.00    -0.130 Cl
ENDBRANCH  10  11
ENDBRANCH   9  10
ENDBRANCH   7   9
TORSDOF 3
ENDMDL
MODEL 4
REMARK VINA RESULT:      -3.6      1.316      2.343
REMARK  3 active torsions:
REMARK  status: ('A' for Active; 'I' for Inactive)
REMARK    1  A    between atoms: C7_7  and  C8_8 
REMARK    2  A    between atoms: C7_7  and  C9_9 
REMARK    3  A    between atoms: C8_8  and  N10_10 
ROOT
HETATM    1  C1  UNL     1     -34.069  18.146  -4.500  1.00 20.00     0.239 C 
HETATM    2  C2  UNL     1     -32.929  16.572  -3.131  1.00 20.00     0.239 C 
HETATM    3  C3  UNL     1     -34.695  16.785  -4.808  1.00 20.00     0.012 C 
HETATM    4  C4  UNL     1     -34.008  15.777  -3.859  1.00 20.00     0.012 C 
HETATM    5  C5  UNL     1     -34.635  16.478  -6.300  1.00 20.00     0.012 C 
HETATM    6  C6  UNL     1     -33.447  14.507  -4.482  1.00 20.00     0.012 C 
HETATM    7  N10 UNL     1     -33.443  17.987  -3.139  1.00 20.00    -0.070 N 
HETATM    8  H30 UNL     1     -32.649  18.607  -3.091  1.00 20.00     0.279 HD
ENDROOT
BRANCH   7   9
HETATM    9  C8  UNL     1     -34.367  18.312  -2.002  1.00 20.00     0.236 C 
BRANCH   9  10
HETATM   10  C7  UNL     1     -33.803  17.790  -0.685  1.00 20.00     0.043 C 
BRANCH  10  11
HETATM   11  C9  UNL     1     -32.860  18.737   0.053  1.00 20.00     0.116 C 
HETATM   12 CL11 UNL     1     -31.152  18.402  -0.313  1.00 20.00    -0.130 Cl
ENDBRANCH  10  11
ENDBRANCH   9  10
ENDBRANCH   7   9
TORSDOF 3
ENDMDL
MODEL 5
REMARK VINA RESULT:      -3.5      1.858      2.986
REMARK  3 active torsions:
REMARK  status: ('A' for Active; 'I' for Inactive)
REMARK    1  A    between atoms: C7_7  and  C8_8 
REMARK    2  A    between atoms: C7_7  and  C9_9 
REMARK    3  A    between atoms: C8_8  and  N10_10 
ROOT
HETATM    1  C1  UNL     1     -34.670  15.159  -5.270  1.00 20.00     0.239 C 
HETATM    2  C2  UNL     1     -35.263  17.359  -4.594  1.00 20.00     0.239 C 
HETATM    3  C3  UNL     1     -34.415  16.058  -6.482  1.00 20.00     0.012 C 
HETATM    4  C4  UNL     1     -34.723  17.498  -6.014  1.00 20.00     0.012 C 
HETATM    5  C5  UNL     1     -35.167  15.554  -7.708  1.00 20.00     0.012 C 
HETATM    6  C6  UNL     1     -35.651  18.329  -6.889  1.00 20.00     0.012 C 
HETATM    7  N10 UNL     1     -34.640  16.087  -4.085  1.00 20.00    -0.070 N 
HETATM    8  H30 UNL     1     -35.250  15.704  -3.378  1.00 20.00     0.279 HD
ENDROOT
BRANCH   7   9
HETATM    9  C8  UNL     1     -33.276  16.267  -3.486  1.00 20.00     0.236 C 
BRANCH   9  10
HETATM   10  C7  UNL     1     -33.373  16.925  -2.114  1.00 20.00     0.043 C 
BRANCH  10  11
HETATM   11  C9  UNL     1     -32.724  18.301  -1.991  1.00 20.00     0.116 C 
HETATM   12 CL11 UNL     1     -31.557  18.375  -0.650  1.00 20.00    -0.130 Cl
ENDBRANCH  10  11
ENDBRANCH   9  10
ENDBRANCH   7   9
TORSDOF 3
ENDMDL
MODEL 6
REMARK VINA RESULT:      -3.5      2.474      4.548
REMARK  3 active torsions:
REMARK  status: ('A' for Active; 'I' for Inactive)
REMARK    1  A    between atoms: C7_7  and  C8_8 
REMARK    2  A    between atoms: C7_7  and  C9_9 
REMARK    3  A    between atoms: C8_8  and  N10_10 
ROOT
HETATM    1  C1  UNL     1     -32.905  18.924  -2.605  1.00 20.00     0.239 C 
HETATM    2  C2  UNL     1     -34.857  19.263  -1.292  1.00 20.00     0.239 C 
HETATM    3  C3  UNL     1     -32.734  18.054  -1.358  1.00 20.00     0.012 C 
HETATM    4  C4  UNL     1     -34.039  18.213  -0.546  1.00 20.00     0.012 C 
HETATM    5  C5  UNL     1     -31.430  18.376  -0.638  1.00 20.00     0.012 C 
HETATM    6  C6  UNL     1     -33.902  18.553   0.931  1.00 20.00     0.012 C 
HETATM    7  N10 UNL     1     -34.389  19.152  -2.719  1.00 20.00    -0.070 N 
HETATM    8  H30 UNL     1     -34.530  20.047  -3.162  1.00 20.00     0.279 HD
ENDROOT
BRANCH   7   9
HETATM    9  C8  UNL     1     -35.107  18.107  -3.522  1.00 20.00     0.236 C 
BRANCH   9  10
HETATM   10  C7  UNL     1     -34.296  17.725  -4.755  1.00 20.00     0.043 C 
BRANCH  10  11
HETATM   11  C9  UNL     1     -34.189  16.230  -5.041  1.00 20.00     0.116 C 
HETATM   12 CL11 UNL     1     -33.577  15.320  -3.640  1.00 20.00    -0.130 Cl
ENDBRANCH  10  11
ENDBRANCH   9  10
ENDBRANCH   7   9
TORSDOF 3
ENDMDL
MODEL 7
REMARK VINA RESULT:      -3.5     11.327     12.546
REMARK  3 active torsions:
REMARK  status: ('A' for Active; 'I' for Inactive)
REMARK    1  A    between atoms: C7_7  and  C8_8 
REMARK    2  A    between atoms: C7_7  and  C9_9 
REMARK    3  A    between atoms: C8_8  and  N10_10 
ROOT
HETATM    1  C1  UNL     1     -32.611   6.375   3.542  1.00 20.00     0.239 C 
HETATM    2  C2  UNL     1     -33.048   7.584   5.541  1.00 20.00     0.239 C 
HETATM    3  C3  UNL     1     -34.002   5.937   4.007  1.00 20.00     0.012 C 
HETATM    4  C4  UNL     1     -34.316   6.784   5.261  1.00 20.00     0.012 C 
HETATM    5  C5  UNL     1     -34.077   4.422   4.161  1.00 20.00     0.012 C 
HETATM    6  C6  UNL     1     -34.797   6.041   6.499  1.00 20.00     0.012 C 
HETATM    7  N10 UNL     1     -32.387   7.713   4.195  1.00 20.00    -0.070 N 
HETATM    8  H30 UNL     1     -31.395   7.821   4.345  1.00 20.00     0.279 HD
ENDROOT
BRANCH   7   9
HETATM    9  C8  UNL     1     -32.871   8.878   3.381  1.00 20.00     0.236 C 
BRANCH   9  10
HETATM   10  C7  UNL     1     -32.297   8.823   1.969  1.00 20.00     0.043 C 
BRANCH  10  11
HETATM   11  C9  UNL     1     -32.949   9.755   0.952  1.00 20.00     0.116 C 
HETATM   12 CL11 UNL     1     -33.177   8.970  -0.628  1.00 20.00    -0.130 Cl
ENDBRANCH  10  11
ENDBRANCH   9  10
ENDBRANCH   7   9
TORSDOF 3
ENDMDL
MODEL 8
REMARK VINA RESULT:      -3.3     11.170     12.435
REMARK  3 active torsions:
REMARK  status: ('A' for Active; 'I' for Inactive)
REMARK    1  A    between atoms: C7_7  and  C8_8 
REMARK    2  A    between atoms: C7_7  and  C9_9 
REMARK    3  A    between atoms: C8_8  and  N10_10 
ROOT
HETATM    1  C1  UNL     1     -32.968   5.560   3.375  1.00 20.00     0.239 C 
HETATM    2  C2  UNL     1     -32.426   7.607   4.455  1.00 20.00     0.239 C 
HETATM    3  C3  UNL     1     -34.212   5.962   4.169  1.00 20.00     0.012 C 
HETATM    4  C4  UNL     1     -33.886   7.332   4.804  1.00 20.00     0.012 C 
HETATM    5  C5  UNL     1     -34.643   4.848   5.115  1.00 20.00     0.012 C 
HETATM    6  C6  UNL     1     -34.146   7.487   6.296  1.00 20.00     0.012 C 
HETATM    7  N10 UNL     1     -32.201   6.841   3.179  1.00 20.00    -0.070 N 
HETATM    8  H30 UNL     1     -31.220   6.609   3.125  1.00 20.00     0.279 HD
ENDROOT
BRANCH   7   9
HETATM    9  C8  UNL     1     -32.578   7.594   1.936  1.00 20.00     0.236 C 
BRANCH   9  10
HETATM   10  C7  UNL     1     -32.596   9.095   2.201  1.00 20.00     0.043 C 
BRANCH  10  11
HETATM   11  C9  UNL     1     -32.897   9.978   0.992  1.00 20.00     0.116 C 
HETATM   12 CL11 UNL     1     -33.158   9.024  -0.486  1.00 20.00    -0.130 Cl
ENDBRANCH  10  11
ENDBRANCH   9  10
ENDBRANCH   7   9
TORSDOF 3
ENDMDL
MODEL 9
REMARK VINA RESULT:      -3.3     12.474     13.614
REMARK  3 active torsions:
REMARK  status: ('A' for Active; 'I' for Inactive)
REMARK    1  A    between atoms: C7_7  and  C8_8 
REMARK    2  A    between atoms: C7_7  and  C9_9 
REMARK    3  A    between atoms: C8_8  and  N10_10 
ROOT
HETATM    1  C1  UNL     1     -40.338  14.368   9.325  1.00 20.00     0.239 C 
HETATM    2  C2  UNL     1     -40.333  15.802   7.429  1.00 20.00     0.239 C 
HETATM    3  C3  UNL     1     -41.296  15.514   9.658  1.00 20.00     0.012 C 
HETATM    4  C4  UNL     1     -41.353  16.400   8.394  1.00 20.00     0.012 C 
HETATM    5  C5  UNL     1     -40.902  16.197  10.962  1.00 20.00     0.012 C 
HETATM    6  C6  UNL     1     -41.139  17.895   8.582  1.00 20.00     0.012 C 
HETATM    7  N10 UNL     1     -40.261  14.350   7.821  1.00 20.00    -0.070 N 
HETATM    8  H30 UNL     1     -39.349  14.004   7.563  1.00 20.00     0.279 HD
ENDROOT
BRANCH   7   9
HETATM    9  C8  UNL     1     -41.299  13.485   7.168  1.00 20.00     0.236 C 
BRANCH   9  10
HETATM   10  C7  UNL     1     -40.795  12.960   5.828  1.00 20.00     0.043 C 
BRANCH  10  11
HETATM   11  C9  UNL     1     -39.503  12.150   5.876  1.00 20.00     0.116 C 
HETATM   12 CL11 UNL     1     -38.936  11.693   4.254  1.00 20.00    -0.130 Cl
ENDBRANCH  10  11
ENDBRANCH   9  10
ENDBRANCH   7   9
TORSDOF 3
ENDMDL
