MODEL 1
REMARK VINA RESULT:      -3.1      0.000      0.000
REMARK  4 active torsions:
REMARK  status: ('A' for Active; 'I' for Inactive)
REMARK    1  A    between atoms: C2_2  and  C7_7 
REMARK    2  A    between atoms: C6_6  and  C7_7 
REMARK    3  A    between atoms: C6_6  and  S9_9 
REMARK    4  A    between atoms: C7_7  and  N8_8 
ROOT
HETATM    1  C7  UNL     1     -34.136  15.462  -5.344  1.00 20.00     0.257 C 
ENDROOT
BRANCH   1   2
HETATM    2  C2  UNL     1     -35.553  14.932  -5.176  1.00 20.00    -0.060 C 
HETATM    3  C1  UNL     1     -35.775  13.690  -4.712  1.00 20.00     0.016 C 
HETATM    4  C3  UNL     1     -36.705  15.827  -5.544  1.00 20.00     0.044 C 
ENDBRANCH   1   2
BRANCH   1   5
HETATM    5  C6  UNL     1     -33.237  15.260  -4.110  1.00 20.00     0.113 C 
BRANCH   5   6
HETATM    6  S9  UNL     1     -33.403  16.607  -2.895  1.00 20.00    -0.171 SA
HETATM    7  C5  UNL     1     -33.676  17.965  -4.054  1.00 20.00     0.089 C 
ENDBRANCH   5   6
ENDBRANCH   1   5
BRANCH   1   8
HETATM    8  N8  UNL     1     -33.486  14.847  -6.513  1.00 20.00     0.088 N 
HETATM    9  C4  UNL     1     -33.805  15.589  -7.719  1.00 20.00     0.307 C 
HETATM   10  H24 UNL     1     -32.482  14.850  -6.362  1.00 20.00     0.316 HD
ENDBRANCH   1   8
TORSDOF 4
ENDMDL
MODEL 2
REMARK VINA RESULT:      -3.0     11.906     13.047
REMARK  4 active torsions:
REMARK  status: ('A' for Active; 'I' for Inactive)
REMARK    1  A    between atoms: C2_2  and  C7_7 
REMARK    2  A    between atoms: C6_6  and  C7_7 
REMARK    3  A    between atoms: C6_6  and  S9_9 
REMARK    4  A    between atoms: C7_7  and  N8_8 
ROOT
HETATM    1  C7  UNL     1     -33.839   6.654   4.200  1.00 20.00     0.257 C 
ENDROOT
BRANCH   1   2
HETATM    2  C2  UNL     1     -34.095   6.641   5.700  1.00 20.00    -0.060 C 
HETATM    3  C1  UNL     1     -33.842   7.725   6.453  1.00 20.00     0.016 C 
HETATM    4  C3  UNL     1     -34.636   5.385   6.328  1.00 20.00     0.044 C 
ENDBRANCH   1   2
BRANCH   1   5
HETATM    5  C6  UNL     1     -32.490   7.278   3.796  1.00 20.00     0.113 C 
BRANCH   5   6
HETATM    6  S9  UNL     1     -32.681   8.910   3.009  1.00 20.00    -0.171 SA
HETATM    7  C5  UNL     1     -32.238   8.436   1.323  1.00 20.00     0.089 C 
ENDBRANCH   5   6
ENDBRANCH   1   5
BRANCH   1   8
HETATM    8  N8  UNL     1     -33.920   5.293   3.647  1.00 20.00     0.088 N 
HETATM    9  C4  UNL     1     -32.906   5.099   2.627  1.00 20.00     0.307 C 
HETATM   10  H24 UNL     1     -33.780   4.630   4.403  1.00 20.00     0.316 HD
ENDBRANCH   1   8
TORSDOF 4
ENDMDL
MODEL 3
REMARK VINA RESULT:      -3.0      2.567      4.167
REMARK  4 active torsions:
REMARK  status: ('A' for Active; 'I' for Inactive)
REMARK    1  A    between atoms: C2_2  and  C7_7 
REMARK    2  A    between atoms: C6_6  and  C7_7 
REMARK    3  A    between atoms: C6_6  and  S9_9 
REMARK    4  A    between atoms: C7_7  and  N8_8 
ROOT
HETATM    1  C7  UNL     1     -34.459  17.501  -4.218  1.00 20.00     0.257 C 
ENDROOT
BRANCH   1   2
HETATM    2  C2  UNL     1     -33.600  16.609  -3.333  1.00 20.00    -0.060 C 
HETATM    3  C1  UNL     1     -33.011  15.506  -3.827  1.00 20.00     0.016 C 
HETATM    4  C3  UNL     1     -33.421  16.986  -1.887  1.00 20.00     0.044 C 
ENDBRANCH   1   2
BRANCH   1   5
HETATM    5  C6  UNL     1     -34.733  16.921  -5.619  1.00 20.00     0.113 C 
BRANCH   5   6
HETATM    6  S9  UNL     1     -36.408  16.221  -5.772  1.00 20.00    -0.171 SA
HETATM    7  C5  UNL     1     -35.965  14.472  -5.670  1.00 20.00     0.089 C 
ENDBRANCH   5   6
ENDBRANCH   1   5
BRANCH   1   8
HETATM    8  N8  UNL     1     -35.744  17.797  -3.565  1.00 20.00     0.088 N 
HETATM    9  C4  UNL     1     -35.920  19.230  -3.420  1.00 20.00     0.307 C 
HETATM   10  H24 UNL     1     -36.491  17.414  -4.136  1.00 20.00     0.316 HD
ENDBRANCH   1   8
TORSDOF 4
ENDMDL
MODEL 4
REMARK VINA RESULT:      -3.0      2.454      3.719
REMARK  4 active torsions:
REMARK  status: ('A' for Active; 'I' for Inactive)
REMARK    1  A    between atoms: C2_2  and  C7_7 
REMARK    2  A    between atoms: C6_6  and  C7_7 
REMARK    3  A    between atoms: C6_6  and  S9_9 
REMARK    4  A    between atoms: C7_7  and  N8_8 
ROOT
HETATM    1  C7  UNL     1     -34.747  16.343  -4.881  1.00 20.00     0.257 C 
ENDROOT
BRANCH   1   2
HETATM    2  C2  UNL     1     -33.661  15.820  -3.952  1.00 20.00    -0.060 C 
HETATM    3  C1  UNL     1     -32.961  14.714  -4.261  1.00 20.00     0.016 C 
HETATM    4  C3  UNL     1     -33.383  16.566  -2.674  1.00 20.00     0.044 C 
ENDBRANCH   1   2
BRANCH   1   5
HETATM    5  C6  UNL     1     -35.644  15.245  -5.483  1.00 20.00     0.113 C 
BRANCH   5   6
HETATM    6  S9  UNL     1     -35.809  15.389  -7.291  1.00 20.00    -0.171 SA
HETATM    7  C5  UNL     1     -34.089  15.784  -7.676  1.00 20.00     0.089 C 
ENDBRANCH   5   6
ENDBRANCH   1   5
BRANCH   1   8
HETATM    8  N8  UNL     1     -35.596  17.324  -4.186  1.00 20.00     0.088 N 
HETATM    9  C4  UNL     1     -35.693  18.548  -4.959  1.00 20.00     0.307 C 
HETATM   10  H24 UNL     1     -36.520  16.920  -4.063  1.00 20.00     0.316 HD
ENDBRANCH   1   8
TORSDOF 4
ENDMDL
MODEL 5
REMARK VINA RESULT:      -3.0      2.582      4.238
REMARK  4 active torsions:
REMARK  status: ('A' for Active; 'I' for Inactive)
REMARK    1  A    between atoms: C2_2  and  C7_7 
REMARK    2  A    between atoms: C6_6  and  C7_7 
REMARK    3  A    between atoms: C6_6  and  S9_9 
REMARK    4  A    between atoms: C7_7  and  N8_8 
ROOT
HETATM    1  C7  UNL     1     -34.483  17.543  -4.137  1.00 20.00     0.257 C 
ENDROOT
BRANCH   1   2
HETATM    2  C2  UNL     1     -33.610  16.647  -3.270  1.00 20.00    -0.060 C 
HETATM    3  C1  UNL     1     -33.398  16.934  -1.974  1.00 20.00     0.016 C 
HETATM    4  C3  UNL     1     -32.983  15.430  -3.893  1.00 20.00     0.044 C 
ENDBRANCH   1   2
BRANCH   1   5
HETATM    5  C6  UNL     1     -34.727  17.000  -5.558  1.00 20.00     0.113 C 
BRANCH   5   6
HETATM    6  S9  UNL     1     -36.394  16.295  -5.761  1.00 20.00    -0.171 SA
HETATM    7  C5  UNL     1     -35.931  14.549  -5.796  1.00 20.00     0.089 C 
ENDBRANCH   5   6
ENDBRANCH   1   5
BRANCH   1   8
HETATM    8  N8  UNL     1     -35.781  17.787  -3.490  1.00 20.00     0.088 N 
HETATM    9  C4  UNL     1     -35.987  19.209  -3.284  1.00 20.00     0.307 C 
HETATM   10  H24 UNL     1     -36.514  17.416  -4.087  1.00 20.00     0.316 HD
ENDBRANCH   1   8
TORSDOF 4
ENDMDL
MODEL 6
REMARK VINA RESULT:      -2.9     11.937     13.044
REMARK  4 active torsions:
REMARK  status: ('A' for Active; 'I' for Inactive)
REMARK    1  A    between atoms: C2_2  and  C7_7 
REMARK    2  A    between atoms: C6_6  and  C7_7 
REMARK    3  A    between atoms: C6_6  and  S9_9 
REMARK    4  A    between atoms: C7_7  and  N8_8 
ROOT
HETATM    1  C7  UNL     1     -33.870   6.567   4.198  1.00 20.00     0.257 C 
ENDROOT
BRANCH   1   2
HETATM    2  C2  UNL     1     -34.152   6.522   5.693  1.00 20.00    -0.060 C 
HETATM    3  C1  UNL     1     -34.648   5.413   6.269  1.00 20.00     0.016 C 
HETATM    4  C3  UNL     1     -33.866   7.748   6.518  1.00 20.00     0.044 C 
ENDBRANCH   1   2
BRANCH   1   5
HETATM    5  C6  UNL     1     -32.521   7.213   3.830  1.00 20.00     0.113 C 
BRANCH   5   6
HETATM    6  S9  UNL     1     -32.716   8.855   3.066  1.00 20.00    -0.171 SA
HETATM    7  C5  UNL     1     -32.237   8.413   1.382  1.00 20.00     0.089 C 
ENDBRANCH   5   6
ENDBRANCH   1   5
BRANCH   1   8
HETATM    8  N8  UNL     1     -33.926   5.216   3.618  1.00 20.00     0.088 N 
HETATM    9  C4  UNL     1     -32.900   5.057   2.603  1.00 20.00     0.307 C 
HETATM   10  H24 UNL     1     -33.782   4.539   4.362  1.00 20.00     0.316 HD
ENDBRANCH   1   8
TORSDOF 4
ENDMDL
MODEL 7
REMARK VINA RESULT:      -2.9     12.286     13.343
REMARK  4 active torsions:
REMARK  status: ('A' for Active; 'I' for Inactive)
REMARK    1  A    between atoms: C2_2  and  C7_7 
REMARK    2  A    between atoms: C6_6  and  C7_7 
REMARK    3  A    between atoms: C6_6  and  S9_9 
REMARK    4  A    between atoms: C7_7  and  N8_8 
ROOT
HETATM    1  C7  UNL     1     -41.030  13.058   5.557  1.00 20.00     0.257 C 
ENDROOT
BRANCH   1   2
HETATM    2  C2  UNL     1     -39.728  12.272   5.495  1.00 20.00    -0.060 C 
HETATM    3  C1  UNL     1     -39.011  12.036   6.606  1.00 20.00     0.016 C 
HETATM    4  C3  UNL     1     -39.255  11.765   4.159  1.00 20.00     0.044 C 
ENDBRANCH   1   2
BRANCH   1   5
HETATM    5  C6  UNL     1     -41.087  14.094   6.695  1.00 20.00     0.113 C 
BRANCH   5   6
HETATM    6  S9  UNL     1     -42.276  13.639   7.998  1.00 20.00    -0.171 SA
HETATM    7  C5  UNL     1     -43.023  12.214   7.177  1.00 20.00     0.089 C 
ENDBRANCH   5   6
ENDBRANCH   1   5
BRANCH   1   8
HETATM    8  N8  UNL     1     -41.287  13.739   4.279  1.00 20.00     0.088 N 
HETATM    9  C4  UNL     1     -42.438  14.616   4.393  1.00 20.00     0.307 C 
HETATM   10  H24 UNL     1     -40.465  14.281   4.031  1.00 20.00     0.316 HD
ENDBRANCH   1   8
TORSDOF 4
ENDMDL
MODEL 8
REMARK VINA RESULT:      -2.9      2.211      2.934
REMARK  4 active torsions:
REMARK  status: ('A' for Active; 'I' for Inactive)
REMARK    1  A    between atoms: C2_2  and  C7_7 
REMARK    2  A    between atoms: C6_6  and  C7_7 
REMARK    3  A    between atoms: C6_6  and  S9_9 
REMARK    4  A    between atoms: C7_7  and  N8_8 
ROOT
HETATM    1  C7  UNL     1     -33.963  17.033  -3.677  1.00 20.00     0.257 C 
ENDROOT
BRANCH   1   2
HETATM    2  C2  UNL     1     -34.166  15.767  -4.497  1.00 20.00    -0.060 C 
HETATM    3  C1  UNL     1     -33.326  14.724  -4.378  1.00 20.00     0.016 C 
HETATM    4  C3  UNL     1     -35.330  15.704  -5.449  1.00 20.00     0.044 C 
ENDBRANCH   1   2
BRANCH   1   5
HETATM    5  C6  UNL     1     -33.402  16.785  -2.264  1.00 20.00     0.113 C 
BRANCH   5   6
HETATM    6  S9  UNL     1     -33.610  18.224  -1.166  1.00 20.00    -0.171 SA
HETATM    7  C5  UNL     1     -31.866  18.522  -0.800  1.00 20.00     0.089 C 
ENDBRANCH   5   6
ENDBRANCH   1   5
BRANCH   1   8
HETATM    8  N8  UNL     1     -33.078  17.972  -4.383  1.00 20.00     0.088 N 
HETATM    9  C4  UNL     1     -33.844  19.077  -4.930  1.00 20.00     0.307 C 
HETATM   10  H24 UNL     1     -32.389  18.323  -3.725  1.00 20.00     0.316 HD
ENDBRANCH   1   8
TORSDOF 4
ENDMDL
MODEL 9
REMARK VINA RESULT:      -2.9     12.516     13.529
REMARK  4 active torsions:
REMARK  status: ('A' for Active; 'I' for Inactive)
REMARK    1  A    between atoms: C2_2  and  C7_7 
REMARK    2  A    between atoms: C6_6  and  C7_7 
REMARK    3  A    between atoms: C6_6  and  S9_9 
REMARK    4  A    between atoms: C7_7  and  N8_8 
ROOT
HETATM    1  C7  UNL     1     -40.574  13.467   6.351  1.00 20.00     0.257 C 
ENDROOT
BRANCH   1   2
HETATM    2  C2  UNL     1     -39.547  12.470   5.837  1.00 20.00    -0.060 C 
HETATM    3  C1  UNL     1     -38.578  11.999   6.641  1.00 20.00     0.016 C 
HETATM    4  C3  UNL     1     -39.633  12.020   4.403  1.00 20.00     0.044 C 
ENDBRANCH   1   2
BRANCH   1   5
HETATM    5  C6  UNL     1     -41.973  12.866   6.586  1.00 20.00     0.113 C 
BRANCH   5   6
HETATM    6  S9  UNL     1     -43.303  13.889   5.877  1.00 20.00    -0.171 SA
HETATM    7  C5  UNL     1     -42.397  14.540   4.456  1.00 20.00     0.089 C 
ENDBRANCH   5   6
ENDBRANCH   1   5
BRANCH   1   8
HETATM    8  N8  UNL     1     -40.110  14.095   7.598  1.00 20.00     0.088 N 
HETATM    9  C4  UNL     1     -40.390  15.520   7.583  1.00 20.00     0.307 C 
HETATM   10  H24 UNL     1     -40.590  13.658   8.378  1.00 20.00     0.316 HD
ENDBRANCH   1   8
TORSDOF 4
ENDMDL
