MODEL 1
REMARK VINA RESULT:      -4.1      0.000      0.000
REMARK  2 active torsions:
REMARK  status: ('A' for Active; 'I' for Inactive)
REMARK    1  A    between atoms: C2_2  and  C10_10 
REMARK    2  A    between atoms: C7_7  and  C10_10 
ROOT
HETATM    1  C3  UNL     1     -43.036  13.155   8.402  1.00 20.00     0.002 C 
HETATM    2  C4  UNL     1     -42.585  12.738   7.006  1.00 20.00     0.005 C 
HETATM    3  C5  UNL     1     -43.099  14.675   8.546  1.00 20.00     0.016 C 
HETATM    4  C6  UNL     1     -41.290  14.897   6.764  1.00 20.00     0.020 C 
HETATM    5  C7  UNL     1     -41.237  13.366   6.636  1.00 20.00    -0.010 C 
HETATM    6  C8  UNL     1     -41.815  15.379   8.115  1.00 20.00     0.058 C 
HETATM    7 BR11 UNL     1     -40.434  15.162   9.490  1.00 20.00    -0.091 Br
ENDROOT
BRANCH   5   8
HETATM    8  C10 UNL     1     -40.824  12.960   5.221  1.00 20.00     0.037 C 
BRANCH   8   9
HETATM    9  C2  UNL     1     -39.528  12.192   5.196  1.00 20.00    -0.093 C 
HETATM   10  C1  UNL     1     -38.816  11.984   6.316  1.00 20.00     0.014 C 
HETATM   11  C9  UNL     1     -39.044  11.707   3.861  1.00 20.00     0.042 C 
ENDBRANCH   8   9
ENDBRANCH   5   8
TORSDOF 2
ENDMDL
MODEL 2
REMARK VINA RESULT:      -4.0     11.797     13.809
REMARK  2 active torsions:
REMARK  status: ('A' for Active; 'I' for Inactive)
REMARK    1  A    between atoms: C2_2  and  C10_10 
REMARK    2  A    between atoms: C7_7  and  C10_10 
ROOT
HETATM    1  C3  UNL     1     -33.875  14.812  -4.238  1.00 20.00     0.002 C 
HETATM    2  C4  UNL     1     -33.095  15.906  -3.516  1.00 20.00     0.005 C 
HETATM    3  C5  UNL     1     -34.173  15.190  -5.688  1.00 20.00     0.016 C 
HETATM    4  C6  UNL     1     -34.116  17.653  -5.035  1.00 20.00     0.020 C 
HETATM    5  C7  UNL     1     -33.823  17.253  -3.579  1.00 20.00    -0.010 C 
HETATM    6  C8  UNL     1     -34.823  16.562  -5.836  1.00 20.00     0.058 C 
HETATM    7 BR11 UNL     1     -36.714  16.468  -5.323  1.00 20.00    -0.091 Br
ENDROOT
BRANCH   5   8
HETATM    8  C10 UNL     1     -33.006  18.339  -2.880  1.00 20.00     0.037 C 
BRANCH   8   9
HETATM    9  C2  UNL     1     -32.902  18.115  -1.393  1.00 20.00    -0.093 C 
HETATM   10  C1  UNL     1     -33.961  17.720  -0.669  1.00 20.00     0.014 C 
HETATM   11  C9  UNL     1     -31.574  18.393  -0.749  1.00 20.00     0.042 C 
ENDBRANCH   8   9
ENDBRANCH   5   8
TORSDOF 2
ENDMDL
MODEL 3
REMARK VINA RESULT:      -3.8     12.121     13.730
REMARK  2 active torsions:
REMARK  status: ('A' for Active; 'I' for Inactive)
REMARK    1  A    between atoms: C2_2  and  C10_10 
REMARK    2  A    between atoms: C7_7  and  C10_10 
ROOT
HETATM    1  C3  UNL     1     -35.649  13.974  -4.968  1.00 20.00     0.002 C 
HETATM    2  C4  UNL     1     -34.377  14.398  -4.242  1.00 20.00     0.005 C 
HETATM    3  C5  UNL     1     -35.792  14.675  -6.319  1.00 20.00     0.016 C 
HETATM    4  C6  UNL     1     -34.436  16.637  -5.419  1.00 20.00     0.020 C 
HETATM    5  C7  UNL     1     -34.308  15.919  -4.065  1.00 20.00    -0.010 C 
HETATM    6  C8  UNL     1     -35.649  16.192  -6.233  1.00 20.00     0.058 C 
HETATM    7 BR11 UNL     1     -37.284  16.980  -5.491  1.00 20.00    -0.091 Br
ENDROOT
BRANCH   5   8
HETATM    8  C10 UNL     1     -33.009  16.322  -3.366  1.00 20.00     0.037 C 
BRANCH   8   9
HETATM    9  C2  UNL     1     -33.196  17.484  -2.425  1.00 20.00    -0.093 C 
HETATM   10  C1  UNL     1     -33.701  17.312  -1.193  1.00 20.00     0.014 C 
HETATM   11  C9  UNL     1     -32.835  18.847  -2.939  1.00 20.00     0.042 C 
ENDBRANCH   8   9
ENDBRANCH   5   8
TORSDOF 2
ENDMDL
MODEL 4
REMARK VINA RESULT:      -3.7      2.015      2.368
REMARK  2 active torsions:
REMARK  status: ('A' for Active; 'I' for Inactive)
REMARK    1  A    between atoms: C2_2  and  C10_10 
REMARK    2  A    between atoms: C7_7  and  C10_10 
ROOT
HETATM    1  C3  UNL     1     -40.954  15.605   7.563  1.00 20.00     0.002 C 
HETATM    2  C4  UNL     1     -40.455  14.173   7.405  1.00 20.00     0.005 C 
HETATM    3  C5  UNL     1     -42.479  15.685   7.495  1.00 20.00     0.016 C 
HETATM    4  C6  UNL     1     -42.502  13.598   6.033  1.00 20.00     0.020 C 
HETATM    5  C7  UNL     1     -40.967  13.536   6.108  1.00 20.00    -0.010 C 
HETATM    6  C8  UNL     1     -43.069  14.996   6.268  1.00 20.00     0.058 C 
HETATM    7 BR11 UNL     1     -42.797  16.108   4.676  1.00 20.00    -0.091 Br
ENDROOT
BRANCH   5   8
HETATM    8  C10 UNL     1     -40.482  12.091   5.990  1.00 20.00     0.037 C 
BRANCH   8   9
HETATM    9  C2  UNL     1     -39.150  11.985   5.293  1.00 20.00    -0.093 C 
HETATM   10  C1  UNL     1     -37.996  12.150   5.961  1.00 20.00     0.014 C 
HETATM   11  C9  UNL     1     -39.168  11.730   3.814  1.00 20.00     0.042 C 
ENDBRANCH   8   9
ENDBRANCH   5   8
TORSDOF 2
ENDMDL
MODEL 5
REMARK VINA RESULT:      -3.7      1.918      2.466
REMARK  2 active torsions:
REMARK  status: ('A' for Active; 'I' for Inactive)
REMARK    1  A    between atoms: C2_2  and  C10_10 
REMARK    2  A    between atoms: C7_7  and  C10_10 
ROOT
HETATM    1  C3  UNL     1     -40.813  15.419   7.810  1.00 20.00     0.002 C 
HETATM    2  C4  UNL     1     -40.369  13.991   7.512  1.00 20.00     0.005 C 
HETATM    3  C5  UNL     1     -42.334  15.561   7.764  1.00 20.00     0.016 C 
HETATM    4  C6  UNL     1     -42.444  13.624   6.112  1.00 20.00     0.020 C 
HETATM    5  C7  UNL     1     -40.912  13.500   6.166  1.00 20.00    -0.010 C 
HETATM    6  C8  UNL     1     -42.956  15.014   6.483  1.00 20.00     0.058 C 
HETATM    7 BR11 UNL     1     -42.652  16.262   5.001  1.00 20.00    -0.091 Br
ENDROOT
BRANCH   5   8
HETATM    8  C10 UNL     1     -40.482  12.056   5.907  1.00 20.00     0.037 C 
BRANCH   8   9
HETATM    9  C2  UNL     1     -39.204  11.967   5.114  1.00 20.00    -0.093 C 
HETATM   10  C1  UNL     1     -39.216  11.766   3.786  1.00 20.00     0.014 C 
HETATM   11  C9  UNL     1     -37.915  12.072   5.877  1.00 20.00     0.042 C 
ENDBRANCH   8   9
ENDBRANCH   5   8
TORSDOF 2
ENDMDL
MODEL 6
REMARK VINA RESULT:      -3.6     11.199     13.110
REMARK  2 active torsions:
REMARK  status: ('A' for Active; 'I' for Inactive)
REMARK    1  A    between atoms: C2_2  and  C10_10 
REMARK    2  A    between atoms: C7_7  and  C10_10 
ROOT
HETATM    1  C3  UNL     1     -34.052  16.337  -3.708  1.00 20.00     0.002 C 
HETATM    2  C4  UNL     1     -32.964  16.681  -2.696  1.00 20.00     0.005 C 
HETATM    3  C5  UNL     1     -34.293  17.481  -4.693  1.00 20.00     0.016 C 
HETATM    4  C6  UNL     1     -33.514  19.140  -2.922  1.00 20.00     0.020 C 
HETATM    5  C7  UNL     1     -33.283  17.977  -1.943  1.00 20.00    -0.010 C 
HETATM    6  C8  UNL     1     -34.535  18.825  -4.013  1.00 20.00     0.058 C 
HETATM    7 BR11 UNL     1     -36.351  18.888  -3.274  1.00 20.00    -0.091 Br
ENDROOT
BRANCH   5   8
HETATM    8  C10 UNL     1     -32.162  18.319  -0.961  1.00 20.00     0.037 C 
BRANCH   8   9
HETATM    9  C2  UNL     1     -32.654  18.430   0.460  1.00 20.00    -0.093 C 
HETATM   10  C1  UNL     1     -33.964  18.510   0.742  1.00 20.00     0.014 C 
HETATM   11  C9  UNL     1     -31.615  18.489   1.542  1.00 20.00     0.042 C 
ENDBRANCH   8   9
ENDBRANCH   5   8
TORSDOF 2
ENDMDL
MODEL 7
REMARK VINA RESULT:      -3.4     11.653     13.556
REMARK  2 active torsions:
REMARK  status: ('A' for Active; 'I' for Inactive)
REMARK    1  A    between atoms: C2_2  and  C10_10 
REMARK    2  A    between atoms: C7_7  and  C10_10 
ROOT
HETATM    1  C3  UNL     1     -34.598  15.696  -4.752  1.00 20.00     0.002 C 
HETATM    2  C4  UNL     1     -33.506  15.850  -3.698  1.00 20.00     0.005 C 
HETATM    3  C5  UNL     1     -34.583  16.848  -5.755  1.00 20.00     0.016 C 
HETATM    4  C6  UNL     1     -33.583  18.364  -3.968  1.00 20.00     0.020 C 
HETATM    5  C7  UNL     1     -33.610  17.194  -2.969  1.00 20.00    -0.010 C 
HETATM    6  C8  UNL     1     -34.599  18.225  -5.098  1.00 20.00     0.058 C 
HETATM    7 BR11 UNL     1     -36.400  18.634  -4.438  1.00 20.00    -0.091 Br
ENDROOT
BRANCH   5   8
HETATM    8  C10 UNL     1     -32.486  17.339  -1.944  1.00 20.00     0.037 C 
BRANCH   8   9
HETATM    9  C2  UNL     1     -32.921  18.092  -0.713  1.00 20.00    -0.093 C 
HETATM   10  C1  UNL     1     -34.220  18.245  -0.409  1.00 20.00     0.014 C 
HETATM   11  C9  UNL     1     -31.842  18.701   0.135  1.00 20.00     0.042 C 
ENDBRANCH   8   9
ENDBRANCH   5   8
TORSDOF 2
ENDMDL
MODEL 8
REMARK VINA RESULT:      -3.4      9.676     10.859
REMARK  2 active torsions:
REMARK  status: ('A' for Active; 'I' for Inactive)
REMARK    1  A    between atoms: C2_2  and  C10_10 
REMARK    2  A    between atoms: C7_7  and  C10_10 
ROOT
HETATM    1  C3  UNL     1     -33.725   7.916   5.896  1.00 20.00     0.002 C 
HETATM    2  C4  UNL     1     -32.646   8.189   4.853  1.00 20.00     0.005 C 
HETATM    3  C5  UNL     1     -33.971   6.419   6.078  1.00 20.00     0.016 C 
HETATM    4  C6  UNL     1     -33.219   6.025   3.675  1.00 20.00     0.020 C 
HETATM    5  C7  UNL     1     -32.982   7.535   3.508  1.00 20.00    -0.010 C 
HETATM    6  C8  UNL     1     -34.230   5.683   4.767  1.00 20.00     0.058 C 
HETATM    7 BR11 UNL     1     -36.050   6.051   4.138  1.00 20.00    -0.091 Br
ENDROOT
BRANCH   5   8
HETATM    8  C10 UNL     1     -31.871   7.794   2.491  1.00 20.00     0.037 C 
BRANCH   8   9
HETATM    9  C2  UNL     1     -32.341   8.621   1.322  1.00 20.00    -0.093 C 
HETATM   10  C1  UNL     1     -32.103   8.242   0.056  1.00 20.00     0.014 C 
HETATM   11  C9  UNL     1     -33.048   9.908   1.633  1.00 20.00     0.042 C 
ENDBRANCH   8   9
ENDBRANCH   5   8
TORSDOF 2
ENDMDL
MODEL 9
REMARK VINA RESULT:      -3.2      1.785      2.786
REMARK  2 active torsions:
REMARK  status: ('A' for Active; 'I' for Inactive)
REMARK    1  A    between atoms: C2_2  and  C10_10 
REMARK    2  A    between atoms: C7_7  and  C10_10 
ROOT
HETATM    1  C3  UNL     1     -40.161  15.320   9.330  1.00 20.00     0.002 C 
HETATM    2  C4  UNL     1     -40.312  14.201   8.305  1.00 20.00     0.005 C 
HETATM    3  C5  UNL     1     -41.007  15.065  10.578  1.00 20.00     0.016 C 
HETATM    4  C6  UNL     1     -42.640  13.711   9.166  1.00 20.00     0.020 C 
HETATM    5  C7  UNL     1     -41.780  13.983   7.920  1.00 20.00    -0.010 C 
HETATM    6  C8  UNL     1     -42.468  14.755  10.266  1.00 20.00     0.058 C 
HETATM    7 BR11 UNL     1     -43.417  16.403   9.785  1.00 20.00    -0.091 Br
ENDROOT
BRANCH   5   8
HETATM    8  C10 UNL     1     -41.908  12.835   6.919  1.00 20.00     0.037 C 
BRANCH   8   9
HETATM    9  C2  UNL     1     -41.248  13.143   5.600  1.00 20.00    -0.093 C 
HETATM   10  C1  UNL     1     -41.731  14.090   4.779  1.00 20.00     0.014 C 
HETATM   11  C9  UNL     1     -40.051  12.319   5.224  1.00 20.00     0.042 C 
ENDBRANCH   8   9
ENDBRANCH   5   8
TORSDOF 2
ENDMDL
