MODEL 1
REMARK VINA RESULT:      -4.1      0.000      0.000
REMARK  2 active torsions:
REMARK  status: ('A' for Active; 'I' for Inactive)
REMARK    1  A    between atoms: C2_2  and  C9_9 
REMARK    2  A    between atoms: C6_6  and  C9_9 
ROOT
HETATM    1  C3  UNL     1     -33.944  18.015   0.111  1.00 20.00     0.006 C 
HETATM    2  C4  UNL     1     -33.374  19.263   0.772  1.00 20.00     0.016 C 
HETATM    3  C5  UNL     1     -31.838  18.518  -0.979  1.00 20.00     0.020 C 
HETATM    4  C6  UNL     1     -33.262  18.012  -1.254  1.00 20.00    -0.010 C 
HETATM    5  C7  UNL     1     -31.909  19.263   0.356  1.00 20.00     0.058 C 
HETATM    6 BR10 UNL     1     -30.841  18.323   1.701  1.00 20.00    -0.091 Br
ENDROOT
BRANCH   4   7
HETATM    7  C9  UNL     1     -33.296  16.653  -1.932  1.00 20.00     0.037 C 
BRANCH   7   8
HETATM    8  C2  UNL     1     -33.603  16.741  -3.409  1.00 20.00    -0.093 C 
HETATM    9  C1  UNL     1     -33.851  17.917  -4.004  1.00 20.00     0.014 C 
HETATM   10  C8  UNL     1     -33.651  15.451  -4.174  1.00 20.00     0.042 C 
ENDBRANCH   7   8
ENDBRANCH   4   7
TORSDOF 2
ENDMDL
MODEL 2
REMARK VINA RESULT:      -3.8      3.215      5.348
REMARK  2 active torsions:
REMARK  status: ('A' for Active; 'I' for Inactive)
REMARK    1  A    between atoms: C2_2  and  C9_9 
REMARK    2  A    between atoms: C6_6  and  C9_9 
ROOT
HETATM    1  C3  UNL     1     -33.607  15.000  -3.855  1.00 20.00     0.006 C 
HETATM    2  C4  UNL     1     -33.754  15.141  -5.365  1.00 20.00     0.016 C 
HETATM    3  C5  UNL     1     -34.313  17.275  -4.310  1.00 20.00     0.020 C 
HETATM    4  C6  UNL     1     -33.397  16.442  -3.400  1.00 20.00    -0.010 C 
HETATM    5  C7  UNL     1     -34.588  16.404  -5.537  1.00 20.00     0.058 C 
HETATM    6 BR10 UNL     1     -36.488  15.936  -5.610  1.00 20.00    -0.091 Br
ENDROOT
BRANCH   4   7
HETATM    7  C9  UNL     1     -33.677  16.644  -1.920  1.00 20.00     0.037 C 
BRANCH   7   8
HETATM    8  C2  UNL     1     -33.278  18.017  -1.430  1.00 20.00    -0.093 C 
HETATM    9  C1  UNL     1     -31.993  18.341  -1.224  1.00 20.00     0.014 C 
HETATM   10  C8  UNL     1     -34.386  18.990  -1.150  1.00 20.00     0.042 C 
ENDBRANCH   7   8
ENDBRANCH   4   7
TORSDOF 2
ENDMDL
MODEL 3
REMARK VINA RESULT:      -3.8      2.650      4.748
REMARK  2 active torsions:
REMARK  status: ('A' for Active; 'I' for Inactive)
REMARK    1  A    between atoms: C2_2  and  C9_9 
REMARK    2  A    between atoms: C6_6  and  C9_9 
ROOT
HETATM    1  C3  UNL     1     -33.595  16.355  -2.314  1.00 20.00     0.006 C 
HETATM    2  C4  UNL     1     -33.410  16.430  -3.824  1.00 20.00     0.016 C 
HETATM    3  C5  UNL     1     -33.465  18.700  -2.917  1.00 20.00     0.020 C 
HETATM    4  C6  UNL     1     -33.036  17.694  -1.839  1.00 20.00    -0.010 C 
HETATM    5  C7  UNL     1     -33.764  17.871  -4.168  1.00 20.00     0.058 C 
HETATM    6 BR10 UNL     1     -35.668  17.995  -4.609  1.00 20.00    -0.091 Br
ENDROOT
BRANCH   4   7
HETATM    7  C9  UNL     1     -33.508  18.072  -0.444  1.00 20.00     0.037 C 
BRANCH   7   8
HETATM    8  C2  UNL     1     -32.395  18.604   0.428  1.00 20.00    -0.093 C 
HETATM    9  C1  UNL     1     -32.645  19.144   1.630  1.00 20.00     0.014 C 
HETATM   10  C8  UNL     1     -31.001  18.530  -0.123  1.00 20.00     0.042 C 
ENDBRANCH   7   8
ENDBRANCH   4   7
TORSDOF 2
ENDMDL
MODEL 4
REMARK VINA RESULT:      -3.8      2.409      4.760
REMARK  2 active torsions:
REMARK  status: ('A' for Active; 'I' for Inactive)
REMARK    1  A    between atoms: C2_2  and  C9_9 
REMARK    2  A    between atoms: C6_6  and  C9_9 
ROOT
HETATM    1  C3  UNL     1     -32.537  19.203  -2.511  1.00 20.00     0.006 C 
HETATM    2  C4  UNL     1     -33.861  18.806  -3.152  1.00 20.00     0.016 C 
HETATM    3  C5  UNL     1     -33.429  17.337  -1.244  1.00 20.00     0.020 C 
HETATM    4  C6  UNL     1     -32.676  18.667  -1.088  1.00 20.00    -0.010 C 
HETATM    5  C7  UNL     1     -34.133  17.412  -2.601  1.00 20.00     0.058 C 
HETATM    6 BR10 UNL     1     -33.387  16.067  -3.813  1.00 20.00    -0.091 Br
ENDROOT
BRANCH   4   7
HETATM    7  C9  UNL     1     -31.342  18.521  -0.376  1.00 20.00     0.037 C 
BRANCH   7   8
HETATM    8  C2  UNL     1     -31.393  18.968   1.066  1.00 20.00    -0.093 C 
HETATM    9  C1  UNL     1     -30.280  19.069   1.808  1.00 20.00     0.014 C 
HETATM   10  C8  UNL     1     -32.748  19.261   1.642  1.00 20.00     0.042 C 
ENDBRANCH   7   8
ENDBRANCH   4   7
TORSDOF 2
ENDMDL
MODEL 5
REMARK VINA RESULT:      -3.6     10.812     12.040
REMARK  2 active torsions:
REMARK  status: ('A' for Active; 'I' for Inactive)
REMARK    1  A    between atoms: C2_2  and  C9_9 
REMARK    2  A    between atoms: C6_6  and  C9_9 
ROOT
HETATM    1  C3  UNL     1     -42.176  13.967   5.588  1.00 20.00     0.006 C 
HETATM    2  C4  UNL     1     -42.466  15.275   6.313  1.00 20.00     0.016 C 
HETATM    3  C5  UNL     1     -40.737  14.055   7.538  1.00 20.00     0.020 C 
HETATM    4  C6  UNL     1     -40.767  13.622   6.064  1.00 20.00    -0.010 C 
HETATM    5  C7  UNL     1     -41.873  15.067   7.700  1.00 20.00     0.058 C 
HETATM    6 BR10 UNL     1     -43.242  14.345   8.901  1.00 20.00    -0.091 Br
ENDROOT
BRANCH   4   7
HETATM    7  C9  UNL     1     -40.414  12.158   5.861  1.00 20.00     0.037 C 
BRANCH   7   8
HETATM    8  C2  UNL     1     -39.069  11.964   5.202  1.00 20.00    -0.093 C 
HETATM    9  C1  UNL     1     -37.926  12.104   5.890  1.00 20.00     0.014 C 
HETATM   10  C8  UNL     1     -39.066  11.642   3.736  1.00 20.00     0.042 C 
ENDBRANCH   7   8
ENDBRANCH   4   7
TORSDOF 2
ENDMDL
MODEL 6
REMARK VINA RESULT:      -3.6     11.480     12.423
REMARK  2 active torsions:
REMARK  status: ('A' for Active; 'I' for Inactive)
REMARK    1  A    between atoms: C2_2  and  C9_9 
REMARK    2  A    between atoms: C6_6  and  C9_9 
ROOT
HETATM    1  C3  UNL     1     -32.990   6.626   3.358  1.00 20.00     0.006 C 
HETATM    2  C4  UNL     1     -31.888   7.165   2.456  1.00 20.00     0.016 C 
HETATM    3  C5  UNL     1     -32.437   8.855   4.136  1.00 20.00     0.020 C 
HETATM    4  C6  UNL     1     -32.820   7.452   4.630  1.00 20.00    -0.010 C 
HETATM    5  C7  UNL     1     -31.900   8.666   2.716  1.00 20.00     0.058 C 
HETATM    6 BR10 UNL     1     -33.088   9.548   1.432  1.00 20.00    -0.091 Br
ENDROOT
BRANCH   4   7
HETATM    7  C9  UNL     1     -34.058   7.444   5.512  1.00 20.00     0.037 C 
BRANCH   7   8
HETATM    8  C2  UNL     1     -34.708   6.083   5.598  1.00 20.00    -0.093 C 
HETATM    9  C1  UNL     1     -34.402   5.221   6.579  1.00 20.00     0.014 C 
HETATM   10  C8  UNL     1     -35.688   5.725   4.519  1.00 20.00     0.042 C 
ENDBRANCH   7   8
ENDBRANCH   4   7
TORSDOF 2
ENDMDL
MODEL 7
REMARK VINA RESULT:      -3.6      1.703      2.648
REMARK  2 active torsions:
REMARK  status: ('A' for Active; 'I' for Inactive)
REMARK    1  A    between atoms: C2_2  and  C9_9 
REMARK    2  A    between atoms: C6_6  and  C9_9 
ROOT
HETATM    1  C3  UNL     1     -32.862  18.846  -2.951  1.00 20.00     0.006 C 
HETATM    2  C4  UNL     1     -32.225  19.034  -1.581  1.00 20.00     0.016 C 
HETATM    3  C5  UNL     1     -33.669  17.061  -1.523  1.00 20.00     0.020 C 
HETATM    4  C6  UNL     1     -33.217  17.362  -2.960  1.00 20.00    -0.010 C 
HETATM    5  C7  UNL     1     -33.080  18.177  -0.657  1.00 20.00     0.058 C 
HETATM    6 BR10 UNL     1     -34.522  19.263   0.102  1.00 20.00    -0.091 Br
ENDROOT
BRANCH   4   7
HETATM    7  C9  UNL     1     -34.262  17.007  -4.004  1.00 20.00     0.037 C 
BRANCH   7   8
HETATM    8  C2  UNL     1     -34.102  15.604  -4.542  1.00 20.00    -0.093 C 
HETATM    9  C1  UNL     1     -33.007  14.874  -4.280  1.00 20.00     0.014 C 
HETATM   10  C8  UNL     1     -35.207  15.075  -5.409  1.00 20.00     0.042 C 
ENDBRANCH   7   8
ENDBRANCH   4   7
TORSDOF 2
ENDMDL
MODEL 8
REMARK VINA RESULT:      -3.5      3.202      5.320
REMARK  2 active torsions:
REMARK  status: ('A' for Active; 'I' for Inactive)
REMARK    1  A    between atoms: C2_2  and  C9_9 
REMARK    2  A    between atoms: C6_6  and  C9_9 
ROOT
HETATM    1  C3  UNL     1     -34.841  17.601  -4.332  1.00 20.00     0.006 C 
HETATM    2  C4  UNL     1     -35.685  16.514  -4.985  1.00 20.00     0.016 C 
HETATM    3  C5  UNL     1     -33.712  15.487  -3.970  1.00 20.00     0.020 C 
HETATM    4  C6  UNL     1     -34.037  16.826  -3.292  1.00 20.00    -0.010 C 
HETATM    5  C7  UNL     1     -34.735  15.328  -5.096  1.00 20.00     0.058 C 
HETATM    6 BR10 UNL     1     -33.828  15.369  -6.831  1.00 20.00    -0.091 Br
ENDROOT
BRANCH   4   7
HETATM    7  C9  UNL     1     -32.802  17.575  -2.819  1.00 20.00     0.037 C 
BRANCH   7   8
HETATM    8  C2  UNL     1     -32.833  17.885  -1.341  1.00 20.00    -0.093 C 
HETATM    9  C1  UNL     1     -33.936  17.676  -0.605  1.00 20.00     0.014 C 
HETATM   10  C8  UNL     1     -31.589  18.468  -0.738  1.00 20.00     0.042 C 
ENDBRANCH   7   8
ENDBRANCH   4   7
TORSDOF 2
ENDMDL
MODEL 9
REMARK VINA RESULT:      -3.5      1.695      2.589
REMARK  2 active torsions:
REMARK  status: ('A' for Active; 'I' for Inactive)
REMARK    1  A    between atoms: C2_2  and  C9_9 
REMARK    2  A    between atoms: C6_6  and  C9_9 
ROOT
HETATM    1  C3  UNL     1     -32.866  18.820  -2.951  1.00 20.00     0.006 C 
HETATM    2  C4  UNL     1     -32.194  18.952  -1.591  1.00 20.00     0.016 C 
HETATM    3  C5  UNL     1     -33.706  17.031  -1.548  1.00 20.00     0.020 C 
HETATM    4  C6  UNL     1     -33.274  17.350  -2.987  1.00 20.00    -0.010 C 
HETATM    5  C7  UNL     1     -33.060  18.103  -0.669  1.00 20.00     0.058 C 
HETATM    6 BR10 UNL     1     -34.446  19.220   0.147  1.00 20.00    -0.091 Br
ENDROOT
BRANCH   4   7
HETATM    7  C9  UNL     1     -34.353  17.058  -4.017  1.00 20.00     0.037 C 
BRANCH   7   8
HETATM    8  C2  UNL     1     -34.048  15.840  -4.857  1.00 20.00    -0.093 C 
HETATM    9  C1  UNL     1     -34.614  15.660  -6.060  1.00 20.00     0.014 C 
HETATM   10  C8  UNL     1     -33.111  14.824  -4.273  1.00 20.00     0.042 C 
ENDBRANCH   7   8
ENDBRANCH   4   7
TORSDOF 2
ENDMDL
