MODEL 1
REMARK VINA RESULT:      -4.8      0.000      0.000
REMARK  2 active torsions:
REMARK  status: ('A' for Active; 'I' for Inactive)
REMARK    1  A    between atoms: C2_2  and  C9_9 
REMARK    2  A    between atoms: C6_6  and  C9_9 
ROOT
HETATM    1  C3  UNL     1     -32.675   6.470   3.552  1.00 20.00     0.006 C 
HETATM    2  C4  UNL     1     -32.519   6.999   2.123  1.00 20.00     0.020 C 
HETATM    3  C5  UNL     1     -32.999   8.877   3.515  1.00 20.00     0.025 C 
HETATM    4  C6  UNL     1     -32.742   7.706   4.464  1.00 20.00    -0.009 C 
HETATM    5  C7  UNL     1     -32.195   8.479   2.287  1.00 20.00     0.082 C 
HETATM    6 CL10 UNL     1     -32.631   9.427   0.859  1.00 20.00    -0.125 Cl
ENDROOT
BRANCH   4   7
HETATM    7  C9  UNL     1     -33.789   7.587   5.559  1.00 20.00     0.037 C 
BRANCH   7   8
HETATM    8  C2  UNL     1     -34.474   6.242   5.567  1.00 20.00    -0.093 C 
HETATM    9  C1  UNL     1     -34.172   5.308   6.482  1.00 20.00     0.014 C 
HETATM   10  C8  UNL     1     -35.481   5.980   4.484  1.00 20.00     0.042 C 
ENDBRANCH   7   8
ENDBRANCH   4   7
TORSDOF 2
ENDMDL
MODEL 2
REMARK VINA RESULT:      -4.5     11.521     12.400
REMARK  2 active torsions:
REMARK  status: ('A' for Active; 'I' for Inactive)
REMARK    1  A    between atoms: C2_2  and  C9_9 
REMARK    2  A    between atoms: C6_6  and  C9_9 
ROOT
HETATM    1  C3  UNL     1     -33.974  18.526   0.393  1.00 20.00     0.006 C 
HETATM    2  C4  UNL     1     -32.933  18.994   1.414  1.00 20.00     0.020 C 
HETATM    3  C5  UNL     1     -31.735  18.201  -0.491  1.00 20.00     0.025 C 
HETATM    4  C6  UNL     1     -33.205  18.248  -0.908  1.00 20.00    -0.009 C 
HETATM    5  C7  UNL     1     -31.676  19.263   0.597  1.00 20.00     0.082 C 
HETATM    6 CL10 UNL     1     -30.202  19.151   1.569  1.00 20.00    -0.125 Cl
ENDROOT
BRANCH   4   7
HETATM    7  C9  UNL     1     -33.662  16.983  -1.616  1.00 20.00     0.037 C 
BRANCH   7   8
HETATM    8  C2  UNL     1     -33.382  17.010  -3.098  1.00 20.00    -0.093 C 
HETATM    9  C1  UNL     1     -33.283  18.167  -3.772  1.00 20.00     0.014 C 
HETATM   10  C8  UNL     1     -33.255  15.685  -3.795  1.00 20.00     0.042 C 
ENDBRANCH   7   8
ENDBRANCH   4   7
TORSDOF 2
ENDMDL
MODEL 3
REMARK VINA RESULT:      -4.4      2.666      4.582
REMARK  2 active torsions:
REMARK  status: ('A' for Active; 'I' for Inactive)
REMARK    1  A    between atoms: C2_2  and  C9_9 
REMARK    2  A    between atoms: C6_6  and  C9_9 
ROOT
HETATM    1  C3  UNL     1     -33.243   5.374   2.959  1.00 20.00     0.006 C 
HETATM    2  C4  UNL     1     -33.871   4.681   4.171  1.00 20.00     0.020 C 
HETATM    3  C5  UNL     1     -33.708   7.001   4.702  1.00 20.00     0.025 C 
HETATM    4  C6  UNL     1     -33.365   6.885   3.217  1.00 20.00    -0.009 C 
HETATM    5  C7  UNL     1     -34.599   5.788   4.922  1.00 20.00     0.082 C 
HETATM    6 CL10 UNL     1     -34.814   5.412   6.638  1.00 20.00    -0.125 Cl
ENDROOT
BRANCH   4   7
HETATM    7  C9  UNL     1     -32.117   7.662   2.832  1.00 20.00     0.037 C 
BRANCH   7   8
HETATM    8  C2  UNL     1     -32.312   8.502   1.593  1.00 20.00    -0.093 C 
HETATM    9  C1  UNL     1     -31.879   8.089   0.392  1.00 20.00     0.014 C 
HETATM   10  C8  UNL     1     -32.977   9.837   1.770  1.00 20.00     0.042 C 
ENDBRANCH   7   8
ENDBRANCH   4   7
TORSDOF 2
ENDMDL
MODEL 4
REMARK VINA RESULT:      -4.4     11.533     12.459
REMARK  2 active torsions:
REMARK  status: ('A' for Active; 'I' for Inactive)
REMARK    1  A    between atoms: C2_2  and  C9_9 
REMARK    2  A    between atoms: C6_6  and  C9_9 
ROOT
HETATM    1  C3  UNL     1     -32.769  19.263  -2.871  1.00 20.00     0.006 C 
HETATM    2  C4  UNL     1     -33.344  18.456  -4.039  1.00 20.00     0.020 C 
HETATM    3  C5  UNL     1     -33.183  16.972  -2.178  1.00 20.00     0.025 C 
HETATM    4  C6  UNL     1     -32.896  18.368  -1.627  1.00 20.00    -0.009 C 
HETATM    5  C7  UNL     1     -34.053  17.276  -3.388  1.00 20.00     0.082 C 
HETATM    6 CL10 UNL     1     -34.199  15.890  -4.479  1.00 20.00    -0.125 Cl
ENDROOT
BRANCH   4   7
HETATM    7  C9  UNL     1     -31.671  18.413  -0.729  1.00 20.00     0.037 C 
BRANCH   7   8
HETATM    8  C2  UNL     1     -32.021  18.609   0.726  1.00 20.00    -0.093 C 
HETATM    9  C1  UNL     1     -33.228  19.061   1.102  1.00 20.00     0.014 C 
HETATM   10  C8  UNL     1     -30.948  18.311   1.734  1.00 20.00     0.042 C 
ENDBRANCH   7   8
ENDBRANCH   4   7
TORSDOF 2
ENDMDL
MODEL 5
REMARK VINA RESULT:      -4.3     11.504     12.412
REMARK  2 active torsions:
REMARK  status: ('A' for Active; 'I' for Inactive)
REMARK    1  A    between atoms: C2_2  and  C9_9 
REMARK    2  A    between atoms: C6_6  and  C9_9 
ROOT
HETATM    1  C3  UNL     1     -33.109  15.196  -4.123  1.00 20.00     0.006 C 
HETATM    2  C4  UNL     1     -33.946  15.056  -5.398  1.00 20.00     0.020 C 
HETATM    3  C5  UNL     1     -34.674  17.045  -4.300  1.00 20.00     0.025 C 
HETATM    4  C6  UNL     1     -33.417  16.592  -3.558  1.00 20.00    -0.009 C 
HETATM    5  C7  UNL     1     -34.456  16.462  -5.688  1.00 20.00     0.082 C 
HETATM    6 CL10 UNL     1     -35.936  16.457  -6.657  1.00 20.00    -0.125 Cl
ENDROOT
BRANCH   4   7
HETATM    7  C9  UNL     1     -33.582  16.604  -2.047  1.00 20.00     0.037 C 
BRANCH   7   8
HETATM    8  C2  UNL     1     -33.203  17.928  -1.430  1.00 20.00    -0.093 C 
HETATM    9  C1  UNL     1     -32.489  18.839  -2.109  1.00 20.00     0.014 C 
HETATM   10  C8  UNL     1     -33.627  18.166  -0.008  1.00 20.00     0.042 C 
ENDBRANCH   7   8
ENDBRANCH   4   7
TORSDOF 2
ENDMDL
MODEL 6
REMARK VINA RESULT:      -4.3     11.661     12.442
REMARK  2 active torsions:
REMARK  status: ('A' for Active; 'I' for Inactive)
REMARK    1  A    between atoms: C2_2  and  C9_9 
REMARK    2  A    between atoms: C6_6  and  C9_9 
ROOT
HETATM    1  C3  UNL     1     -33.354  16.053  -3.174  1.00 20.00     0.006 C 
HETATM    2  C4  UNL     1     -34.112  16.115  -4.504  1.00 20.00     0.020 C 
HETATM    3  C5  UNL     1     -34.587  18.140  -3.335  1.00 20.00     0.025 C 
HETATM    4  C6  UNL     1     -33.473  17.452  -2.546  1.00 20.00    -0.009 C 
HETATM    5  C7  UNL     1     -34.369  17.598  -4.740  1.00 20.00     0.082 C 
HETATM    6 CL10 UNL     1     -35.760  17.882  -5.795  1.00 20.00    -0.125 Cl
ENDROOT
BRANCH   4   7
HETATM    7  C9  UNL     1     -33.739  17.416  -1.050  1.00 20.00     0.037 C 
BRANCH   7   8
HETATM    8  C2  UNL     1     -32.791  18.293  -0.269  1.00 20.00    -0.093 C 
HETATM    9  C1  UNL     1     -31.522  18.481  -0.665  1.00 20.00     0.014 C 
HETATM   10  C8  UNL     1     -33.318  18.916   0.992  1.00 20.00     0.042 C 
ENDBRANCH   7   8
ENDBRANCH   4   7
TORSDOF 2
ENDMDL
MODEL 7
REMARK VINA RESULT:      -4.3     11.546     12.340
REMARK  2 active torsions:
REMARK  status: ('A' for Active; 'I' for Inactive)
REMARK    1  A    between atoms: C2_2  and  C9_9 
REMARK    2  A    between atoms: C6_6  and  C9_9 
ROOT
HETATM    1  C3  UNL     1     -34.670  18.155  -3.469  1.00 20.00     0.006 C 
HETATM    2  C4  UNL     1     -34.900  17.247  -4.681  1.00 20.00     0.020 C 
HETATM    3  C5  UNL     1     -33.118  16.287  -3.418  1.00 20.00     0.025 C 
HETATM    4  C6  UNL     1     -33.695  17.404  -2.548  1.00 20.00    -0.009 C 
HETATM    5  C7  UNL     1     -34.311  15.901  -4.279  1.00 20.00     0.082 C 
HETATM    6 CL10 UNL     1     -33.845  14.924  -5.678  1.00 20.00    -0.125 Cl
ENDROOT
BRANCH   4   7
HETATM    7  C9  UNL     1     -32.626  18.301  -1.946  1.00 20.00     0.037 C 
BRANCH   7   8
HETATM    8  C2  UNL     1     -32.630  18.283  -0.437  1.00 20.00    -0.093 C 
HETATM    9  C1  UNL     1     -33.765  18.104   0.258  1.00 20.00     0.014 C 
HETATM   10  C8  UNL     1     -31.316  18.511   0.253  1.00 20.00     0.042 C 
ENDBRANCH   7   8
ENDBRANCH   4   7
TORSDOF 2
ENDMDL
MODEL 8
REMARK VINA RESULT:      -4.1     11.409     12.505
REMARK  2 active torsions:
REMARK  status: ('A' for Active; 'I' for Inactive)
REMARK    1  A    between atoms: C2_2  and  C9_9 
REMARK    2  A    between atoms: C6_6  and  C9_9 
ROOT
HETATM    1  C3  UNL     1     -34.707  17.392  -4.130  1.00 20.00     0.006 C 
HETATM    2  C4  UNL     1     -34.888  18.346  -2.946  1.00 20.00     0.020 C 
HETATM    3  C5  UNL     1     -33.413  16.614  -2.227  1.00 20.00     0.025 C 
HETATM    4  C6  UNL     1     -33.578  16.426  -3.735  1.00 20.00    -0.009 C 
HETATM    5  C7  UNL     1     -33.674  18.103  -2.058  1.00 20.00     0.082 C 
HETATM    6 CL10 UNL     1     -33.971  18.548  -0.372  1.00 20.00    -0.125 Cl
ENDROOT
BRANCH   4   7
HETATM    7  C9  UNL     1     -33.857  14.985  -4.128  1.00 20.00     0.037 C 
BRANCH   7   8
HETATM    8  C2  UNL     1     -34.646  14.872  -5.409  1.00 20.00    -0.093 C 
HETATM    9  C1  UNL     1     -35.917  14.442  -5.414  1.00 20.00     0.014 C 
HETATM   10  C8  UNL     1     -33.934  15.225  -6.684  1.00 20.00     0.042 C 
ENDBRANCH   7   8
ENDBRANCH   4   7
TORSDOF 2
ENDMDL
MODEL 9
REMARK VINA RESULT:      -4.0      9.672     10.594
REMARK  2 active torsions:
REMARK  status: ('A' for Active; 'I' for Inactive)
REMARK    1  A    between atoms: C2_2  and  C9_9 
REMARK    2  A    between atoms: C6_6  and  C9_9 
ROOT
HETATM    1  C3  UNL     1     -42.525  13.669   6.059  1.00 20.00     0.006 C 
HETATM    2  C4  UNL     1     -42.791  14.840   7.010  1.00 20.00     0.020 C 
HETATM    3  C5  UNL     1     -40.446  14.408   7.074  1.00 20.00     0.025 C 
HETATM    4  C6  UNL     1     -40.997  13.562   5.927  1.00 20.00    -0.009 C 
HETATM    5  C7  UNL     1     -41.449  15.549   7.144  1.00 20.00     0.082 C 
HETATM    6 CL10 UNL     1     -41.319  16.470   8.648  1.00 20.00    -0.125 Cl
ENDROOT
BRANCH   4   7
HETATM    7  C9  UNL     1     -40.494  12.128   5.950  1.00 20.00     0.037 C 
BRANCH   7   8
HETATM    8  C2  UNL     1     -39.145  11.973   5.291  1.00 20.00    -0.093 C 
HETATM    9  C1  UNL     1     -38.005  12.136   5.981  1.00 20.00     0.014 C 
HETATM   10  C8  UNL     1     -39.133  11.666   3.821  1.00 20.00     0.042 C 
ENDBRANCH   7   8
ENDBRANCH   4   7
TORSDOF 2
ENDMDL
