MODEL 1
REMARK VINA RESULT:      -3.9      0.000      0.000
REMARK  3 active torsions:
REMARK  status: ('A' for Active; 'I' for Inactive)
REMARK    1  A    between atoms: C2_2  and  C9_9 
REMARK    2  A    between atoms: C6_6  and  C9_9 
REMARK    3  A    between atoms: C9_9  and  N10_10 
ROOT
HETATM    1  C9  UNL     1     -23.912  17.978  10.073  1.00 20.00     0.254 C 
ENDROOT
BRANCH   1   2
HETATM    2  C2  UNL     1     -23.612  17.428  11.457  1.00 20.00    -0.060 C 
HETATM    3  C1  UNL     1     -24.219  16.315  11.902  1.00 20.00     0.016 C 
HETATM    4  C7  UNL     1     -22.625  18.160  12.325  1.00 20.00     0.044 C 
ENDBRANCH   1   2
BRANCH   1   5
HETATM    5  C6  UNL     1     -22.656  18.136   9.239  1.00 20.00     0.049 C 
HETATM    6  C3  UNL     1     -22.871  18.852   7.922  1.00 20.00     0.035 C 
HETATM    7  C4  UNL     1     -21.644  18.431   7.141  1.00 20.00     0.168 C 
HETATM    8  O11 UNL     1     -21.295  17.113   7.593  1.00 20.00    -0.391 OA
HETATM    9  C5  UNL     1     -22.063  16.818   8.770  1.00 20.00     0.174 C 
ENDBRANCH   1   5
BRANCH   1  10
HETATM   10  N10 UNL     1     -24.629  19.257  10.127  1.00 20.00     0.088 N 
HETATM   11  C8  UNL     1     -25.841  19.130  10.917  1.00 20.00     0.307 C 
HETATM   12  H28 UNL     1     -24.865  19.538   9.179  1.00 20.00     0.316 HD
ENDBRANCH   1  10
TORSDOF 3
ENDMDL
MODEL 2
REMARK VINA RESULT:      -3.9     16.378     17.506
REMARK  3 active torsions:
REMARK  status: ('A' for Active; 'I' for Inactive)
REMARK    1  A    between atoms: C2_2  and  C9_9 
REMARK    2  A    between atoms: C6_6  and  C9_9 
REMARK    3  A    between atoms: C9_9  and  N10_10 
ROOT
HETATM    1  C9  UNL     1     -34.357  16.979  -4.336  1.00 20.00     0.254 C 
ENDROOT
BRANCH   1   2
HETATM    2  C2  UNL     1     -34.346  15.506  -4.703  1.00 20.00    -0.060 C 
HETATM    3  C1  UNL     1     -33.299  14.724  -4.389  1.00 20.00     0.016 C 
HETATM    4  C7  UNL     1     -35.531  14.938  -5.436  1.00 20.00     0.044 C 
ENDBRANCH   1   2
BRANCH   1   5
HETATM    5  C6  UNL     1     -33.234  17.337  -3.383  1.00 20.00     0.049 C 
HETATM    6  C3  UNL     1     -33.601  17.221  -1.919  1.00 20.00     0.035 C 
HETATM    7  C4  UNL     1     -32.533  18.073  -1.266  1.00 20.00     0.168 C 
HETATM    8  O11 UNL     1     -32.198  19.109  -2.202  1.00 20.00    -0.391 OA
HETATM    9  C5  UNL     1     -32.797  18.789  -3.468  1.00 20.00     0.174 C 
ENDBRANCH   1   5
BRANCH   1  10
HETATM   10  N10 UNL     1     -35.640  17.401  -3.763  1.00 20.00     0.088 N 
HETATM   11  C8  UNL     1     -36.256  18.425  -4.590  1.00 20.00     0.307 C 
HETATM   12  H28 UNL     1     -35.475  17.767  -2.830  1.00 20.00     0.316 HD
ENDBRANCH   1  10
TORSDOF 3
ENDMDL
MODEL 3
REMARK VINA RESULT:      -3.8     18.254     19.237
REMARK  3 active torsions:
REMARK  status: ('A' for Active; 'I' for Inactive)
REMARK    1  A    between atoms: C2_2  and  C9_9 
REMARK    2  A    between atoms: C6_6  and  C9_9 
REMARK    3  A    between atoms: C9_9  and  N10_10 
ROOT
HETATM    1  C9  UNL     1     -34.487  16.861  -4.708  1.00 20.00     0.254 C 
ENDROOT
BRANCH   1   2
HETATM    2  C2  UNL     1     -33.578  16.123  -3.741  1.00 20.00    -0.060 C 
HETATM    3  C1  UNL     1     -32.974  14.978  -4.100  1.00 20.00     0.016 C 
HETATM    4  C7  UNL     1     -33.372  16.697  -2.365  1.00 20.00     0.044 C 
ENDBRANCH   1   2
BRANCH   1   5
HETATM    5  C6  UNL     1     -35.137  15.924  -5.707  1.00 20.00     0.049 C 
HETATM    6  C3  UNL     1     -34.714  16.154  -7.142  1.00 20.00     0.035 C 
HETATM    7  C4  UNL     1     -35.830  15.471  -7.904  1.00 20.00     0.168 C 
HETATM    8  O11 UNL     1     -37.018  15.604  -7.109  1.00 20.00    -0.391 OA
HETATM    9  C5  UNL     1     -36.644  16.087  -5.809  1.00 20.00     0.174 C 
ENDBRANCH   1   5
BRANCH   1  10
HETATM   10  N10 UNL     1     -33.785  17.931  -5.425  1.00 20.00     0.088 N 
HETATM   11  C8  UNL     1     -34.289  19.232  -5.021  1.00 20.00     0.307 C 
HETATM   12  H28 UNL     1     -33.928  17.803  -6.423  1.00 20.00     0.316 HD
ENDBRANCH   1  10
TORSDOF 3
ENDMDL
MODEL 4
REMARK VINA RESULT:      -3.8     18.255     19.259
REMARK  3 active torsions:
REMARK  status: ('A' for Active; 'I' for Inactive)
REMARK    1  A    between atoms: C2_2  and  C9_9 
REMARK    2  A    between atoms: C6_6  and  C9_9 
REMARK    3  A    between atoms: C9_9  and  N10_10 
ROOT
HETATM    1  C9  UNL     1     -34.495  16.903  -4.676  1.00 20.00     0.254 C 
ENDROOT
BRANCH   1   2
HETATM    2  C2  UNL     1     -33.603  16.148  -3.707  1.00 20.00    -0.060 C 
HETATM    3  C1  UNL     1     -33.367  16.624  -2.473  1.00 20.00     0.016 C 
HETATM    4  C7  UNL     1     -32.981  14.854  -4.159  1.00 20.00     0.044 C 
ENDBRANCH   1   2
BRANCH   1   5
HETATM    5  C6  UNL     1     -35.208  15.973  -5.638  1.00 20.00     0.049 C 
HETATM    6  C3  UNL     1     -34.817  16.159  -7.088  1.00 20.00     0.035 C 
HETATM    7  C4  UNL     1     -35.979  15.505  -7.806  1.00 20.00     0.168 C 
HETATM    8  O11 UNL     1     -37.138  15.699  -6.982  1.00 20.00    -0.391 OA
HETATM    9  C5  UNL     1     -36.710  16.192  -5.703  1.00 20.00     0.174 C 
ENDBRANCH   1   5
BRANCH   1  10
HETATM   10  N10 UNL     1     -33.758  17.920  -5.434  1.00 20.00     0.088 N 
HETATM   11  C8  UNL     1     -34.178  19.254  -5.040  1.00 20.00     0.307 C 
HETATM   12  H28 UNL     1     -33.939  17.783  -6.425  1.00 20.00     0.316 HD
ENDBRANCH   1  10
TORSDOF 3
ENDMDL
MODEL 5
REMARK VINA RESULT:      -3.5     17.702     18.973
REMARK  3 active torsions:
REMARK  status: ('A' for Active; 'I' for Inactive)
REMARK    1  A    between atoms: C2_2  and  C9_9 
REMARK    2  A    between atoms: C6_6  and  C9_9 
REMARK    3  A    between atoms: C9_9  and  N10_10 
ROOT
HETATM    1  C9  UNL     1     -41.618  13.611   7.166  1.00 20.00     0.254 C 
ENDROOT
BRANCH   1   2
HETATM    2  C2  UNL     1     -42.692  12.969   8.027  1.00 20.00    -0.060 C 
HETATM    3  C1  UNL     1     -42.987  13.461   9.242  1.00 20.00     0.016 C 
HETATM    4  C7  UNL     1     -43.417  11.764   7.494  1.00 20.00     0.044 C 
ENDBRANCH   1   2
BRANCH   1   5
HETATM    5  C6  UNL     1     -41.098  12.663   6.104  1.00 20.00     0.049 C 
HETATM    6  C3  UNL     1     -39.674  12.199   6.328  1.00 20.00     0.035 C 
HETATM    7  C4  UNL     1     -39.287  11.717   4.946  1.00 20.00     0.168 C 
HETATM    8  O11 UNL     1     -40.008  12.529   4.006  1.00 20.00    -0.391 OA
HETATM    9  C5  UNL     1     -40.995  13.287   4.723  1.00 20.00     0.174 C 
ENDBRANCH   1   5
BRANCH   1  10
HETATM   10  N10 UNL     1     -40.496  14.118   7.963  1.00 20.00     0.088 N 
HETATM   11  C8  UNL     1     -40.419  15.566   7.872  1.00 20.00     0.307 C 
HETATM   12  H28 UNL     1     -39.635  13.706   7.613  1.00 20.00     0.316 HD
ENDBRANCH   1  10
TORSDOF 3
ENDMDL
MODEL 6
REMARK VINA RESULT:      -3.5     17.748     18.972
REMARK  3 active torsions:
REMARK  status: ('A' for Active; 'I' for Inactive)
REMARK    1  A    between atoms: C2_2  and  C9_9 
REMARK    2  A    between atoms: C6_6  and  C9_9 
REMARK    3  A    between atoms: C9_9  and  N10_10 
ROOT
HETATM    1  C9  UNL     1     -34.914  15.919  -5.394  1.00 20.00     0.254 C 
ENDROOT
BRANCH   1   2
HETATM    2  C2  UNL     1     -34.594  16.244  -6.843  1.00 20.00    -0.060 C 
HETATM    3  C1  UNL     1     -33.786  15.450  -7.566  1.00 20.00     0.016 C 
HETATM    4  C7  UNL     1     -35.196  17.480  -7.454  1.00 20.00     0.044 C 
ENDBRANCH   1   2
BRANCH   1   5
HETATM    5  C6  UNL     1     -34.087  16.746  -4.429  1.00 20.00     0.049 C 
HETATM    6  C3  UNL     1     -33.484  15.953  -3.290  1.00 20.00     0.035 C 
HETATM    7  C4  UNL     1     -33.173  17.044  -2.287  1.00 20.00     0.168 C 
HETATM    8  O11 UNL     1     -34.165  18.067  -2.466  1.00 20.00    -0.391 OA
HETATM    9  C5  UNL     1     -34.890  17.791  -3.674  1.00 20.00     0.174 C 
ENDBRANCH   1   5
BRANCH   1  10
HETATM   10  N10 UNL     1     -34.741  14.494  -5.092  1.00 20.00     0.088 N 
HETATM   11  C8  UNL     1     -36.031  13.850  -4.916  1.00 20.00     0.307 C 
HETATM   12  H28 UNL     1     -34.195  14.406  -4.240  1.00 20.00     0.316 HD
ENDBRANCH   1  10
TORSDOF 3
ENDMDL
MODEL 7
REMARK VINA RESULT:      -3.3     17.490     18.543
REMARK  3 active torsions:
REMARK  status: ('A' for Active; 'I' for Inactive)
REMARK    1  A    between atoms: C2_2  and  C9_9 
REMARK    2  A    between atoms: C6_6  and  C9_9 
REMARK    3  A    between atoms: C9_9  and  N10_10 
ROOT
HETATM    1  C9  UNL     1     -33.858  16.873  -4.210  1.00 20.00     0.254 C 
ENDROOT
BRANCH   1   2
HETATM    2  C2  UNL     1     -33.427  17.625  -2.963  1.00 20.00    -0.060 C 
HETATM    3  C1  UNL     1     -33.509  17.053  -1.750  1.00 20.00     0.016 C 
HETATM    4  C7  UNL     1     -32.910  19.030  -3.112  1.00 20.00     0.044 C 
ENDBRANCH   1   2
BRANCH   1   5
HETATM    5  C6  UNL     1     -34.762  17.709  -5.095  1.00 20.00     0.049 C 
HETATM    6  C3  UNL     1     -36.241  17.487  -4.859  1.00 20.00     0.035 C 
HETATM    7  C4  UNL     1     -36.840  18.026  -6.141  1.00 20.00     0.168 C 
HETATM    8  O11 UNL     1     -35.879  17.789  -7.181  1.00 20.00    -0.391 OA
HETATM    9  C5  UNL     1     -34.642  17.383  -6.574  1.00 20.00     0.174 C 
ENDBRANCH   1   5
BRANCH   1  10
HETATM   10  N10 UNL     1     -34.520  15.603  -3.893  1.00 20.00     0.088 N 
HETATM   11  C8  UNL     1     -33.746  14.483  -4.402  1.00 20.00     0.307 C 
HETATM   12  H28 UNL     1     -35.444  15.602  -4.317  1.00 20.00     0.316 HD
ENDBRANCH   1  10
TORSDOF 3
ENDMDL
MODEL 8
REMARK VINA RESULT:      -3.3     16.625     17.926
REMARK  3 active torsions:
REMARK  status: ('A' for Active; 'I' for Inactive)
REMARK    1  A    between atoms: C2_2  and  C9_9 
REMARK    2  A    between atoms: C6_6  and  C9_9 
REMARK    3  A    between atoms: C9_9  and  N10_10 
ROOT
HETATM    1  C9  UNL     1     -34.358  17.043  -4.208  1.00 20.00     0.254 C 
ENDROOT
BRANCH   1   2
HETATM    2  C2  UNL     1     -34.762  17.940  -5.364  1.00 20.00    -0.060 C 
HETATM    3  C1  UNL     1     -33.965  18.944  -5.769  1.00 20.00     0.016 C 
HETATM    4  C7  UNL     1     -36.079  17.688  -6.046  1.00 20.00     0.044 C 
ENDBRANCH   1   2
BRANCH   1   5
HETATM    5  C6  UNL     1     -33.965  17.839  -2.979  1.00 20.00     0.049 C 
HETATM    6  C3  UNL     1     -33.477  16.995  -1.821  1.00 20.00     0.035 C 
HETATM    7  C4  UNL     1     -33.640  17.948  -0.656  1.00 20.00     0.168 C 
HETATM    8  O11 UNL     1     -34.762  18.790  -0.962  1.00 20.00    -0.391 OA
HETATM    9  C5  UNL     1     -35.122  18.586  -2.337  1.00 20.00     0.174 C 
ENDBRANCH   1   5
BRANCH   1  10
HETATM   10  N10 UNL     1     -33.270  16.127  -4.567  1.00 20.00     0.088 N 
HETATM   11  C8  UNL     1     -33.798  14.818  -4.914  1.00 20.00     0.307 C 
HETATM   12  H28 UNL     1     -32.639  16.043  -3.775  1.00 20.00     0.316 HD
ENDBRANCH   1  10
TORSDOF 3
ENDMDL
MODEL 9
REMARK VINA RESULT:      -3.2     17.524     18.698
REMARK  3 active torsions:
REMARK  status: ('A' for Active; 'I' for Inactive)
REMARK    1  A    between atoms: C2_2  and  C9_9 
REMARK    2  A    between atoms: C6_6  and  C9_9 
REMARK    3  A    between atoms: C9_9  and  N10_10 
ROOT
HETATM    1  C9  UNL     1     -40.523  13.656   6.014  1.00 20.00     0.254 C 
ENDROOT
BRANCH   1   2
HETATM    2  C2  UNL     1     -39.588  12.488   5.755  1.00 20.00    -0.060 C 
HETATM    3  C1  UNL     1     -38.828  11.982   6.740  1.00 20.00     0.016 C 
HETATM    4  C7  UNL     1     -39.525  11.912   4.366  1.00 20.00     0.044 C 
ENDBRANCH   1   2
BRANCH   1   5
HETATM    5  C6  UNL     1     -40.597  14.011   7.487  1.00 20.00     0.049 C 
HETATM    6  C3  UNL     1     -41.959  13.793   8.111  1.00 20.00     0.035 C 
HETATM    7  C4  UNL     1     -41.869  14.655   9.352  1.00 20.00     0.168 C 
HETATM    8  O11 UNL     1     -41.008  15.759   9.031  1.00 20.00    -0.391 OA
HETATM    9  C5  UNL     1     -40.369  15.485   7.774  1.00 20.00     0.174 C 
ENDBRANCH   1   5
BRANCH   1  10
HETATM   10  N10 UNL     1     -41.876  13.412   5.500  1.00 20.00     0.088 N 
HETATM   11  C8  UNL     1     -42.234  14.413   4.510  1.00 20.00     0.307 C 
HETATM   12  H28 UNL     1     -42.531  13.448   6.277  1.00 20.00     0.316 HD
ENDBRANCH   1  10
TORSDOF 3
ENDMDL
