MODEL 1
REMARK VINA RESULT:      -4.9      0.000      0.000
REMARK  2 active torsions:
REMARK  status: ('A' for Active; 'I' for Inactive)
REMARK    1  A    between atoms: C2_2  and  C3_3 
REMARK    2  A    between atoms: C3_3  and  C5_5 
ROOT
HETATM    1  C3  UNL     1     -33.897   6.944   5.469  1.00 20.00     0.159 C 
HETATM    2  O9  UNL     1     -33.431   6.719   6.586  1.00 20.00    -0.292 OA
ENDROOT
BRANCH   1   3
HETATM    3  C2  UNL     1     -34.714   5.896   4.773  1.00 20.00    -0.025 C 
HETATM    4  C1  UNL     1     -35.869   6.200   4.165  1.00 20.00     0.022 C 
HETATM    5  C7  UNL     1     -34.171   4.498   4.793  1.00 20.00     0.051 C 
ENDBRANCH   1   3
BRANCH   1   6
HETATM    6  C5  UNL     1     -33.652   8.271   4.794  1.00 20.00     0.064 A 
HETATM    7  C4  UNL     1     -32.294   8.872   4.904  1.00 20.00     0.018 A 
HETATM    8  C6  UNL     1     -32.781   8.333   3.587  1.00 20.00    -0.006 A 
HETATM    9  C8  UNL     1     -32.126   7.138   2.984  1.00 20.00     0.011 C 
ENDBRANCH   1   6
TORSDOF 2
ENDMDL
MODEL 2
REMARK VINA RESULT:      -4.8      0.064      1.173
REMARK  2 active torsions:
REMARK  status: ('A' for Active; 'I' for Inactive)
REMARK    1  A    between atoms: C2_2  and  C3_3 
REMARK    2  A    between atoms: C3_3  and  C5_5 
ROOT
HETATM    1  C3  UNL     1     -33.886   6.901   5.494  1.00 20.00     0.159 C 
HETATM    2  O9  UNL     1     -33.427   6.699   6.619  1.00 20.00    -0.292 OA
ENDROOT
BRANCH   1   3
HETATM    3  C2  UNL     1     -34.648   5.817   4.789  1.00 20.00    -0.025 C 
HETATM    4  C1  UNL     1     -34.201   4.554   4.761  1.00 20.00     0.022 C 
HETATM    5  C7  UNL     1     -35.929   6.223   4.123  1.00 20.00     0.051 C 
ENDBRANCH   1   3
BRANCH   1   6
HETATM    6  C5  UNL     1     -33.687   8.235   4.819  1.00 20.00     0.064 A 
HETATM    7  C4  UNL     1     -32.352   8.883   4.931  1.00 20.00     0.018 A 
HETATM    8  C6  UNL     1     -32.815   8.327   3.614  1.00 20.00    -0.006 A 
HETATM    9  C8  UNL     1     -32.117   7.155   3.013  1.00 20.00     0.011 C 
ENDBRANCH   1   6
TORSDOF 2
ENDMDL
MODEL 3
REMARK VINA RESULT:      -4.4      0.978      3.471
REMARK  2 active torsions:
REMARK  status: ('A' for Active; 'I' for Inactive)
REMARK    1  A    between atoms: C2_2  and  C3_3 
REMARK    2  A    between atoms: C3_3  and  C5_5 
ROOT
HETATM    1  C3  UNL     1     -33.513   7.365   5.522  1.00 20.00     0.159 C 
HETATM    2  O9  UNL     1     -34.135   8.042   6.341  1.00 20.00    -0.292 OA
ENDROOT
BRANCH   1   3
HETATM    3  C2  UNL     1     -32.624   8.036   4.517  1.00 20.00    -0.025 C 
HETATM    4  C1  UNL     1     -32.104   9.250   4.744  1.00 20.00     0.022 C 
HETATM    5  C7  UNL     1     -32.350   7.278   3.252  1.00 20.00     0.051 C 
ENDBRANCH   1   3
BRANCH   1   6
HETATM    6  C5  UNL     1     -33.638   5.862   5.524  1.00 20.00     0.064 A 
HETATM    7  C4  UNL     1     -34.711   5.250   6.354  1.00 20.00     0.018 A 
HETATM    8  C6  UNL     1     -34.802   5.219   4.854  1.00 20.00    -0.006 A 
HETATM    9  C8  UNL     1     -35.875   5.984   4.157  1.00 20.00     0.011 C 
ENDBRANCH   1   6
TORSDOF 2
ENDMDL
MODEL 4
REMARK VINA RESULT:      -4.3      1.162      3.440
REMARK  2 active torsions:
REMARK  status: ('A' for Active; 'I' for Inactive)
REMARK    1  A    between atoms: C2_2  and  C3_3 
REMARK    2  A    between atoms: C3_3  and  C5_5 
ROOT
HETATM    1  C3  UNL     1     -33.320   7.666   4.880  1.00 20.00     0.159 C 
HETATM    2  O9  UNL     1     -33.671   8.730   5.391  1.00 20.00    -0.292 OA
ENDROOT
BRANCH   1   3
HETATM    3  C2  UNL     1     -32.712   7.658   3.508  1.00 20.00    -0.025 C 
HETATM    4  C1  UNL     1     -32.345   6.515   2.914  1.00 20.00     0.022 C 
HETATM    5  C7  UNL     1     -32.538   8.991   2.844  1.00 20.00     0.051 C 
ENDBRANCH   1   3
BRANCH   1   6
HETATM    6  C5  UNL     1     -33.498   6.367   5.626  1.00 20.00     0.064 A 
HETATM    7  C4  UNL     1     -34.599   6.278   6.623  1.00 20.00     0.018 A 
HETATM    8  C6  UNL     1     -34.679   5.507   5.335  1.00 20.00    -0.006 A 
HETATM    9  C8  UNL     1     -35.718   5.852   4.324  1.00 20.00     0.011 C 
ENDBRANCH   1   6
TORSDOF 2
ENDMDL
MODEL 5
REMARK VINA RESULT:      -4.3      1.643      3.752
REMARK  2 active torsions:
REMARK  status: ('A' for Active; 'I' for Inactive)
REMARK    1  A    between atoms: C2_2  and  C3_3 
REMARK    2  A    between atoms: C3_3  and  C5_5 
ROOT
HETATM    1  C3  UNL     1     -33.423   6.456   3.753  1.00 20.00     0.159 C 
HETATM    2  O9  UNL     1     -33.077   5.400   3.223  1.00 20.00    -0.292 OA
ENDROOT
BRANCH   1   3
HETATM    3  C2  UNL     1     -32.573   7.684   3.603  1.00 20.00    -0.025 C 
HETATM    4  C1  UNL     1     -32.293   8.471   4.651  1.00 20.00     0.022 C 
HETATM    5  C7  UNL     1     -32.056   7.978   2.227  1.00 20.00     0.051 C 
ENDBRANCH   1   3
BRANCH   1   6
HETATM    6  C5  UNL     1     -34.701   6.526   4.551  1.00 20.00     0.064 A 
HETATM    7  C4  UNL     1     -35.390   5.248   4.882  1.00 20.00     0.018 A 
HETATM    8  C6  UNL     1     -34.714   6.046   5.961  1.00 20.00    -0.006 A 
HETATM    9  C8  UNL     1     -33.515   5.497   6.654  1.00 20.00     0.011 C 
ENDBRANCH   1   6
TORSDOF 2
ENDMDL
MODEL 6
REMARK VINA RESULT:      -4.2      1.015      3.632
REMARK  2 active torsions:
REMARK  status: ('A' for Active; 'I' for Inactive)
REMARK    1  A    between atoms: C2_2  and  C3_3 
REMARK    2  A    between atoms: C3_3  and  C5_5 
ROOT
HETATM    1  C3  UNL     1     -33.807   7.468   4.893  1.00 20.00     0.159 C 
HETATM    2  O9  UNL     1     -34.107   7.922   5.997  1.00 20.00    -0.292 OA
ENDROOT
BRANCH   1   3
HETATM    3  C2  UNL     1     -32.643   8.040   4.138  1.00 20.00    -0.025 C 
HETATM    4  C1  UNL     1     -32.243   7.518   2.970  1.00 20.00     0.022 C 
HETATM    5  C7  UNL     1     -31.956   9.221   4.757  1.00 20.00     0.051 C 
ENDBRANCH   1   3
BRANCH   1   6
HETATM    6  C5  UNL     1     -34.603   6.336   4.292  1.00 20.00     0.064 A 
HETATM    7  C4  UNL     1     -33.903   5.049   4.034  1.00 20.00     0.018 A 
HETATM    8  C6  UNL     1     -34.932   5.146   5.125  1.00 20.00    -0.006 A 
HETATM    9  C8  UNL     1     -34.523   5.001   6.551  1.00 20.00     0.011 C 
ENDBRANCH   1   6
TORSDOF 2
ENDMDL
MODEL 7
REMARK VINA RESULT:      -3.9      1.664      2.816
REMARK  2 active torsions:
REMARK  status: ('A' for Active; 'I' for Inactive)
REMARK    1  A    between atoms: C2_2  and  C3_3 
REMARK    2  A    between atoms: C3_3  and  C5_5 
ROOT
HETATM    1  C3  UNL     1     -34.957   5.773   4.660  1.00 20.00     0.159 C 
HETATM    2  O9  UNL     1     -36.011   6.027   4.075  1.00 20.00    -0.292 OA
ENDROOT
BRANCH   1   3
HETATM    3  C2  UNL     1     -33.894   4.966   3.975  1.00 20.00    -0.025 C 
HETATM    4  C1  UNL     1     -33.620   3.710   4.350  1.00 20.00     0.022 C 
HETATM    5  C7  UNL     1     -33.160   5.639   2.853  1.00 20.00     0.051 C 
ENDBRANCH   1   3
BRANCH   1   6
HETATM    6  C5  UNL     1     -34.728   6.271   6.066  1.00 20.00     0.064 A 
HETATM    7  C4  UNL     1     -33.341   6.226   6.606  1.00 20.00     0.018 A 
HETATM    8  C6  UNL     1     -33.987   7.545   6.283  1.00 20.00    -0.006 A 
HETATM    9  C8  UNL     1     -33.452   8.384   5.174  1.00 20.00     0.011 C 
ENDBRANCH   1   6
TORSDOF 2
ENDMDL
MODEL 8
REMARK VINA RESULT:      -3.8      1.337      1.828
REMARK  2 active torsions:
REMARK  status: ('A' for Active; 'I' for Inactive)
REMARK    1  A    between atoms: C2_2  and  C3_3 
REMARK    2  A    between atoms: C3_3  and  C5_5 
ROOT
HETATM    1  C3  UNL     1     -33.572   7.431   4.890  1.00 20.00     0.159 C 
HETATM    2  O9  UNL     1     -33.785   8.561   5.330  1.00 20.00    -0.292 OA
ENDROOT
BRANCH   1   3
HETATM    3  C2  UNL     1     -34.538   6.320   5.178  1.00 20.00    -0.025 C 
HETATM    4  C1  UNL     1     -35.525   6.014   4.325  1.00 20.00     0.022 C 
HETATM    5  C7  UNL     1     -34.340   5.575   6.464  1.00 20.00     0.051 C 
ENDBRANCH   1   3
BRANCH   1   6
HETATM    6  C5  UNL     1     -32.343   7.157   4.059  1.00 20.00     0.064 A 
HETATM    7  C4  UNL     1     -32.530   6.538   2.718  1.00 20.00     0.018 A 
HETATM    8  C6  UNL     1     -32.085   7.969   2.837  1.00 20.00    -0.006 A 
HETATM    9  C8  UNL     1     -32.980   9.067   2.376  1.00 20.00     0.011 C 
ENDBRANCH   1   6
TORSDOF 2
ENDMDL
MODEL 9
REMARK VINA RESULT:      -3.8      1.810      2.948
REMARK  2 active torsions:
REMARK  status: ('A' for Active; 'I' for Inactive)
REMARK    1  A    between atoms: C2_2  and  C3_3 
REMARK    2  A    between atoms: C3_3  and  C5_5 
ROOT
HETATM    1  C3  UNL     1     -34.580   5.790   4.414  1.00 20.00     0.159 C 
HETATM    2  O9  UNL     1     -35.646   6.089   3.875  1.00 20.00    -0.292 OA
ENDROOT
BRANCH   1   3
HETATM    3  C2  UNL     1     -34.360   6.103   5.865  1.00 20.00    -0.025 C 
HETATM    4  C1  UNL     1     -34.475   5.159   6.809  1.00 20.00     0.022 C 
HETATM    5  C7  UNL     1     -34.007   7.522   6.199  1.00 20.00     0.051 C 
ENDBRANCH   1   3
BRANCH   1   6
HETATM    6  C5  UNL     1     -33.492   5.107   3.624  1.00 20.00     0.064 A 
HETATM    7  C4  UNL     1     -33.510   5.246   2.143  1.00 20.00     0.018 A 
HETATM    8  C6  UNL     1     -32.444   5.926   2.955  1.00 20.00    -0.006 A 
HETATM    9  C8  UNL     1     -32.395   7.414   3.024  1.00 20.00     0.011 C 
ENDBRANCH   1   6
TORSDOF 2
ENDMDL
