MODEL 1
REMARK VINA RESULT:      -4.0      0.000      0.000
REMARK  2 active torsions:
REMARK  status: ('A' for Active; 'I' for Inactive)
REMARK    1  A    between atoms: C7_7  and  C8_8 
REMARK    2  A    between atoms: C7_7  and  N9_9 
ROOT
HETATM    1  C1  UNL     1     -32.991   6.282   3.427  1.00 20.00     0.277 C 
HETATM    2  C2  UNL     1     -33.991   8.007   4.682  1.00 20.00     0.277 C 
HETATM    3  C3  UNL     1     -34.241   5.717   4.123  1.00 20.00     0.015 C 
HETATM    4  C4  UNL     1     -34.535   6.703   5.266  1.00 20.00     0.015 C 
HETATM    5  C5  UNL     1     -34.105   4.252   4.510  1.00 20.00     0.012 C 
HETATM    6  C6  UNL     1     -33.869   6.354   6.599  1.00 20.00     0.012 C 
HETATM    7  N9  UNL     1     -32.736   7.577   4.066  1.00 20.00     0.090 N 
ENDROOT
BRANCH   7   8
HETATM    8  C7  UNL     1     -32.187   8.565   3.151  1.00 20.00     0.287 C 
BRANCH   8   9
HETATM    9  C8  UNL     1     -32.200   8.094   1.707  1.00 20.00     0.144 C 
HETATM   10 CL10 UNL     1     -32.693   9.402   0.603  1.00 20.00    -0.129 Cl
ENDBRANCH   8   9
ENDBRANCH   7   8
TORSDOF 2
ENDMDL
MODEL 2
REMARK VINA RESULT:      -3.5     11.560     12.745
REMARK  2 active torsions:
REMARK  status: ('A' for Active; 'I' for Inactive)
REMARK    1  A    between atoms: C7_7  and  C8_8 
REMARK    2  A    between atoms: C7_7  and  N9_9 
ROOT
HETATM    1  C1  UNL     1     -33.500  16.615  -2.179  1.00 20.00     0.277 C 
HETATM    2  C2  UNL     1     -33.774  18.605  -3.410  1.00 20.00     0.277 C 
HETATM    3  C3  UNL     1     -33.309  16.296  -3.672  1.00 20.00     0.015 C 
HETATM    4  C4  UNL     1     -33.972  17.469  -4.413  1.00 20.00     0.015 C 
HETATM    5  C5  UNL     1     -33.780  14.901  -4.054  1.00 20.00     0.012 C 
HETATM    6  C6  UNL     1     -35.449  17.259  -4.753  1.00 20.00     0.012 C 
HETATM    7  N9  UNL     1     -34.087  17.958  -2.136  1.00 20.00     0.090 N 
ENDROOT
BRANCH   7   8
HETATM    8  C7  UNL     1     -33.650  18.733  -0.985  1.00 20.00     0.287 C 
BRANCH   8   9
HETATM    9  C8  UNL     1     -32.234  19.263  -1.142  1.00 20.00     0.144 C 
HETATM   10 CL10 UNL     1     -31.098  18.395  -0.079  1.00 20.00    -0.129 Cl
ENDBRANCH   8   9
ENDBRANCH   7   8
TORSDOF 2
ENDMDL
MODEL 3
REMARK VINA RESULT:      -3.4      0.779      1.941
REMARK  2 active torsions:
REMARK  status: ('A' for Active; 'I' for Inactive)
REMARK    1  A    between atoms: C7_7  and  C8_8 
REMARK    2  A    between atoms: C7_7  and  N9_9 
ROOT
HETATM    1  C1  UNL     1     -33.120   7.927   5.206  1.00 20.00     0.277 C 
HETATM    2  C2  UNL     1     -33.189   6.306   3.497  1.00 20.00     0.277 C 
HETATM    3  C3  UNL     1     -33.568   6.590   5.820  1.00 20.00     0.015 C 
HETATM    4  C4  UNL     1     -34.058   5.754   4.627  1.00 20.00     0.015 C 
HETATM    5  C5  UNL     1     -34.542   6.755   6.977  1.00 20.00     0.012 C 
HETATM    6  C6  UNL     1     -35.551   5.892   4.317  1.00 20.00     0.012 C 
HETATM    7  N9  UNL     1     -33.218   7.746   3.754  1.00 20.00     0.090 N 
ENDROOT
BRANCH   7   8
HETATM    8  C7  UNL     1     -32.195   8.472   3.019  1.00 20.00     0.287 C 
BRANCH   8   9
HETATM    9  C8  UNL     1     -32.159   8.100   1.546  1.00 20.00     0.144 C 
HETATM   10 CL10 UNL     1     -32.702   9.454   0.523  1.00 20.00    -0.129 Cl
ENDBRANCH   8   9
ENDBRANCH   7   8
TORSDOF 2
ENDMDL
MODEL 4
REMARK VINA RESULT:      -3.4     11.834     12.765
REMARK  2 active torsions:
REMARK  status: ('A' for Active; 'I' for Inactive)
REMARK    1  A    between atoms: C7_7  and  C8_8 
REMARK    2  A    between atoms: C7_7  and  N9_9 
ROOT
HETATM    1  C1  UNL     1     -33.269  15.921  -3.569  1.00 20.00     0.277 C 
HETATM    2  C2  UNL     1     -34.990  17.083  -4.682  1.00 20.00     0.277 C 
HETATM    3  C3  UNL     1     -33.835  16.986  -2.614  1.00 20.00     0.015 C 
HETATM    4  C4  UNL     1     -34.559  17.988  -3.528  1.00 20.00     0.015 C 
HETATM    5  C5  UNL     1     -32.793  17.562  -1.668  1.00 20.00     0.012 C 
HETATM    6  C6  UNL     1     -33.695  19.155  -4.010  1.00 20.00     0.012 C 
HETATM    7  N9  UNL     1     -33.802  16.257  -4.894  1.00 20.00     0.090 N 
ENDROOT
BRANCH   7   8
HETATM    8  C7  UNL     1     -34.066  15.086  -5.715  1.00 20.00     0.287 C 
BRANCH   8   9
HETATM    9  C8  UNL     1     -35.541  14.723  -5.755  1.00 20.00     0.144 C 
HETATM   10 CL10 UNL     1     -35.947  13.526  -4.500  1.00 20.00    -0.129 Cl
ENDBRANCH   8   9
ENDBRANCH   7   8
TORSDOF 2
ENDMDL
MODEL 5
REMARK VINA RESULT:      -3.4     11.793     12.813
REMARK  2 active torsions:
REMARK  status: ('A' for Active; 'I' for Inactive)
REMARK    1  A    between atoms: C7_7  and  C8_8 
REMARK    2  A    between atoms: C7_7  and  N9_9 
ROOT
HETATM    1  C1  UNL     1     -33.801  18.196  -4.201  1.00 20.00     0.277 C 
HETATM    2  C2  UNL     1     -33.422  16.714  -2.410  1.00 20.00     0.277 C 
HETATM    3  C3  UNL     1     -34.566  16.891  -4.479  1.00 20.00     0.015 C 
HETATM    4  C4  UNL     1     -33.897  15.843  -3.573  1.00 20.00     0.015 C 
HETATM    5  C5  UNL     1     -34.657  16.549  -5.958  1.00 20.00     0.012 C 
HETATM    6  C6  UNL     1     -32.741  15.080  -4.223  1.00 20.00     0.012 C 
HETATM    7  N9  UNL     1     -32.888  17.890  -3.095  1.00 20.00     0.090 N 
ENDROOT
BRANCH   7   8
HETATM    8  C7  UNL     1     -32.678  19.018  -2.201  1.00 20.00     0.287 C 
BRANCH   8   9
HETATM    9  C8  UNL     1     -32.678  18.611  -0.737  1.00 20.00     0.144 C 
HETATM   10 CL10 UNL     1     -31.018  18.453  -0.110  1.00 20.00    -0.129 Cl
ENDBRANCH   8   9
ENDBRANCH   7   8
TORSDOF 2
ENDMDL
MODEL 6
REMARK VINA RESULT:      -3.3     11.828     12.484
REMARK  2 active torsions:
REMARK  status: ('A' for Active; 'I' for Inactive)
REMARK    1  A    between atoms: C7_7  and  C8_8 
REMARK    2  A    between atoms: C7_7  and  N9_9 
ROOT
HETATM    1  C1  UNL     1     -31.887  18.884  -1.187  1.00 20.00     0.277 C 
HETATM    2  C2  UNL     1     -33.944  17.741  -1.067  1.00 20.00     0.277 C 
HETATM    3  C3  UNL     1     -32.070  18.359   0.247  1.00 20.00     0.015 C 
HETATM    4  C4  UNL     1     -33.577  18.085   0.377  1.00 20.00     0.015 C 
HETATM    5  C5  UNL     1     -31.452  19.263   1.302  1.00 20.00     0.012 C 
HETATM    6  C6  UNL     1     -34.398  19.263   0.908  1.00 20.00     0.012 C 
HETATM    7  N9  UNL     1     -33.199  18.743  -1.828  1.00 20.00     0.090 N 
ENDROOT
BRANCH   7   8
HETATM    8  C7  UNL     1     -33.110  18.425  -3.245  1.00 20.00     0.287 C 
BRANCH   8   9
HETATM    9  C8  UNL     1     -33.992  17.252  -3.637  1.00 20.00     0.144 C 
HETATM   10 CL10 UNL     1     -33.051  15.744  -3.753  1.00 20.00    -0.129 Cl
ENDBRANCH   8   9
ENDBRANCH   7   8
TORSDOF 2
ENDMDL
MODEL 7
REMARK VINA RESULT:      -3.3     11.796     13.228
REMARK  2 active torsions:
REMARK  status: ('A' for Active; 'I' for Inactive)
REMARK    1  A    between atoms: C7_7  and  C8_8 
REMARK    2  A    between atoms: C7_7  and  N9_9 
ROOT
HETATM    1  C1  UNL     1     -34.987  17.011  -4.693  1.00 20.00     0.277 C 
HETATM    2  C2  UNL     1     -34.127  14.837  -4.989  1.00 20.00     0.277 C 
HETATM    3  C3  UNL     1     -35.819  16.301  -5.775  1.00 20.00     0.015 C 
HETATM    4  C4  UNL     1     -34.931  15.140  -6.254  1.00 20.00     0.015 C 
HETATM    5  C5  UNL     1     -36.339  17.244  -6.849  1.00 20.00     0.012 C 
HETATM    6  C6  UNL     1     -34.024  15.474  -7.440  1.00 20.00     0.012 C 
HETATM    7  N9  UNL     1     -33.797  16.175  -4.499  1.00 20.00     0.090 N 
ENDROOT
BRANCH   7   8
HETATM    8  C7  UNL     1     -33.321  16.172  -3.125  1.00 20.00     0.287 C 
BRANCH   8   9
HETATM    9  C8  UNL     1     -33.288  17.564  -2.516  1.00 20.00     0.144 C 
HETATM   10 CL10 UNL     1     -33.772  17.532  -0.801  1.00 20.00    -0.129 Cl
ENDBRANCH   8   9
ENDBRANCH   7   8
TORSDOF 2
ENDMDL
MODEL 8
REMARK VINA RESULT:      -3.2      9.874     11.089
REMARK  2 active torsions:
REMARK  status: ('A' for Active; 'I' for Inactive)
REMARK    1  A    between atoms: C7_7  and  C8_8 
REMARK    2  A    between atoms: C7_7  and  N9_9 
ROOT
HETATM    1  C1  UNL     1     -40.336  13.741   7.772  1.00 20.00     0.277 C 
HETATM    2  C2  UNL     1     -41.840  15.003   6.469  1.00 20.00     0.277 C 
HETATM    3  C3  UNL     1     -41.043  14.755   8.688  1.00 20.00     0.015 C 
HETATM    4  C4  UNL     1     -41.599  15.826   7.735  1.00 20.00     0.015 C 
HETATM    5  C5  UNL     1     -40.166  15.251   9.827  1.00 20.00     0.012 C 
HETATM    6  C6  UNL     1     -40.657  17.004   7.477  1.00 20.00     0.012 C 
HETATM    7  N9  UNL     1     -40.641  14.169   6.403  1.00 20.00     0.090 N 
ENDROOT
BRANCH   7   8
HETATM    8  C7  UNL     1     -40.776  13.057   5.476  1.00 20.00     0.287 C 
BRANCH   8   9
HETATM    9  C8  UNL     1     -39.669  12.027   5.634  1.00 20.00     0.144 C 
HETATM   10 CL10 UNL     1     -38.914  11.642   4.067  1.00 20.00    -0.129 Cl
ENDBRANCH   8   9
ENDBRANCH   7   8
TORSDOF 2
ENDMDL
MODEL 9
REMARK VINA RESULT:      -3.1     15.350     16.375
REMARK  2 active torsions:
REMARK  status: ('A' for Active; 'I' for Inactive)
REMARK    1  A    between atoms: C7_7  and  C8_8 
REMARK    2  A    between atoms: C7_7  and  N9_9 
ROOT
HETATM    1  C1  UNL     1     -22.416  17.026   9.528  1.00 20.00     0.277 C 
HETATM    2  C2  UNL     1     -23.517  18.993  10.211  1.00 20.00     0.277 C 
HETATM    3  C3  UNL     1     -21.953  18.182   8.625  1.00 20.00     0.015 C 
HETATM    4  C4  UNL     1     -23.034  19.263   8.786  1.00 20.00     0.015 C 
HETATM    5  C5  UNL     1     -21.638  17.745   7.202  1.00 20.00     0.012 C 
HETATM    6  C6  UNL     1     -24.178  19.181   7.772  1.00 20.00     0.012 C 
HETATM    7  N9  UNL     1     -23.589  17.533  10.248  1.00 20.00     0.090 N 
ENDROOT
BRANCH   7   8
HETATM    8  C7  UNL     1     -23.700  17.006  11.598  1.00 20.00     0.287 C 
BRANCH   8   9
HETATM    9  C8  UNL     1     -25.140  16.745  12.007  1.00 20.00     0.144 C 
HETATM   10 CL10 UNL     1     -26.058  18.266  12.148  1.00 20.00    -0.129 Cl
ENDBRANCH   8   9
ENDBRANCH   7   8
TORSDOF 2
ENDMDL
