MODEL 1
REMARK VINA RESULT:      -4.3      0.000      0.000
REMARK  3 active torsions:
REMARK  status: ('A' for Active; 'I' for Inactive)
REMARK    1  A    between atoms: C2_2  and  C9_9 
REMARK    2  A    between atoms: C3_3  and  C5_5 
REMARK    3  A    between atoms: C3_3  and  C9_9 
ROOT
HETATM    1  C3  UNL     1     -33.786   7.537   5.980  1.00 20.00     0.135 C 
HETATM    2  O10 UNL     1     -34.296   8.539   6.479  1.00 20.00    -0.297 OA
ENDROOT
BRANCH   1   3
HETATM    3  C5  UNL     1     -32.624   7.656   5.028  1.00 20.00     0.060 A 
HETATM    4  C4  UNL     1     -32.154   9.020   4.666  1.00 20.00     0.017 A 
HETATM    5  C6  UNL     1     -32.900   8.188   3.656  1.00 20.00    -0.007 A 
HETATM    6  C8  UNL     1     -32.180   7.599   2.492  1.00 20.00     0.011 C 
ENDBRANCH   1   3
BRANCH   1   7
HETATM    7  C9  UNL     1     -34.296   6.127   6.237  1.00 20.00     0.111 C 
BRANCH   7   8
HETATM    8  C2  UNL     1     -34.755   5.456   4.970  1.00 20.00    -0.086 C 
HETATM    9  C1  UNL     1     -35.804   5.918   4.272  1.00 20.00     0.014 C 
HETATM   10  C7  UNL     1     -33.965   4.265   4.509  1.00 20.00     0.043 C 
ENDBRANCH   7   8
ENDBRANCH   1   7
TORSDOF 3
ENDMDL
MODEL 2
REMARK VINA RESULT:      -4.3      1.261      3.359
REMARK  3 active torsions:
REMARK  status: ('A' for Active; 'I' for Inactive)
REMARK    1  A    between atoms: C2_2  and  C9_9 
REMARK    2  A    between atoms: C3_3  and  C5_5 
REMARK    3  A    between atoms: C3_3  and  C9_9 
ROOT
HETATM    1  C3  UNL     1     -32.652   8.292   4.744  1.00 20.00     0.135 C 
HETATM    2  O10 UNL     1     -32.418   9.434   5.137  1.00 20.00    -0.297 OA
ENDROOT
BRANCH   1   3
HETATM    3  C5  UNL     1     -33.921   7.584   5.145  1.00 20.00     0.060 A 
HETATM    4  C4  UNL     1     -34.200   7.419   6.597  1.00 20.00     0.017 A 
HETATM    5  C6  UNL     1     -33.795   6.228   5.768  1.00 20.00    -0.007 A 
HETATM    6  C8  UNL     1     -34.795   5.178   5.425  1.00 20.00     0.011 C 
ENDBRANCH   1   3
BRANCH   1   7
HETATM    7  C9  UNL     1     -31.689   7.494   3.878  1.00 20.00     0.111 C 
BRANCH   7   8
HETATM    8  C2  UNL     1     -32.293   7.136   2.548  1.00 20.00    -0.086 C 
HETATM    9  C1  UNL     1     -32.364   8.026   1.546  1.00 20.00     0.014 C 
HETATM   10  C7  UNL     1     -32.786   5.726   2.384  1.00 20.00     0.043 C 
ENDBRANCH   7   8
ENDBRANCH   1   7
TORSDOF 3
ENDMDL
MODEL 3
REMARK VINA RESULT:      -4.3      1.477      2.362
REMARK  3 active torsions:
REMARK  status: ('A' for Active; 'I' for Inactive)
REMARK    1  A    between atoms: C2_2  and  C9_9 
REMARK    2  A    between atoms: C3_3  and  C5_5 
REMARK    3  A    between atoms: C3_3  and  C9_9 
ROOT
HETATM    1  C3  UNL     1     -32.760   8.244   4.455  1.00 20.00     0.135 C 
HETATM    2  O10 UNL     1     -32.137   9.214   4.886  1.00 20.00    -0.297 OA
ENDROOT
BRANCH   1   3
HETATM    3  C5  UNL     1     -32.110   7.271   3.505  1.00 20.00     0.060 A 
HETATM    4  C4  UNL     1     -32.138   7.590   2.052  1.00 20.00     0.017 A 
HETATM    5  C6  UNL     1     -33.003   6.484   2.597  1.00 20.00    -0.007 A 
HETATM    6  C8  UNL     1     -32.670   5.061   2.309  1.00 20.00     0.011 C 
ENDBRANCH   1   3
BRANCH   1   7
HETATM    7  C9  UNL     1     -34.217   7.969   4.798  1.00 20.00     0.111 C 
BRANCH   7   8
HETATM    8  C2  UNL     1     -34.380   6.689   5.571  1.00 20.00    -0.086 C 
HETATM    9  C1  UNL     1     -33.782   6.504   6.758  1.00 20.00     0.014 C 
HETATM   10  C7  UNL     1     -35.270   5.641   4.967  1.00 20.00     0.043 C 
ENDBRANCH   7   8
ENDBRANCH   1   7
TORSDOF 3
ENDMDL
MODEL 4
REMARK VINA RESULT:      -4.2      2.077      2.843
REMARK  3 active torsions:
REMARK  status: ('A' for Active; 'I' for Inactive)
REMARK    1  A    between atoms: C2_2  and  C9_9 
REMARK    2  A    between atoms: C3_3  and  C5_5 
REMARK    3  A    between atoms: C3_3  and  C9_9 
ROOT
HETATM    1  C3  UNL     1     -33.161   5.373   3.091  1.00 20.00     0.135 C 
HETATM    2  O10 UNL     1     -32.631   4.787   2.148  1.00 20.00    -0.297 OA
ENDROOT
BRANCH   1   3
HETATM    3  C5  UNL     1     -33.177   6.879   3.154  1.00 20.00     0.060 A 
HETATM    4  C4  UNL     1     -32.159   7.621   2.364  1.00 20.00     0.017 A 
HETATM    5  C6  UNL     1     -32.049   7.559   3.865  1.00 20.00    -0.007 A 
HETATM    6  C8  UNL     1     -32.336   8.767   4.688  1.00 20.00     0.011 C 
ENDBRANCH   1   3
BRANCH   1   7
HETATM    7  C9  UNL     1     -33.793   4.650   4.272  1.00 20.00     0.111 C 
BRANCH   7   8
HETATM    8  C2  UNL     1     -34.789   5.517   4.994  1.00 20.00    -0.086 C 
HETATM    9  C1  UNL     1     -35.901   5.962   4.388  1.00 20.00     0.014 C 
HETATM   10  C7  UNL     1     -34.496   5.832   6.432  1.00 20.00     0.043 C 
ENDBRANCH   7   8
ENDBRANCH   1   7
TORSDOF 3
ENDMDL
MODEL 5
REMARK VINA RESULT:      -4.1      2.024      2.678
REMARK  3 active torsions:
REMARK  status: ('A' for Active; 'I' for Inactive)
REMARK    1  A    between atoms: C2_2  and  C9_9 
REMARK    2  A    between atoms: C3_3  and  C5_5 
REMARK    3  A    between atoms: C3_3  and  C9_9 
ROOT
HETATM    1  C3  UNL     1     -33.353   5.988   3.392  1.00 20.00     0.135 C 
HETATM    2  O10 UNL     1     -33.079   4.809   3.173  1.00 20.00    -0.297 OA
ENDROOT
BRANCH   1   3
HETATM    3  C5  UNL     1     -32.453   7.093   2.900  1.00 20.00     0.060 A 
HETATM    4  C4  UNL     1     -31.911   8.049   3.902  1.00 20.00     0.017 A 
HETATM    5  C6  UNL     1     -32.982   8.492   2.941  1.00 20.00    -0.007 A 
HETATM    6  C8  UNL     1     -32.652   9.425   1.827  1.00 20.00     0.011 C 
ENDBRANCH   1   3
BRANCH   1   7
HETATM    7  C9  UNL     1     -34.569   6.426   4.194  1.00 20.00     0.111 C 
BRANCH   7   8
HETATM    8  C2  UNL     1     -34.401   6.152   5.664  1.00 20.00    -0.086 C 
HETATM    9  C1  UNL     1     -34.545   4.917   6.169  1.00 20.00     0.014 C 
HETATM   10  C7  UNL     1     -34.032   7.320   6.534  1.00 20.00     0.043 C 
ENDBRANCH   7   8
ENDBRANCH   1   7
TORSDOF 3
ENDMDL
MODEL 6
REMARK VINA RESULT:      -4.0      1.379      2.170
REMARK  3 active torsions:
REMARK  status: ('A' for Active; 'I' for Inactive)
REMARK    1  A    between atoms: C2_2  and  C9_9 
REMARK    2  A    between atoms: C3_3  and  C5_5 
REMARK    3  A    between atoms: C3_3  and  C9_9 
ROOT
HETATM    1  C3  UNL     1     -34.538   6.139   5.798  1.00 20.00     0.135 C 
HETATM    2  O10 UNL     1     -35.075   5.689   6.810  1.00 20.00    -0.297 OA
ENDROOT
BRANCH   1   3
HETATM    3  C5  UNL     1     -33.517   7.243   5.892  1.00 20.00     0.060 A 
HETATM    4  C4  UNL     1     -34.011   8.643   5.990  1.00 20.00     0.017 A 
HETATM    5  C6  UNL     1     -33.371   8.158   4.716  1.00 20.00    -0.007 A 
HETATM    6  C8  UNL     1     -32.011   8.632   4.332  1.00 20.00     0.011 C 
ENDBRANCH   1   3
BRANCH   1   7
HETATM    7  C9  UNL     1     -34.878   5.663   4.393  1.00 20.00     0.111 C 
BRANCH   7   8
HETATM    8  C2  UNL     1     -33.802   4.781   3.822  1.00 20.00    -0.086 C 
HETATM    9  C1  UNL     1     -33.503   3.593   4.370  1.00 20.00     0.014 C 
HETATM   10  C7  UNL     1     -33.099   5.279   2.591  1.00 20.00     0.043 C 
ENDBRANCH   7   8
ENDBRANCH   1   7
TORSDOF 3
ENDMDL
MODEL 7
REMARK VINA RESULT:      -3.8      0.964      3.561
REMARK  3 active torsions:
REMARK  status: ('A' for Active; 'I' for Inactive)
REMARK    1  A    between atoms: C2_2  and  C9_9 
REMARK    2  A    between atoms: C3_3  and  C5_5 
REMARK    3  A    between atoms: C3_3  and  C9_9 
ROOT
HETATM    1  C3  UNL     1     -33.592   8.125   5.243  1.00 20.00     0.135 C 
HETATM    2  O10 UNL     1     -33.968   9.089   5.909  1.00 20.00    -0.297 OA
ENDROOT
BRANCH   1   3
HETATM    3  C5  UNL     1     -34.449   6.891   5.120  1.00 20.00     0.060 A 
HETATM    4  C4  UNL     1     -34.797   6.157   6.366  1.00 20.00     0.017 A 
HETATM    5  C6  UNL     1     -33.807   5.567   5.396  1.00 20.00    -0.007 A 
HETATM    6  C8  UNL     1     -34.184   4.392   4.561  1.00 20.00     0.011 C 
ENDBRANCH   1   3
BRANCH   1   7
HETATM    7  C9  UNL     1     -32.244   8.073   4.538  1.00 20.00     0.111 C 
BRANCH   7   8
HETATM    8  C2  UNL     1     -32.395   7.943   3.046  1.00 20.00    -0.086 C 
HETATM    9  C1  UNL     1     -32.227   6.766   2.424  1.00 20.00     0.014 C 
HETATM   10  C7  UNL     1     -32.773   9.185   2.292  1.00 20.00     0.043 C 
ENDBRANCH   7   8
ENDBRANCH   1   7
TORSDOF 3
ENDMDL
MODEL 8
REMARK VINA RESULT:      -3.8      9.017     10.001
REMARK  3 active torsions:
REMARK  status: ('A' for Active; 'I' for Inactive)
REMARK    1  A    between atoms: C2_2  and  C9_9 
REMARK    2  A    between atoms: C3_3  and  C5_5 
REMARK    3  A    between atoms: C3_3  and  C9_9 
ROOT
HETATM    1  C3  UNL     1     -41.530  13.042   6.706  1.00 20.00     0.135 C 
HETATM    2  O10 UNL     1     -42.189  12.042   6.990  1.00 20.00    -0.297 OA
ENDROOT
BRANCH   1   3
HETATM    3  C5  UNL     1     -41.490  14.228   7.635  1.00 20.00     0.060 A 
HETATM    4  C4  UNL     1     -40.470  15.280   7.381  1.00 20.00     0.017 A 
HETATM    5  C6  UNL     1     -40.317  14.351   8.557  1.00 20.00    -0.007 A 
HETATM    6  C8  UNL     1     -40.534  14.854   9.942  1.00 20.00     0.011 C 
ENDBRANCH   1   3
BRANCH   1   7
HETATM    7  C9  UNL     1     -40.752  13.186   5.406  1.00 20.00     0.111 C 
BRANCH   7   8
HETATM    8  C2  UNL     1     -39.566  12.263   5.356  1.00 20.00    -0.086 C 
HETATM    9  C1  UNL     1     -38.875  11.945   6.462  1.00 20.00     0.014 C 
HETATM   10  C7  UNL     1     -39.210  11.689   4.014  1.00 20.00     0.043 C 
ENDBRANCH   7   8
ENDBRANCH   1   7
TORSDOF 3
ENDMDL
MODEL 9
REMARK VINA RESULT:      -3.8      9.188     10.079
REMARK  3 active torsions:
REMARK  status: ('A' for Active; 'I' for Inactive)
REMARK    1  A    between atoms: C2_2  and  C9_9 
REMARK    2  A    between atoms: C3_3  and  C5_5 
REMARK    3  A    between atoms: C3_3  and  C9_9 
ROOT
HETATM    1  C3  UNL     1     -41.512  12.666   6.429  1.00 20.00     0.135 C 
HETATM    2  O10 UNL     1     -42.278  12.264   7.304  1.00 20.00    -0.297 OA
ENDROOT
BRANCH   1   3
HETATM    3  C5  UNL     1     -40.410  11.782   5.902  1.00 20.00     0.060 A 
HETATM    4  C4  UNL     1     -39.023  12.042   6.372  1.00 20.00     0.017 A 
HETATM    5  C6  UNL     1     -39.419  12.392   4.961  1.00 20.00    -0.007 A 
HETATM    6  C8  UNL     1     -38.913  11.582   3.818  1.00 20.00     0.011 C 
ENDBRANCH   1   3
BRANCH   1   7
HETATM    7  C9  UNL     1     -41.577  14.070   5.845  1.00 20.00     0.111 C 
BRANCH   7   8
HETATM    8  C2  UNL     1     -41.626  15.123   6.919  1.00 20.00    -0.086 C 
HETATM    9  C1  UNL     1     -42.717  15.879   7.113  1.00 20.00     0.014 C 
HETATM   10  C7  UNL     1     -40.406  15.265   7.784  1.00 20.00     0.043 C 
ENDBRANCH   7   8
ENDBRANCH   1   7
TORSDOF 3
ENDMDL
