MODEL 1
REMARK VINA RESULT:      -4.4      0.000      0.000
REMARK  3 active torsions:
REMARK  status: ('A' for Active; 'I' for Inactive)
REMARK    1  A    between atoms: C2_2  and  C3_3 
REMARK    2  A    between atoms: C3_3  and  C7_7 
REMARK    3  A    between atoms: C8_8  and  C11_11 
ROOT
HETATM    1  C4  UNL     1     -33.725   7.896   6.489  1.00 20.00     0.013 C 
HETATM    2  C5  UNL     1     -33.711   6.372   6.496  1.00 20.00     0.005 C 
HETATM    3  C6  UNL     1     -34.549   7.028   4.347  1.00 20.00     0.017 C 
HETATM    4  C7  UNL     1     -33.979   8.278   5.030  1.00 20.00     0.060 C 
HETATM    5  C8  UNL     1     -34.786   6.020   5.474  1.00 20.00    -0.014 C 
ENDROOT
BRANCH   4   6
HETATM    6  C3  UNL     1     -32.705   8.697   4.363  1.00 20.00     0.158 C 
HETATM    7  O12 UNL     1     -31.849   9.320   4.994  1.00 20.00    -0.292 OA
BRANCH   6   8
HETATM    8  C2  UNL     1     -32.470   8.354   2.921  1.00 20.00    -0.025 C 
HETATM    9  C1  UNL     1     -31.920   7.186   2.562  1.00 20.00     0.022 C 
HETATM   10  C9  UNL     1     -32.887   9.381   1.911  1.00 20.00     0.051 C 
ENDBRANCH   6   8
ENDBRANCH   4   6
BRANCH   5  11
HETATM   11  C11 UNL     1     -34.719   4.576   5.010  1.00 20.00     0.000 C 
HETATM   12  C10 UNL     1     -33.792   4.404   3.847  1.00 20.00     0.005 C 
ENDBRANCH   5  11
TORSDOF 3
ENDMDL
MODEL 2
REMARK VINA RESULT:      -4.3      1.023      1.430
REMARK  3 active torsions:
REMARK  status: ('A' for Active; 'I' for Inactive)
REMARK    1  A    between atoms: C2_2  and  C3_3 
REMARK    2  A    between atoms: C3_3  and  C7_7 
REMARK    3  A    between atoms: C8_8  and  C11_11 
ROOT
HETATM    1  C4  UNL     1     -33.401   8.524   5.699  1.00 20.00     0.013 C 
HETATM    2  C5  UNL     1     -33.422   7.154   6.365  1.00 20.00     0.005 C 
HETATM    3  C6  UNL     1     -34.386   6.859   4.190  1.00 20.00     0.017 C 
HETATM    4  C7  UNL     1     -33.744   8.251   4.233  1.00 20.00     0.060 C 
HETATM    5  C8  UNL     1     -34.570   6.448   5.653  1.00 20.00    -0.014 C 
ENDROOT
BRANCH   4   6
HETATM    6  C3  UNL     1     -32.507   8.277   3.388  1.00 20.00     0.158 C 
HETATM    7  O12 UNL     1     -31.449   7.815   3.819  1.00 20.00    -0.292 OA
BRANCH   6   8
HETATM    8  C2  UNL     1     -32.559   8.869   2.010  1.00 20.00    -0.025 C 
HETATM    9  C1  UNL     1     -33.108  10.071   1.786  1.00 20.00     0.022 C 
HETATM   10  C9  UNL     1     -31.964   8.049   0.904  1.00 20.00     0.051 C 
ENDBRANCH   6   8
ENDBRANCH   4   6
BRANCH   5  11
HETATM   11  C11 UNL     1     -34.567   4.944   5.859  1.00 20.00     0.000 C 
HETATM   12  C10 UNL     1     -34.058   4.216   4.655  1.00 20.00     0.005 C 
ENDBRANCH   5  11
TORSDOF 3
ENDMDL
MODEL 3
REMARK VINA RESULT:      -4.3      1.466      4.238
REMARK  3 active torsions:
REMARK  status: ('A' for Active; 'I' for Inactive)
REMARK    1  A    between atoms: C2_2  and  C3_3 
REMARK    2  A    between atoms: C3_3  and  C7_7 
REMARK    3  A    between atoms: C8_8  and  C11_11 
ROOT
HETATM    1  C4  UNL     1     -32.157   9.033   4.662  1.00 20.00     0.013 C 
HETATM    2  C5  UNL     1     -32.397   9.392   3.200  1.00 20.00     0.005 C 
HETATM    3  C6  UNL     1     -32.561   7.004   3.343  1.00 20.00     0.017 C 
HETATM    4  C7  UNL     1     -32.554   7.559   4.773  1.00 20.00     0.060 C 
HETATM    5  C8  UNL     1     -31.985   8.120   2.468  1.00 20.00    -0.014 C 
ENDROOT
BRANCH   4   6
HETATM    6  C3  UNL     1     -33.912   7.422   5.389  1.00 20.00     0.158 C 
HETATM    7  O12 UNL     1     -34.458   8.395   5.914  1.00 20.00    -0.292 OA
BRANCH   6   8
HETATM    8  C2  UNL     1     -34.611   6.095   5.365  1.00 20.00    -0.025 C 
HETATM    9  C1  UNL     1     -35.504   5.793   4.413  1.00 20.00     0.022 C 
HETATM   10  C9  UNL     1     -34.254   5.129   6.455  1.00 20.00     0.051 C 
ENDBRANCH   6   8
ENDBRANCH   4   6
BRANCH   5  11
HETATM   11  C11 UNL     1     -32.477   8.071   1.032  1.00 20.00     0.000 C 
HETATM   12  C10 UNL     1     -32.763   9.437   0.492  1.00 20.00     0.005 C 
ENDBRANCH   5  11
TORSDOF 3
ENDMDL
MODEL 4
REMARK VINA RESULT:      -4.3     11.583     12.685
REMARK  3 active torsions:
REMARK  status: ('A' for Active; 'I' for Inactive)
REMARK    1  A    between atoms: C2_2  and  C3_3 
REMARK    2  A    between atoms: C3_3  and  C7_7 
REMARK    3  A    between atoms: C8_8  and  C11_11 
ROOT
HETATM    1  C4  UNL     1     -33.998  18.057  -4.450  1.00 20.00     0.013 C 
HETATM    2  C5  UNL     1     -34.811  16.845  -4.887  1.00 20.00     0.005 C 
HETATM    3  C6  UNL     1     -33.323  16.074  -3.172  1.00 20.00     0.017 C 
HETATM    4  C7  UNL     1     -33.280  17.608  -3.176  1.00 20.00     0.060 C 
HETATM    5  C8  UNL     1     -33.895  15.678  -4.535  1.00 20.00    -0.014 C 
ENDROOT
BRANCH   4   6
HETATM    6  C3  UNL     1     -33.971  18.148  -1.961  1.00 20.00     0.158 C 
HETATM    7  O12 UNL     1     -35.142  18.527  -2.029  1.00 20.00    -0.292 OA
BRANCH   6   8
HETATM    8  C2  UNL     1     -33.232  18.228  -0.658  1.00 20.00    -0.025 C 
HETATM    9  C1  UNL     1     -33.870  18.104   0.514  1.00 20.00     0.022 C 
HETATM   10  C9  UNL     1     -31.751  18.448  -0.737  1.00 20.00     0.051 C 
ENDBRANCH   6   8
ENDBRANCH   4   6
BRANCH   5  11
HETATM   11  C11 UNL     1     -34.611  14.340  -4.519  1.00 20.00     0.000 C 
HETATM   12  C10 UNL     1     -35.864  14.365  -5.339  1.00 20.00     0.005 C 
ENDBRANCH   5  11
TORSDOF 3
ENDMDL
MODEL 5
REMARK VINA RESULT:      -4.3      0.083      1.017
REMARK  3 active torsions:
REMARK  status: ('A' for Active; 'I' for Inactive)
REMARK    1  A    between atoms: C2_2  and  C3_3 
REMARK    2  A    between atoms: C3_3  and  C7_7 
REMARK    3  A    between atoms: C8_8  and  C11_11 
ROOT
HETATM    1  C4  UNL     1     -33.703   7.830   6.535  1.00 20.00     0.013 C 
HETATM    2  C5  UNL     1     -33.689   6.307   6.492  1.00 20.00     0.005 C 
HETATM    3  C6  UNL     1     -34.572   7.033   4.384  1.00 20.00     0.017 C 
HETATM    4  C7  UNL     1     -33.988   8.260   5.095  1.00 20.00     0.060 C 
HETATM    5  C8  UNL     1     -34.785   5.987   5.482  1.00 20.00    -0.014 C 
ENDROOT
BRANCH   4   6
HETATM    6  C3  UNL     1     -32.728   8.701   4.416  1.00 20.00     0.158 C 
HETATM    7  O12 UNL     1     -31.851   9.288   5.053  1.00 20.00    -0.292 OA
BRANCH   6   8
HETATM    8  C2  UNL     1     -32.534   8.426   2.954  1.00 20.00    -0.025 C 
HETATM    9  C1  UNL     1     -32.826   9.347   2.025  1.00 20.00     0.022 C 
HETATM   10  C9  UNL     1     -31.995   7.074   2.591  1.00 20.00     0.051 C 
ENDBRANCH   6   8
ENDBRANCH   4   6
BRANCH   5  11
HETATM   11  C11 UNL     1     -34.727   4.559   4.969  1.00 20.00     0.000 C 
HETATM   12  C10 UNL     1     -33.715   4.396   3.879  1.00 20.00     0.005 C 
ENDBRANCH   5  11
TORSDOF 3
ENDMDL
MODEL 6
REMARK VINA RESULT:      -4.2      1.856      4.470
REMARK  3 active torsions:
REMARK  status: ('A' for Active; 'I' for Inactive)
REMARK    1  A    between atoms: C2_2  and  C3_3 
REMARK    2  A    between atoms: C3_3  and  C7_7 
REMARK    3  A    between atoms: C8_8  and  C11_11 
ROOT
HETATM    1  C4  UNL     1     -32.965   7.894   4.806  1.00 20.00     0.013 C 
HETATM    2  C5  UNL     1     -33.468   9.014   3.904  1.00 20.00     0.005 C 
HETATM    3  C6  UNL     1     -32.257   7.502   2.490  1.00 20.00     0.017 C 
HETATM    4  C7  UNL     1     -32.460   6.815   3.846  1.00 20.00     0.060 C 
HETATM    5  C8  UNL     1     -32.468   8.996   2.753  1.00 20.00    -0.014 C 
ENDROOT
BRANCH   4   6
HETATM    6  C3  UNL     1     -33.461   5.708   3.721  1.00 20.00     0.158 C 
HETATM    7  O12 UNL     1     -33.326   4.842   2.855  1.00 20.00    -0.292 OA
BRANCH   6   8
HETATM    8  C2  UNL     1     -34.633   5.654   4.657  1.00 20.00    -0.025 C 
HETATM    9  C1  UNL     1     -35.858   6.029   4.262  1.00 20.00     0.022 C 
HETATM   10  C9  UNL     1     -34.362   5.159   6.046  1.00 20.00     0.051 C 
ENDBRANCH   6   8
ENDBRANCH   4   6
BRANCH   5  11
HETATM   11  C11 UNL     1     -32.949   9.757   1.531  1.00 20.00     0.000 C 
HETATM   12  C10 UNL     1     -32.647   9.026   0.261  1.00 20.00     0.005 C 
ENDBRANCH   5  11
TORSDOF 3
ENDMDL
MODEL 7
REMARK VINA RESULT:      -4.2     11.762     12.927
REMARK  3 active torsions:
REMARK  status: ('A' for Active; 'I' for Inactive)
REMARK    1  A    between atoms: C2_2  and  C3_3 
REMARK    2  A    between atoms: C3_3  and  C7_7 
REMARK    3  A    between atoms: C8_8  and  C11_11 
ROOT
HETATM    1  C4  UNL     1     -34.059  18.042  -4.120  1.00 20.00     0.013 C 
HETATM    2  C5  UNL     1     -32.887  18.669  -3.375  1.00 20.00     0.005 C 
HETATM    3  C6  UNL     1     -33.503  16.711  -2.135  1.00 20.00     0.017 C 
HETATM    4  C7  UNL     1     -34.234  16.662  -3.482  1.00 20.00     0.060 C 
HETATM    5  C8  UNL     1     -33.089  18.173  -1.947  1.00 20.00    -0.014 C 
ENDROOT
BRANCH   4   6
HETATM    6  C3  UNL     1     -33.643  15.597  -4.355  1.00 20.00     0.158 C 
HETATM    7  O12 UNL     1     -32.538  15.120  -4.090  1.00 20.00    -0.292 OA
BRANCH   6   8
HETATM    8  C2  UNL     1     -34.400  15.112  -5.555  1.00 20.00    -0.025 C 
HETATM    9  C1  UNL     1     -33.920  15.275  -6.796  1.00 20.00     0.022 C 
HETATM   10  C9  UNL     1     -35.713  14.436  -5.293  1.00 20.00     0.051 C 
ENDBRANCH   6   8
ENDBRANCH   4   6
BRANCH   5  11
HETATM   11  C11 UNL     1     -31.857  18.341  -1.076  1.00 20.00     0.000 C 
HETATM   12  C10 UNL     1     -32.213  18.578   0.358  1.00 20.00     0.005 C 
ENDBRANCH   5  11
TORSDOF 3
ENDMDL
MODEL 8
REMARK VINA RESULT:      -4.2     11.719     13.119
REMARK  3 active torsions:
REMARK  status: ('A' for Active; 'I' for Inactive)
REMARK    1  A    between atoms: C2_2  and  C3_3 
REMARK    2  A    between atoms: C3_3  and  C7_7 
REMARK    3  A    between atoms: C8_8  and  C11_11 
ROOT
HETATM    1  C4  UNL     1     -33.539  16.302  -2.411  1.00 20.00     0.013 C 
HETATM    2  C5  UNL     1     -33.469  16.214  -3.931  1.00 20.00     0.005 C 
HETATM    3  C6  UNL     1     -34.522  18.308  -3.426  1.00 20.00     0.017 C 
HETATM    4  C7  UNL     1     -33.938  17.751  -2.121  1.00 20.00     0.060 C 
HETATM    5  C8  UNL     1     -34.618  17.111  -4.375  1.00 20.00    -0.014 C 
ENDROOT
BRANCH   4   6
HETATM    6  C3  UNL     1     -32.745  18.554  -1.702  1.00 20.00     0.158 C 
HETATM    7  O12 UNL     1     -32.151  19.258  -2.521  1.00 20.00    -0.292 OA
BRANCH   6   8
HETATM    8  C2  UNL     1     -32.274  18.501  -0.278  1.00 20.00    -0.025 C 
HETATM    9  C1  UNL     1     -30.970  18.534   0.027  1.00 20.00     0.022 C 
HETATM   10  C9  UNL     1     -33.336  18.413   0.777  1.00 20.00     0.051 C 
ENDBRANCH   6   8
ENDBRANCH   4   6
BRANCH   5  11
HETATM   11  C11 UNL     1     -34.541  17.501  -5.841  1.00 20.00     0.000 C 
HETATM   12  C10 UNL     1     -34.629  16.309  -6.742  1.00 20.00     0.005 C 
ENDBRANCH   5  11
TORSDOF 3
ENDMDL
MODEL 9
REMARK VINA RESULT:      -4.1     11.737     13.521
REMARK  3 active torsions:
REMARK  status: ('A' for Active; 'I' for Inactive)
REMARK    1  A    between atoms: C2_2  and  C3_3 
REMARK    2  A    between atoms: C3_3  and  C7_7 
REMARK    3  A    between atoms: C8_8  and  C11_11 
ROOT
HETATM    1  C4  UNL     1     -33.829  14.971  -5.359  1.00 20.00     0.013 C 
HETATM    2  C5  UNL     1     -33.561  14.986  -3.859  1.00 20.00     0.005 C 
HETATM    3  C6  UNL     1     -34.547  17.107  -4.388  1.00 20.00     0.017 C 
HETATM    4  C7  UNL     1     -34.711  16.196  -5.611  1.00 20.00     0.060 C 
HETATM    5  C8  UNL     1     -33.430  16.474  -3.553  1.00 20.00    -0.014 C 
ENDROOT
BRANCH   4   6
HETATM    6  C3  UNL     1     -36.145  15.791  -5.766  1.00 20.00     0.158 C 
HETATM    7  O12 UNL     1     -36.448  14.600  -5.862  1.00 20.00    -0.292 OA
BRANCH   6   8
HETATM    8  C2  UNL     1     -37.216  16.842  -5.805  1.00 20.00    -0.025 C 
HETATM    9  C1  UNL     1     -38.198  16.871  -4.895  1.00 20.00     0.022 C 
HETATM   10  C9  UNL     1     -37.124  17.853  -6.909  1.00 20.00     0.051 C 
ENDBRANCH   6   8
ENDBRANCH   4   6
BRANCH   5  11
HETATM   11  C11 UNL     1     -33.535  16.792  -2.072  1.00 20.00     0.000 C 
HETATM   12  C10 UNL     1     -32.669  17.950  -1.686  1.00 20.00     0.005 C 
ENDBRANCH   5  11
TORSDOF 3
ENDMDL
