MODEL 1
REMARK VINA RESULT:      -4.7      0.000      0.000
REMARK  5 active torsions:
REMARK  status: ('A' for Active; 'I' for Inactive)
REMARK    1  A    between atoms: C2_2  and  C5_5 
REMARK    2  A    between atoms: C5_5  and  C7_7 
REMARK    3  A    between atoms: C6_6  and  C9_9 
REMARK    4  A    between atoms: C7_7  and  C8_8 
REMARK    5  A    between atoms: C8_8  and  C9_9 
ROOT
HETATM    1  C7  UNL     1     -33.527   8.301   4.872  1.00 20.00     0.006 C 
ENDROOT
BRANCH   1   2
HETATM    2  C5  UNL     1     -33.665   7.314   6.037  1.00 20.00     0.033 C 
BRANCH   2   3
HETATM    3  C2  UNL     1     -34.481   6.081   5.726  1.00 20.00    -0.093 C 
HETATM    4  C1  UNL     1     -34.332   4.945   6.424  1.00 20.00     0.014 C 
HETATM    5  C3  UNL     1     -35.444   6.170   4.577  1.00 20.00     0.042 C 
ENDBRANCH   2   3
ENDBRANCH   1   2
BRANCH   1   6
HETATM    6  C8  UNL     1     -32.345   7.978   3.947  1.00 20.00     0.020 C 
BRANCH   6   7
HETATM    7  C9  UNL     1     -32.775   7.432   2.575  1.00 20.00     0.082 C 
HETATM    8 CL10 UNL     1     -32.605   5.648   2.538  1.00 20.00    -0.125 Cl
BRANCH   7   9
HETATM    9  C6  UNL     1     -31.947   8.073   1.454  1.00 20.00     0.016 C 
HETATM   10  C4  UNL     1     -32.665   9.211   0.739  1.00 20.00     0.006 C 
ENDBRANCH   7   9
ENDBRANCH   6   7
ENDBRANCH   1   6
TORSDOF 5
ENDMDL
MODEL 2
REMARK VINA RESULT:      -4.6      1.573      2.822
REMARK  5 active torsions:
REMARK  status: ('A' for Active; 'I' for Inactive)
REMARK    1  A    between atoms: C2_2  and  C5_5 
REMARK    2  A    between atoms: C5_5  and  C7_7 
REMARK    3  A    between atoms: C6_6  and  C9_9 
REMARK    4  A    between atoms: C7_7  and  C8_8 
REMARK    5  A    between atoms: C8_8  and  C9_9 
ROOT
HETATM    1  C7  UNL     1     -33.321   5.240   2.734  1.00 20.00     0.006 C 
ENDROOT
BRANCH   1   2
HETATM    2  C5  UNL     1     -33.749   4.546   4.033  1.00 20.00     0.033 C 
BRANCH   2   3
HETATM    3  C2  UNL     1     -34.725   5.333   4.876  1.00 20.00    -0.093 C 
HETATM    4  C1  UNL     1     -35.716   6.047   4.320  1.00 20.00     0.014 C 
HETATM    5  C3  UNL     1     -34.517   5.311   6.363  1.00 20.00     0.042 C 
ENDBRANCH   2   3
ENDBRANCH   1   2
BRANCH   1   6
HETATM    6  C8  UNL     1     -32.222   6.291   2.949  1.00 20.00     0.020 C 
BRANCH   6   7
HETATM    7  C9  UNL     1     -32.712   7.735   2.748  1.00 20.00     0.082 C 
HETATM    8 CL10 UNL     1     -32.153   8.363   1.165  1.00 20.00    -0.125 Cl
BRANCH   7   9
HETATM    9  C6  UNL     1     -32.219   8.637   3.887  1.00 20.00     0.016 C 
HETATM   10  C4  UNL     1     -32.973   8.437   5.195  1.00 20.00     0.006 C 
ENDBRANCH   7   9
ENDBRANCH   6   7
ENDBRANCH   1   6
TORSDOF 5
ENDMDL
MODEL 3
REMARK VINA RESULT:      -4.5      1.724      4.580
REMARK  5 active torsions:
REMARK  status: ('A' for Active; 'I' for Inactive)
REMARK    1  A    between atoms: C2_2  and  C5_5 
REMARK    2  A    between atoms: C5_5  and  C7_7 
REMARK    3  A    between atoms: C6_6  and  C9_9 
REMARK    4  A    between atoms: C7_7  and  C8_8 
REMARK    5  A    between atoms: C8_8  and  C9_9 
ROOT
HETATM    1  C7  UNL     1     -33.561   5.389   2.921  1.00 20.00     0.006 C 
ENDROOT
BRANCH   1   2
HETATM    2  C5  UNL     1     -32.218   6.132   2.900  1.00 20.00     0.033 C 
BRANCH   2   3
HETATM    3  C2  UNL     1     -32.332   7.635   2.803  1.00 20.00    -0.093 C 
HETATM    4  C1  UNL     1     -32.522   8.397   3.892  1.00 20.00     0.014 C 
HETATM    5  C3  UNL     1     -32.258   8.241   1.431  1.00 20.00     0.042 C 
ENDBRANCH   2   3
ENDBRANCH   1   2
BRANCH   1   6
HETATM    6  C8  UNL     1     -33.737   4.502   4.161  1.00 20.00     0.020 C 
BRANCH   6   7
HETATM    7  C9  UNL     1     -34.893   4.950   5.071  1.00 20.00     0.082 C 
HETATM    8 CL10 UNL     1     -35.850   6.236   4.269  1.00 20.00    -0.125 Cl
BRANCH   7   9
HETATM    9  C6  UNL     1     -34.357   5.445   6.422  1.00 20.00     0.016 C 
HETATM   10  C4  UNL     1     -34.170   6.956   6.488  1.00 20.00     0.006 C 
ENDBRANCH   7   9
ENDBRANCH   6   7
ENDBRANCH   1   6
TORSDOF 5
ENDMDL
MODEL 4
REMARK VINA RESULT:      -4.4      1.442      1.978
REMARK  5 active torsions:
REMARK  status: ('A' for Active; 'I' for Inactive)
REMARK    1  A    between atoms: C2_2  and  C5_5 
REMARK    2  A    between atoms: C5_5  and  C7_7 
REMARK    3  A    between atoms: C6_6  and  C9_9 
REMARK    4  A    between atoms: C7_7  and  C8_8 
REMARK    5  A    between atoms: C8_8  and  C9_9 
ROOT
HETATM    1  C7  UNL     1     -33.565   8.164   4.645  1.00 20.00     0.006 C 
ENDROOT
BRANCH   1   2
HETATM    2  C5  UNL     1     -33.815   7.397   5.950  1.00 20.00     0.033 C 
BRANCH   2   3
HETATM    3  C2  UNL     1     -34.553   6.090   5.782  1.00 20.00    -0.093 C 
HETATM    4  C1  UNL     1     -34.332   5.049   6.600  1.00 20.00     0.014 C 
HETATM    5  C3  UNL     1     -35.519   5.991   4.636  1.00 20.00     0.042 C 
ENDBRANCH   2   3
ENDBRANCH   1   2
BRANCH   1   6
HETATM    6  C8  UNL     1     -32.146   7.967   4.095  1.00 20.00     0.020 C 
BRANCH   6   7
HETATM    7  C9  UNL     1     -32.119   7.521   2.623  1.00 20.00     0.082 C 
HETATM    8 CL10 UNL     1     -32.448   8.917   1.548  1.00 20.00    -0.125 Cl
BRANCH   7   9
HETATM    9  C6  UNL     1     -33.141   6.402   2.378  1.00 20.00     0.016 C 
HETATM   10  C4  UNL     1     -32.631   5.017   2.755  1.00 20.00     0.006 C 
ENDBRANCH   7   9
ENDBRANCH   6   7
ENDBRANCH   1   6
TORSDOF 5
ENDMDL
MODEL 5
REMARK VINA RESULT:      -4.3      1.981      2.517
REMARK  5 active torsions:
REMARK  status: ('A' for Active; 'I' for Inactive)
REMARK    1  A    between atoms: C2_2  and  C5_5 
REMARK    2  A    between atoms: C5_5  and  C7_7 
REMARK    3  A    between atoms: C6_6  and  C9_9 
REMARK    4  A    between atoms: C7_7  and  C8_8 
REMARK    5  A    between atoms: C8_8  and  C9_9 
ROOT
HETATM    1  C7  UNL     1     -33.632   6.808   6.563  1.00 20.00     0.006 C 
ENDROOT
BRANCH   1   2
HETATM    2  C5  UNL     1     -34.656   5.689   6.335  1.00 20.00     0.033 C 
BRANCH   2   3
HETATM    3  C2  UNL     1     -34.816   5.265   4.894  1.00 20.00    -0.093 C 
HETATM    4  C1  UNL     1     -33.995   4.364   4.332  1.00 20.00     0.014 C 
HETATM    5  C3  UNL     1     -35.913   5.920   4.105  1.00 20.00     0.042 C 
ENDBRANCH   2   3
ENDBRANCH   1   2
BRANCH   1   6
HETATM    6  C8  UNL     1     -33.765   7.958   5.555  1.00 20.00     0.020 C 
BRANCH   6   7
HETATM    7  C9  UNL     1     -32.482   8.212   4.747  1.00 20.00     0.082 C 
HETATM    8 CL10 UNL     1     -31.788   9.809   5.172  1.00 20.00    -0.125 Cl
BRANCH   7   9
HETATM    9  C6  UNL     1     -32.768   8.135   3.240  1.00 20.00     0.016 C 
HETATM   10  C4  UNL     1     -32.175   6.903   2.569  1.00 20.00     0.006 C 
ENDBRANCH   7   9
ENDBRANCH   6   7
ENDBRANCH   1   6
TORSDOF 5
ENDMDL
MODEL 6
REMARK VINA RESULT:      -4.1      1.846      4.224
REMARK  5 active torsions:
REMARK  status: ('A' for Active; 'I' for Inactive)
REMARK    1  A    between atoms: C2_2  and  C5_5 
REMARK    2  A    between atoms: C5_5  and  C7_7 
REMARK    3  A    between atoms: C6_6  and  C9_9 
REMARK    4  A    between atoms: C7_7  and  C8_8 
REMARK    5  A    between atoms: C8_8  and  C9_9 
ROOT
HETATM    1  C7  UNL     1     -33.556   8.479   5.125  1.00 20.00     0.006 C 
ENDROOT
BRANCH   1   2
HETATM    2  C5  UNL     1     -32.291   8.742   4.297  1.00 20.00     0.033 C 
BRANCH   2   3
HETATM    3  C2  UNL     1     -32.389   8.328   2.848  1.00 20.00    -0.093 C 
HETATM    4  C1  UNL     1     -32.081   7.083   2.451  1.00 20.00     0.014 C 
HETATM    5  C3  UNL     1     -32.812   9.379   1.862  1.00 20.00     0.042 C 
ENDBRANCH   2   3
ENDBRANCH   1   2
BRANCH   1   6
HETATM    6  C8  UNL     1     -33.485   7.175   5.932  1.00 20.00     0.020 C 
BRANCH   6   7
HETATM    7  C9  UNL     1     -34.738   6.297   5.782  1.00 20.00     0.082 C 
HETATM    8 CL10 UNL     1     -34.696   4.952   6.968  1.00 20.00    -0.125 Cl
BRANCH   7   9
HETATM    9  C6  UNL     1     -34.846   5.747   4.353  1.00 20.00     0.016 C 
HETATM   10  C4  UNL     1     -34.028   4.483   4.122  1.00 20.00     0.006 C 
ENDBRANCH   7   9
ENDBRANCH   6   7
ENDBRANCH   1   6
TORSDOF 5
ENDMDL
MODEL 7
REMARK VINA RESULT:      -4.1      1.716      4.297
REMARK  5 active torsions:
REMARK  status: ('A' for Active; 'I' for Inactive)
REMARK    1  A    between atoms: C2_2  and  C5_5 
REMARK    2  A    between atoms: C5_5  and  C7_7 
REMARK    3  A    between atoms: C6_6  and  C9_9 
REMARK    4  A    between atoms: C7_7  and  C8_8 
REMARK    5  A    between atoms: C8_8  and  C9_9 
ROOT
HETATM    1  C7  UNL     1     -33.898   8.316   5.148  1.00 20.00     0.006 C 
ENDROOT
BRANCH   1   2
HETATM    2  C5  UNL     1     -32.504   8.518   4.540  1.00 20.00     0.033 C 
BRANCH   2   3
HETATM    3  C2  UNL     1     -32.424   8.274   3.051  1.00 20.00    -0.093 C 
HETATM    4  C1  UNL     1     -32.717   9.239   2.165  1.00 20.00     0.014 C 
HETATM    5  C3  UNL     1     -32.038   6.894   2.603  1.00 20.00     0.042 C 
ENDBRANCH   2   3
ENDBRANCH   1   2
BRANCH   1   6
HETATM    6  C8  UNL     1     -33.880   7.457   6.419  1.00 20.00     0.020 C 
BRANCH   6   7
HETATM    7  C9  UNL     1     -34.632   6.124   6.265  1.00 20.00     0.082 C 
HETATM    8 CL10 UNL     1     -33.617   4.769   6.854  1.00 20.00    -0.125 Cl
BRANCH   7   9
HETATM    9  C6  UNL     1     -35.033   5.896   4.801  1.00 20.00     0.016 C 
HETATM   10  C4  UNL     1     -34.320   4.717   4.150  1.00 20.00     0.006 C 
ENDBRANCH   7   9
ENDBRANCH   6   7
ENDBRANCH   1   6
TORSDOF 5
ENDMDL
MODEL 8
REMARK VINA RESULT:      -3.8      1.689      5.050
REMARK  5 active torsions:
REMARK  status: ('A' for Active; 'I' for Inactive)
REMARK    1  A    between atoms: C2_2  and  C5_5 
REMARK    2  A    between atoms: C5_5  and  C7_7 
REMARK    3  A    between atoms: C6_6  and  C9_9 
REMARK    4  A    between atoms: C7_7  and  C8_8 
REMARK    5  A    between atoms: C8_8  and  C9_9 
ROOT
HETATM    1  C7  UNL     1     -32.055   7.573   3.209  1.00 20.00     0.006 C 
ENDROOT
BRANCH   1   2
HETATM    2  C5  UNL     1     -32.193   7.556   1.681  1.00 20.00     0.033 C 
BRANCH   2   3
HETATM    3  C2  UNL     1     -32.672   8.856   1.078  1.00 20.00    -0.093 C 
HETATM    4  C1  UNL     1     -32.836   8.997  -0.247  1.00 20.00     0.014 C 
HETATM    5  C3  UNL     1     -32.924   9.997   2.021  1.00 20.00     0.042 C 
ENDBRANCH   2   3
ENDBRANCH   1   2
BRANCH   1   6
HETATM    6  C8  UNL     1     -33.230   6.894   3.926  1.00 20.00     0.020 C 
BRANCH   6   7
HETATM    7  C9  UNL     1     -33.778   7.711   5.108  1.00 20.00     0.082 C 
HETATM    8 CL10 UNL     1     -32.663   9.061   5.495  1.00 20.00    -0.125 Cl
BRANCH   7   9
HETATM    9  C6  UNL     1     -33.981   6.815   6.337  1.00 20.00     0.016 C 
HETATM   10  C4  UNL     1     -34.654   5.486   6.019  1.00 20.00     0.006 C 
ENDBRANCH   7   9
ENDBRANCH   6   7
ENDBRANCH   1   6
TORSDOF 5
ENDMDL
MODEL 9
REMARK VINA RESULT:      -3.8      1.644      2.321
REMARK  5 active torsions:
REMARK  status: ('A' for Active; 'I' for Inactive)
REMARK    1  A    between atoms: C2_2  and  C5_5 
REMARK    2  A    between atoms: C5_5  and  C7_7 
REMARK    3  A    between atoms: C6_6  and  C9_9 
REMARK    4  A    between atoms: C7_7  and  C8_8 
REMARK    5  A    between atoms: C8_8  and  C9_9 
ROOT
HETATM    1  C7  UNL     1     -33.287   5.973   2.704  1.00 20.00     0.006 C 
ENDROOT
BRANCH   1   2
HETATM    2  C5  UNL     1     -33.599   4.977   3.828  1.00 20.00     0.033 C 
BRANCH   2   3
HETATM    3  C2  UNL     1     -34.684   5.421   4.781  1.00 20.00    -0.093 C 
HETATM    4  C1  UNL     1     -35.808   6.007   4.340  1.00 20.00     0.014 C 
HETATM    5  C3  UNL     1     -34.436   5.211   6.247  1.00 20.00     0.042 C 
ENDBRANCH   2   3
ENDBRANCH   1   2
BRANCH   1   6
HETATM    6  C8  UNL     1     -31.972   6.734   2.925  1.00 20.00     0.020 C 
BRANCH   6   7
HETATM    7  C9  UNL     1     -32.177   8.222   3.257  1.00 20.00     0.082 C 
HETATM    8 CL10 UNL     1     -33.043   8.393   4.817  1.00 20.00    -0.125 Cl
BRANCH   7   9
HETATM    9  C6  UNL     1     -32.951   8.926   2.134  1.00 20.00     0.016 C 
HETATM   10  C4  UNL     1     -32.301   8.784   0.763  1.00 20.00     0.006 C 
ENDBRANCH   7   9
ENDBRANCH   6   7
ENDBRANCH   1   6
TORSDOF 5
ENDMDL
