MODEL 1
REMARK VINA RESULT:      -4.1      0.000      0.000
REMARK  4 active torsions:
REMARK  status: ('A' for Active; 'I' for Inactive)
REMARK    1  A    between atoms: C2_2  and  C9_9 
REMARK    2  A    between atoms: C5_5  and  C9_9 
REMARK    3  A    between atoms: C8_8  and  C9_9 
REMARK    4  A    between atoms: C9_9  and  O10_10 
ROOT
HETATM    1  C9  UNL     1     -33.734   7.028   4.298  1.00 20.00     0.083 C 
ENDROOT
BRANCH   1   2
HETATM    2  C2  UNL     1     -32.939   6.454   3.116  1.00 20.00    -0.059 C 
HETATM    3  C1  UNL     1     -32.966   5.160   2.752  1.00 20.00     0.017 C 
HETATM    4  C6  UNL     1     -32.092   7.421   2.325  1.00 20.00     0.046 C 
ENDBRANCH   1   2
BRANCH   1   5
HETATM    5  C5  UNL     1     -34.761   6.101   4.932  1.00 20.00     0.024 A 
HETATM    6  C3  UNL     1     -34.320   4.840   5.622  1.00 20.00     0.008 A 
HETATM    7  C4  UNL     1     -34.858   5.989   6.428  1.00 20.00     0.008 A 
ENDBRANCH   1   5
BRANCH   1   8
HETATM    8  C8  UNL     1     -32.799   7.593   5.400  1.00 20.00     0.038 C 
HETATM    9  C7  UNL     1     -32.440   9.068   5.257  1.00 20.00     0.008 C 
ENDBRANCH   1   8
BRANCH   1  10
HETATM   10  O10 UNL     1     -34.475   8.163   3.809  1.00 20.00    -0.385 OA
HETATM   11  H26 UNL     1     -34.047   8.937   4.194  1.00 20.00     0.211 HD
ENDBRANCH   1  10
TORSDOF 4
ENDMDL
MODEL 2
REMARK VINA RESULT:      -4.0      9.453     10.485
REMARK  4 active torsions:
REMARK  status: ('A' for Active; 'I' for Inactive)
REMARK    1  A    between atoms: C2_2  and  C9_9 
REMARK    2  A    between atoms: C5_5  and  C9_9 
REMARK    3  A    between atoms: C8_8  and  C9_9 
REMARK    4  A    between atoms: C9_9  and  O10_10 
ROOT
HETATM    1  C9  UNL     1     -40.961  13.179   6.184  1.00 20.00     0.083 C 
ENDROOT
BRANCH   1   2
HETATM    2  C2  UNL     1     -42.078  12.996   7.222  1.00 20.00    -0.059 C 
HETATM    3  C1  UNL     1     -43.053  12.076   7.121  1.00 20.00     0.017 C 
HETATM    4  C6  UNL     1     -42.055  13.910   8.424  1.00 20.00     0.046 C 
ENDBRANCH   1   2
BRANCH   1   5
HETATM    5  C5  UNL     1     -40.112  11.952   5.887  1.00 20.00     0.024 A 
HETATM    6  C3  UNL     1     -39.471  11.783   4.537  1.00 20.00     0.008 A 
HETATM    7  C4  UNL     1     -38.621  12.081   5.741  1.00 20.00     0.008 A 
ENDBRANCH   1   5
BRANCH   1   8
HETATM    8  C8  UNL     1     -41.502  13.768   4.854  1.00 20.00     0.038 C 
HETATM    9  C7  UNL     1     -42.385  15.003   4.999  1.00 20.00     0.008 C 
ENDBRANCH   1   8
BRANCH   1  10
HETATM   10  O10 UNL     1     -40.053  14.172   6.699  1.00 20.00    -0.385 OA
HETATM   11  H26 UNL     1     -39.467  13.700   7.303  1.00 20.00     0.211 HD
ENDBRANCH   1  10
TORSDOF 4
ENDMDL
MODEL 3
REMARK VINA RESULT:      -4.0      0.886      1.124
REMARK  4 active torsions:
REMARK  status: ('A' for Active; 'I' for Inactive)
REMARK    1  A    between atoms: C2_2  and  C9_9 
REMARK    2  A    between atoms: C5_5  and  C9_9 
REMARK    3  A    between atoms: C8_8  and  C9_9 
REMARK    4  A    between atoms: C9_9  and  O10_10 
ROOT
HETATM    1  C9  UNL     1     -33.815   6.817   4.297  1.00 20.00     0.083 C 
ENDROOT
BRANCH   1   2
HETATM    2  C2  UNL     1     -32.964   6.260   3.146  1.00 20.00    -0.059 C 
HETATM    3  C1  UNL     1     -32.947   4.966   2.784  1.00 20.00     0.017 C 
HETATM    4  C6  UNL     1     -32.110   7.245   2.384  1.00 20.00     0.046 C 
ENDBRANCH   1   2
BRANCH   1   5
HETATM    5  C5  UNL     1     -33.589   6.191   5.665  1.00 20.00     0.024 A 
HETATM    6  C3  UNL     1     -34.550   6.461   6.790  1.00 20.00     0.008 A 
HETATM    7  C4  UNL     1     -34.498   5.099   6.156  1.00 20.00     0.008 A 
ENDBRANCH   1   5
BRANCH   1   8
HETATM    8  C8  UNL     1     -33.693   8.361   4.408  1.00 20.00     0.038 C 
HETATM    9  C7  UNL     1     -32.451   8.867   5.133  1.00 20.00     0.008 C 
ENDBRANCH   1   8
BRANCH   1  10
HETATM   10  O10 UNL     1     -35.197   6.568   3.971  1.00 20.00    -0.385 OA
HETATM   11  H26 UNL     1     -35.200   5.743   3.470  1.00 20.00     0.211 HD
ENDBRANCH   1  10
TORSDOF 4
ENDMDL
MODEL 4
REMARK VINA RESULT:      -4.0      1.077      3.752
REMARK  4 active torsions:
REMARK  status: ('A' for Active; 'I' for Inactive)
REMARK    1  A    between atoms: C2_2  and  C9_9 
REMARK    2  A    between atoms: C5_5  and  C9_9 
REMARK    3  A    between atoms: C8_8  and  C9_9 
REMARK    4  A    between atoms: C9_9  and  O10_10 
ROOT
HETATM    1  C9  UNL     1     -33.869   6.741   4.475  1.00 20.00     0.083 C 
ENDROOT
BRANCH   1   2
HETATM    2  C2  UNL     1     -34.146   6.483   5.964  1.00 20.00    -0.059 C 
HETATM    3  C1  UNL     1     -34.137   7.443   6.905  1.00 20.00     0.017 C 
HETATM    4  C6  UNL     1     -34.453   5.062   6.369  1.00 20.00     0.046 C 
ENDBRANCH   1   2
BRANCH   1   5
HETATM    5  C5  UNL     1     -32.560   7.444   4.146  1.00 20.00     0.024 A 
HETATM    6  C3  UNL     1     -32.554   8.652   3.250  1.00 20.00     0.008 A 
HETATM    7  C4  UNL     1     -32.268   8.803   4.718  1.00 20.00     0.008 A 
ENDBRANCH   1   5
BRANCH   1   8
HETATM    8  C8  UNL     1     -33.983   5.440   3.636  1.00 20.00     0.038 C 
HETATM    9  C7  UNL     1     -32.857   5.209   2.633  1.00 20.00     0.008 C 
ENDBRANCH   1   8
BRANCH   1  10
HETATM   10  O10 UNL     1     -34.915   7.602   3.985  1.00 20.00    -0.385 OA
HETATM   11  H26 UNL     1     -35.134   7.269   3.106  1.00 20.00     0.211 HD
ENDBRANCH   1  10
TORSDOF 4
ENDMDL
MODEL 5
REMARK VINA RESULT:      -3.9      9.514     10.366
REMARK  4 active torsions:
REMARK  status: ('A' for Active; 'I' for Inactive)
REMARK    1  A    between atoms: C2_2  and  C9_9 
REMARK    2  A    between atoms: C5_5  and  C9_9 
REMARK    3  A    between atoms: C8_8  and  C9_9 
REMARK    4  A    between atoms: C9_9  and  O10_10 
ROOT
HETATM    1  C9  UNL     1     -41.052  13.074   6.299  1.00 20.00     0.083 C 
ENDROOT
BRANCH   1   2
HETATM    2  C2  UNL     1     -42.275  13.821   5.747  1.00 20.00    -0.059 C 
HETATM    3  C1  UNL     1     -43.417  13.999   6.432  1.00 20.00     0.017 C 
HETATM    4  C6  UNL     1     -42.161  14.389   4.352  1.00 20.00     0.046 C 
ENDBRANCH   1   2
BRANCH   1   5
HETATM    5  C5  UNL     1     -39.908  12.842   5.323  1.00 20.00     0.024 A 
HETATM    6  C3  UNL     1     -38.657  12.140   5.774  1.00 20.00     0.008 A 
HETATM    7  C4  UNL     1     -39.604  11.455   4.830  1.00 20.00     0.008 A 
ENDBRANCH   1   5
BRANCH   1   8
HETATM    8  C8  UNL     1     -40.504  13.742   7.589  1.00 20.00     0.038 C 
HETATM    9  C7  UNL     1     -40.321  15.253   7.514  1.00 20.00     0.008 C 
ENDBRANCH   1   8
BRANCH   1  10
HETATM   10  O10 UNL     1     -41.495  11.765   6.707  1.00 20.00    -0.385 OA
HETATM   11  H26 UNL     1     -40.741  11.179   6.562  1.00 20.00     0.211 HD
ENDBRANCH   1  10
TORSDOF 4
ENDMDL
MODEL 6
REMARK VINA RESULT:      -3.9     10.216     11.350
REMARK  4 active torsions:
REMARK  status: ('A' for Active; 'I' for Inactive)
REMARK    1  A    between atoms: C2_2  and  C9_9 
REMARK    2  A    between atoms: C5_5  and  C9_9 
REMARK    3  A    between atoms: C8_8  and  C9_9 
REMARK    4  A    between atoms: C9_9  and  O10_10 
ROOT
HETATM    1  C9  UNL     1     -41.592  13.259   6.662  1.00 20.00     0.083 C 
ENDROOT
BRANCH   1   2
HETATM    2  C2  UNL     1     -41.432  13.968   8.015  1.00 20.00    -0.059 C 
HETATM    3  C1  UNL     1     -40.346  14.678   8.366  1.00 20.00     0.017 C 
HETATM    4  C6  UNL     1     -42.579  13.853   8.990  1.00 20.00     0.046 C 
ENDBRANCH   1   2
BRANCH   1   5
HETATM    5  C5  UNL     1     -42.615  13.856   5.707  1.00 20.00     0.024 A 
HETATM    6  C3  UNL     1     -42.636  15.337   5.447  1.00 20.00     0.008 A 
HETATM    7  C4  UNL     1     -42.179  14.392   4.371  1.00 20.00     0.008 A 
ENDBRANCH   1   5
BRANCH   1   8
HETATM    8  C8  UNL     1     -40.232  13.101   5.932  1.00 20.00     0.038 C 
HETATM    9  C7  UNL     1     -39.709  11.672   5.827  1.00 20.00     0.008 C 
ENDBRANCH   1   8
BRANCH   1  10
HETATM   10  O10 UNL     1     -42.038  11.915   6.930  1.00 20.00    -0.385 OA
HETATM   11  H26 UNL     1     -42.012  11.459   6.079  1.00 20.00     0.211 HD
ENDBRANCH   1  10
TORSDOF 4
ENDMDL
MODEL 7
REMARK VINA RESULT:      -3.9      9.039     10.084
REMARK  4 active torsions:
REMARK  status: ('A' for Active; 'I' for Inactive)
REMARK    1  A    between atoms: C2_2  and  C9_9 
REMARK    2  A    between atoms: C5_5  and  C9_9 
REMARK    3  A    between atoms: C8_8  and  C9_9 
REMARK    4  A    between atoms: C9_9  and  O10_10 
ROOT
HETATM    1  C9  UNL     1     -41.923   5.732   0.136  1.00 20.00     0.083 C 
ENDROOT
BRANCH   1   2
HETATM    2  C2  UNL     1     -41.662   7.237   0.296  1.00 20.00    -0.059 C 
HETATM    3  C1  UNL     1     -40.685   7.752   1.063  1.00 20.00     0.017 C 
HETATM    4  C6  UNL     1     -42.562   8.176  -0.471  1.00 20.00     0.046 C 
ENDBRANCH   1   2
BRANCH   1   5
HETATM    5  C5  UNL     1     -42.217   4.961   1.413  1.00 20.00     0.024 A 
HETATM    6  C3  UNL     1     -43.417   5.310   2.250  1.00 20.00     0.008 A 
HETATM    7  C4  UNL     1     -43.390   4.021   1.476  1.00 20.00     0.008 A 
ENDBRANCH   1   5
BRANCH   1   8
HETATM    8  C8  UNL     1     -43.036   5.450  -0.908  1.00 20.00     0.038 C 
HETATM    9  C7  UNL     1     -42.694   4.400  -1.960  1.00 20.00     0.008 C 
ENDBRANCH   1   8
BRANCH   1  10
HETATM   10  O10 UNL     1     -40.728   5.144  -0.415  1.00 20.00    -0.385 OA
HETATM   11  H26 UNL     1     -40.587   4.329   0.083  1.00 20.00     0.211 HD
ENDBRANCH   1  10
TORSDOF 4
ENDMDL
MODEL 8
REMARK VINA RESULT:      -3.7     12.140     13.172
REMARK  4 active torsions:
REMARK  status: ('A' for Active; 'I' for Inactive)
REMARK    1  A    between atoms: C2_2  and  C9_9 
REMARK    2  A    between atoms: C5_5  and  C9_9 
REMARK    3  A    between atoms: C8_8  and  C9_9 
REMARK    4  A    between atoms: C9_9  and  O10_10 
ROOT
HETATM    1  C9  UNL     1     -33.885  17.299  -3.247  1.00 20.00     0.083 C 
ENDROOT
BRANCH   1   2
HETATM    2  C2  UNL     1     -33.948  16.081  -4.180  1.00 20.00    -0.059 C 
HETATM    3  C1  UNL     1     -33.038  15.092  -4.184  1.00 20.00     0.017 C 
HETATM    4  C6  UNL     1     -35.115  16.007  -5.135  1.00 20.00     0.046 C 
ENDBRANCH   1   2
BRANCH   1   5
HETATM    5  C5  UNL     1     -33.346  17.048  -1.847  1.00 20.00     0.024 A 
HETATM    6  C3  UNL     1     -32.444  18.055  -1.189  1.00 20.00     0.008 A 
HETATM    7  C4  UNL     1     -33.847  17.861  -0.686  1.00 20.00     0.008 A 
ENDBRANCH   1   5
BRANCH   1   8
HETATM    8  C8  UNL     1     -33.113  18.480  -3.894  1.00 20.00     0.038 C 
HETATM    9  C7  UNL     1     -33.883  19.262  -4.952  1.00 20.00     0.008 C 
ENDBRANCH   1   8
BRANCH   1  10
HETATM   10  O10 UNL     1     -35.233  17.778  -3.071  1.00 20.00    -0.385 OA
HETATM   11  H26 UNL     1     -35.165  18.741  -3.044  1.00 20.00     0.211 HD
ENDBRANCH   1  10
TORSDOF 4
ENDMDL
MODEL 9
REMARK VINA RESULT:      -3.6     11.843     13.500
REMARK  4 active torsions:
REMARK  status: ('A' for Active; 'I' for Inactive)
REMARK    1  A    between atoms: C2_2  and  C9_9 
REMARK    2  A    between atoms: C5_5  and  C9_9 
REMARK    3  A    between atoms: C8_8  and  C9_9 
REMARK    4  A    between atoms: C9_9  and  O10_10 
ROOT
HETATM    1  C9  UNL     1     -33.963  17.151  -3.953  1.00 20.00     0.083 C 
ENDROOT
BRANCH   1   2
HETATM    2  C2  UNL     1     -34.206  17.660  -2.524  1.00 20.00    -0.059 C 
HETATM    3  C1  UNL     1     -33.513  17.241  -1.451  1.00 20.00     0.017 C 
HETATM    4  C6  UNL     1     -35.286  18.699  -2.340  1.00 20.00     0.046 C 
ENDBRANCH   1   2
BRANCH   1   5
HETATM    5  C5  UNL     1     -33.347  15.766  -4.079  1.00 20.00     0.024 A 
HETATM    6  C3  UNL     1     -34.198  14.539  -3.905  1.00 20.00     0.008 A 
HETATM    7  C4  UNL     1     -33.669  14.900  -5.264  1.00 20.00     0.008 A 
ENDBRANCH   1   5
BRANCH   1   8
HETATM    8  C8  UNL     1     -35.252  17.224  -4.816  1.00 20.00     0.038 C 
HETATM    9  C7  UNL     1     -35.183  18.166  -6.014  1.00 20.00     0.008 C 
ENDBRANCH   1   8
BRANCH   1  10
HETATM   10  O10 UNL     1     -33.034  18.056  -4.581  1.00 20.00    -0.385 OA
HETATM   11  H26 UNL     1     -33.476  18.914  -4.595  1.00 20.00     0.211 HD
ENDBRANCH   1  10
TORSDOF 4
ENDMDL
