MODEL 1
REMARK VINA RESULT:      -3.5      0.000      0.000
REMARK  2 active torsions:
REMARK  status: ('A' for Active; 'I' for Inactive)
REMARK    1  A    between atoms: C2_2  and  C7_7 
REMARK    2  A    between atoms: C7_7  and  O11_11 
ROOT
HETATM    1  C3  UNL     1     -33.115  15.600  -3.932  1.00 20.00     0.073 C 
HETATM    2  C4  UNL     1     -34.411  17.197  -5.397  1.00 20.00     0.073 C 
HETATM    3  C5  UNL     1     -33.699  16.324  -2.714  1.00 20.00     0.275 C 
HETATM    4  C6  UNL     1     -34.943  17.857  -4.121  1.00 20.00     0.275 C 
HETATM    5  C7  UNL     1     -34.006  15.740  -5.166  1.00 20.00     0.083 C 
HETATM    6  C9  UNL     1     -32.873  18.584  -3.072  1.00 20.00     0.309 C 
HETATM    7  N10 UNL     1     -34.052  17.728  -2.962  1.00 20.00     0.084 N 
ENDROOT
BRANCH   5   8
HETATM    8  C2  UNL     1     -35.207  14.840  -5.073  1.00 20.00    -0.059 C 
HETATM    9  C1  UNL     1     -35.202  13.727  -4.325  1.00 20.00     0.017 C 
HETATM   10  C8  UNL     1     -36.410  15.258  -5.865  1.00 20.00     0.046 C 
ENDBRANCH   5   8
BRANCH   5  11
HETATM   11  O11 UNL     1     -33.299  15.245  -6.299  1.00 20.00    -0.385 OA
HETATM   12  H28 UNL     1     -33.940  15.214  -7.024  1.00 20.00     0.211 HD
ENDBRANCH   5  11
TORSDOF 2
ENDMDL
MODEL 2
REMARK VINA RESULT:      -3.5      1.680      3.206
REMARK  2 active torsions:
REMARK  status: ('A' for Active; 'I' for Inactive)
REMARK    1  A    between atoms: C2_2  and  C7_7 
REMARK    2  A    between atoms: C7_7  and  O11_11 
ROOT
HETATM    1  C3  UNL     1     -34.442  17.206  -5.952  1.00 20.00     0.073 C 
HETATM    2  C4  UNL     1     -35.689  15.037  -6.300  1.00 20.00     0.073 C 
HETATM    3  C5  UNL     1     -35.713  17.775  -5.312  1.00 20.00     0.275 C 
HETATM    4  C6  UNL     1     -36.909  15.693  -5.646  1.00 20.00     0.275 C 
HETATM    5  C7  UNL     1     -34.377  15.682  -5.847  1.00 20.00     0.083 C 
HETATM    6  C9  UNL     1     -37.296  17.566  -7.148  1.00 20.00     0.309 C 
HETATM    7  N10 UNL     1     -36.955  17.153  -5.789  1.00 20.00     0.084 N 
ENDROOT
BRANCH   5   8
HETATM    8  C2  UNL     1     -34.000  15.250  -4.458  1.00 20.00    -0.059 C 
HETATM    9  C1  UNL     1     -34.333  14.045  -3.974  1.00 20.00     0.017 C 
HETATM   10  C8  UNL     1     -33.229  16.246  -3.642  1.00 20.00     0.046 C 
ENDBRANCH   5   8
BRANCH   5  11
HETATM   11  O11 UNL     1     -33.301  15.213  -6.652  1.00 20.00    -0.385 OA
HETATM   12  H28 UNL     1     -32.645  15.925  -6.667  1.00 20.00     0.211 HD
ENDBRANCH   5  11
TORSDOF 2
ENDMDL
MODEL 3
REMARK VINA RESULT:      -3.5      2.053      3.920
REMARK  2 active torsions:
REMARK  status: ('A' for Active; 'I' for Inactive)
REMARK    1  A    between atoms: C2_2  and  C7_7 
REMARK    2  A    between atoms: C7_7  and  O11_11 
ROOT
HETATM    1  C3  UNL     1     -34.564  17.808  -4.997  1.00 20.00     0.073 C 
HETATM    2  C4  UNL     1     -33.001  16.233  -3.791  1.00 20.00     0.073 C 
HETATM    3  C5  UNL     1     -35.552  16.644  -5.129  1.00 20.00     0.275 C 
HETATM    4  C6  UNL     1     -34.051  15.133  -3.972  1.00 20.00     0.275 C 
HETATM    5  C7  UNL     1     -33.623  17.631  -3.805  1.00 20.00     0.083 C 
HETATM    6  C9  UNL     1     -34.226  15.046  -6.397  1.00 20.00     0.309 C 
HETATM    7  N10 UNL     1     -34.920  15.319  -5.140  1.00 20.00     0.084 N 
ENDROOT
BRANCH   5   8
HETATM    8  C2  UNL     1     -34.323  17.937  -2.511  1.00 20.00    -0.059 C 
HETATM    9  C1  UNL     1     -35.430  18.693  -2.465  1.00 20.00     0.017 C 
HETATM   10  C8  UNL     1     -33.713  17.350  -1.273  1.00 20.00     0.046 C 
ENDBRANCH   5   8
BRANCH   5  11
HETATM   11  O11 UNL     1     -32.600  18.619  -3.880  1.00 20.00    -0.385 OA
HETATM   12  H28 UNL     1     -32.094  18.546  -3.057  1.00 20.00     0.211 HD
ENDBRANCH   5  11
TORSDOF 2
ENDMDL
MODEL 4
REMARK VINA RESULT:      -3.4     12.032     13.385
REMARK  2 active torsions:
REMARK  status: ('A' for Active; 'I' for Inactive)
REMARK    1  A    between atoms: C2_2  and  C7_7 
REMARK    2  A    between atoms: C7_7  and  O11_11 
ROOT
HETATM    1  C3  UNL     1     -33.925   6.060   3.082  1.00 20.00     0.073 C 
HETATM    2  C4  UNL     1     -34.325   7.610   5.036  1.00 20.00     0.073 C 
HETATM    3  C5  UNL     1     -32.444   6.451   3.142  1.00 20.00     0.275 C 
HETATM    4  C6  UNL     1     -32.830   7.939   5.017  1.00 20.00     0.275 C 
HETATM    5  C7  UNL     1     -34.621   6.235   4.433  1.00 20.00     0.083 C 
HETATM    6  C9  UNL     1     -32.579   8.853   2.778  1.00 20.00     0.309 C 
HETATM    7  N10 UNL     1     -32.198   7.787   3.701  1.00 20.00     0.084 N 
ENDROOT
BRANCH   5   8
HETATM    8  C2  UNL     1     -34.255   5.126   5.379  1.00 20.00    -0.059 C 
HETATM    9  C1  UNL     1     -34.402   5.249   6.706  1.00 20.00     0.017 C 
HETATM   10  C8  UNL     1     -33.716   3.873   4.753  1.00 20.00     0.046 C 
ENDBRANCH   5   8
BRANCH   5  11
HETATM   11  O11 UNL     1     -36.024   6.075   4.248  1.00 20.00    -0.385 OA
HETATM   12  H28 UNL     1     -36.178   6.125   3.294  1.00 20.00     0.211 HD
ENDBRANCH   5  11
TORSDOF 2
ENDMDL
MODEL 5
REMARK VINA RESULT:      -3.4      2.099      3.458
REMARK  2 active torsions:
REMARK  status: ('A' for Active; 'I' for Inactive)
REMARK    1  A    between atoms: C2_2  and  C7_7 
REMARK    2  A    between atoms: C7_7  and  O11_11 
ROOT
HETATM    1  C3  UNL     1     -34.877  19.025  -3.486  1.00 20.00     0.073 C 
HETATM    2  C4  UNL     1     -34.669  17.416  -5.422  1.00 20.00     0.073 C 
HETATM    3  C5  UNL     1     -36.316  18.533  -3.298  1.00 20.00     0.275 C 
HETATM    4  C6  UNL     1     -36.115  16.989  -5.156  1.00 20.00     0.275 C 
HETATM    5  C7  UNL     1     -33.995  17.979  -4.168  1.00 20.00     0.083 C 
HETATM    6  C9  UNL     1     -37.290  19.098  -5.455  1.00 20.00     0.309 C 
HETATM    7  N10 UNL     1     -36.942  18.025  -4.526  1.00 20.00     0.084 N 
ENDROOT
BRANCH   5   8
HETATM    8  C2  UNL     1     -33.610  16.887  -3.210  1.00 20.00    -0.059 C 
HETATM    9  C1  UNL     1     -33.528  17.100  -1.888  1.00 20.00     0.017 C 
HETATM   10  C8  UNL     1     -33.322  15.546  -3.816  1.00 20.00     0.046 C 
ENDBRANCH   5   8
BRANCH   5  11
HETATM   11  O11 UNL     1     -32.752  18.582  -4.512  1.00 20.00    -0.385 OA
HETATM   12  H28 UNL     1     -32.710  19.414  -4.019  1.00 20.00     0.211 HD
ENDBRANCH   5  11
TORSDOF 2
ENDMDL
MODEL 6
REMARK VINA RESULT:      -3.3      3.908      4.932
REMARK  2 active torsions:
REMARK  status: ('A' for Active; 'I' for Inactive)
REMARK    1  A    between atoms: C2_2  and  C7_7 
REMARK    2  A    between atoms: C7_7  and  O11_11 
ROOT
HETATM    1  C3  UNL     1     -34.069  17.815   0.015  1.00 20.00     0.073 C 
HETATM    2  C4  UNL     1     -31.917  18.038  -1.287  1.00 20.00     0.073 C 
HETATM    3  C5  UNL     1     -33.650  19.050   0.820  1.00 20.00     0.275 C 
HETATM    4  C6  UNL     1     -31.584  19.263  -0.431  1.00 20.00     0.275 C 
HETATM    5  C7  UNL     1     -33.423  17.785  -1.371  1.00 20.00     0.083 C 
HETATM    6  C9  UNL     1     -31.556  18.284   1.796  1.00 20.00     0.309 C 
HETATM    7  N10 UNL     1     -32.197  19.248   0.903  1.00 20.00     0.084 N 
ENDROOT
BRANCH   5   8
HETATM    8  C2  UNL     1     -34.096  18.754  -2.303  1.00 20.00    -0.059 C 
HETATM    9  C1  UNL     1     -33.504  19.183  -3.427  1.00 20.00     0.017 C 
HETATM   10  C8  UNL     1     -35.467  19.214  -1.903  1.00 20.00     0.046 C 
ENDBRANCH   5   8
BRANCH   5  11
HETATM   11  O11 UNL     1     -33.672  16.515  -1.964  1.00 20.00    -0.385 OA
HETATM   12  H28 UNL     1     -33.163  16.497  -2.787  1.00 20.00     0.211 HD
ENDBRANCH   5  11
TORSDOF 2
ENDMDL
MODEL 7
REMARK VINA RESULT:      -3.2     12.863     13.686
REMARK  2 active torsions:
REMARK  status: ('A' for Active; 'I' for Inactive)
REMARK    1  A    between atoms: C2_2  and  C7_7 
REMARK    2  A    between atoms: C7_7  and  O11_11 
ROOT
HETATM    1  C3  UNL     1     -42.668  14.260   6.389  1.00 20.00     0.073 C 
HETATM    2  C4  UNL     1     -40.827  14.003   8.098  1.00 20.00     0.073 C 
HETATM    3  C5  UNL     1     -42.162  15.683   6.133  1.00 20.00     0.275 C 
HETATM    4  C6  UNL     1     -40.395  15.437   7.774  1.00 20.00     0.275 C 
HETATM    5  C7  UNL     1     -41.568  13.347   6.932  1.00 20.00     0.083 C 
HETATM    6  C9  UNL     1     -42.411  16.673   8.342  1.00 20.00     0.309 C 
HETATM    7  N10 UNL     1     -41.480  16.294   7.282  1.00 20.00     0.084 N 
ENDROOT
BRANCH   5   8
HETATM    8  C2  UNL     1     -40.622  12.930   5.840  1.00 20.00    -0.059 C 
HETATM    9  C1  UNL     1     -40.840  13.245   4.555  1.00 20.00     0.017 C 
HETATM   10  C8  UNL     1     -39.421  12.142   6.271  1.00 20.00     0.046 C 
ENDBRANCH   5   8
BRANCH   5  11
HETATM   11  O11 UNL     1     -42.157  12.122   7.356  1.00 20.00    -0.385 OA
HETATM   12  H28 UNL     1     -43.060  12.338   7.630  1.00 20.00     0.211 HD
ENDBRANCH   5  11
TORSDOF 2
ENDMDL
MODEL 8
REMARK VINA RESULT:      -3.2      2.138      3.374
REMARK  2 active torsions:
REMARK  status: ('A' for Active; 'I' for Inactive)
REMARK    1  A    between atoms: C2_2  and  C7_7 
REMARK    2  A    between atoms: C7_7  and  O11_11 
ROOT
HETATM    1  C3  UNL     1     -34.773  15.148  -6.545  1.00 20.00     0.073 C 
HETATM    2  C4  UNL     1     -35.615  16.893  -4.925  1.00 20.00     0.073 C 
HETATM    3  C5  UNL     1     -34.073  16.274  -7.313  1.00 20.00     0.275 C 
HETATM    4  C6  UNL     1     -34.882  17.948  -5.758  1.00 20.00     0.275 C 
HETATM    5  C7  UNL     1     -34.990  15.505  -5.074  1.00 20.00     0.083 C 
HETATM    6  C9  UNL     1     -35.967  17.677  -7.918  1.00 20.00     0.309 C 
HETATM    7  N10 UNL     1     -34.714  17.588  -7.171  1.00 20.00     0.084 N 
ENDROOT
BRANCH   5   8
HETATM    8  C2  UNL     1     -33.711  15.387  -4.293  1.00 20.00    -0.059 C 
HETATM    9  C1  UNL     1     -32.787  14.459  -4.582  1.00 20.00     0.017 C 
HETATM   10  C8  UNL     1     -33.527  16.367  -3.173  1.00 20.00     0.046 C 
ENDBRANCH   5   8
BRANCH   5  11
HETATM   11  O11 UNL     1     -35.838  14.523  -4.486  1.00 20.00    -0.385 OA
HETATM   12  H28 UNL     1     -36.129  13.949  -5.209  1.00 20.00     0.211 HD
ENDBRANCH   5  11
TORSDOF 2
ENDMDL
MODEL 9
REMARK VINA RESULT:      -3.2      1.726      2.571
REMARK  2 active torsions:
REMARK  status: ('A' for Active; 'I' for Inactive)
REMARK    1  A    between atoms: C2_2  and  C7_7 
REMARK    2  A    between atoms: C7_7  and  O11_11 
ROOT
HETATM    1  C3  UNL     1     -35.410  17.081  -4.721  1.00 20.00     0.073 C 
HETATM    2  C4  UNL     1     -34.340  14.794  -4.636  1.00 20.00     0.073 C 
HETATM    3  C5  UNL     1     -34.047  17.676  -4.350  1.00 20.00     0.275 C 
HETATM    4  C6  UNL     1     -33.021  15.481  -4.268  1.00 20.00     0.275 C 
HETATM    5  C7  UNL     1     -35.275  15.723  -5.412  1.00 20.00     0.083 C 
HETATM    6  C9  UNL     1     -33.639  16.607  -2.202  1.00 20.00     0.309 C 
HETATM    7  N10 UNL     1     -33.185  16.768  -3.582  1.00 20.00     0.084 N 
ENDROOT
BRANCH   5   8
HETATM    8  C2  UNL     1     -34.836  15.883  -6.840  1.00 20.00    -0.059 C 
HETATM    9  C1  UNL     1     -33.799  15.197  -7.344  1.00 20.00     0.017 C 
HETATM   10  C8  UNL     1     -35.622  16.854  -7.670  1.00 20.00     0.046 C 
ENDBRANCH   5   8
BRANCH   5  11
HETATM   11  O11 UNL     1     -36.568  15.134  -5.519  1.00 20.00    -0.385 OA
HETATM   12  H28 UNL     1     -37.147  15.820  -5.883  1.00 20.00     0.211 HD
ENDBRANCH   5  11
TORSDOF 2
ENDMDL
