MODEL 1
REMARK VINA RESULT:      -4.3      0.000      0.000
REMARK  2 active torsions:
REMARK  status: ('A' for Active; 'I' for Inactive)
REMARK    1  A    between atoms: C3_3  and  C11_11 
REMARK    2  A    between atoms: C9_9  and  C11_11 
ROOT
HETATM    1  C1  UNL     1     -40.970  14.172   8.363  1.00 20.00     0.127 C 
HETATM    2  C4  UNL     1     -42.454  14.206   8.639  1.00 20.00     0.078 C 
HETATM    3  C5  UNL     1     -40.504  14.532   6.971  1.00 20.00     0.083 C 
HETATM    4  C6  UNL     1     -43.103  12.918   8.163  1.00 20.00     0.007 C 
HETATM    5  C7  UNL     1     -43.416  12.854   6.668  1.00 20.00     0.001 C 
HETATM    6  C8  UNL     1     -42.560  13.686   5.711  1.00 20.00     0.005 C 
HETATM    7  C9  UNL     1     -41.033  13.617   5.862  1.00 20.00    -0.004 C 
HETATM    8  O12 UNL     1     -40.165  13.868   9.244  1.00 20.00    -0.298 OA
ENDROOT
BRANCH   7   9
HETATM    9  C11 UNL     1     -40.495  12.190   5.970  1.00 20.00     0.037 C 
BRANCH   9  10
HETATM   10  C3  UNL     1     -39.202  12.009   5.223  1.00 20.00    -0.093 C 
HETATM   11  C2  UNL     1     -39.187  11.695   3.918  1.00 20.00     0.014 C 
HETATM   12  C10 UNL     1     -37.930  12.148   6.009  1.00 20.00     0.042 C 
ENDBRANCH   9  10
ENDBRANCH   7   9
TORSDOF 2
ENDMDL
MODEL 2
REMARK VINA RESULT:      -4.2     10.919     12.519
REMARK  2 active torsions:
REMARK  status: ('A' for Active; 'I' for Inactive)
REMARK    1  A    between atoms: C3_3  and  C11_11 
REMARK    2  A    between atoms: C9_9  and  C11_11 
ROOT
HETATM    1  C1  UNL     1     -31.421  18.868  -0.401  1.00 20.00     0.127 C 
HETATM    2  C4  UNL     1     -32.053  19.263   0.913  1.00 20.00     0.078 C 
HETATM    3  C5  UNL     1     -32.146  19.242  -1.672  1.00 20.00     0.083 C 
HETATM    4  C6  UNL     1     -33.117  18.253   1.305  1.00 20.00     0.007 C 
HETATM    5  C7  UNL     1     -34.477  18.438   0.632  1.00 20.00     0.001 C 
HETATM    6  C8  UNL     1     -34.523  19.114  -0.740  1.00 20.00     0.005 C 
HETATM    7  C9  UNL     1     -33.542  18.627  -1.817  1.00 20.00    -0.004 C 
HETATM    8  O12 UNL     1     -30.346  18.267  -0.435  1.00 20.00    -0.298 OA
ENDROOT
BRANCH   7   9
HETATM    9  C11 UNL     1     -33.502  17.106  -1.963  1.00 20.00     0.037 C 
BRANCH   9  10
HETATM   10  C3  UNL     1     -33.662  16.664  -3.391  1.00 20.00    -0.093 C 
HETATM   11  C2  UNL     1     -33.298  15.434  -3.787  1.00 20.00     0.014 C 
HETATM   12  C10 UNL     1     -34.204  17.670  -4.366  1.00 20.00     0.042 C 
ENDBRANCH   9  10
ENDBRANCH   7   9
TORSDOF 2
ENDMDL
MODEL 3
REMARK VINA RESULT:      -4.0     11.769     13.278
REMARK  2 active torsions:
REMARK  status: ('A' for Active; 'I' for Inactive)
REMARK    1  A    between atoms: C3_3  and  C11_11 
REMARK    2  A    between atoms: C9_9  and  C11_11 
ROOT
HETATM    1  C1  UNL     1     -35.195  17.318  -4.746  1.00 20.00     0.127 C 
HETATM    2  C4  UNL     1     -35.359  16.040  -5.533  1.00 20.00     0.078 C 
HETATM    3  C5  UNL     1     -33.794  17.734  -4.362  1.00 20.00     0.083 C 
HETATM    4  C6  UNL     1     -35.335  14.844  -4.598  1.00 20.00     0.007 C 
HETATM    5  C7  UNL     1     -33.944  14.368  -4.176  1.00 20.00     0.001 C 
HETATM    6  C8  UNL     1     -32.804  15.387  -4.155  1.00 20.00     0.005 C 
HETATM    7  C9  UNL     1     -33.054  16.737  -3.465  1.00 20.00    -0.004 C 
HETATM    8  O12 UNL     1     -36.170  18.003  -4.434  1.00 20.00    -0.298 OA
ENDROOT
BRANCH   7   9
HETATM    9  C11 UNL     1     -33.689  16.605  -2.081  1.00 20.00     0.037 C 
BRANCH   9  10
HETATM   10  C3  UNL     1     -33.469  17.827  -1.232  1.00 20.00    -0.093 C 
HETATM   11  C2  UNL     1     -34.499  18.577  -0.808  1.00 20.00     0.014 C 
HETATM   12  C10 UNL     1     -32.049  18.200  -0.919  1.00 20.00     0.042 C 
ENDBRANCH   9  10
ENDBRANCH   7   9
TORSDOF 2
ENDMDL
MODEL 4
REMARK VINA RESULT:      -3.7     11.619     12.565
REMARK  2 active torsions:
REMARK  status: ('A' for Active; 'I' for Inactive)
REMARK    1  A    between atoms: C3_3  and  C11_11 
REMARK    2  A    between atoms: C9_9  and  C11_11 
ROOT
HETATM    1  C1  UNL     1     -33.802  18.154  -0.765  1.00 20.00     0.127 C 
HETATM    2  C4  UNL     1     -34.680  19.261  -1.301  1.00 20.00     0.078 C 
HETATM    3  C5  UNL     1     -32.623  17.722  -1.604  1.00 20.00     0.083 C 
HETATM    4  C6  UNL     1     -35.681  18.698  -2.294  1.00 20.00     0.007 C 
HETATM    5  C7  UNL     1     -35.148  18.479  -3.710  1.00 20.00     0.001 C 
HETATM    6  C8  UNL     1     -33.652  18.217  -3.891  1.00 20.00     0.005 C 
HETATM    7  C9  UNL     1     -32.988  17.168  -2.985  1.00 20.00    -0.004 C 
HETATM    8  O12 UNL     1     -34.036  17.627   0.324  1.00 20.00    -0.298 OA
ENDROOT
BRANCH   7   9
HETATM    9  C11 UNL     1     -33.763  15.853  -2.905  1.00 20.00     0.037 C 
BRANCH   9  10
HETATM   10  C3  UNL     1     -33.640  15.039  -4.164  1.00 20.00    -0.093 C 
HETATM   11  C2  UNL     1     -32.495  14.416  -4.483  1.00 20.00     0.014 C 
HETATM   12  C10 UNL     1     -34.836  14.990  -5.070  1.00 20.00     0.042 C 
ENDBRANCH   9  10
ENDBRANCH   7   9
TORSDOF 2
ENDMDL
MODEL 5
REMARK VINA RESULT:      -3.6     12.917     14.046
REMARK  2 active torsions:
REMARK  status: ('A' for Active; 'I' for Inactive)
REMARK    1  A    between atoms: C3_3  and  C11_11 
REMARK    2  A    between atoms: C9_9  and  C11_11 
ROOT
HETATM    1  C1  UNL     1     -33.946  14.781  -4.497  1.00 20.00     0.127 C 
HETATM    2  C4  UNL     1     -33.107  15.809  -3.774  1.00 20.00     0.078 C 
HETATM    3  C5  UNL     1     -34.334  15.070  -5.928  1.00 20.00     0.083 C 
HETATM    4  C6  UNL     1     -33.992  16.920  -3.237  1.00 20.00     0.007 C 
HETATM    5  C7  UNL     1     -34.380  17.997  -4.250  1.00 20.00     0.001 C 
HETATM    6  C8  UNL     1     -34.433  17.617  -5.730  1.00 20.00     0.005 C 
HETATM    7  C9  UNL     1     -35.181  16.332  -6.119  1.00 20.00    -0.004 C 
HETATM    8  O12 UNL     1     -34.295  13.739  -3.941  1.00 20.00    -0.298 OA
ENDROOT
BRANCH   7   9
HETATM    9  C11 UNL     1     -36.564  16.215  -5.480  1.00 20.00     0.037 C 
BRANCH   9  10
HETATM   10  C3  UNL     1     -37.563  17.152  -6.100  1.00 20.00    -0.093 C 
HETATM   11  C2  UNL     1     -37.885  17.069  -7.401  1.00 20.00     0.014 C 
HETATM   12  C10 UNL     1     -38.152  18.214  -5.216  1.00 20.00     0.042 C 
ENDBRANCH   9  10
ENDBRANCH   7   9
TORSDOF 2
ENDMDL
MODEL 6
REMARK VINA RESULT:      -3.5     12.869     14.322
REMARK  2 active torsions:
REMARK  status: ('A' for Active; 'I' for Inactive)
REMARK    1  A    between atoms: C3_3  and  C11_11 
REMARK    2  A    between atoms: C9_9  and  C11_11 
ROOT
HETATM    1  C1  UNL     1     -37.453  16.557  -6.159  1.00 20.00     0.127 C 
HETATM    2  C4  UNL     1     -37.128  16.542  -7.634  1.00 20.00     0.078 C 
HETATM    3  C5  UNL     1     -36.608  17.430  -5.261  1.00 20.00     0.083 C 
HETATM    4  C6  UNL     1     -35.978  15.589  -7.906  1.00 20.00     0.007 C 
HETATM    5  C7  UNL     1     -34.582  16.152  -7.638  1.00 20.00     0.001 C 
HETATM    6  C8  UNL     1     -34.435  17.262  -6.596  1.00 20.00     0.005 C 
HETATM    7  C9  UNL     1     -35.119  17.069  -5.234  1.00 20.00    -0.004 C 
HETATM    8  O12 UNL     1     -38.381  15.886  -5.704  1.00 20.00    -0.298 OA
ENDROOT
BRANCH   7   9
HETATM    9  C11 UNL     1     -34.857  15.700  -4.608  1.00 20.00     0.037 C 
BRANCH   9  10
HETATM   10  C3  UNL     1     -33.542  15.645  -3.880  1.00 20.00    -0.093 C 
HETATM   11  C2  UNL     1     -32.568  14.804  -4.261  1.00 20.00     0.014 C 
HETATM   12  C10 UNL     1     -33.382  16.538  -2.683  1.00 20.00     0.042 C 
ENDBRANCH   9  10
ENDBRANCH   7   9
TORSDOF 2
ENDMDL
MODEL 7
REMARK VINA RESULT:      -3.5      1.896      3.952
REMARK  2 active torsions:
REMARK  status: ('A' for Active; 'I' for Inactive)
REMARK    1  A    between atoms: C3_3  and  C11_11 
REMARK    2  A    between atoms: C9_9  and  C11_11 
ROOT
HETATM    1  C1  UNL     1     -42.772  13.254   8.152  1.00 20.00     0.127 C 
HETATM    2  C4  UNL     1     -42.742  12.279   6.999  1.00 20.00     0.078 C 
HETATM    3  C5  UNL     1     -43.068  14.702   7.842  1.00 20.00     0.083 C 
HETATM    4  C6  UNL     1     -41.394  12.334   6.303  1.00 20.00     0.007 C 
HETATM    5  C7  UNL     1     -41.219  13.474   5.300  1.00 20.00     0.001 C 
HETATM    6  C8  UNL     1     -42.035  14.752   5.504  1.00 20.00     0.005 C 
HETATM    7  C9  UNL     1     -42.058  15.377   6.908  1.00 20.00    -0.004 C 
HETATM    8  O12 UNL     1     -42.568  12.880   9.308  1.00 20.00    -0.298 OA
ENDROOT
BRANCH   7   9
HETATM    9  C11 UNL     1     -40.673  15.511   7.539  1.00 20.00     0.037 C 
BRANCH   9  10
HETATM   10  C3  UNL     1     -40.716  16.204   8.873  1.00 20.00    -0.093 C 
HETATM   11  C2  UNL     1     -41.134  17.474   8.988  1.00 20.00     0.014 C 
HETATM   12  C10 UNL     1     -40.230  15.430  10.065  1.00 20.00     0.042 C 
ENDBRANCH   9  10
ENDBRANCH   7   9
TORSDOF 2
ENDMDL
MODEL 8
REMARK VINA RESULT:      -3.5     12.635     13.926
REMARK  2 active torsions:
REMARK  status: ('A' for Active; 'I' for Inactive)
REMARK    1  A    between atoms: C3_3  and  C11_11 
REMARK    2  A    between atoms: C9_9  and  C11_11 
ROOT
HETATM    1  C1  UNL     1     -34.310  15.409  -4.857  1.00 20.00     0.127 C 
HETATM    2  C4  UNL     1     -33.128  15.522  -3.923  1.00 20.00     0.078 C 
HETATM    3  C5  UNL     1     -34.549  16.539  -5.830  1.00 20.00     0.083 C 
HETATM    4  C6  UNL     1     -33.488  16.384  -2.727  1.00 20.00     0.007 C 
HETATM    5  C7  UNL     1     -33.408  17.893  -2.958  1.00 20.00     0.001 C 
HETATM    6  C8  UNL     1     -33.611  18.422  -4.379  1.00 20.00     0.005 C 
HETATM    7  C9  UNL     1     -34.814  17.900  -5.179  1.00 20.00    -0.004 C 
HETATM    8  O12 UNL     1     -35.051  14.425  -4.830  1.00 20.00    -0.298 OA
ENDROOT
BRANCH   7   9
HETATM    9  C11 UNL     1     -36.126  17.932  -4.396  1.00 20.00     0.037 C 
BRANCH   9  10
HETATM   10  C3  UNL     1     -37.321  17.671  -5.272  1.00 20.00    -0.093 C 
HETATM   11  C2  UNL     1     -38.095  16.589  -5.093  1.00 20.00     0.014 C 
HETATM   12  C10 UNL     1     -37.586  18.646  -6.383  1.00 20.00     0.042 C 
ENDBRANCH   9  10
ENDBRANCH   7   9
TORSDOF 2
ENDMDL
MODEL 9
REMARK VINA RESULT:      -3.4      1.610      2.751
REMARK  2 active torsions:
REMARK  status: ('A' for Active; 'I' for Inactive)
REMARK    1  A    between atoms: C3_3  and  C11_11 
REMARK    2  A    between atoms: C9_9  and  C11_11 
ROOT
HETATM    1  C1  UNL     1     -41.324  14.389  10.062  1.00 20.00     0.127 C 
HETATM    2  C4  UNL     1     -42.097  15.673  10.251  1.00 20.00     0.078 C 
HETATM    3  C5  UNL     1     -40.182  14.395   9.074  1.00 20.00     0.083 C 
HETATM    4  C6  UNL     1     -43.137  15.823   9.154  1.00 20.00     0.007 C 
HETATM    5  C7  UNL     1     -42.615  16.371   7.826  1.00 20.00     0.001 C 
HETATM    6  C8  UNL     1     -41.147  16.135   7.469  1.00 20.00     0.005 C 
HETATM    7  C9  UNL     1     -40.584  14.714   7.630  1.00 20.00    -0.004 C 
HETATM    8  O12 UNL     1     -41.611  13.374  10.697  1.00 20.00    -0.298 OA
ENDROOT
BRANCH   7   9
HETATM    9  C11 UNL     1     -41.472  13.633   7.015  1.00 20.00     0.037 C 
BRANCH   9  10
HETATM   10  C3  UNL     1     -41.113  13.344   5.583  1.00 20.00    -0.093 C 
HETATM   11  C2  UNL     1     -40.134  12.482   5.269  1.00 20.00     0.014 C 
HETATM   12  C10 UNL     1     -41.864  14.095   4.521  1.00 20.00     0.042 C 
ENDBRANCH   9  10
ENDBRANCH   7   9
TORSDOF 2
ENDMDL
