MODEL 1
REMARK VINA RESULT:      -3.4      0.000      0.000
REMARK  3 active torsions:
REMARK  status: ('A' for Active; 'I' for Inactive)
REMARK    1  A    between atoms: C1_1  and  C7_7 
REMARK    2  A    between atoms: C1_1  and  C8_8 
REMARK    3  A    between atoms: C8_8  and  O10_10 
ROOT
HETATM    1  C1  UNL     1     -33.707  15.688  -4.274  1.00 20.00     0.163 C 
HETATM    2  O9  UNL     1     -32.616  15.118  -4.183  1.00 20.00    -0.294 OA
ENDROOT
BRANCH   1   3
HETATM    3  C7  UNL     1     -33.983  16.965  -3.480  1.00 20.00     0.050 C 
HETATM    4  C2  UNL     1     -33.516  16.782  -2.040  1.00 20.00     0.017 C 
HETATM    5  C3  UNL     1     -33.284  18.144  -4.146  1.00 20.00     0.017 C 
ENDBRANCH   1   3
BRANCH   1   6
HETATM    6  C8  UNL     1     -34.817  15.140  -5.179  1.00 20.00     0.113 C 
HETATM    7  C4  UNL     1     -35.867  16.209  -5.460  1.00 20.00     0.054 C 
HETATM    8  C5  UNL     1     -35.438  13.873  -4.599  1.00 20.00     0.054 C 
BRANCH   6   9
HETATM    9  O10 UNL     1     -34.218  14.809  -6.432  1.00 20.00    -0.378 OA
HETATM   10  C6  UNL     1     -34.280  15.900  -7.338  1.00 20.00     0.203 C 
ENDBRANCH   6   9
ENDBRANCH   1   6
TORSDOF 3
ENDMDL
MODEL 2
REMARK VINA RESULT:      -3.3     12.817     13.930
REMARK  3 active torsions:
REMARK  status: ('A' for Active; 'I' for Inactive)
REMARK    1  A    between atoms: C1_1  and  C7_7 
REMARK    2  A    between atoms: C1_1  and  C8_8 
REMARK    3  A    between atoms: C8_8  and  O10_10 
ROOT
HETATM    1  C1  UNL     1     -40.971  13.981   7.648  1.00 20.00     0.163 C 
HETATM    2  O9  UNL     1     -40.125  13.681   8.495  1.00 20.00    -0.294 OA
ENDROOT
BRANCH   1   3
HETATM    3  C7  UNL     1     -41.617  15.366   7.654  1.00 20.00     0.050 C 
HETATM    4  C2  UNL     1     -42.580  15.476   8.830  1.00 20.00     0.017 C 
HETATM    5  C3  UNL     1     -40.534  16.437   7.721  1.00 20.00     0.017 C 
ENDBRANCH   1   3
BRANCH   1   6
HETATM    6  C8  UNL     1     -41.402  12.981   6.567  1.00 20.00     0.113 C 
HETATM    7  C4  UNL     1     -41.500  13.660   5.206  1.00 20.00     0.054 C 
HETATM    8  C5  UNL     1     -42.702  12.276   6.944  1.00 20.00     0.054 C 
BRANCH   6   9
HETATM    9  O10 UNL     1     -40.374  11.996   6.467  1.00 20.00    -0.378 OA
HETATM   10  C6  UNL     1     -39.661  12.118   5.245  1.00 20.00     0.203 C 
ENDBRANCH   6   9
ENDBRANCH   1   6
TORSDOF 3
ENDMDL
MODEL 3
REMARK VINA RESULT:      -3.3     13.283     14.823
REMARK  3 active torsions:
REMARK  status: ('A' for Active; 'I' for Inactive)
REMARK    1  A    between atoms: C1_1  and  C7_7 
REMARK    2  A    between atoms: C1_1  and  C8_8 
REMARK    3  A    between atoms: C8_8  and  O10_10 
ROOT
HETATM    1  C1  UNL     1     -41.453  13.330   7.298  1.00 20.00     0.163 C 
HETATM    2  O9  UNL     1     -42.299  12.447   7.460  1.00 20.00    -0.294 OA
ENDROOT
BRANCH   1   3
HETATM    3  C7  UNL     1     -40.641  13.399   6.005  1.00 20.00     0.050 C 
HETATM    4  C2  UNL     1     -39.951  12.062   5.763  1.00 20.00     0.017 C 
HETATM    5  C3  UNL     1     -41.557  13.770   4.844  1.00 20.00     0.017 C 
ENDBRANCH   1   3
BRANCH   1   6
HETATM    6  C8  UNL     1     -41.187  14.384   8.381  1.00 20.00     0.113 C 
HETATM    7  C4  UNL     1     -42.490  14.846   9.023  1.00 20.00     0.054 C 
HETATM    8  C5  UNL     1     -40.376  15.555   7.835  1.00 20.00     0.054 C 
BRANCH   6   9
HETATM    9  O10 UNL     1     -40.421  13.752   9.407  1.00 20.00    -0.378 OA
HETATM   10  C6  UNL     1     -40.718  14.299  10.683  1.00 20.00     0.203 C 
ENDBRANCH   6   9
ENDBRANCH   1   6
TORSDOF 3
ENDMDL
MODEL 4
REMARK VINA RESULT:      -3.2      0.951      1.600
REMARK  3 active torsions:
REMARK  status: ('A' for Active; 'I' for Inactive)
REMARK    1  A    between atoms: C1_1  and  C7_7 
REMARK    2  A    between atoms: C1_1  and  C8_8 
REMARK    3  A    between atoms: C8_8  and  O10_10 
ROOT
HETATM    1  C1  UNL     1     -33.654  15.859  -4.140  1.00 20.00     0.163 C 
HETATM    2  O9  UNL     1     -32.584  15.261  -4.002  1.00 20.00    -0.294 OA
ENDROOT
BRANCH   1   3
HETATM    3  C7  UNL     1     -33.947  17.121  -3.328  1.00 20.00     0.050 C 
HETATM    4  C2  UNL     1     -33.506  16.914  -1.884  1.00 20.00     0.017 C 
HETATM    5  C3  UNL     1     -33.239  18.313  -3.960  1.00 20.00     0.017 C 
ENDBRANCH   1   3
BRANCH   1   6
HETATM    6  C8  UNL     1     -34.722  15.362  -5.123  1.00 20.00     0.113 C 
HETATM    7  C4  UNL     1     -35.326  14.046  -4.649  1.00 20.00     0.054 C 
HETATM    8  C5  UNL     1     -34.170  15.255  -6.541  1.00 20.00     0.054 C 
BRANCH   6   9
HETATM    9  O10 UNL     1     -35.775  16.325  -5.127  1.00 20.00    -0.378 OA
HETATM   10  C6  UNL     1     -36.476  16.316  -6.362  1.00 20.00     0.203 C 
ENDBRANCH   6   9
ENDBRANCH   1   6
TORSDOF 3
ENDMDL
MODEL 5
REMARK VINA RESULT:      -3.1     12.198     13.399
REMARK  3 active torsions:
REMARK  status: ('A' for Active; 'I' for Inactive)
REMARK    1  A    between atoms: C1_1  and  C7_7 
REMARK    2  A    between atoms: C1_1  and  C8_8 
REMARK    3  A    between atoms: C8_8  and  O10_10 
ROOT
HETATM    1  C1  UNL     1     -33.546   7.107   5.246  1.00 20.00     0.163 C 
HETATM    2  O9  UNL     1     -33.182   7.257   6.415  1.00 20.00    -0.294 OA
ENDROOT
BRANCH   1   3
HETATM    3  C7  UNL     1     -33.081   8.075   4.159  1.00 20.00     0.050 C 
HETATM    4  C2  UNL     1     -32.315   9.229   4.796  1.00 20.00     0.017 C 
HETATM    5  C3  UNL     1     -32.221   7.331   3.143  1.00 20.00     0.017 C 
ENDBRANCH   1   3
BRANCH   1   6
HETATM    6  C8  UNL     1     -34.472   5.952   4.843  1.00 20.00     0.113 C 
HETATM    7  C4  UNL     1     -35.761   6.479   4.224  1.00 20.00     0.054 C 
HETATM    8  C5  UNL     1     -34.748   5.019   6.019  1.00 20.00     0.054 C 
BRANCH   6   9
HETATM    9  O10 UNL     1     -33.801   5.203   3.830  1.00 20.00    -0.378 OA
HETATM   10  C6  UNL     1     -33.643   3.845   4.212  1.00 20.00     0.203 C 
ENDBRANCH   6   9
ENDBRANCH   1   6
TORSDOF 3
ENDMDL
MODEL 6
REMARK VINA RESULT:      -3.1      1.385      1.934
REMARK  3 active torsions:
REMARK  status: ('A' for Active; 'I' for Inactive)
REMARK    1  A    between atoms: C1_1  and  C7_7 
REMARK    2  A    between atoms: C1_1  and  C8_8 
REMARK    3  A    between atoms: C8_8  and  O10_10 
ROOT
HETATM    1  C1  UNL     1     -34.561  16.745  -4.416  1.00 20.00     0.163 C 
HETATM    2  O9  UNL     1     -35.592  17.420  -4.466  1.00 20.00    -0.294 OA
ENDROOT
BRANCH   1   3
HETATM    3  C7  UNL     1     -33.354  17.229  -3.613  1.00 20.00     0.050 C 
HETATM    4  C2  UNL     1     -33.102  18.703  -3.908  1.00 20.00     0.017 C 
HETATM    5  C3  UNL     1     -33.600  16.994  -2.127  1.00 20.00     0.017 C 
ENDBRANCH   1   3
BRANCH   1   6
HETATM    6  C8  UNL     1     -34.452  15.405  -5.155  1.00 20.00     0.113 C 
HETATM    7  C4  UNL     1     -35.825  14.766  -5.328  1.00 20.00     0.054 C 
HETATM    8  C5  UNL     1     -33.471  14.463  -4.464  1.00 20.00     0.054 C 
BRANCH   6   9
HETATM    9  O10 UNL     1     -33.956  15.682  -6.464  1.00 20.00    -0.378 OA
HETATM   10  C6  UNL     1     -34.986  15.586  -7.437  1.00 20.00     0.203 C 
ENDBRANCH   6   9
ENDBRANCH   1   6
TORSDOF 3
ENDMDL
MODEL 7
REMARK VINA RESULT:      -3.1     12.913     14.410
REMARK  3 active torsions:
REMARK  status: ('A' for Active; 'I' for Inactive)
REMARK    1  A    between atoms: C1_1  and  C7_7 
REMARK    2  A    between atoms: C1_1  and  C8_8 
REMARK    3  A    between atoms: C8_8  and  O10_10 
ROOT
HETATM    1  C1  UNL     1     -41.381  13.595   7.421  1.00 20.00     0.163 C 
HETATM    2  O9  UNL     1     -42.144  12.708   7.811  1.00 20.00    -0.294 OA
ENDROOT
BRANCH   1   3
HETATM    3  C7  UNL     1     -40.675  13.474   6.071  1.00 20.00     0.050 C 
HETATM    4  C2  UNL     1     -40.127  12.061   5.906  1.00 20.00     0.017 C 
HETATM    5  C3  UNL     1     -41.647  13.828   4.951  1.00 20.00     0.017 C 
ENDBRANCH   1   3
BRANCH   1   6
HETATM    6  C8  UNL     1     -41.114  14.844   8.272  1.00 20.00     0.113 C 
HETATM    7  C4  UNL     1     -40.415  14.475   9.575  1.00 20.00     0.054 C 
HETATM    8  C5  UNL     1     -42.394  15.637   8.519  1.00 20.00     0.054 C 
BRANCH   6   9
HETATM    9  O10 UNL     1     -40.212  15.672   7.538  1.00 20.00    -0.378 OA
HETATM   10  C6  UNL     1     -40.680  17.010   7.471  1.00 20.00     0.203 C 
ENDBRANCH   6   9
ENDBRANCH   1   6
TORSDOF 3
ENDMDL
MODEL 8
REMARK VINA RESULT:      -3.1     11.489     12.895
REMARK  3 active torsions:
REMARK  status: ('A' for Active; 'I' for Inactive)
REMARK    1  A    between atoms: C1_1  and  C7_7 
REMARK    2  A    between atoms: C1_1  and  C8_8 
REMARK    3  A    between atoms: C8_8  and  O10_10 
ROOT
HETATM    1  C1  UNL     1     -33.812   7.277   5.182  1.00 20.00     0.163 C 
HETATM    2  O9  UNL     1     -34.120   7.881   6.213  1.00 20.00    -0.294 OA
ENDROOT
BRANCH   1   3
HETATM    3  C7  UNL     1     -34.361   5.877   4.911  1.00 20.00     0.050 C 
HETATM    4  C2  UNL     1     -34.449   5.100   6.219  1.00 20.00     0.017 C 
HETATM    5  C3  UNL     1     -35.723   5.983   4.235  1.00 20.00     0.017 C 
ENDBRANCH   1   3
BRANCH   1   6
HETATM    6  C8  UNL     1     -32.872   7.904   4.144  1.00 20.00     0.113 C 
HETATM    7  C4  UNL     1     -32.303   6.840   3.213  1.00 20.00     0.054 C 
HETATM    8  C5  UNL     1     -31.771   8.725   4.810  1.00 20.00     0.054 C 
BRANCH   6   9
HETATM    9  O10 UNL     1     -33.657   8.783   3.339  1.00 20.00    -0.378 OA
HETATM   10  C6  UNL     1     -32.921   9.249   2.218  1.00 20.00     0.203 C 
ENDBRANCH   6   9
ENDBRANCH   1   6
TORSDOF 3
ENDMDL
MODEL 9
REMARK VINA RESULT:      -3.0     13.705     15.019
REMARK  3 active torsions:
REMARK  status: ('A' for Active; 'I' for Inactive)
REMARK    1  A    between atoms: C1_1  and  C7_7 
REMARK    2  A    between atoms: C1_1  and  C8_8 
REMARK    3  A    between atoms: C8_8  and  O10_10 
ROOT
HETATM    1  C1  UNL     1     -41.216  13.386   7.297  1.00 20.00     0.163 C 
HETATM    2  O9  UNL     1     -40.342  14.104   7.790  1.00 20.00    -0.294 OA
ENDROOT
BRANCH   1   3
HETATM    3  C7  UNL     1     -40.939  12.590   6.023  1.00 20.00     0.050 C 
HETATM    4  C2  UNL     1     -41.163  13.480   4.805  1.00 20.00     0.017 C 
HETATM    5  C3  UNL     1     -39.515  12.045   6.058  1.00 20.00     0.017 C 
ENDBRANCH   1   3
BRANCH   1   6
HETATM    6  C8  UNL     1     -42.604  13.268   7.941  1.00 20.00     0.113 C 
HETATM    7  C4  UNL     1     -43.345  12.044   7.416  1.00 20.00     0.054 C 
HETATM    8  C5  UNL     1     -43.417  14.546   7.756  1.00 20.00     0.054 C 
BRANCH   6   9
HETATM    9  O10 UNL     1     -42.406  13.065   9.340  1.00 20.00    -0.378 OA
HETATM   10  C6  UNL     1     -43.350  13.799  10.106  1.00 20.00     0.203 C 
ENDBRANCH   6   9
ENDBRANCH   1   6
TORSDOF 3
ENDMDL
