MODEL 1
REMARK VINA RESULT:      -4.2      0.000      0.000
REMARK  5 active torsions:
REMARK  status: ('A' for Active; 'I' for Inactive)
REMARK    1  A    between atoms: C2_2  and  C6_6 
REMARK    2  A    between atoms: C6_6  and  C8_8 
REMARK    3  A    between atoms: C7_7  and  C8_8 
REMARK    4  A    between atoms: C7_7  and  C9_9 
REMARK    5  A    between atoms: C9_9  and  O10_10 
ROOT
HETATM    1  C4  UNL     1     -32.202   9.255   5.564  1.00 20.00     0.010 C 
HETATM    2  C8  UNL     1     -32.796   7.968   4.980  1.00 20.00    -0.012 C 
ENDROOT
BRANCH   2   3
HETATM    3  C6  UNL     1     -34.109   7.639   5.729  1.00 20.00     0.037 C 
BRANCH   3   4
HETATM    4  C2  UNL     1     -34.539   6.191   5.661  1.00 20.00    -0.093 C 
HETATM    5  C1  UNL     1     -34.099   5.286   6.550  1.00 20.00     0.014 C 
HETATM    6  C3  UNL     1     -35.510   5.814   4.579  1.00 20.00     0.042 C 
ENDBRANCH   3   4
ENDBRANCH   2   3
BRANCH   2   7
HETATM    7  C7  UNL     1     -33.031   8.085   3.456  1.00 20.00     0.035 C 
BRANCH   7   8
HETATM    8  C9  UNL     1     -32.125   7.195   2.596  1.00 20.00     0.114 C 
HETATM    9  C5  UNL     1     -32.678   5.778   2.504  1.00 20.00     0.039 C 
BRANCH   8  10
HETATM   10  O10 UNL     1     -32.040   7.742   1.284  1.00 20.00    -0.396 OA
HETATM   11  H28 UNL     1     -32.543   7.149   0.703  1.00 20.00     0.210 HD
ENDBRANCH   8  10
ENDBRANCH   7   8
ENDBRANCH   2   7
TORSDOF 5
ENDMDL
MODEL 2
REMARK VINA RESULT:      -4.1      2.010      3.778
REMARK  5 active torsions:
REMARK  status: ('A' for Active; 'I' for Inactive)
REMARK    1  A    between atoms: C2_2  and  C6_6 
REMARK    2  A    between atoms: C6_6  and  C8_8 
REMARK    3  A    between atoms: C7_7  and  C8_8 
REMARK    4  A    between atoms: C7_7  and  C9_9 
REMARK    5  A    between atoms: C9_9  and  O10_10 
ROOT
HETATM    1  C4  UNL     1     -33.748   9.085   5.676  1.00 20.00     0.010 C 
HETATM    2  C8  UNL     1     -33.638   7.719   4.989  1.00 20.00    -0.012 C 
ENDROOT
BRANCH   2   3
HETATM    3  C6  UNL     1     -32.290   7.647   4.232  1.00 20.00     0.037 C 
BRANCH   3   4
HETATM    4  C2  UNL     1     -32.387   7.173   2.799  1.00 20.00    -0.093 C 
HETATM    5  C1  UNL     1     -32.185   8.010   1.769  1.00 20.00     0.014 C 
HETATM    6  C3  UNL     1     -32.680   5.717   2.576  1.00 20.00     0.042 C 
ENDBRANCH   3   4
ENDBRANCH   2   3
BRANCH   2   7
HETATM    7  C7  UNL     1     -33.780   6.556   5.999  1.00 20.00     0.035 C 
BRANCH   7   8
HETATM    8  C9  UNL     1     -34.838   5.510   5.630  1.00 20.00     0.114 C 
HETATM    9  C5  UNL     1     -35.652   5.957   4.421  1.00 20.00     0.039 C 
BRANCH   8  10
HETATM   10  O10 UNL     1     -34.193   4.279   5.319  1.00 20.00    -0.396 OA
HETATM   11  H28 UNL     1     -34.881   3.595   5.323  1.00 20.00     0.210 HD
ENDBRANCH   8  10
ENDBRANCH   7   8
ENDBRANCH   2   7
TORSDOF 5
ENDMDL
MODEL 3
REMARK VINA RESULT:      -4.1      2.008      3.721
REMARK  5 active torsions:
REMARK  status: ('A' for Active; 'I' for Inactive)
REMARK    1  A    between atoms: C2_2  and  C6_6 
REMARK    2  A    between atoms: C6_6  and  C8_8 
REMARK    3  A    between atoms: C7_7  and  C8_8 
REMARK    4  A    between atoms: C7_7  and  C9_9 
REMARK    5  A    between atoms: C9_9  and  O10_10 
ROOT
HETATM    1  C4  UNL     1     -33.728   9.085   5.762  1.00 20.00     0.010 C 
HETATM    2  C8  UNL     1     -33.618   7.744   5.028  1.00 20.00    -0.012 C 
ENDROOT
BRANCH   2   3
HETATM    3  C6  UNL     1     -32.282   7.708   4.248  1.00 20.00     0.037 C 
BRANCH   3   4
HETATM    4  C2  UNL     1     -32.374   7.144   2.848  1.00 20.00    -0.093 C 
HETATM    5  C1  UNL     1     -32.626   5.845   2.630  1.00 20.00     0.014 C 
HETATM    6  C3  UNL     1     -32.209   8.109   1.708  1.00 20.00     0.042 C 
ENDBRANCH   3   4
ENDBRANCH   2   3
BRANCH   2   7
HETATM    7  C7  UNL     1     -33.734   6.547   6.001  1.00 20.00     0.035 C 
BRANCH   7   8
HETATM    8  C9  UNL     1     -34.818   5.525   5.636  1.00 20.00     0.114 C 
HETATM    9  C5  UNL     1     -35.624   5.990   4.428  1.00 20.00     0.039 C 
BRANCH   8  10
HETATM   10  O10 UNL     1     -34.202   4.279   5.325  1.00 20.00    -0.396 OA
HETATM   11  H28 UNL     1     -34.681   3.600   5.825  1.00 20.00     0.210 HD
ENDBRANCH   8  10
ENDBRANCH   7   8
ENDBRANCH   2   7
TORSDOF 5
ENDMDL
MODEL 4
REMARK VINA RESULT:      -4.1     11.561     12.334
REMARK  5 active torsions:
REMARK  status: ('A' for Active; 'I' for Inactive)
REMARK    1  A    between atoms: C2_2  and  C6_6 
REMARK    2  A    between atoms: C6_6  and  C8_8 
REMARK    3  A    between atoms: C7_7  and  C8_8 
REMARK    4  A    between atoms: C7_7  and  C9_9 
REMARK    5  A    between atoms: C9_9  and  O10_10 
ROOT
HETATM    1  C4  UNL     1     -34.415  17.800  -3.851  1.00 20.00     0.010 C 
HETATM    2  C8  UNL     1     -33.300  16.977  -3.196  1.00 20.00    -0.012 C 
ENDROOT
BRANCH   2   3
HETATM    3  C6  UNL     1     -33.609  16.828  -1.687  1.00 20.00     0.037 C 
BRANCH   3   4
HETATM    4  C2  UNL     1     -33.103  17.955  -0.815  1.00 20.00    -0.093 C 
HETATM    5  C1  UNL     1     -31.968  18.609  -1.103  1.00 20.00     0.014 C 
HETATM    6  C3  UNL     1     -33.947  18.339   0.367  1.00 20.00     0.042 C 
ENDBRANCH   3   4
ENDBRANCH   2   3
BRANCH   2   7
HETATM    7  C7  UNL     1     -33.129  15.599  -3.875  1.00 20.00     0.035 C 
BRANCH   7   8
HETATM    8  C9  UNL     1     -34.356  15.110  -4.654  1.00 20.00     0.114 C 
HETATM    9  C5  UNL     1     -34.059  15.023  -6.147  1.00 20.00     0.039 C 
BRANCH   8  10
HETATM   10  O10 UNL     1     -34.725  13.817  -4.184  1.00 20.00    -0.396 OA
HETATM   11  H28 UNL     1     -34.270  13.175  -4.751  1.00 20.00     0.210 HD
ENDBRANCH   8  10
ENDBRANCH   7   8
ENDBRANCH   2   7
TORSDOF 5
ENDMDL
MODEL 5
REMARK VINA RESULT:      -4.0      2.173      4.326
REMARK  5 active torsions:
REMARK  status: ('A' for Active; 'I' for Inactive)
REMARK    1  A    between atoms: C2_2  and  C6_6 
REMARK    2  A    between atoms: C6_6  and  C8_8 
REMARK    3  A    between atoms: C7_7  and  C8_8 
REMARK    4  A    between atoms: C7_7  and  C9_9 
REMARK    5  A    between atoms: C9_9  and  O10_10 
ROOT
HETATM    1  C4  UNL     1     -32.888   4.870   2.307  1.00 20.00     0.010 C 
HETATM    2  C8  UNL     1     -32.734   6.007   3.323  1.00 20.00    -0.012 C 
ENDROOT
BRANCH   2   3
HETATM    3  C6  UNL     1     -32.186   7.258   2.595  1.00 20.00     0.037 C 
BRANCH   3   4
HETATM    4  C2  UNL     1     -32.479   8.575   3.278  1.00 20.00    -0.093 C 
HETATM    5  C1  UNL     1     -32.241   8.755   4.586  1.00 20.00     0.014 C 
HETATM    6  C3  UNL     1     -33.012   9.688   2.421  1.00 20.00     0.042 C 
ENDBRANCH   3   4
ENDBRANCH   2   3
BRANCH   2   7
HETATM    7  C7  UNL     1     -34.066   6.315   4.046  1.00 20.00     0.035 C 
BRANCH   7   8
HETATM    8  C9  UNL     1     -34.285   5.537   5.350  1.00 20.00     0.114 C 
HETATM    9  C5  UNL     1     -34.470   6.485   6.529  1.00 20.00     0.039 C 
BRANCH   8  10
HETATM   10  O10 UNL     1     -35.450   4.728   5.224  1.00 20.00    -0.396 OA
HETATM   11  H28 UNL     1     -36.205   5.335   5.167  1.00 20.00     0.210 HD
ENDBRANCH   8  10
ENDBRANCH   7   8
ENDBRANCH   2   7
TORSDOF 5
ENDMDL
MODEL 6
REMARK VINA RESULT:      -3.9      1.148      2.818
REMARK  5 active torsions:
REMARK  status: ('A' for Active; 'I' for Inactive)
REMARK    1  A    between atoms: C2_2  and  C6_6 
REMARK    2  A    between atoms: C6_6  and  C8_8 
REMARK    3  A    between atoms: C7_7  and  C8_8 
REMARK    4  A    between atoms: C7_7  and  C9_9 
REMARK    5  A    between atoms: C9_9  and  O10_10 
ROOT
HETATM    1  C4  UNL     1     -32.796   4.688   1.824  1.00 20.00     0.010 C 
HETATM    2  C8  UNL     1     -33.304   5.659   2.896  1.00 20.00    -0.012 C 
ENDROOT
BRANCH   2   3
HETATM    3  C6  UNL     1     -33.604   4.863   4.189  1.00 20.00     0.037 C 
BRANCH   3   4
HETATM    4  C2  UNL     1     -34.692   5.448   5.062  1.00 20.00    -0.093 C 
HETATM    5  C1  UNL     1     -34.585   5.465   6.399  1.00 20.00     0.014 C 
HETATM    6  C3  UNL     1     -35.883   6.044   4.366  1.00 20.00     0.042 C 
ENDBRANCH   3   4
ENDBRANCH   2   3
BRANCH   2   7
HETATM    7  C7  UNL     1     -32.296   6.802   3.159  1.00 20.00     0.035 C 
BRANCH   7   8
HETATM    8  C9  UNL     1     -32.932   8.143   3.548  1.00 20.00     0.114 C 
HETATM    9  C5  UNL     1     -32.398   8.633   4.889  1.00 20.00     0.039 C 
BRANCH   8  10
HETATM   10  O10 UNL     1     -32.627   9.112   2.550  1.00 20.00    -0.396 OA
HETATM   11  H28 UNL     1     -31.660   9.154   2.489  1.00 20.00     0.210 HD
ENDBRANCH   8  10
ENDBRANCH   7   8
ENDBRANCH   2   7
TORSDOF 5
ENDMDL
MODEL 7
REMARK VINA RESULT:      -3.8      9.452     10.508
REMARK  5 active torsions:
REMARK  status: ('A' for Active; 'I' for Inactive)
REMARK    1  A    between atoms: C2_2  and  C6_6 
REMARK    2  A    between atoms: C6_6  and  C8_8 
REMARK    3  A    between atoms: C7_7  and  C8_8 
REMARK    4  A    between atoms: C7_7  and  C9_9 
REMARK    5  A    between atoms: C9_9  and  O10_10 
ROOT
HETATM    1  C4  UNL     1     -41.963  14.213   4.815  1.00 20.00     0.010 C 
HETATM    2  C8  UNL     1     -41.123  13.756   6.013  1.00 20.00    -0.012 C 
ENDROOT
BRANCH   2   3
HETATM    3  C6  UNL     1     -41.726  14.359   7.305  1.00 20.00     0.037 C 
BRANCH   3   4
HETATM    4  C2  UNL     1     -40.806  15.285   8.068  1.00 20.00    -0.093 C 
HETATM    5  C1  UNL     1     -40.147  14.874   9.163  1.00 20.00     0.014 C 
HETATM    6  C3  UNL     1     -40.631  16.676   7.527  1.00 20.00     0.042 C 
ENDBRANCH   3   4
ENDBRANCH   2   3
BRANCH   2   7
HETATM    7  C7  UNL     1     -41.037  12.214   6.098  1.00 20.00     0.035 C 
BRANCH   7   8
HETATM    8  C9  UNL     1     -39.613  11.647   6.046  1.00 20.00     0.114 C 
HETATM    9  C5  UNL     1     -38.953  11.946   4.705  1.00 20.00     0.039 C 
BRANCH   8  10
HETATM   10  O10 UNL     1     -38.835  12.237   7.083  1.00 20.00    -0.396 OA
HETATM   11  H28 UNL     1     -37.905  12.087   6.852  1.00 20.00     0.210 HD
ENDBRANCH   8  10
ENDBRANCH   7   8
ENDBRANCH   2   7
TORSDOF 5
ENDMDL
MODEL 8
REMARK VINA RESULT:      -3.8      1.815      3.674
REMARK  5 active torsions:
REMARK  status: ('A' for Active; 'I' for Inactive)
REMARK    1  A    between atoms: C2_2  and  C6_6 
REMARK    2  A    between atoms: C6_6  and  C8_8 
REMARK    3  A    between atoms: C7_7  and  C8_8 
REMARK    4  A    between atoms: C7_7  and  C9_9 
REMARK    5  A    between atoms: C9_9  and  O10_10 
ROOT
HETATM    1  C4  UNL     1     -32.425   9.311   5.150  1.00 20.00     0.010 C 
HETATM    2  C8  UNL     1     -33.200   8.149   4.519  1.00 20.00    -0.012 C 
ENDROOT
BRANCH   2   3
HETATM    3  C6  UNL     1     -32.189   7.126   3.947  1.00 20.00     0.037 C 
BRANCH   3   4
HETATM    4  C2  UNL     1     -32.439   6.714   2.513  1.00 20.00    -0.093 C 
HETATM    5  C1  UNL     1     -32.846   5.475   2.200  1.00 20.00     0.014 C 
HETATM    6  C3  UNL     1     -32.248   7.764   1.455  1.00 20.00     0.042 C 
ENDBRANCH   3   4
ENDBRANCH   2   3
BRANCH   2   7
HETATM    7  C7  UNL     1     -34.162   7.484   5.531  1.00 20.00     0.035 C 
BRANCH   7   8
HETATM    8  C9  UNL     1     -34.454   6.002   5.262  1.00 20.00     0.114 C 
HETATM    9  C5  UNL     1     -34.516   5.211   6.564  1.00 20.00     0.039 C 
BRANCH   8  10
HETATM   10  O10 UNL     1     -35.705   5.885   4.593  1.00 20.00    -0.396 OA
HETATM   11  H28 UNL     1     -36.291   5.386   5.184  1.00 20.00     0.210 HD
ENDBRANCH   8  10
ENDBRANCH   7   8
ENDBRANCH   2   7
TORSDOF 5
ENDMDL
MODEL 9
REMARK VINA RESULT:      -3.8      9.536     10.756
REMARK  5 active torsions:
REMARK  status: ('A' for Active; 'I' for Inactive)
REMARK    1  A    between atoms: C2_2  and  C6_6 
REMARK    2  A    between atoms: C6_6  and  C8_8 
REMARK    3  A    between atoms: C7_7  and  C8_8 
REMARK    4  A    between atoms: C7_7  and  C9_9 
REMARK    5  A    between atoms: C9_9  and  O10_10 
ROOT
HETATM    1  C4  UNL     1     -42.756  12.670   6.825  1.00 20.00     0.010 C 
HETATM    2  C8  UNL     1     -41.398  13.357   6.639  1.00 20.00    -0.012 C 
ENDROOT
BRANCH   2   3
HETATM    3  C6  UNL     1     -40.839  12.990   5.243  1.00 20.00     0.037 C 
BRANCH   3   4
HETATM    4  C2  UNL     1     -39.545  12.207   5.259  1.00 20.00    -0.093 C 
HETATM    5  C1  UNL     1     -38.881  11.971   6.401  1.00 20.00     0.014 C 
HETATM    6  C3  UNL     1     -39.054  11.669   3.945  1.00 20.00     0.042 C 
ENDBRANCH   3   4
ENDBRANCH   2   3
BRANCH   2   7
HETATM    7  C7  UNL     1     -41.502  14.890   6.818  1.00 20.00     0.035 C 
BRANCH   7   8
HETATM    8  C9  UNL     1     -40.372  15.518   7.644  1.00 20.00     0.114 C 
HETATM    9  C5  UNL     1     -40.862  16.753   8.391  1.00 20.00     0.039 C 
BRANCH   8  10
HETATM   10  O10 UNL     1     -39.899  14.566   8.592  1.00 20.00    -0.396 OA
HETATM   11  H28 UNL     1     -40.201  14.868   9.463  1.00 20.00     0.210 HD
ENDBRANCH   8  10
ENDBRANCH   7   8
ENDBRANCH   2   7
TORSDOF 5
ENDMDL
