MODEL 1
REMARK VINA RESULT:      -4.4      0.000      0.000
REMARK  3 active torsions:
REMARK  status: ('A' for Active; 'I' for Inactive)
REMARK    1  A    between atoms: C2_2  and  C10_10 
REMARK    2  A    between atoms: C5_5  and  C10_10 
REMARK    3  A    between atoms: C7_7  and  O11_11 
ROOT
HETATM    1  C3  UNL     1     -24.025  16.316  10.949  1.00 20.00     0.008 C 
HETATM    2  C4  UNL     1     -24.732  16.717  12.249  1.00 20.00     0.032 C 
HETATM    3  C5  UNL     1     -23.584  17.625  10.284  1.00 20.00    -0.004 C 
HETATM    4  C6  UNL     1     -23.443  18.618  11.452  1.00 20.00     0.015 C 
HETATM    5  C7  UNL     1     -24.642  18.240  12.332  1.00 20.00     0.122 C 
HETATM    6  C9  UNL     1     -22.129  18.508  12.223  1.00 20.00     0.013 C 
ENDROOT
BRANCH   3   7
HETATM    7  C10 UNL     1     -22.356  17.458   9.402  1.00 20.00     0.038 C 
BRANCH   7   8
HETATM    8  C2  UNL     1     -22.390  18.341   8.179  1.00 20.00    -0.093 C 
HETATM    9  C1  UNL     1     -23.368  19.241   7.990  1.00 20.00     0.014 C 
HETATM   10  C8  UNL     1     -21.302  18.145   7.163  1.00 20.00     0.042 C 
ENDBRANCH   7   8
ENDBRANCH   3   7
BRANCH   5  11
HETATM   11  O11 UNL     1     -25.837  18.792  11.785  1.00 20.00    -0.395 OA
HETATM   12  H29 UNL     1     -26.574  18.321  12.203  1.00 20.00     0.210 HD
ENDBRANCH   5  11
TORSDOF 3
ENDMDL
MODEL 2
REMARK VINA RESULT:      -4.1     14.571     16.319
REMARK  3 active torsions:
REMARK  status: ('A' for Active; 'I' for Inactive)
REMARK    1  A    between atoms: C2_2  and  C10_10 
REMARK    2  A    between atoms: C5_5  and  C10_10 
REMARK    3  A    between atoms: C7_7  and  O11_11 
ROOT
HETATM    1  C3  UNL     1     -33.504  16.509  -2.510  1.00 20.00     0.008 C 
HETATM    2  C4  UNL     1     -33.880  16.718  -3.981  1.00 20.00     0.032 C 
HETATM    3  C5  UNL     1     -33.357  17.910  -1.906  1.00 20.00    -0.004 C 
HETATM    4  C6  UNL     1     -34.253  18.802  -2.785  1.00 20.00     0.015 C 
HETATM    5  C7  UNL     1     -33.990  18.229  -4.184  1.00 20.00     0.122 C 
HETATM    6  C9  UNL     1     -35.739  18.750  -2.433  1.00 20.00     0.013 C 
ENDROOT
BRANCH   3   7
HETATM    7  C10 UNL     1     -33.645  17.946  -0.413  1.00 20.00     0.038 C 
BRANCH   7   8
HETATM    8  C2  UNL     1     -32.524  18.567   0.385  1.00 20.00    -0.093 C 
HETATM    9  C1  UNL     1     -32.747  19.142   1.577  1.00 20.00     0.014 C 
HETATM   10  C8  UNL     1     -31.154  18.545  -0.230  1.00 20.00     0.042 C 
ENDBRANCH   7   8
ENDBRANCH   3   7
BRANCH   5  11
HETATM   11  O11 UNL     1     -32.740  18.709  -4.676  1.00 20.00    -0.395 OA
HETATM   12  H29 UNL     1     -32.457  18.085  -5.362  1.00 20.00     0.210 HD
ENDBRANCH   5  11
TORSDOF 3
ENDMDL
MODEL 3
REMARK VINA RESULT:      -4.1     15.506     16.491
REMARK  3 active torsions:
REMARK  status: ('A' for Active; 'I' for Inactive)
REMARK    1  A    between atoms: C2_2  and  C10_10 
REMARK    2  A    between atoms: C5_5  and  C10_10 
REMARK    3  A    between atoms: C7_7  and  O11_11 
ROOT
HETATM    1  C3  UNL     1     -33.176   5.259   3.561  1.00 20.00     0.008 C 
HETATM    2  C4  UNL     1     -34.220   4.605   4.473  1.00 20.00     0.032 C 
HETATM    3  C5  UNL     1     -33.486   6.760   3.566  1.00 20.00    -0.004 C 
HETATM    4  C6  UNL     1     -34.201   6.997   4.910  1.00 20.00     0.015 C 
HETATM    5  C7  UNL     1     -35.079   5.744   5.024  1.00 20.00     0.122 C 
HETATM    6  C9  UNL     1     -33.265   7.134   6.110  1.00 20.00     0.013 C 
ENDROOT
BRANCH   3   7
HETATM    7  C10 UNL     1     -32.259   7.621   3.306  1.00 20.00     0.038 C 
BRANCH   7   8
HETATM    8  C2  UNL     1     -32.435   8.549   2.130  1.00 20.00    -0.093 C 
HETATM    9  C1  UNL     1     -33.011   9.754   2.266  1.00 20.00     0.014 C 
HETATM   10  C8  UNL     1     -31.969   8.052   0.791  1.00 20.00     0.042 C 
ENDBRANCH   7   8
ENDBRANCH   3   7
BRANCH   5  11
HETATM   11  O11 UNL     1     -36.230   5.882   4.194  1.00 20.00    -0.395 OA
HETATM   12  H29 UNL     1     -35.961   6.429   3.439  1.00 20.00     0.210 HD
ENDBRANCH   5  11
TORSDOF 3
ENDMDL
MODEL 4
REMARK VINA RESULT:      -3.9     15.539     16.693
REMARK  3 active torsions:
REMARK  status: ('A' for Active; 'I' for Inactive)
REMARK    1  A    between atoms: C2_2  and  C10_10 
REMARK    2  A    between atoms: C5_5  and  C10_10 
REMARK    3  A    between atoms: C7_7  and  O11_11 
ROOT
HETATM    1  C3  UNL     1     -33.981   6.755   6.385  1.00 20.00     0.008 C 
HETATM    2  C4  UNL     1     -34.679   5.406   6.593  1.00 20.00     0.032 C 
HETATM    3  C5  UNL     1     -33.633   6.828   4.893  1.00 20.00    -0.004 C 
HETATM    4  C6  UNL     1     -34.668   5.911   4.215  1.00 20.00     0.015 C 
HETATM    5  C7  UNL     1     -34.764   4.751   5.215  1.00 20.00     0.122 C 
HETATM    6  C9  UNL     1     -36.032   6.559   3.981  1.00 20.00     0.013 C 
ENDROOT
BRANCH   3   7
HETATM    7  C10 UNL     1     -33.564   8.254   4.368  1.00 20.00     0.038 C 
BRANCH   7   8
HETATM    8  C2  UNL     1     -32.762   8.370   3.096  1.00 20.00    -0.093 C 
HETATM    9  C1  UNL     1     -31.890   7.419   2.727  1.00 20.00     0.014 C 
HETATM   10  C8  UNL     1     -32.955   9.615   2.278  1.00 20.00     0.042 C 
ENDBRANCH   7   8
ENDBRANCH   3   7
BRANCH   5  11
HETATM   11  O11 UNL     1     -33.643   3.884   5.059  1.00 20.00    -0.395 OA
HETATM   12  H29 UNL     1     -33.658   3.577   4.139  1.00 20.00     0.210 HD
ENDBRANCH   5  11
TORSDOF 3
ENDMDL
MODEL 5
REMARK VINA RESULT:      -3.9     17.895     18.957
REMARK  3 active torsions:
REMARK  status: ('A' for Active; 'I' for Inactive)
REMARK    1  A    between atoms: C2_2  and  C10_10 
REMARK    2  A    between atoms: C5_5  and  C10_10 
REMARK    3  A    between atoms: C7_7  and  O11_11 
ROOT
HETATM    1  C3  UNL     1     -41.715  13.965   4.896  1.00 20.00     0.008 C 
HETATM    2  C4  UNL     1     -42.745  14.953   5.457  1.00 20.00     0.032 C 
HETATM    3  C5  UNL     1     -41.035  13.324   6.111  1.00 20.00    -0.004 C 
HETATM    4  C6  UNL     1     -42.080  13.435   7.237  1.00 20.00     0.015 C 
HETATM    5  C7  UNL     1     -42.673  14.826   6.979  1.00 20.00     0.122 C 
HETATM    6  C9  UNL     1     -43.161  12.355   7.207  1.00 20.00     0.013 C 
ENDROOT
BRANCH   3   7
HETATM    7  C10 UNL     1     -40.510  11.925   5.828  1.00 20.00     0.038 C 
BRANCH   7   8
HETATM    8  C2  UNL     1     -39.125  11.929   5.229  1.00 20.00    -0.093 C 
HETATM    9  C1  UNL     1     -38.040  12.199   5.972  1.00 20.00     0.014 C 
HETATM   10  C8  UNL     1     -39.016  11.653   3.757  1.00 20.00     0.042 C 
ENDBRANCH   7   8
ENDBRANCH   3   7
BRANCH   5  11
HETATM   11  O11 UNL     1     -41.787  15.829   7.472  1.00 20.00    -0.395 OA
HETATM   12  H29 UNL     1     -41.065  15.362   7.920  1.00 20.00     0.210 HD
ENDBRANCH   5  11
TORSDOF 3
ENDMDL
MODEL 6
REMARK VINA RESULT:      -3.9     17.782     18.871
REMARK  3 active torsions:
REMARK  status: ('A' for Active; 'I' for Inactive)
REMARK    1  A    between atoms: C2_2  and  C10_10 
REMARK    2  A    between atoms: C5_5  and  C10_10 
REMARK    3  A    between atoms: C7_7  and  O11_11 
ROOT
HETATM    1  C3  UNL     1     -40.617  14.557   7.233  1.00 20.00     0.008 C 
HETATM    2  C4  UNL     1     -41.641  15.015   8.278  1.00 20.00     0.032 C 
HETATM    3  C5  UNL     1     -41.147  13.233   6.670  1.00 20.00    -0.004 C 
HETATM    4  C6  UNL     1     -42.670  13.311   6.881  1.00 20.00     0.015 C 
HETATM    5  C7  UNL     1     -42.762  13.975   8.261  1.00 20.00     0.122 C 
HETATM    6  C9  UNL     1     -43.417  14.120   5.822  1.00 20.00     0.013 C 
ENDROOT
BRANCH   3   7
HETATM    7  C10 UNL     1     -40.687  12.968   5.244  1.00 20.00     0.038 C 
BRANCH   7   8
HETATM    8  C2  UNL     1     -39.414  12.161   5.180  1.00 20.00    -0.093 C 
HETATM    9  C1  UNL     1     -38.689  11.906   6.281  1.00 20.00     0.014 C 
HETATM   10  C8  UNL     1     -38.974  11.684   3.826  1.00 20.00     0.042 C 
ENDBRANCH   7   8
ENDBRANCH   3   7
BRANCH   5  11
HETATM   11  O11 UNL     1     -42.500  13.014   9.280  1.00 20.00    -0.395 OA
HETATM   12  H29 UNL     1     -42.004  13.476   9.974  1.00 20.00     0.210 HD
ENDBRANCH   5  11
TORSDOF 3
ENDMDL
MODEL 7
REMARK VINA RESULT:      -3.8     17.322     19.005
REMARK  3 active torsions:
REMARK  status: ('A' for Active; 'I' for Inactive)
REMARK    1  A    between atoms: C2_2  and  C10_10 
REMARK    2  A    between atoms: C5_5  and  C10_10 
REMARK    3  A    between atoms: C7_7  and  O11_11 
ROOT
HETATM    1  C3  UNL     1     -34.848  16.702  -6.218  1.00 20.00     0.008 C 
HETATM    2  C4  UNL     1     -35.374  15.354  -6.723  1.00 20.00     0.032 C 
HETATM    3  C5  UNL     1     -34.843  16.610  -4.688  1.00 20.00    -0.004 C 
HETATM    4  C6  UNL     1     -34.716  15.103  -4.396  1.00 20.00     0.015 C 
HETATM    5  C7  UNL     1     -35.615  14.496  -5.481  1.00 20.00     0.122 C 
HETATM    6  C9  UNL     1     -33.290  14.559  -4.485  1.00 20.00     0.013 C 
ENDROOT
BRANCH   3   7
HETATM    7  C10 UNL     1     -33.794  17.503  -4.042  1.00 20.00     0.038 C 
BRANCH   7   8
HETATM    8  C2  UNL     1     -34.092  17.802  -2.594  1.00 20.00    -0.093 C 
HETATM    9  C1  UNL     1     -33.377  17.248  -1.602  1.00 20.00     0.014 C 
HETATM   10  C8  UNL     1     -35.246  18.719  -2.308  1.00 20.00     0.042 C 
ENDBRANCH   7   8
ENDBRANCH   3   7
BRANCH   5  11
HETATM   11  O11 UNL     1     -36.983  14.625  -5.104  1.00 20.00    -0.395 OA
HETATM   12  H29 UNL     1     -37.318  13.725  -4.970  1.00 20.00     0.210 HD
ENDBRANCH   5  11
TORSDOF 3
ENDMDL
MODEL 8
REMARK VINA RESULT:      -3.8     18.561     20.265
REMARK  3 active torsions:
REMARK  status: ('A' for Active; 'I' for Inactive)
REMARK    1  A    between atoms: C2_2  and  C10_10 
REMARK    2  A    between atoms: C5_5  and  C10_10 
REMARK    3  A    between atoms: C7_7  and  O11_11 
ROOT
HETATM    1  C3  UNL     1     -36.631  16.835  -5.673  1.00 20.00     0.008 C 
HETATM    2  C4  UNL     1     -37.167  16.449  -7.056  1.00 20.00     0.032 C 
HETATM    3  C5  UNL     1     -35.188  16.322  -5.617  1.00 20.00    -0.004 C 
HETATM    4  C6  UNL     1     -34.742  16.275  -7.090  1.00 20.00     0.015 C 
HETATM    5  C7  UNL     1     -36.010  15.765  -7.786  1.00 20.00     0.122 C 
HETATM    6  C9  UNL     1     -34.295  17.621  -7.660  1.00 20.00     0.013 C 
ENDROOT
BRANCH   3   7
HETATM    7  C10 UNL     1     -34.305  17.133  -4.681  1.00 20.00     0.038 C 
BRANCH   7   8
HETATM    8  C2  UNL     1     -33.576  16.277  -3.675  1.00 20.00    -0.093 C 
HETATM    9  C1  UNL     1     -33.353  16.703  -2.421  1.00 20.00     0.014 C 
HETATM   10  C8  UNL     1     -33.079  14.940  -4.147  1.00 20.00     0.042 C 
ENDBRANCH   7   8
ENDBRANCH   3   7
BRANCH   5  11
HETATM   11  O11 UNL     1     -36.131  14.357  -7.602  1.00 20.00    -0.395 OA
HETATM   12  H29 UNL     1     -35.411  14.094  -7.009  1.00 20.00     0.210 HD
ENDBRANCH   5  11
TORSDOF 3
ENDMDL
MODEL 9
REMARK VINA RESULT:      -3.8     18.516     20.239
REMARK  3 active torsions:
REMARK  status: ('A' for Active; 'I' for Inactive)
REMARK    1  A    between atoms: C2_2  and  C10_10 
REMARK    2  A    between atoms: C5_5  and  C10_10 
REMARK    3  A    between atoms: C7_7  and  O11_11 
ROOT
HETATM    1  C3  UNL     1     -36.655  16.861  -5.630  1.00 20.00     0.008 C 
HETATM    2  C4  UNL     1     -37.182  16.475  -7.016  1.00 20.00     0.032 C 
HETATM    3  C5  UNL     1     -35.213  16.345  -5.564  1.00 20.00    -0.004 C 
HETATM    4  C6  UNL     1     -34.757  16.297  -7.034  1.00 20.00     0.015 C 
HETATM    5  C7  UNL     1     -36.022  15.790  -7.738  1.00 20.00     0.122 C 
HETATM    6  C9  UNL     1     -34.305  17.642  -7.602  1.00 20.00     0.013 C 
ENDROOT
BRANCH   3   7
HETATM    7  C10 UNL     1     -34.334  17.155  -4.623  1.00 20.00     0.038 C 
BRANCH   7   8
HETATM    8  C2  UNL     1     -33.549  16.291  -3.667  1.00 20.00    -0.093 C 
HETATM    9  C1  UNL     1     -33.046  15.105  -4.044  1.00 20.00     0.014 C 
HETATM   10  C8  UNL     1     -33.386  16.799  -2.263  1.00 20.00     0.042 C 
ENDBRANCH   7   8
ENDBRANCH   3   7
BRANCH   5  11
HETATM   11  O11 UNL     1     -36.147  14.381  -7.555  1.00 20.00    -0.395 OA
HETATM   12  H29 UNL     1     -37.030  14.139  -7.874  1.00 20.00     0.210 HD
ENDBRANCH   5  11
TORSDOF 3
ENDMDL
