MODEL 1
REMARK VINA RESULT:      -4.0      0.000      0.000
REMARK  2 active torsions:
REMARK  status: ('A' for Active; 'I' for Inactive)
REMARK    1  A    between atoms: C1_1  and  C7_7 
REMARK    2  A    between atoms: C7_7  and  O11_11 
ROOT
HETATM    1  C3  UNL     1     -33.172  15.015  -4.414  1.00 20.00     0.029 C 
HETATM    2  C4  UNL     1     -33.514  15.903  -3.218  1.00 20.00     0.046 C 
HETATM    3  C5  UNL     1     -34.330  14.983  -5.400  1.00 20.00     0.167 C 
HETATM    4  C6  UNL     1     -35.106  17.131  -4.744  1.00 20.00     0.209 C 
HETATM    5  C7  UNL     1     -34.019  17.280  -3.674  1.00 20.00     0.097 C 
HETATM    6  O10 UNL     1     -34.662  16.304  -5.824  1.00 20.00    -0.388 OA
ENDROOT
BRANCH   5   7
HETATM    7  C1  UNL     1     -34.531  18.083  -2.517  1.00 20.00     0.015 C 
HETATM    8  C2  UNL     1     -33.860  18.449  -1.408  1.00 20.00    -0.088 C 
HETATM    9  C8  UNL     1     -34.523  19.263  -0.331  1.00 20.00     0.042 C 
HETATM   10  C9  UNL     1     -32.425  18.093  -1.143  1.00 20.00     0.042 C 
ENDBRANCH   5   7
BRANCH   5  11
HETATM   11  O11 UNL     1     -32.930  17.996  -4.266  1.00 20.00    -0.384 OA
HETATM   12  H27 UNL     1     -33.197  18.196  -5.175  1.00 20.00     0.211 HD
ENDBRANCH   5  11
TORSDOF 2
ENDMDL
MODEL 2
REMARK VINA RESULT:      -3.9     12.000     13.326
REMARK  2 active torsions:
REMARK  status: ('A' for Active; 'I' for Inactive)
REMARK    1  A    between atoms: C1_1  and  C7_7 
REMARK    2  A    between atoms: C7_7  and  O11_11 
ROOT
HETATM    1  C3  UNL     1     -41.400  14.785   8.418  1.00 20.00     0.029 C 
HETATM    2  C4  UNL     1     -40.584  14.151   7.292  1.00 20.00     0.046 C 
HETATM    3  C5  UNL     1     -42.614  15.505   7.852  1.00 20.00     0.167 C 
HETATM    4  C6  UNL     1     -42.720  14.088   5.949  1.00 20.00     0.209 C 
HETATM    5  C7  UNL     1     -41.473  13.303   6.371  1.00 20.00     0.097 C 
HETATM    6  O10 UNL     1     -43.415  14.609   7.086  1.00 20.00    -0.388 OA
ENDROOT
BRANCH   5   7
HETATM    7  C1  UNL     1     -40.718  12.834   5.164  1.00 20.00     0.015 C 
HETATM    8  C2  UNL     1     -39.549  12.164   5.134  1.00 20.00    -0.088 C 
HETATM    9  C8  UNL     1     -38.918  11.763   3.829  1.00 20.00     0.042 C 
HETATM   10  C9  UNL     1     -38.783  11.763   6.361  1.00 20.00     0.042 C 
ENDBRANCH   5   7
BRANCH   5  11
HETATM   11  O11 UNL     1     -41.917  12.150   7.093  1.00 20.00    -0.384 OA
HETATM   12  H27 UNL     1     -41.369  12.098   7.890  1.00 20.00     0.211 HD
ENDBRANCH   5  11
TORSDOF 2
ENDMDL
MODEL 3
REMARK VINA RESULT:      -3.9      2.100      3.165
REMARK  2 active torsions:
REMARK  status: ('A' for Active; 'I' for Inactive)
REMARK    1  A    between atoms: C1_1  and  C7_7 
REMARK    2  A    between atoms: C7_7  and  O11_11 
ROOT
HETATM    1  C3  UNL     1     -36.356  15.517  -6.716  1.00 20.00     0.029 C 
HETATM    2  C4  UNL     1     -35.859  15.849  -5.310  1.00 20.00     0.046 C 
HETATM    3  C5  UNL     1     -35.232  15.678  -7.728  1.00 20.00     0.167 C 
HETATM    4  C6  UNL     1     -33.550  15.223  -6.114  1.00 20.00     0.209 C 
HETATM    5  C7  UNL     1     -34.571  15.080  -4.980  1.00 20.00     0.097 C 
HETATM    6  O10 UNL     1     -34.120  14.858  -7.375  1.00 20.00    -0.388 OA
ENDROOT
BRANCH   5   7
HETATM    7  C1  UNL     1     -33.979  15.541  -3.683  1.00 20.00     0.015 C 
HETATM    8  C2  UNL     1     -33.649  16.798  -3.329  1.00 20.00    -0.088 C 
HETATM    9  C8  UNL     1     -33.060  17.096  -1.978  1.00 20.00     0.042 C 
HETATM   10  C9  UNL     1     -33.833  17.993  -4.220  1.00 20.00     0.042 C 
ENDBRANCH   5   7
BRANCH   5  11
HETATM   11  O11 UNL     1     -34.884  13.689  -4.857  1.00 20.00    -0.384 OA
HETATM   12  H27 UNL     1     -34.334  13.227  -5.507  1.00 20.00     0.211 HD
ENDBRANCH   5  11
TORSDOF 2
ENDMDL
MODEL 4
REMARK VINA RESULT:      -3.8      1.646      2.736
REMARK  2 active torsions:
REMARK  status: ('A' for Active; 'I' for Inactive)
REMARK    1  A    between atoms: C1_1  and  C7_7 
REMARK    2  A    between atoms: C7_7  and  O11_11 
ROOT
HETATM    1  C3  UNL     1     -35.020  17.215  -7.230  1.00 20.00     0.029 C 
HETATM    2  C4  UNL     1     -34.401  17.507  -5.864  1.00 20.00     0.046 C 
HETATM    3  C5  UNL     1     -34.419  15.951  -7.825  1.00 20.00     0.167 C 
HETATM    4  C6  UNL     1     -33.925  15.035  -5.690  1.00 20.00     0.209 C 
HETATM    5  C7  UNL     1     -34.453  16.271  -4.954  1.00 20.00     0.097 C 
HETATM    6  O10 UNL     1     -34.597  14.848  -6.939  1.00 20.00    -0.388 OA
ENDROOT
BRANCH   5   7
HETATM    7  C1  UNL     1     -33.684  16.493  -3.687  1.00 20.00     0.015 C 
HETATM    8  C2  UNL     1     -33.902  17.432  -2.746  1.00 20.00    -0.088 C 
HETATM    9  C8  UNL     1     -33.033  17.521  -1.522  1.00 20.00     0.042 C 
HETATM   10  C9  UNL     1     -35.003  18.451  -2.820  1.00 20.00     0.042 C 
ENDBRANCH   5   7
BRANCH   5  11
HETATM   11  O11 UNL     1     -35.818  16.012  -4.607  1.00 20.00    -0.384 OA
HETATM   12  H27 UNL     1     -35.940  16.349  -3.707  1.00 20.00     0.211 HD
ENDBRANCH   5  11
TORSDOF 2
ENDMDL
MODEL 5
REMARK VINA RESULT:      -3.6      1.891      2.920
REMARK  2 active torsions:
REMARK  status: ('A' for Active; 'I' for Inactive)
REMARK    1  A    between atoms: C1_1  and  C7_7 
REMARK    2  A    between atoms: C7_7  and  O11_11 
ROOT
HETATM    1  C3  UNL     1     -35.923  18.523  -3.038  1.00 20.00     0.029 C 
HETATM    2  C4  UNL     1     -34.779  18.848  -2.079  1.00 20.00     0.046 C 
HETATM    3  C5  UNL     1     -35.422  18.497  -4.474  1.00 20.00     0.167 C 
HETATM    4  C6  UNL     1     -33.217  17.901  -3.821  1.00 20.00     0.209 C 
HETATM    5  C7  UNL     1     -33.568  17.937  -2.329  1.00 20.00     0.097 C 
HETATM    6  O10 UNL     1     -34.357  17.559  -4.615  1.00 20.00    -0.388 OA
ENDROOT
BRANCH   5   7
HETATM    7  C1  UNL     1     -32.382  18.374  -1.524  1.00 20.00     0.015 C 
HETATM    8  C2  UNL     1     -32.313  18.553  -0.191  1.00 20.00    -0.088 C 
HETATM    9  C8  UNL     1     -31.037  18.997   0.469  1.00 20.00     0.042 C 
HETATM   10  C9  UNL     1     -33.469  18.334   0.743  1.00 20.00     0.042 C 
ENDBRANCH   5   7
BRANCH   5  11
HETATM   11  O11 UNL     1     -33.906  16.603  -1.937  1.00 20.00    -0.384 OA
HETATM   12  H27 UNL     1     -34.090  16.636  -0.986  1.00 20.00     0.211 HD
ENDBRANCH   5  11
TORSDOF 2
ENDMDL
MODEL 6
REMARK VINA RESULT:      -3.6      1.643      4.440
REMARK  2 active torsions:
REMARK  status: ('A' for Active; 'I' for Inactive)
REMARK    1  A    between atoms: C1_1  and  C7_7 
REMARK    2  A    between atoms: C7_7  and  O11_11 
ROOT
HETATM    1  C3  UNL     1     -33.357  16.868  -2.061  1.00 20.00     0.029 C 
HETATM    2  C4  UNL     1     -33.608  16.355  -3.478  1.00 20.00     0.046 C 
HETATM    3  C5  UNL     1     -32.787  18.278  -2.100  1.00 20.00     0.167 C 
HETATM    4  C6  UNL     1     -33.825  18.770  -4.180  1.00 20.00     0.209 C 
HETATM    5  C7  UNL     1     -34.425  17.364  -4.298  1.00 20.00     0.097 C 
HETATM    6  O10 UNL     1     -33.663  19.151  -2.810  1.00 20.00    -0.388 OA
ENDROOT
BRANCH   5   7
HETATM    7  C1  UNL     1     -34.513  16.953  -5.737  1.00 20.00     0.015 C 
HETATM    8  C2  UNL     1     -35.020  15.810  -6.237  1.00 20.00    -0.088 C 
HETATM    9  C8  UNL     1     -35.035  15.548  -7.717  1.00 20.00     0.042 C 
HETATM   10  C9  UNL     1     -35.604  14.714  -5.391  1.00 20.00     0.042 C 
ENDBRANCH   5   7
BRANCH   5  11
HETATM   11  O11 UNL     1     -35.754  17.420  -3.769  1.00 20.00    -0.384 OA
HETATM   12  H27 UNL     1     -35.929  16.551  -3.379  1.00 20.00     0.211 HD
ENDBRANCH   5  11
TORSDOF 2
ENDMDL
MODEL 7
REMARK VINA RESULT:      -3.5     12.240     13.809
REMARK  2 active torsions:
REMARK  status: ('A' for Active; 'I' for Inactive)
REMARK    1  A    between atoms: C1_1  and  C7_7 
REMARK    2  A    between atoms: C7_7  and  O11_11 
ROOT
HETATM    1  C3  UNL     1     -41.226  16.454   8.319  1.00 20.00     0.029 C 
HETATM    2  C4  UNL     1     -40.411  15.483   7.467  1.00 20.00     0.046 C 
HETATM    3  C5  UNL     1     -42.702  16.090   8.274  1.00 20.00     0.167 C 
HETATM    4  C6  UNL     1     -42.247  13.796   7.855  1.00 20.00     0.209 C 
HETATM    5  C7  UNL     1     -40.732  14.024   7.825  1.00 20.00     0.097 C 
HETATM    6  O10 UNL     1     -42.899  14.745   8.706  1.00 20.00    -0.388 OA
ENDROOT
BRANCH   5   7
HETATM    7  C1  UNL     1     -40.079  13.072   6.869  1.00 20.00     0.015 C 
HETATM    8  C2  UNL     1     -40.355  12.899   5.562  1.00 20.00    -0.088 C 
HETATM    9  C8  UNL     1     -39.602  11.894   4.736  1.00 20.00     0.042 C 
HETATM   10  C9  UNL     1     -41.410  13.670   4.821  1.00 20.00     0.042 C 
ENDBRANCH   5   7
BRANCH   5  11
HETATM   11  O11 UNL     1     -40.231  13.752   9.138  1.00 20.00    -0.384 OA
HETATM   12  H27 UNL     1     -39.414  13.246   9.019  1.00 20.00     0.211 HD
ENDBRANCH   5  11
TORSDOF 2
ENDMDL
MODEL 8
REMARK VINA RESULT:      -3.5     12.004     13.074
REMARK  2 active torsions:
REMARK  status: ('A' for Active; 'I' for Inactive)
REMARK    1  A    between atoms: C1_1  and  C7_7 
REMARK    2  A    between atoms: C7_7  and  O11_11 
ROOT
HETATM    1  C3  UNL     1     -39.530  11.811   4.747  1.00 20.00     0.029 C 
HETATM    2  C4  UNL     1     -40.603  12.894   4.850  1.00 20.00     0.046 C 
HETATM    3  C5  UNL     1     -38.417  12.068   5.752  1.00 20.00     0.167 C 
HETATM    4  C6  UNL     1     -39.865  13.220   7.242  1.00 20.00     0.209 C 
HETATM    5  C7  UNL     1     -41.068  13.079   6.303  1.00 20.00     0.097 C 
HETATM    6  O10 UNL     1     -38.945  12.137   7.075  1.00 20.00    -0.388 OA
ENDROOT
BRANCH   5   7
HETATM    7  C1  UNL     1     -41.978  14.262   6.438  1.00 20.00     0.015 C 
HETATM    8  C2  UNL     1     -42.517  14.761   7.566  1.00 20.00    -0.088 C 
HETATM    9  C8  UNL     1     -43.417  15.965   7.531  1.00 20.00     0.042 C 
HETATM   10  C9  UNL     1     -42.281  14.183   8.933  1.00 20.00     0.042 C 
ENDBRANCH   5   7
BRANCH   5  11
HETATM   11  O11 UNL     1     -41.791  11.912   6.706  1.00 20.00    -0.384 OA
HETATM   12  H27 UNL     1     -41.175  11.373   7.224  1.00 20.00     0.211 HD
ENDBRANCH   5  11
TORSDOF 2
ENDMDL
MODEL 9
REMARK VINA RESULT:      -3.4      1.942      3.220
REMARK  2 active torsions:
REMARK  status: ('A' for Active; 'I' for Inactive)
REMARK    1  A    between atoms: C1_1  and  C7_7 
REMARK    2  A    between atoms: C7_7  and  O11_11 
ROOT
HETATM    1  C3  UNL     1     -36.217  15.416  -7.402  1.00 20.00     0.029 C 
HETATM    2  C4  UNL     1     -35.637  15.565  -5.996  1.00 20.00     0.046 C 
HETATM    3  C5  UNL     1     -37.086  16.616  -7.748  1.00 20.00     0.167 C 
HETATM    4  C6  UNL     1     -35.882  18.059  -6.294  1.00 20.00     0.209 C 
HETATM    5  C7  UNL     1     -34.961  16.932  -5.815  1.00 20.00     0.097 C 
HETATM    6  O10 UNL     1     -36.338  17.825  -7.630  1.00 20.00    -0.388 OA
ENDROOT
BRANCH   5   7
HETATM    7  C1  UNL     1     -34.558  17.156  -4.390  1.00 20.00     0.015 C 
HETATM    8  C2  UNL     1     -33.722  16.409  -3.643  1.00 20.00    -0.088 C 
HETATM    9  C8  UNL     1     -33.419  16.774  -2.216  1.00 20.00     0.042 C 
HETATM   10  C9  UNL     1     -33.030  15.175  -4.145  1.00 20.00     0.042 C 
ENDBRANCH   5   7
BRANCH   5  11
HETATM   11  O11 UNL     1     -33.780  16.971  -6.623  1.00 20.00    -0.384 OA
HETATM   12  H27 UNL     1     -33.605  17.906  -6.807  1.00 20.00     0.211 HD
ENDBRANCH   5  11
TORSDOF 2
ENDMDL
