MODEL 1
REMARK VINA RESULT:      -4.2      0.000      0.000
REMARK  3 active torsions:
REMARK  status: ('A' for Active; 'I' for Inactive)
REMARK    1  A    between atoms: C2_2  and  C9_9 
REMARK    2  A    between atoms: C3_3  and  C5_5 
REMARK    3  A    between atoms: C3_3  and  C9_9 
ROOT
HETATM    1  C3  UNL     1     -33.617   7.967   4.925  1.00 20.00     0.135 C 
HETATM    2  O10 UNL     1     -34.380   8.801   4.440  1.00 20.00    -0.297 OA
ENDROOT
BRANCH   1   3
HETATM    3  C5  UNL     1     -33.978   7.236   6.194  1.00 20.00     0.060 A 
HETATM    4  C4  UNL     1     -33.356   5.906   6.437  1.00 20.00     0.017 A 
HETATM    5  C6  UNL     1     -34.823   6.011   6.125  1.00 20.00    -0.007 A 
HETATM    6  C8  UNL     1     -35.356   5.450   4.851  1.00 20.00     0.011 C 
ENDBRANCH   1   3
BRANCH   1   7
HETATM    7  C9  UNL     1     -32.257   7.636   4.329  1.00 20.00     0.111 C 
BRANCH   7   8
HETATM    8  C2  UNL     1     -32.371   7.140   2.913  1.00 20.00    -0.086 C 
HETATM    9  C1  UNL     1     -32.133   7.945   1.865  1.00 20.00     0.014 C 
HETATM   10  C7  UNL     1     -32.732   5.694   2.727  1.00 20.00     0.043 C 
ENDBRANCH   7   8
ENDBRANCH   1   7
TORSDOF 3
ENDMDL
MODEL 2
REMARK VINA RESULT:      -4.1      1.430      2.173
REMARK  3 active torsions:
REMARK  status: ('A' for Active; 'I' for Inactive)
REMARK    1  A    between atoms: C2_2  and  C9_9 
REMARK    2  A    between atoms: C3_3  and  C5_5 
REMARK    3  A    between atoms: C3_3  and  C9_9 
ROOT
HETATM    1  C3  UNL     1     -33.906   7.137   5.801  1.00 20.00     0.135 C 
HETATM    2  O10 UNL     1     -33.052   7.131   6.686  1.00 20.00    -0.297 OA
ENDROOT
BRANCH   1   3
HETATM    3  C5  UNL     1     -34.945   6.048   5.722  1.00 20.00     0.060 A 
HETATM    4  C4  UNL     1     -34.567   4.685   6.188  1.00 20.00     0.017 A 
HETATM    5  C6  UNL     1     -34.790   4.951   4.725  1.00 20.00    -0.007 A 
HETATM    6  C8  UNL     1     -33.650   4.863   3.769  1.00 20.00     0.011 C 
ENDBRANCH   1   3
BRANCH   1   7
HETATM    7  C9  UNL     1     -33.964   8.193   4.707  1.00 20.00     0.111 C 
BRANCH   7   8
HETATM    8  C2  UNL     1     -32.593   8.547   4.196  1.00 20.00    -0.086 C 
HETATM    9  C1  UNL     1     -31.831   9.469   4.806  1.00 20.00     0.014 C 
HETATM   10  C7  UNL     1     -32.105   7.797   2.989  1.00 20.00     0.043 C 
ENDBRANCH   7   8
ENDBRANCH   1   7
TORSDOF 3
ENDMDL
MODEL 3
REMARK VINA RESULT:      -4.0      1.660      4.193
REMARK  3 active torsions:
REMARK  status: ('A' for Active; 'I' for Inactive)
REMARK    1  A    between atoms: C2_2  and  C9_9 
REMARK    2  A    between atoms: C3_3  and  C5_5 
REMARK    3  A    between atoms: C3_3  and  C9_9 
ROOT
HETATM    1  C3  UNL     1     -33.214   6.275   3.406  1.00 20.00     0.135 C 
HETATM    2  O10 UNL     1     -32.979   5.277   2.724  1.00 20.00    -0.297 OA
ENDROOT
BRANCH   1   3
HETATM    3  C5  UNL     1     -32.175   7.352   3.583  1.00 20.00     0.060 A 
HETATM    4  C4  UNL     1     -32.640   8.762   3.694  1.00 20.00     0.017 A 
HETATM    5  C6  UNL     1     -31.900   8.302   2.468  1.00 20.00    -0.007 A 
HETATM    6  C8  UNL     1     -32.598   8.251   1.152  1.00 20.00     0.011 C 
ENDBRANCH   1   3
BRANCH   1   7
HETATM    7  C9  UNL     1     -34.525   6.485   4.148  1.00 20.00     0.111 C 
BRANCH   7   8
HETATM    8  C2  UNL     1     -34.411   6.117   5.603  1.00 20.00    -0.086 C 
HETATM    9  C1  UNL     1     -34.500   4.842   6.015  1.00 20.00     0.014 C 
HETATM   10  C7  UNL     1     -34.163   7.239   6.570  1.00 20.00     0.043 C 
ENDBRANCH   7   8
ENDBRANCH   1   7
TORSDOF 3
ENDMDL
MODEL 4
REMARK VINA RESULT:      -3.8     15.268     16.176
REMARK  3 active torsions:
REMARK  status: ('A' for Active; 'I' for Inactive)
REMARK    1  A    between atoms: C2_2  and  C9_9 
REMARK    2  A    between atoms: C3_3  and  C5_5 
REMARK    3  A    between atoms: C3_3  and  C9_9 
ROOT
HETATM    1  C3  UNL     1     -22.625  17.883  10.860  1.00 20.00     0.135 C 
HETATM    2  O10 UNL     1     -21.836  18.798  11.090  1.00 20.00    -0.297 OA
ENDROOT
BRANCH   1   3
HETATM    3  C5  UNL     1     -23.451  17.278  11.967  1.00 20.00     0.060 A 
HETATM    4  C4  UNL     1     -24.620  16.437  11.589  1.00 20.00     0.017 A 
HETATM    5  C6  UNL     1     -24.828  17.786  12.222  1.00 20.00    -0.007 A 
HETATM    6  C8  UNL     1     -25.458  18.887  11.438  1.00 20.00     0.011 C 
ENDBRANCH   1   3
BRANCH   1   7
HETATM    7  C9  UNL     1     -22.804  17.265   9.481  1.00 20.00     0.111 C 
BRANCH   7   8
HETATM    8  C2  UNL     1     -22.691  18.292   8.387  1.00 20.00    -0.086 C 
HETATM    9  C1  UNL     1     -23.653  19.205   8.178  1.00 20.00     0.014 C 
HETATM   10  C7  UNL     1     -21.437  18.267   7.560  1.00 20.00     0.043 C 
ENDBRANCH   7   8
ENDBRANCH   1   7
TORSDOF 3
ENDMDL
MODEL 5
REMARK VINA RESULT:      -3.8      0.613      3.570
REMARK  3 active torsions:
REMARK  status: ('A' for Active; 'I' for Inactive)
REMARK    1  A    between atoms: C2_2  and  C9_9 
REMARK    2  A    between atoms: C3_3  and  C5_5 
REMARK    3  A    between atoms: C3_3  and  C9_9 
ROOT
HETATM    1  C3  UNL     1     -33.563   8.006   4.566  1.00 20.00     0.135 C 
HETATM    2  O10 UNL     1     -34.492   8.628   4.053  1.00 20.00    -0.297 OA
ENDROOT
BRANCH   1   3
HETATM    3  C5  UNL     1     -32.230   7.895   3.870  1.00 20.00     0.060 A 
HETATM    4  C4  UNL     1     -32.180   8.165   2.407  1.00 20.00     0.017 A 
HETATM    5  C6  UNL     1     -31.982   6.768   2.927  1.00 20.00    -0.007 A 
HETATM    6  C8  UNL     1     -32.989   5.711   2.625  1.00 20.00     0.011 C 
ENDBRANCH   1   3
BRANCH   1   7
HETATM    7  C9  UNL     1     -33.683   7.274   5.895  1.00 20.00     0.111 C 
BRANCH   7   8
HETATM    8  C2  UNL     1     -34.481   6.004   5.765  1.00 20.00    -0.086 C 
HETATM    9  C1  UNL     1     -34.341   4.995   6.639  1.00 20.00     0.014 C 
HETATM   10  C7  UNL     1     -35.462   5.932   4.631  1.00 20.00     0.043 C 
ENDBRANCH   7   8
ENDBRANCH   1   7
TORSDOF 3
ENDMDL
MODEL 6
REMARK VINA RESULT:      -3.7      1.188      2.006
REMARK  3 active torsions:
REMARK  status: ('A' for Active; 'I' for Inactive)
REMARK    1  A    between atoms: C2_2  and  C9_9 
REMARK    2  A    between atoms: C3_3  and  C5_5 
REMARK    3  A    between atoms: C3_3  and  C9_9 
ROOT
HETATM    1  C3  UNL     1     -33.539   7.552   4.808  1.00 20.00     0.135 C 
HETATM    2  O10 UNL     1     -34.102   8.109   5.750  1.00 20.00    -0.297 OA
ENDROOT
BRANCH   1   3
HETATM    3  C5  UNL     1     -34.086   6.273   4.228  1.00 20.00     0.060 A 
HETATM    4  C4  UNL     1     -35.535   5.985   4.411  1.00 20.00     0.017 A 
HETATM    5  C6  UNL     1     -34.503   5.169   5.138  1.00 20.00    -0.007 A 
HETATM    6  C8  UNL     1     -34.404   5.244   6.623  1.00 20.00     0.011 C 
ENDBRANCH   1   3
BRANCH   1   7
HETATM    7  C9  UNL     1     -32.247   8.065   4.189  1.00 20.00     0.111 C 
BRANCH   7   8
HETATM    8  C2  UNL     1     -32.410   8.371   2.724  1.00 20.00    -0.086 C 
HETATM    9  C1  UNL     1     -32.063   7.484   1.779  1.00 20.00     0.014 C 
HETATM   10  C7  UNL     1     -33.008   9.702   2.372  1.00 20.00     0.043 C 
ENDBRANCH   7   8
ENDBRANCH   1   7
TORSDOF 3
ENDMDL
MODEL 7
REMARK VINA RESULT:      -3.6     11.820     13.222
REMARK  3 active torsions:
REMARK  status: ('A' for Active; 'I' for Inactive)
REMARK    1  A    between atoms: C2_2  and  C9_9 
REMARK    2  A    between atoms: C3_3  and  C5_5 
REMARK    3  A    between atoms: C3_3  and  C9_9 
ROOT
HETATM    1  C3  UNL     1     -34.125  15.003  -4.267  1.00 20.00     0.135 C 
HETATM    2  O10 UNL     1     -34.308  13.814  -4.004  1.00 20.00    -0.297 OA
ENDROOT
BRANCH   1   3
HETATM    3  C5  UNL     1     -35.106  15.765  -5.121  1.00 20.00     0.060 A 
HETATM    4  C4  UNL     1     -35.970  14.991  -6.055  1.00 20.00     0.017 A 
HETATM    5  C6  UNL     1     -34.876  15.874  -6.589  1.00 20.00    -0.007 A 
HETATM    6  C8  UNL     1     -33.705  15.269  -7.286  1.00 20.00     0.011 C 
ENDBRANCH   1   3
BRANCH   1   7
HETATM    7  C9  UNL     1     -32.902  15.779  -3.802  1.00 20.00     0.111 C 
BRANCH   7   8
HETATM    8  C2  UNL     1     -33.282  17.013  -3.029  1.00 20.00    -0.086 C 
HETATM    9  C1  UNL     1     -33.610  16.955  -1.728  1.00 20.00     0.014 C 
HETATM   10  C7  UNL     1     -33.246  18.317  -3.773  1.00 20.00     0.043 C 
ENDBRANCH   7   8
ENDBRANCH   1   7
TORSDOF 3
ENDMDL
MODEL 8
REMARK VINA RESULT:      -3.6      1.614      2.638
REMARK  3 active torsions:
REMARK  status: ('A' for Active; 'I' for Inactive)
REMARK    1  A    between atoms: C2_2  and  C9_9 
REMARK    2  A    between atoms: C3_3  and  C5_5 
REMARK    3  A    between atoms: C3_3  and  C9_9 
ROOT
HETATM    1  C3  UNL     1     -33.470   6.162   3.645  1.00 20.00     0.135 C 
HETATM    2  O10 UNL     1     -32.537   5.868   2.898  1.00 20.00    -0.297 OA
ENDROOT
BRANCH   1   3
HETATM    3  C5  UNL     1     -34.250   5.092   4.365  1.00 20.00     0.060 A 
HETATM    4  C4  UNL     1     -35.637   5.411   4.802  1.00 20.00     0.017 A 
HETATM    5  C6  UNL     1     -34.542   5.243   5.818  1.00 20.00    -0.007 A 
HETATM    6  C8  UNL     1     -34.094   6.411   6.630  1.00 20.00     0.011 C 
ENDBRANCH   1   3
BRANCH   1   7
HETATM    7  C9  UNL     1     -33.937   7.593   3.869  1.00 20.00     0.111 C 
BRANCH   7   8
HETATM    8  C2  UNL     1     -32.806   8.578   3.748  1.00 20.00    -0.086 C 
HETATM    9  C1  UNL     1     -32.040   8.900   4.802  1.00 20.00     0.014 C 
HETATM   10  C7  UNL     1     -32.555   9.159   2.387  1.00 20.00     0.043 C 
ENDBRANCH   7   8
ENDBRANCH   1   7
TORSDOF 3
ENDMDL
MODEL 9
REMARK VINA RESULT:      -3.6      8.981     10.387
REMARK  3 active torsions:
REMARK  status: ('A' for Active; 'I' for Inactive)
REMARK    1  A    between atoms: C2_2  and  C9_9 
REMARK    2  A    between atoms: C3_3  and  C5_5 
REMARK    3  A    between atoms: C3_3  and  C9_9 
ROOT
HETATM    1  C3  UNL     1     -41.772   5.809  -0.546  1.00 20.00     0.135 C 
HETATM    2  O10 UNL     1     -42.413   5.302  -1.466  1.00 20.00    -0.297 OA
ENDROOT
BRANCH   1   3
HETATM    3  C5  UNL     1     -41.139   7.168  -0.704  1.00 20.00     0.060 A 
HETATM    4  C4  UNL     1     -40.863   7.959   0.527  1.00 20.00     0.017 A 
HETATM    5  C6  UNL     1     -41.941   8.392  -0.426  1.00 20.00    -0.007 A 
HETATM    6  C8  UNL     1     -43.370   8.361   0.000  1.00 20.00     0.011 C 
ENDBRANCH   1   3
BRANCH   1   7
HETATM    7  C9  UNL     1     -41.527   5.110   0.783  1.00 20.00     0.111 C 
BRANCH   7   8
HETATM    8  C2  UNL     1     -42.816   4.767   1.481  1.00 20.00    -0.086 C 
HETATM    9  C1  UNL     1     -43.413   5.631   2.318  1.00 20.00     0.014 C 
HETATM   10  C7  UNL     1     -43.417   3.425   1.175  1.00 20.00     0.043 C 
ENDBRANCH   7   8
ENDBRANCH   1   7
TORSDOF 3
ENDMDL
