MODEL 1
REMARK VINA RESULT:      -4.0      0.000      0.000
REMARK  2 active torsions:
REMARK  status: ('A' for Active; 'I' for Inactive)
REMARK    1  A    between atoms: C9_9  and  C10_10 
REMARK    2  A    between atoms: C9_9  and  N12_12 
ROOT
HETATM    1  C1  UNL     1     -32.027  18.480  -1.347  1.00 20.00     0.065 C 
HETATM    2  C8  UNL     1     -34.495  18.520  -1.317  1.00 20.00     0.027 C 
HETATM    3  C10 UNL     1     -33.244  18.133  -2.107  1.00 20.00     0.114 C 
HETATM    4  N11 UNL     1     -31.069  18.752  -0.750  1.00 20.00    -0.197 NA
ENDROOT
BRANCH   3   5
HETATM    5  C9  UNL     1     -33.241  16.662  -2.532  1.00 20.00     0.253 C 
BRANCH   5   6
HETATM    6  N12 UNL     1     -33.388  16.508  -4.012  1.00 20.00    -0.069 N 
HETATM    7  C2  UNL     1     -34.258  15.339  -4.419  1.00 20.00     0.239 C 
HETATM    8  C4  UNL     1     -34.888  15.783  -5.732  1.00 20.00     0.012 C 
HETATM    9  C5  UNL     1     -35.129  17.282  -5.512  1.00 20.00     0.012 C 
HETATM   10  C6  UNL     1     -33.962  15.521  -6.921  1.00 20.00     0.012 C 
HETATM   11  C3  UNL     1     -33.908  17.747  -4.720  1.00 20.00     0.239 C 
HETATM   12  C7  UNL     1     -36.424  17.548  -4.742  1.00 20.00     0.012 C 
HETATM   13  H31 UNL     1     -32.445  16.321  -4.387  1.00 20.00     0.280 HD
ENDBRANCH   5   6
ENDBRANCH   3   5
TORSDOF 2
ENDMDL
MODEL 2
REMARK VINA RESULT:      -3.7      1.897      2.706
REMARK  2 active torsions:
REMARK  status: ('A' for Active; 'I' for Inactive)
REMARK    1  A    between atoms: C9_9  and  C10_10 
REMARK    2  A    between atoms: C9_9  and  N12_12 
ROOT
HETATM    1  C1  UNL     1     -33.544  18.941   0.851  1.00 20.00     0.065 C 
HETATM    2  C8  UNL     1     -31.088  18.879   0.617  1.00 20.00     0.027 C 
HETATM    3  C10 UNL     1     -32.431  18.534  -0.027  1.00 20.00     0.114 C 
HETATM    4  N11 UNL     1     -34.421  19.261   1.542  1.00 20.00    -0.197 NA
ENDROOT
BRANCH   3   5
HETATM    5  C9  UNL     1     -32.582  19.120  -1.435  1.00 20.00     0.253 C 
BRANCH   5   6
HETATM    6  N12 UNL     1     -32.623  18.053  -2.482  1.00 20.00    -0.069 N 
HETATM    7  C2  UNL     1     -33.445  16.845  -2.089  1.00 20.00     0.239 C 
HETATM    8  C4  UNL     1     -33.989  16.319  -3.411  1.00 20.00     0.012 C 
HETATM    9  C5  UNL     1     -34.265  17.601  -4.207  1.00 20.00     0.012 C 
HETATM   10  C6  UNL     1     -32.978  15.413  -4.117  1.00 20.00     0.012 C 
HETATM   11  C3  UNL     1     -33.109  18.530  -3.839  1.00 20.00     0.239 C 
HETATM   12  C7  UNL     1     -35.615  18.223  -3.842  1.00 20.00     0.012 C 
HETATM   13  H31 UNL     1     -31.654  17.723  -2.609  1.00 20.00     0.280 HD
ENDBRANCH   5   6
ENDBRANCH   3   5
TORSDOF 2
ENDMDL
MODEL 3
REMARK VINA RESULT:      -3.6      1.539      2.656
REMARK  2 active torsions:
REMARK  status: ('A' for Active; 'I' for Inactive)
REMARK    1  A    between atoms: C9_9  and  C10_10 
REMARK    2  A    between atoms: C9_9  and  N12_12 
ROOT
HETATM    1  C1  UNL     1     -34.600  18.503  -1.776  1.00 20.00     0.065 C 
HETATM    2  C8  UNL     1     -32.221  18.138  -1.232  1.00 20.00     0.027 C 
HETATM    3  C10 UNL     1     -33.488  17.536  -1.840  1.00 20.00     0.114 C 
HETATM    4  N11 UNL     1     -35.476  19.263  -1.727  1.00 20.00    -0.197 NA
ENDROOT
BRANCH   3   5
HETATM    5  C9  UNL     1     -33.273  17.018  -3.266  1.00 20.00     0.253 C 
BRANCH   5   6
HETATM    6  N12 UNL     1     -34.523  16.433  -3.842  1.00 20.00    -0.069 N 
HETATM    7  C2  UNL     1     -35.113  17.249  -4.971  1.00 20.00     0.239 C 
HETATM    8  C4  UNL     1     -35.794  16.216  -5.859  1.00 20.00     0.012 C 
HETATM    9  C5  UNL     1     -34.850  15.011  -5.778  1.00 20.00     0.012 C 
HETATM   10  C6  UNL     1     -37.199  15.878  -5.357  1.00 20.00     0.012 C 
HETATM   11  C3  UNL     1     -34.376  15.001  -4.325  1.00 20.00     0.239 C 
HETATM   12  C7  UNL     1     -33.671  15.139  -6.746  1.00 20.00     0.012 C 
HETATM   13  H31 UNL     1     -35.224  16.424  -3.085  1.00 20.00     0.280 HD
ENDBRANCH   5   6
ENDBRANCH   3   5
TORSDOF 2
ENDMDL
MODEL 4
REMARK VINA RESULT:      -3.6     12.107     14.143
REMARK  2 active torsions:
REMARK  status: ('A' for Active; 'I' for Inactive)
REMARK    1  A    between atoms: C9_9  and  C10_10 
REMARK    2  A    between atoms: C9_9  and  N12_12 
ROOT
HETATM    1  C1  UNL     1     -41.597  13.940   4.552  1.00 20.00     0.065 C 
HETATM    2  C8  UNL     1     -40.079  12.127   5.260  1.00 20.00     0.027 C 
HETATM    3  C10 UNL     1     -40.919  13.323   5.709  1.00 20.00     0.114 C 
HETATM    4  N11 UNL     1     -42.131  14.427   3.643  1.00 20.00    -0.197 NA
ENDROOT
BRANCH   3   5
HETATM    5  C9  UNL     1     -41.912  12.967   6.819  1.00 20.00     0.253 C 
BRANCH   5   6
HETATM    6  N12 UNL     1     -41.696  13.793   8.048  1.00 20.00    -0.069 N 
HETATM    7  C2  UNL     1     -40.268  14.258   8.224  1.00 20.00     0.239 C 
HETATM    8  C4  UNL     1     -40.398  15.587   8.956  1.00 20.00     0.012 C 
HETATM    9  C5  UNL     1     -41.664  16.199   8.343  1.00 20.00     0.012 C 
HETATM   10  C6  UNL     1     -40.531  15.390  10.467  1.00 20.00     0.012 C 
HETATM   11  C3  UNL     1     -42.601  15.008   8.149  1.00 20.00     0.239 C 
HETATM   12  C7  UNL     1     -41.377  16.901   7.014  1.00 20.00     0.012 C 
HETATM   13  H31 UNL     1     -41.913  13.188   8.854  1.00 20.00     0.280 HD
ENDBRANCH   5   6
ENDBRANCH   3   5
TORSDOF 2
ENDMDL
MODEL 5
REMARK VINA RESULT:      -3.5      1.707      5.191
REMARK  2 active torsions:
REMARK  status: ('A' for Active; 'I' for Inactive)
REMARK    1  A    between atoms: C9_9  and  C10_10 
REMARK    2  A    between atoms: C9_9  and  N12_12 
ROOT
HETATM    1  C1  UNL     1     -34.987  15.726  -5.153  1.00 20.00     0.065 C 
HETATM    2  C8  UNL     1     -32.916  15.272  -3.888  1.00 20.00     0.027 C 
HETATM    3  C10 UNL     1     -33.821  16.346  -4.494  1.00 20.00     0.114 C 
HETATM    4  N11 UNL     1     -35.905  15.240  -5.672  1.00 20.00    -0.197 NA
ENDROOT
BRANCH   3   5
HETATM    5  C9  UNL     1     -34.248  17.406  -3.475  1.00 20.00     0.253 C 
BRANCH   5   6
HETATM    6  N12 UNL     1     -33.258  17.542  -2.362  1.00 20.00    -0.069 N 
HETATM    7  C2  UNL     1     -32.653  18.925  -2.252  1.00 20.00     0.239 C 
HETATM    8  C4  UNL     1     -32.356  19.084  -0.767  1.00 20.00     0.012 C 
HETATM    9  C5  UNL     1     -33.535  18.366  -0.099  1.00 20.00     0.012 C 
HETATM   10  C6  UNL     1     -31.014  18.456  -0.388  1.00 20.00     0.012 C 
HETATM   11  C3  UNL     1     -33.798  17.158  -0.996  1.00 20.00     0.239 C 
HETATM   12  C7  UNL     1     -34.771  19.263   0.001  1.00 20.00     0.012 C 
HETATM   13  H31 UNL     1     -32.483  16.895  -2.572  1.00 20.00     0.280 HD
ENDBRANCH   5   6
ENDBRANCH   3   5
TORSDOF 2
ENDMDL
MODEL 6
REMARK VINA RESULT:      -3.5      2.330      3.563
REMARK  2 active torsions:
REMARK  status: ('A' for Active; 'I' for Inactive)
REMARK    1  A    between atoms: C9_9  and  C10_10 
REMARK    2  A    between atoms: C9_9  and  N12_12 
ROOT
HETATM    1  C1  UNL     1     -33.761  15.176  -3.828  1.00 20.00     0.065 C 
HETATM    2  C8  UNL     1     -33.446  16.853  -2.045  1.00 20.00     0.027 C 
HETATM    3  C10 UNL     1     -33.361  16.567  -3.545  1.00 20.00     0.114 C 
HETATM    4  N11 UNL     1     -34.075  14.080  -4.052  1.00 20.00    -0.197 NA
ENDROOT
BRANCH   3   5
HETATM    5  C9  UNL     1     -34.165  17.565  -4.384  1.00 20.00     0.253 C 
BRANCH   5   6
HETATM    6  N12 UNL     1     -35.537  17.058  -4.693  1.00 20.00    -0.069 N 
HETATM    7  C2  UNL     1     -36.645  17.967  -4.208  1.00 20.00     0.239 C 
HETATM    8  C4  UNL     1     -37.772  17.746  -5.208  1.00 20.00     0.012 C 
HETATM    9  C5  UNL     1     -37.027  17.569  -6.536  1.00 20.00     0.012 C 
HETATM   10  C6  UNL     1     -38.611  16.517  -4.852  1.00 20.00     0.012 C 
HETATM   11  C3  UNL     1     -35.779  16.770  -6.164  1.00 20.00     0.239 C 
HETATM   12  C7  UNL     1     -36.658  18.911  -7.172  1.00 20.00     0.012 C 
HETATM   13  H31 UNL     1     -35.645  16.164  -4.190  1.00 20.00     0.280 HD
ENDBRANCH   5   6
ENDBRANCH   3   5
TORSDOF 2
ENDMDL
MODEL 7
REMARK VINA RESULT:      -3.5     24.654     25.785
REMARK  2 active torsions:
REMARK  status: ('A' for Active; 'I' for Inactive)
REMARK    1  A    between atoms: C9_9  and  C10_10 
REMARK    2  A    between atoms: C9_9  and  N12_12 
ROOT
HETATM    1  C1  UNL     1     -24.005  -3.237   9.112  1.00 20.00     0.065 C 
HETATM    2  C8  UNL     1     -23.908  -2.250  11.372  1.00 20.00     0.027 C 
HETATM    3  C10 UNL     1     -24.812  -2.785  10.261  1.00 20.00     0.114 C 
HETATM    4  N11 UNL     1     -23.370  -3.595   8.208  1.00 20.00    -0.197 NA
ENDROOT
BRANCH   3   5
HETATM    5  C9  UNL     1     -25.765  -3.881  10.747  1.00 20.00     0.253 C 
BRANCH   5   6
HETATM    6  N12 UNL     1     -27.187  -3.418  10.768  1.00 20.00    -0.069 N 
HETATM    7  C2  UNL     1     -27.764  -3.288  12.160  1.00 20.00     0.239 C 
HETATM    8  C4  UNL     1     -28.783  -2.163  12.037  1.00 20.00     0.012 C 
HETATM    9  C5  UNL     1     -28.115  -1.196  11.051  1.00 20.00     0.012 C 
HETATM   10  C6  UNL     1     -30.128  -2.673  11.516  1.00 20.00     0.012 C 
HETATM   11  C3  UNL     1     -27.426  -2.109  10.037  1.00 20.00     0.239 C 
HETATM   12  C7  UNL     1     -27.108  -0.275  11.743  1.00 20.00     0.012 C 
HETATM   13  H31 UNL     1     -27.742  -4.139  10.282  1.00 20.00     0.280 HD
ENDBRANCH   5   6
ENDBRANCH   3   5
TORSDOF 2
ENDMDL
MODEL 8
REMARK VINA RESULT:      -3.4      2.037      3.272
REMARK  2 active torsions:
REMARK  status: ('A' for Active; 'I' for Inactive)
REMARK    1  A    between atoms: C9_9  and  C10_10 
REMARK    2  A    between atoms: C9_9  and  N12_12 
ROOT
HETATM    1  C1  UNL     1     -31.032  18.673   1.387  1.00 20.00     0.065 C 
HETATM    2  C8  UNL     1     -33.370  19.218   0.812  1.00 20.00     0.027 C 
HETATM    3  C10 UNL     1     -31.923  19.167   0.320  1.00 20.00     0.114 C 
HETATM    4  N11 UNL     1     -30.330  18.283   2.226  1.00 20.00    -0.197 NA
ENDROOT
BRANCH   3   5
HETATM    5  C9  UNL     1     -31.762  18.355  -0.969  1.00 20.00     0.253 C 
BRANCH   5   6
HETATM    6  N12 UNL     1     -33.046  18.257  -1.731  1.00 20.00    -0.069 N 
HETATM    7  C2  UNL     1     -32.949  18.765  -3.153  1.00 20.00     0.239 C 
HETATM    8  C4  UNL     1     -33.965  17.927  -3.917  1.00 20.00     0.012 C 
HETATM    9  C5  UNL     1     -33.847  16.549  -3.253  1.00 20.00     0.012 C 
HETATM   10  C6  UNL     1     -35.378  18.501  -3.797  1.00 20.00     0.012 C 
HETATM   11  C3  UNL     1     -33.641  16.861  -1.772  1.00 20.00     0.239 C 
HETATM   12  C7  UNL     1     -32.678  15.738  -3.817  1.00 20.00     0.012 C 
HETATM   13  H31 UNL     1     -33.727  18.860  -1.245  1.00 20.00     0.280 HD
ENDBRANCH   5   6
ENDBRANCH   3   5
TORSDOF 2
ENDMDL
MODEL 9
REMARK VINA RESULT:      -3.4      2.002      4.715
REMARK  2 active torsions:
REMARK  status: ('A' for Active; 'I' for Inactive)
REMARK    1  A    between atoms: C9_9  and  C10_10 
REMARK    2  A    between atoms: C9_9  and  N12_12 
ROOT
HETATM    1  C1  UNL     1     -36.392  17.255  -5.299  1.00 20.00     0.065 C 
HETATM    2  C8  UNL     1     -37.882  18.733  -4.001  1.00 20.00     0.027 C 
HETATM    3  C10 UNL     1     -36.473  18.152  -4.131  1.00 20.00     0.114 C 
HETATM    4  N11 UNL     1     -36.326  16.548  -6.219  1.00 20.00    -0.197 NA
ENDROOT
BRANCH   3   5
HETATM    5  C9  UNL     1     -35.388  19.232  -4.174  1.00 20.00     0.253 C 
BRANCH   5   6
HETATM    6  N12 UNL     1     -34.298  18.969  -3.184  1.00 20.00    -0.069 N 
HETATM    7  C2  UNL     1     -34.776  18.293  -1.918  1.00 20.00     0.239 C 
HETATM    8  C4  UNL     1     -33.582  17.464  -1.466  1.00 20.00     0.012 C 
HETATM    9  C5  UNL     1     -32.979  16.974  -2.788  1.00 20.00     0.012 C 
HETATM   10  C6  UNL     1     -32.588  18.298  -0.657  1.00 20.00     0.012 C 
HETATM   11  C3  UNL     1     -33.137  18.162  -3.736  1.00 20.00     0.239 C 
HETATM   12  C7  UNL     1     -33.699  15.736  -3.325  1.00 20.00     0.012 C 
HETATM   13  H31 UNL     1     -33.920  19.888  -2.906  1.00 20.00     0.280 HD
ENDBRANCH   5   6
ENDBRANCH   3   5
TORSDOF 2
ENDMDL
