MODEL 1
REMARK VINA RESULT:      -4.1      0.000      0.000
REMARK  3 active torsions:
REMARK  status: ('A' for Active; 'I' for Inactive)
REMARK    1  A    between atoms: C2_2  and  C9_9 
REMARK    2  A    between atoms: C7_7  and  C9_9 
REMARK    3  A    between atoms: C9_9  and  O11_11 
ROOT
HETATM    1  C3  UNL     1     -34.220  17.619  -4.689  1.00 20.00     0.034 C 
HETATM    2  C4  UNL     1     -33.196  16.174  -2.913  1.00 20.00     0.034 C 
HETATM    3  C5  UNL     1     -34.616  18.583  -3.578  1.00 20.00     0.168 C 
HETATM    4  C6  UNL     1     -33.648  17.220  -1.900  1.00 20.00     0.168 C 
HETATM    5  C7  UNL     1     -34.102  16.189  -4.149  1.00 20.00     0.023 C 
HETATM    6  O10 UNL     1     -33.688  18.516  -2.496  1.00 20.00    -0.391 OA
ENDROOT
BRANCH   5   7
HETATM    7  C9  UNL     1     -33.584  15.236  -5.222  1.00 20.00     0.150 C 
BRANCH   7   8
HETATM    8  C2  UNL     1     -34.505  15.148  -6.418  1.00 20.00    -0.064 C 
HETATM    9  C1  UNL     1     -35.761  14.691  -6.292  1.00 20.00     0.016 C 
HETATM   10  C8  UNL     1     -33.979  15.596  -7.753  1.00 20.00     0.045 C 
ENDBRANCH   7   8
BRANCH   7  11
HETATM   11  O11 UNL     1     -33.425  13.935  -4.660  1.00 20.00    -0.391 OA
HETATM   12  H27 UNL     1     -33.478  13.308  -5.397  1.00 20.00     0.210 HD
ENDBRANCH   7  11
ENDBRANCH   5   7
TORSDOF 3
ENDMDL
MODEL 2
REMARK VINA RESULT:      -3.9      1.763      4.212
REMARK  3 active torsions:
REMARK  status: ('A' for Active; 'I' for Inactive)
REMARK    1  A    between atoms: C2_2  and  C9_9 
REMARK    2  A    between atoms: C7_7  and  C9_9 
REMARK    3  A    between atoms: C9_9  and  O11_11 
ROOT
HETATM    1  C3  UNL     1     -36.066  15.999  -5.300  1.00 20.00     0.034 C 
HETATM    2  C4  UNL     1     -34.121  15.239  -6.689  1.00 20.00     0.034 C 
HETATM    3  C5  UNL     1     -36.811  16.247  -6.605  1.00 20.00     0.168 C 
HETATM    4  C6  UNL     1     -34.976  15.529  -7.918  1.00 20.00     0.168 C 
HETATM    5  C7  UNL     1     -34.552  16.117  -5.510  1.00 20.00     0.023 C 
HETATM    6  O10 UNL     1     -36.361  15.354  -7.623  1.00 20.00    -0.391 OA
ENDROOT
BRANCH   5   7
HETATM    7  C9  UNL     1     -33.790  15.747  -4.241  1.00 20.00     0.150 C 
BRANCH   7   8
HETATM    8  C2  UNL     1     -33.527  16.939  -3.349  1.00 20.00    -0.064 C 
HETATM    9  C1  UNL     1     -33.441  16.801  -2.016  1.00 20.00     0.016 C 
HETATM   10  C8  UNL     1     -33.355  18.285  -3.997  1.00 20.00     0.045 C 
ENDBRANCH   7   8
BRANCH   7  11
HETATM   11  O11 UNL     1     -32.545  15.149  -4.597  1.00 20.00    -0.391 OA
HETATM   12  H27 UNL     1     -31.921  15.367  -3.887  1.00 20.00     0.210 HD
ENDBRANCH   7  11
ENDBRANCH   5   7
TORSDOF 3
ENDMDL
MODEL 3
REMARK VINA RESULT:      -3.9     11.800     13.214
REMARK  3 active torsions:
REMARK  status: ('A' for Active; 'I' for Inactive)
REMARK    1  A    between atoms: C2_2  and  C9_9 
REMARK    2  A    between atoms: C7_7  and  C9_9 
REMARK    3  A    between atoms: C9_9  and  O11_11 
ROOT
HETATM    1  C3  UNL     1     -33.857   7.143   6.232  1.00 20.00     0.034 C 
HETATM    2  C4  UNL     1     -33.697   6.123   3.946  1.00 20.00     0.034 C 
HETATM    3  C5  UNL     1     -34.720   5.952   6.626  1.00 20.00     0.168 C 
HETATM    4  C6  UNL     1     -34.569   4.987   4.469  1.00 20.00     0.168 C 
HETATM    5  C7  UNL     1     -33.964   7.414   4.727  1.00 20.00     0.023 C 
HETATM    6  O10 UNL     1     -34.365   4.796   5.868  1.00 20.00    -0.391 OA
ENDROOT
BRANCH   5   7
HETATM    7  C9  UNL     1     -33.008   8.524   4.298  1.00 20.00     0.150 C 
BRANCH   7   8
HETATM    8  C2  UNL     1     -32.599   8.414   2.847  1.00 20.00    -0.064 C 
HETATM    9  C1  UNL     1     -31.907   7.353   2.401  1.00 20.00     0.016 C 
HETATM   10  C8  UNL     1     -32.998   9.522   1.911  1.00 20.00     0.045 C 
ENDBRANCH   7   8
BRANCH   7  11
HETATM   11  O11 UNL     1     -31.840   8.482   5.115  1.00 20.00    -0.391 OA
HETATM   12  H27 UNL     1     -31.142   8.077   4.578  1.00 20.00     0.210 HD
ENDBRANCH   7  11
ENDBRANCH   5   7
TORSDOF 3
ENDMDL
MODEL 4
REMARK VINA RESULT:      -3.9      1.633      4.826
REMARK  3 active torsions:
REMARK  status: ('A' for Active; 'I' for Inactive)
REMARK    1  A    between atoms: C2_2  and  C9_9 
REMARK    2  A    between atoms: C7_7  and  C9_9 
REMARK    3  A    between atoms: C9_9  and  O11_11 
ROOT
HETATM    1  C3  UNL     1     -33.068  15.627  -3.743  1.00 20.00     0.034 C 
HETATM    2  C4  UNL     1     -34.591  17.419  -4.614  1.00 20.00     0.034 C 
HETATM    3  C5  UNL     1     -33.999  14.615  -4.399  1.00 20.00     0.168 C 
HETATM    4  C6  UNL     1     -35.437  16.306  -5.223  1.00 20.00     0.168 C 
HETATM    5  C7  UNL     1     -33.828  16.910  -3.387  1.00 20.00     0.023 C 
HETATM    6  O10 UNL     1     -34.627  15.178  -5.550  1.00 20.00    -0.391 OA
ENDROOT
BRANCH   5   7
HETATM    7  C9  UNL     1     -32.882  17.978  -2.845  1.00 20.00     0.150 C 
BRANCH   7   8
HETATM    8  C2  UNL     1     -32.841  18.010  -1.334  1.00 20.00    -0.064 C 
HETATM    9  C1  UNL     1     -33.898  17.618  -0.605  1.00 20.00     0.016 C 
HETATM   10  C8  UNL     1     -31.579  18.483  -0.669  1.00 20.00     0.045 C 
ENDBRANCH   7   8
BRANCH   7  11
HETATM   11  O11 UNL     1     -33.289  19.256  -3.327  1.00 20.00    -0.391 OA
HETATM   12  H27 UNL     1     -32.478  19.766  -3.475  1.00 20.00     0.210 HD
ENDBRANCH   7  11
ENDBRANCH   5   7
TORSDOF 3
ENDMDL
MODEL 5
REMARK VINA RESULT:      -3.9     11.905     13.299
REMARK  3 active torsions:
REMARK  status: ('A' for Active; 'I' for Inactive)
REMARK    1  A    between atoms: C2_2  and  C9_9 
REMARK    2  A    between atoms: C7_7  and  C9_9 
REMARK    3  A    between atoms: C9_9  and  O11_11 
ROOT
HETATM    1  C3  UNL     1     -34.065   6.094   3.869  1.00 20.00     0.034 C 
HETATM    2  C4  UNL     1     -34.075   6.948   6.228  1.00 20.00     0.034 C 
HETATM    3  C5  UNL     1     -34.399   4.721   4.440  1.00 20.00     0.168 C 
HETATM    4  C6  UNL     1     -34.410   5.527   6.667  1.00 20.00     0.168 C 
HETATM    5  C7  UNL     1     -33.309   6.939   4.901  1.00 20.00     0.023 C 
HETATM    6  O10 UNL     1     -35.144   4.845   5.651  1.00 20.00    -0.391 OA
ENDROOT
BRANCH   5   7
HETATM    7  C9  UNL     1     -33.079   8.358   4.388  1.00 20.00     0.150 C 
BRANCH   7   8
HETATM    8  C2  UNL     1     -32.612   8.391   2.951  1.00 20.00    -0.064 C 
HETATM    9  C1  UNL     1     -31.898   7.380   2.432  1.00 20.00     0.016 C 
HETATM   10  C8  UNL     1     -32.979   9.585   2.114  1.00 20.00     0.045 C 
ENDBRANCH   7   8
BRANCH   7  11
HETATM   11  O11 UNL     1     -32.108   9.004   5.209  1.00 20.00    -0.391 OA
HETATM   12  H27 UNL     1     -31.996   9.898   4.852  1.00 20.00     0.210 HD
ENDBRANCH   7  11
ENDBRANCH   5   7
TORSDOF 3
ENDMDL
MODEL 6
REMARK VINA RESULT:      -3.8     11.603     12.918
REMARK  3 active torsions:
REMARK  status: ('A' for Active; 'I' for Inactive)
REMARK    1  A    between atoms: C2_2  and  C9_9 
REMARK    2  A    between atoms: C7_7  and  C9_9 
REMARK    3  A    between atoms: C9_9  and  O11_11 
ROOT
HETATM    1  C3  UNL     1     -33.153   7.305   5.630  1.00 20.00     0.034 C 
HETATM    2  C4  UNL     1     -34.158   5.591   4.100  1.00 20.00     0.034 C 
HETATM    3  C5  UNL     1     -34.310   7.030   6.583  1.00 20.00     0.168 C 
HETATM    4  C6  UNL     1     -35.259   5.411   5.139  1.00 20.00     0.168 C 
HETATM    5  C7  UNL     1     -33.558   6.999   4.184  1.00 20.00     0.023 C 
HETATM    6  O10 UNL     1     -34.766   5.685   6.450  1.00 20.00    -0.391 OA
ENDROOT
BRANCH   5   7
HETATM    7  C9  UNL     1     -32.372   7.149   3.236  1.00 20.00     0.150 C 
BRANCH   7   8
HETATM    8  C2  UNL     1     -32.472   8.382   2.367  1.00 20.00    -0.064 C 
HETATM    9  C1  UNL     1     -32.876   9.557   2.876  1.00 20.00     0.016 C 
HETATM   10  C8  UNL     1     -32.095   8.259   0.916  1.00 20.00     0.045 C 
ENDBRANCH   7   8
BRANCH   7  11
HETATM   11  O11 UNL     1     -32.287   5.996   2.401  1.00 20.00    -0.391 OA
HETATM   12  H27 UNL     1     -32.472   5.232   2.967  1.00 20.00     0.210 HD
ENDBRANCH   7  11
ENDBRANCH   5   7
TORSDOF 3
ENDMDL
MODEL 7
REMARK VINA RESULT:      -3.7     12.292     13.665
REMARK  3 active torsions:
REMARK  status: ('A' for Active; 'I' for Inactive)
REMARK    1  A    between atoms: C2_2  and  C9_9 
REMARK    2  A    between atoms: C7_7  and  C9_9 
REMARK    3  A    between atoms: C9_9  and  O11_11 
ROOT
HETATM    1  C3  UNL     1     -42.726  12.536   7.103  1.00 20.00     0.034 C 
HETATM    2  C4  UNL     1     -41.463  14.648   6.618  1.00 20.00     0.034 C 
HETATM    3  C5  UNL     1     -43.188  13.193   8.398  1.00 20.00     0.168 C 
HETATM    4  C6  UNL     1     -41.997  15.188   7.940  1.00 20.00     0.168 C 
HETATM    5  C7  UNL     1     -41.382  13.118   6.651  1.00 20.00     0.023 C 
HETATM    6  O10 UNL     1     -43.265  14.610   8.246  1.00 20.00    -0.391 OA
ENDROOT
BRANCH   5   7
HETATM    7  C9  UNL     1     -40.970  12.560   5.292  1.00 20.00     0.150 C 
BRANCH   7   8
HETATM    8  C2  UNL     1     -39.530  12.100   5.262  1.00 20.00    -0.064 C 
HETATM    9  C1  UNL     1     -38.787  12.078   6.380  1.00 20.00     0.016 C 
HETATM   10  C8  UNL     1     -38.954  11.656   3.946  1.00 20.00     0.045 C 
ENDBRANCH   7   8
BRANCH   7  11
HETATM   11  O11 UNL     1     -41.159  13.561   4.294  1.00 20.00    -0.391 OA
HETATM   12  H27 UNL     1     -41.967  13.323   3.815  1.00 20.00     0.210 HD
ENDBRANCH   7  11
ENDBRANCH   5   7
TORSDOF 3
ENDMDL
MODEL 8
REMARK VINA RESULT:      -3.7      0.684      1.894
REMARK  3 active torsions:
REMARK  status: ('A' for Active; 'I' for Inactive)
REMARK    1  A    between atoms: C2_2  and  C9_9 
REMARK    2  A    between atoms: C7_7  and  C9_9 
REMARK    3  A    between atoms: C9_9  and  O11_11 
ROOT
HETATM    1  C3  UNL     1     -33.337  16.323  -2.682  1.00 20.00     0.034 C 
HETATM    2  C4  UNL     1     -35.024  17.172  -4.332  1.00 20.00     0.034 C 
HETATM    3  C5  UNL     1     -33.392  17.697  -2.025  1.00 20.00     0.168 C 
HETATM    4  C6  UNL     1     -34.986  18.499  -3.583  1.00 20.00     0.168 C 
HETATM    5  C7  UNL     1     -33.699  16.419  -4.168  1.00 20.00     0.023 C 
HETATM    6  O10 UNL     1     -34.676  18.292  -2.205  1.00 20.00    -0.391 OA
ENDROOT
BRANCH   5   7
HETATM    7  C9  UNL     1     -33.771  15.035  -4.807  1.00 20.00     0.150 C 
BRANCH   7   8
HETATM    8  C2  UNL     1     -34.476  15.045  -6.145  1.00 20.00    -0.064 C 
HETATM    9  C1  UNL     1     -33.858  15.494  -7.249  1.00 20.00     0.016 C 
HETATM   10  C8  UNL     1     -35.887  14.528  -6.206  1.00 20.00     0.045 C 
ENDBRANCH   7   8
BRANCH   7  11
HETATM   11  O11 UNL     1     -34.454  14.144  -3.928  1.00 20.00    -0.391 OA
HETATM   12  H27 UNL     1     -35.327  14.532  -3.766  1.00 20.00     0.210 HD
ENDBRANCH   7  11
ENDBRANCH   5   7
TORSDOF 3
ENDMDL
MODEL 9
REMARK VINA RESULT:      -3.5      1.766      4.998
REMARK  3 active torsions:
REMARK  status: ('A' for Active; 'I' for Inactive)
REMARK    1  A    between atoms: C2_2  and  C9_9 
REMARK    2  A    between atoms: C7_7  and  C9_9 
REMARK    3  A    between atoms: C9_9  and  O11_11 
ROOT
HETATM    1  C3  UNL     1     -34.632  18.052  -4.183  1.00 20.00     0.034 C 
HETATM    2  C4  UNL     1     -33.487  16.450  -2.628  1.00 20.00     0.034 C 
HETATM    3  C5  UNL     1     -34.458  17.005  -5.276  1.00 20.00     0.168 C 
HETATM    4  C6  UNL     1     -33.379  15.492  -3.808  1.00 20.00     0.168 C 
HETATM    5  C7  UNL     1     -33.544  17.903  -3.113  1.00 20.00     0.023 C 
HETATM    6  O10 UNL     1     -34.458  15.690  -4.721  1.00 20.00    -0.391 OA
ENDROOT
BRANCH   5   7
HETATM    7  C9  UNL     1     -33.779  18.863  -1.950  1.00 20.00     0.150 C 
BRANCH   7   8
HETATM    8  C2  UNL     1     -32.987  18.491  -0.717  1.00 20.00    -0.064 C 
HETATM    9  C1  UNL     1     -31.646  18.547  -0.713  1.00 20.00     0.016 C 
HETATM   10  C8  UNL     1     -33.744  18.068   0.511  1.00 20.00     0.045 C 
ENDBRANCH   7   8
BRANCH   7  11
HETATM   11  O11 UNL     1     -35.168  18.877  -1.625  1.00 20.00    -0.391 OA
HETATM   12  H27 UNL     1     -35.315  19.663  -1.078  1.00 20.00     0.210 HD
ENDBRANCH   7  11
ENDBRANCH   5   7
TORSDOF 3
ENDMDL
