MODEL 1
REMARK VINA RESULT:      -4.7      0.000      0.000
REMARK  4 active torsions:
REMARK  status: ('A' for Active; 'I' for Inactive)
REMARK    1  A    between atoms: C2_2  and  C5_5 
REMARK    2  A    between atoms: C5_5  and  C6_6 
REMARK    3  A    between atoms: C6_6  and  C7_7 
REMARK    4  A    between atoms: C7_7  and  C8_8 
ROOT
HETATM    1  C6  UNL     1     -33.705   8.271   4.927  1.00 20.00     0.006 C 
ENDROOT
BRANCH   1   2
HETATM    2  C5  UNL     1     -34.029   7.368   6.124  1.00 20.00     0.033 C 
BRANCH   2   3
HETATM    3  C2  UNL     1     -34.581   6.009   5.760  1.00 20.00    -0.093 C 
HETATM    4  C1  UNL     1     -34.286   4.916   6.482  1.00 20.00     0.014 C 
HETATM    5  C3  UNL     1     -35.443   5.926   4.534  1.00 20.00     0.042 C 
ENDBRANCH   2   3
ENDBRANCH   1   2
BRANCH   1   6
HETATM    6  C7  UNL     1     -32.218   8.257   4.547  1.00 20.00     0.020 C 
BRANCH   6   7
HETATM    7  C8  UNL     1     -31.974   7.937   3.066  1.00 20.00     0.078 C 
HETATM    8  C4  UNL     1     -32.487   6.546   2.712  1.00 20.00     0.026 C 
HETATM    9 CL9  UNL     1     -32.779   9.134   2.005  1.00 20.00    -0.125 Cl
ENDBRANCH   6   7
ENDBRANCH   1   6
TORSDOF 4
ENDMDL
MODEL 2
REMARK VINA RESULT:      -4.5      2.056      3.907
REMARK  4 active torsions:
REMARK  status: ('A' for Active; 'I' for Inactive)
REMARK    1  A    between atoms: C2_2  and  C5_5 
REMARK    2  A    between atoms: C5_5  and  C6_6 
REMARK    3  A    between atoms: C6_6  and  C7_7 
REMARK    4  A    between atoms: C7_7  and  C8_8 
ROOT
HETATM    1  C6  UNL     1     -33.904   7.927   5.457  1.00 20.00     0.006 C 
ENDROOT
BRANCH   1   2
HETATM    2  C5  UNL     1     -32.545   8.220   4.806  1.00 20.00     0.033 C 
BRANCH   2   3
HETATM    3  C2  UNL     1     -32.489   7.965   3.318  1.00 20.00    -0.093 C 
HETATM    4  C1  UNL     1     -32.258   6.739   2.823  1.00 20.00     0.014 C 
HETATM    5  C3  UNL     1     -32.664   9.151   2.413  1.00 20.00     0.042 C 
ENDBRANCH   2   3
ENDBRANCH   1   2
BRANCH   1   6
HETATM    6  C7  UNL     1     -33.936   6.588   6.206  1.00 20.00     0.020 C 
BRANCH   6   7
HETATM    7  C8  UNL     1     -34.808   5.529   5.517  1.00 20.00     0.078 C 
HETATM    8  C4  UNL     1     -35.623   6.140   4.383  1.00 20.00     0.026 C 
HETATM    9 CL9  UNL     1     -33.809   4.199   4.856  1.00 20.00    -0.125 Cl
ENDBRANCH   6   7
ENDBRANCH   1   6
TORSDOF 4
ENDMDL
MODEL 3
REMARK VINA RESULT:      -4.4      1.352      1.423
REMARK  4 active torsions:
REMARK  status: ('A' for Active; 'I' for Inactive)
REMARK    1  A    between atoms: C2_2  and  C5_5 
REMARK    2  A    between atoms: C5_5  and  C6_6 
REMARK    3  A    between atoms: C6_6  and  C7_7 
REMARK    4  A    between atoms: C7_7  and  C8_8 
ROOT
HETATM    1  C6  UNL     1     -33.581   8.275   4.916  1.00 20.00     0.006 C 
ENDROOT
BRANCH   1   2
HETATM    2  C5  UNL     1     -33.728   7.279   6.075  1.00 20.00     0.033 C 
BRANCH   2   3
HETATM    3  C2  UNL     1     -34.523   6.037   5.746  1.00 20.00    -0.093 C 
HETATM    4  C1  UNL     1     -34.381   4.904   6.452  1.00 20.00     0.014 C 
HETATM    5  C3  UNL     1     -35.453   6.112   4.569  1.00 20.00     0.042 C 
ENDBRANCH   2   3
ENDBRANCH   1   2
BRANCH   1   6
HETATM    6  C7  UNL     1     -32.378   7.972   4.013  1.00 20.00     0.020 C 
BRANCH   6   7
HETATM    7  C8  UNL     1     -32.776   7.404   2.644  1.00 20.00     0.078 C 
HETATM    8  C4  UNL     1     -31.930   8.010   1.530  1.00 20.00     0.026 C 
HETATM    9 CL9  UNL     1     -32.589   5.624   2.605  1.00 20.00    -0.125 Cl
ENDBRANCH   6   7
ENDBRANCH   1   6
TORSDOF 4
ENDMDL
MODEL 4
REMARK VINA RESULT:      -4.3      1.019      2.382
REMARK  4 active torsions:
REMARK  status: ('A' for Active; 'I' for Inactive)
REMARK    1  A    between atoms: C2_2  and  C5_5 
REMARK    2  A    between atoms: C5_5  and  C6_6 
REMARK    3  A    between atoms: C6_6  and  C7_7 
REMARK    4  A    between atoms: C7_7  and  C8_8 
ROOT
HETATM    1  C6  UNL     1     -33.188   5.684   2.754  1.00 20.00     0.006 C 
ENDROOT
BRANCH   1   2
HETATM    2  C5  UNL     1     -33.598   4.821   3.955  1.00 20.00     0.033 C 
BRANCH   2   3
HETATM    3  C2  UNL     1     -34.665   5.429   4.836  1.00 20.00    -0.093 C 
HETATM    4  C1  UNL     1     -35.759   6.007   4.315  1.00 20.00     0.014 C 
HETATM    5  C3  UNL     1     -34.432   5.390   6.319  1.00 20.00     0.042 C 
ENDBRANCH   2   3
ENDBRANCH   1   2
BRANCH   1   6
HETATM    6  C7  UNL     1     -32.217   6.812   3.127  1.00 20.00     0.020 C 
BRANCH   6   7
HETATM    7  C8  UNL     1     -32.923   8.130   3.474  1.00 20.00     0.078 C 
HETATM    8  C4  UNL     1     -32.374   8.724   4.766  1.00 20.00     0.026 C 
HETATM    9 CL9  UNL     1     -32.729   9.331   2.161  1.00 20.00    -0.125 Cl
ENDBRANCH   6   7
ENDBRANCH   1   6
TORSDOF 4
ENDMDL
MODEL 5
REMARK VINA RESULT:      -4.3      1.347      1.832
REMARK  4 active torsions:
REMARK  status: ('A' for Active; 'I' for Inactive)
REMARK    1  A    between atoms: C2_2  and  C5_5 
REMARK    2  A    between atoms: C5_5  and  C6_6 
REMARK    3  A    between atoms: C6_6  and  C7_7 
REMARK    4  A    between atoms: C7_7  and  C8_8 
ROOT
HETATM    1  C6  UNL     1     -33.502   8.328   4.935  1.00 20.00     0.006 C 
ENDROOT
BRANCH   1   2
HETATM    2  C5  UNL     1     -33.693   7.273   6.033  1.00 20.00     0.033 C 
BRANCH   2   3
HETATM    3  C2  UNL     1     -34.553   6.095   5.635  1.00 20.00    -0.093 C 
HETATM    4  C1  UNL     1     -35.407   6.167   4.603  1.00 20.00     0.014 C 
HETATM    5  C3  UNL     1     -34.437   4.851   6.469  1.00 20.00     0.042 C 
ENDBRANCH   2   3
ENDBRANCH   1   2
BRANCH   1   6
HETATM    6  C7  UNL     1     -32.322   8.018   4.003  1.00 20.00     0.020 C 
BRANCH   6   7
HETATM    7  C8  UNL     1     -32.756   7.459   2.642  1.00 20.00     0.078 C 
HETATM    8  C4  UNL     1     -31.924   8.055   1.512  1.00 20.00     0.026 C 
HETATM    9 CL9  UNL     1     -32.595   5.676   2.596  1.00 20.00    -0.125 Cl
ENDBRANCH   6   7
ENDBRANCH   1   6
TORSDOF 4
ENDMDL
MODEL 6
REMARK VINA RESULT:      -4.3      1.754      3.919
REMARK  4 active torsions:
REMARK  status: ('A' for Active; 'I' for Inactive)
REMARK    1  A    between atoms: C2_2  and  C5_5 
REMARK    2  A    between atoms: C5_5  and  C6_6 
REMARK    3  A    between atoms: C6_6  and  C7_7 
REMARK    4  A    between atoms: C7_7  and  C8_8 
ROOT
HETATM    1  C6  UNL     1     -33.605   8.253   4.734  1.00 20.00     0.006 C 
ENDROOT
BRANCH   1   2
HETATM    2  C5  UNL     1     -32.250   8.071   4.036  1.00 20.00     0.033 C 
BRANCH   2   3
HETATM    3  C2  UNL     1     -32.321   7.401   2.683  1.00 20.00    -0.093 C 
HETATM    4  C1  UNL     1     -32.552   6.084   2.563  1.00 20.00     0.014 C 
HETATM    5  C3  UNL     1     -32.083   8.265   1.478  1.00 20.00     0.042 C 
ENDBRANCH   2   3
ENDBRANCH   1   2
BRANCH   1   6
HETATM    6  C7  UNL     1     -33.788   7.323   5.941  1.00 20.00     0.020 C 
BRANCH   6   7
HETATM    7  C8  UNL     1     -34.273   5.918   5.556  1.00 20.00     0.078 C 
HETATM    8  C4  UNL     1     -34.765   5.152   6.779  1.00 20.00     0.026 C 
HETATM    9 CL9  UNL     1     -35.598   5.999   4.356  1.00 20.00    -0.125 Cl
ENDBRANCH   6   7
ENDBRANCH   1   6
TORSDOF 4
ENDMDL
MODEL 7
REMARK VINA RESULT:      -4.2      1.377      1.899
REMARK  4 active torsions:
REMARK  status: ('A' for Active; 'I' for Inactive)
REMARK    1  A    between atoms: C2_2  and  C5_5 
REMARK    2  A    between atoms: C5_5  and  C6_6 
REMARK    3  A    between atoms: C6_6  and  C7_7 
REMARK    4  A    between atoms: C7_7  and  C8_8 
ROOT
HETATM    1  C6  UNL     1     -33.744   6.850   6.542  1.00 20.00     0.006 C 
ENDROOT
BRANCH   1   2
HETATM    2  C5  UNL     1     -34.663   5.645   6.300  1.00 20.00     0.033 C 
BRANCH   2   3
HETATM    3  C2  UNL     1     -34.823   5.253   4.849  1.00 20.00    -0.093 C 
HETATM    4  C1  UNL     1     -33.981   4.391   4.258  1.00 20.00     0.014 C 
HETATM    5  C3  UNL     1     -35.944   5.897   4.086  1.00 20.00     0.042 C 
ENDBRANCH   2   3
ENDBRANCH   1   2
BRANCH   1   6
HETATM    6  C7  UNL     1     -33.763   7.862   5.388  1.00 20.00     0.020 C 
BRANCH   6   7
HETATM    7  C8  UNL     1     -32.385   8.076   4.748  1.00 20.00     0.078 C 
HETATM    8  C4  UNL     1     -32.390   7.660   3.281  1.00 20.00     0.026 C 
HETATM    9 CL9  UNL     1     -31.882   9.791   4.857  1.00 20.00    -0.125 Cl
ENDBRANCH   6   7
ENDBRANCH   1   6
TORSDOF 4
ENDMDL
MODEL 8
REMARK VINA RESULT:      -4.2      1.969      4.103
REMARK  4 active torsions:
REMARK  status: ('A' for Active; 'I' for Inactive)
REMARK    1  A    between atoms: C2_2  and  C5_5 
REMARK    2  A    between atoms: C5_5  and  C6_6 
REMARK    3  A    between atoms: C6_6  and  C7_7 
REMARK    4  A    between atoms: C7_7  and  C8_8 
ROOT
HETATM    1  C6  UNL     1     -33.419   5.708   2.909  1.00 20.00     0.006 C 
ENDROOT
BRANCH   1   2
HETATM    2  C5  UNL     1     -32.210   6.645   3.039  1.00 20.00     0.033 C 
BRANCH   2   3
HETATM    3  C2  UNL     1     -32.539   8.040   3.516  1.00 20.00    -0.093 C 
HETATM    4  C1  UNL     1     -32.684   8.321   4.820  1.00 20.00     0.014 C 
HETATM    5  C3  UNL     1     -32.734   9.094   2.464  1.00 20.00     0.042 C 
ENDBRANCH   2   3
ENDBRANCH   1   2
BRANCH   1   6
HETATM    6  C7  UNL     1     -33.543   4.721   4.077  1.00 20.00     0.020 C 
BRANCH   6   7
HETATM    7  C8  UNL     1     -34.774   4.976   4.958  1.00 20.00     0.078 C 
HETATM    8  C4  UNL     1     -34.367   5.440   6.351  1.00 20.00     0.026 C 
HETATM    9 CL9  UNL     1     -35.844   6.213   4.229  1.00 20.00    -0.125 Cl
ENDBRANCH   6   7
ENDBRANCH   1   6
TORSDOF 4
ENDMDL
MODEL 9
REMARK VINA RESULT:      -4.1      0.941      2.079
REMARK  4 active torsions:
REMARK  status: ('A' for Active; 'I' for Inactive)
REMARK    1  A    between atoms: C2_2  and  C5_5 
REMARK    2  A    between atoms: C5_5  and  C6_6 
REMARK    3  A    between atoms: C6_6  and  C7_7 
REMARK    4  A    between atoms: C7_7  and  C8_8 
ROOT
HETATM    1  C6  UNL     1     -33.851   5.319   3.422  1.00 20.00     0.006 C 
ENDROOT
BRANCH   1   2
HETATM    2  C5  UNL     1     -34.755   6.175   4.320  1.00 20.00     0.033 C 
BRANCH   2   3
HETATM    3  C2  UNL     1     -34.449   6.085   5.797  1.00 20.00    -0.093 C 
HETATM    4  C1  UNL     1     -34.502   4.916   6.455  1.00 20.00     0.014 C 
HETATM    5  C3  UNL     1     -34.118   7.366   6.506  1.00 20.00     0.042 C 
ENDBRANCH   2   3
ENDBRANCH   1   2
BRANCH   1   6
HETATM    6  C7  UNL     1     -32.542   6.024   3.043  1.00 20.00     0.020 C 
BRANCH   6   7
HETATM    7  C8  UNL     1     -32.683   7.549   2.934  1.00 20.00     0.078 C 
HETATM    8  C4  UNL     1     -31.891   8.253   4.030  1.00 20.00     0.026 C 
HETATM    9 CL9  UNL     1     -32.112   8.138   1.343  1.00 20.00    -0.125 Cl
ENDBRANCH   6   7
ENDBRANCH   1   6
TORSDOF 4
ENDMDL
