MODEL 1
REMARK VINA RESULT:      -6.7      0.000      0.000
REMARK  0 active torsions:
REMARK  status: ('A' for Active; 'I' for Inactive)
ROOT
HETATM    1  C1  UNL     1     -33.262   8.384   5.141  1.00 20.00     0.063 A 
HETATM    2  C2  UNL     1     -32.369   7.613   3.007  1.00 20.00     0.098 A 
HETATM    3  C3  UNL     1     -33.556   6.116   4.412  1.00 20.00     0.055 A 
HETATM    4  C4  UNL     1     -33.759   7.110   5.362  1.00 20.00    -0.037 A 
HETATM    5  C5  UNL     1     -32.563   8.633   3.955  1.00 20.00     0.175 A 
HETATM    6  C6  UNL     1     -32.871   6.331   3.231  1.00 20.00     0.134 A 
HETATM    7  C7  UNL     1     -34.177   4.893   4.894  1.00 20.00     0.163 A 
HETATM    8  C8  UNL     1     -34.528   6.629   6.551  1.00 20.00     0.047 A 
HETATM    9  C9  UNL     1     -34.807   5.147   6.243  1.00 20.00     0.088 A 
HETATM   10  O10 UNL     1     -32.095   9.804   3.729  1.00 20.00    -0.288 OA
HETATM   11  O11 UNL     1     -34.174   3.837   4.289  1.00 20.00    -0.292 OA
HETATM   12  F12 UNL     1     -32.691   5.356   2.333  1.00 20.00    -0.205 F 
ENDROOT
TORSDOF 0
ENDMDL
MODEL 2
REMARK VINA RESULT:      -6.2      2.178      2.775
REMARK  0 active torsions:
REMARK  status: ('A' for Active; 'I' for Inactive)
ROOT
HETATM    1  C1  UNL     1     -32.943   6.194   2.726  1.00 20.00     0.063 A 
HETATM    2  C2  UNL     1     -32.503   8.485   3.435  1.00 20.00     0.098 A 
HETATM    3  C3  UNL     1     -33.623   6.983   4.888  1.00 20.00     0.055 A 
HETATM    4  C4  UNL     1     -33.549   5.961   3.949  1.00 20.00    -0.037 A 
HETATM    5  C5  UNL     1     -32.418   7.466   2.471  1.00 20.00     0.175 A 
HETATM    6  C6  UNL     1     -33.114   8.248   4.666  1.00 20.00     0.134 A 
HETATM    7  C7  UNL     1     -34.301   6.469   6.067  1.00 20.00     0.163 A 
HETATM    8  C8  UNL     1     -34.173   4.688   4.426  1.00 20.00     0.047 A 
HETATM    9  C9  UNL     1     -34.677   5.024   5.840  1.00 20.00     0.088 A 
HETATM   10  O10 UNL     1     -31.851   7.704   1.346  1.00 20.00    -0.288 OA
HETATM   11  O11 UNL     1     -34.523   7.121   7.070  1.00 20.00    -0.292 OA
HETATM   12  F12 UNL     1     -33.197   9.214   5.588  1.00 20.00    -0.205 F 
ENDROOT
TORSDOF 0
ENDMDL
MODEL 3
REMARK VINA RESULT:      -6.2      1.341      3.621
REMARK  0 active torsions:
REMARK  status: ('A' for Active; 'I' for Inactive)
ROOT
HETATM    1  C1  UNL     1     -34.086   6.838   6.178  1.00 20.00     0.063 A 
HETATM    2  C2  UNL     1     -34.328   4.915   4.698  1.00 20.00     0.098 A 
HETATM    3  C3  UNL     1     -33.173   6.850   3.959  1.00 20.00     0.055 A 
HETATM    4  C4  UNL     1     -33.389   7.488   5.174  1.00 20.00    -0.037 A 
HETATM    5  C5  UNL     1     -34.558   5.543   5.934  1.00 20.00     0.175 A 
HETATM    6  C6  UNL     1     -33.626   5.573   3.688  1.00 20.00     0.134 A 
HETATM    7  C7  UNL     1     -32.424   7.751   3.099  1.00 20.00     0.163 A 
HETATM    8  C8  UNL     1     -32.802   8.863   5.220  1.00 20.00     0.047 A 
HETATM    9  C9  UNL     1     -32.158   9.043   3.834  1.00 20.00     0.088 A 
HETATM   10  O10 UNL     1     -35.205   4.921   6.849  1.00 20.00    -0.288 OA
HETATM   11  O11 UNL     1     -32.076   7.485   1.963  1.00 20.00    -0.292 OA
HETATM   12  F12 UNL     1     -33.403   4.980   2.509  1.00 20.00    -0.205 F 
ENDROOT
TORSDOF 0
ENDMDL
MODEL 4
REMARK VINA RESULT:      -5.7      1.753      2.701
REMARK  0 active torsions:
REMARK  status: ('A' for Active; 'I' for Inactive)
ROOT
HETATM    1  C1  UNL     1     -32.193   8.025   3.703  1.00 20.00     0.063 A 
HETATM    2  C2  UNL     1     -33.309   8.409   5.837  1.00 20.00     0.098 A 
HETATM    3  C3  UNL     1     -33.691   6.399   4.637  1.00 20.00     0.055 A 
HETATM    4  C4  UNL     1     -32.832   6.799   3.621  1.00 20.00    -0.037 A 
HETATM    5  C5  UNL     1     -32.437   8.832   4.820  1.00 20.00     0.175 A 
HETATM    6  C6  UNL     1     -33.951   7.174   5.752  1.00 20.00     0.134 A 
HETATM    7  C7  UNL     1     -34.216   5.086   4.300  1.00 20.00     0.163 A 
HETATM    8  C8  UNL     1     -32.718   5.786   2.526  1.00 20.00     0.047 A 
HETATM    9  C9  UNL     1     -33.643   4.642   2.975  1.00 20.00     0.088 A 
HETATM   10  O10 UNL     1     -31.857   9.971   4.917  1.00 20.00    -0.288 OA
HETATM   11  O11 UNL     1     -34.999   4.461   4.991  1.00 20.00    -0.292 OA
HETATM   12  F12 UNL     1     -34.782   6.764   6.717  1.00 20.00    -0.205 F 
ENDROOT
TORSDOF 0
ENDMDL
MODEL 5
REMARK VINA RESULT:      -5.4      2.006      3.354
REMARK  0 active torsions:
REMARK  status: ('A' for Active; 'I' for Inactive)
ROOT
HETATM    1  C1  UNL     1     -33.617   7.783   5.581  1.00 20.00     0.063 A 
HETATM    2  C2  UNL     1     -34.531   5.550   5.925  1.00 20.00     0.098 A 
HETATM    3  C3  UNL     1     -33.377   6.069   3.920  1.00 20.00     0.055 A 
HETATM    4  C4  UNL     1     -33.150   7.372   4.344  1.00 20.00    -0.037 A 
HETATM    5  C5  UNL     1     -34.312   6.864   6.373  1.00 20.00     0.175 A 
HETATM    6  C6  UNL     1     -34.060   5.137   4.679  1.00 20.00     0.134 A 
HETATM    7  C7  UNL     1     -32.784   5.909   2.602  1.00 20.00     0.163 A 
HETATM    8  C8  UNL     1     -32.390   8.184   3.344  1.00 20.00     0.047 A 
HETATM    9  C9  UNL     1     -32.146   7.211   2.178  1.00 20.00     0.088 A 
HETATM   10  O10 UNL     1     -34.754   7.222   7.522  1.00 20.00    -0.288 OA
HETATM   11  O11 UNL     1     -32.812   4.878   1.956  1.00 20.00    -0.292 OA
HETATM   12  F12 UNL     1     -34.263   3.888   4.247  1.00 20.00    -0.205 F 
ENDROOT
TORSDOF 0
ENDMDL
MODEL 6
REMARK VINA RESULT:      -5.3      1.074      1.210
REMARK  0 active torsions:
REMARK  status: ('A' for Active; 'I' for Inactive)
ROOT
HETATM    1  C1  UNL     1     -33.286   8.156   5.831  1.00 20.00     0.063 A 
HETATM    2  C2  UNL     1     -32.009   8.488   3.780  1.00 20.00     0.098 A 
HETATM    3  C3  UNL     1     -33.310   6.527   4.070  1.00 20.00     0.055 A 
HETATM    4  C4  UNL     1     -33.729   6.945   5.327  1.00 20.00    -0.037 A 
HETATM    5  C5  UNL     1     -32.420   8.930   5.050  1.00 20.00     0.175 A 
HETATM    6  C6  UNL     1     -32.456   7.267   3.275  1.00 20.00     0.134 A 
HETATM    7  C7  UNL     1     -33.921   5.236   3.793  1.00 20.00     0.163 A 
HETATM    8  C8  UNL     1     -34.649   5.968   5.987  1.00 20.00     0.047 A 
HETATM    9  C9  UNL     1     -34.778   4.825   4.966  1.00 20.00     0.088 A 
HETATM   10  O10 UNL     1     -31.997  10.054   5.496  1.00 20.00    -0.288 OA
HETATM   11  O11 UNL     1     -33.752   4.602   2.769  1.00 20.00    -0.292 OA
HETATM   12  F12 UNL     1     -32.070   6.841   2.067  1.00 20.00    -0.205 F 
ENDROOT
TORSDOF 0
ENDMDL
MODEL 7
REMARK VINA RESULT:      -5.3      1.815      4.363
REMARK  0 active torsions:
REMARK  status: ('A' for Active; 'I' for Inactive)
ROOT
HETATM    1  C1  UNL     1     -34.086   5.089   4.626  1.00 20.00     0.063 A 
HETATM    2  C2  UNL     1     -34.469   6.792   6.329  1.00 20.00     0.098 A 
HETATM    3  C3  UNL     1     -33.279   7.332   4.351  1.00 20.00     0.055 A 
HETATM    4  C4  UNL     1     -33.413   6.035   3.871  1.00 20.00    -0.037 A 
HETATM    5  C5  UNL     1     -34.616   5.474   5.863  1.00 20.00     0.175 A 
HETATM    6  C6  UNL     1     -33.791   7.742   5.567  1.00 20.00     0.134 A 
HETATM    7  C7  UNL     1     -32.538   8.106   3.368  1.00 20.00     0.163 A 
HETATM    8  C8  UNL     1     -32.772   5.841   2.534  1.00 20.00     0.047 A 
HETATM    9  C9  UNL     1     -32.186   7.223   2.195  1.00 20.00     0.088 A 
HETATM   10  O10 UNL     1     -35.244   4.616   6.578  1.00 20.00    -0.288 OA
HETATM   11  O11 UNL     1     -32.255   9.283   3.492  1.00 20.00    -0.292 OA
HETATM   12  F12 UNL     1     -33.649   8.999   6.005  1.00 20.00    -0.205 F 
ENDROOT
TORSDOF 0
ENDMDL
MODEL 8
REMARK VINA RESULT:      -5.2      2.142      3.639
REMARK  0 active torsions:
REMARK  status: ('A' for Active; 'I' for Inactive)
ROOT
HETATM    1  C1  UNL     1     -32.565   6.345   2.732  1.00 20.00     0.063 A 
HETATM    2  C2  UNL     1     -33.904   4.549   3.696  1.00 20.00     0.098 A 
HETATM    3  C3  UNL     1     -33.649   6.601   4.857  1.00 20.00     0.055 A 
HETATM    4  C4  UNL     1     -32.850   7.118   3.845  1.00 20.00    -0.037 A 
HETATM    5  C5  UNL     1     -33.097   5.053   2.660  1.00 20.00     0.175 A 
HETATM    6  C6  UNL     1     -34.190   5.330   4.816  1.00 20.00     0.134 A 
HETATM    7  C7  UNL     1     -33.785   7.614   5.891  1.00 20.00     0.163 A 
HETATM    8  C8  UNL     1     -32.389   8.513   4.124  1.00 20.00     0.047 A 
HETATM    9  C9  UNL     1     -33.010   8.847   5.492  1.00 20.00     0.088 A 
HETATM   10  O10 UNL     1     -32.847   4.320   1.640  1.00 20.00    -0.288 OA
HETATM   11  O11 UNL     1     -34.427   7.468   6.915  1.00 20.00    -0.292 OA
HETATM   12  F12 UNL     1     -34.958   4.857   5.804  1.00 20.00    -0.205 F 
ENDROOT
TORSDOF 0
ENDMDL
MODEL 9
REMARK VINA RESULT:      -5.0      1.723      3.230
REMARK  0 active torsions:
REMARK  status: ('A' for Active; 'I' for Inactive)
ROOT
HETATM    1  C1  UNL     1     -33.705   4.717   3.742  1.00 20.00     0.063 A 
HETATM    2  C2  UNL     1     -32.511   6.438   2.493  1.00 20.00     0.098 A 
HETATM    3  C3  UNL     1     -33.459   6.941   4.608  1.00 20.00     0.055 A 
HETATM    4  C4  UNL     1     -33.938   5.644   4.744  1.00 20.00    -0.037 A 
HETATM    5  C5  UNL     1     -32.987   5.120   2.611  1.00 20.00     0.175 A 
HETATM    6  C6  UNL     1     -32.746   7.370   3.504  1.00 20.00     0.134 A 
HETATM    7  C7  UNL     1     -33.841   7.694   5.792  1.00 20.00     0.163 A 
HETATM    8  C8  UNL     1     -34.677   5.430   6.026  1.00 20.00     0.047 A 
HETATM    9  C9  UNL     1     -34.615   6.797   6.728  1.00 20.00     0.088 A 
HETATM   10  O10 UNL     1     -32.759   4.279   1.671  1.00 20.00    -0.288 OA
HETATM   11  O11 UNL     1     -33.569   8.865   5.978  1.00 20.00    -0.292 OA
HETATM   12  F12 UNL     1     -32.295   8.625   3.399  1.00 20.00    -0.205 F 
ENDROOT
TORSDOF 0
ENDMDL
