MODEL 1
REMARK VINA RESULT:      -4.6      0.000      0.000
REMARK  4 active torsions:
REMARK  status: ('A' for Active; 'I' for Inactive)
REMARK    1  A    between atoms: C2_2  and  C8_8 
REMARK    2  A    between atoms: C6_6  and  C9_9 
REMARK    3  A    between atoms: C8_8  and  C9_9 
REMARK    4  A    between atoms: C9_9  and  O11_11 
ROOT
HETATM    1  C9  UNL     1     -32.936   8.235   4.175  1.00 20.00     0.151 C 
ENDROOT
BRANCH   1   2
HETATM    2  C6  UNL     1     -34.072   7.352   4.653  1.00 20.00     0.150 C 
HETATM    3  C4  UNL     1     -34.001   5.931   4.118  1.00 20.00     0.036 C 
HETATM    4  C3  UNL     1     -34.756   5.172   5.180  1.00 20.00     0.029 C 
HETATM    5  C5  UNL     1     -34.314   5.880   6.444  1.00 20.00     0.168 C 
HETATM    6  O10 UNL     1     -34.036   7.242   6.085  1.00 20.00    -0.383 OA
ENDBRANCH   1   2
BRANCH   1   7
HETATM    7  C8  UNL     1     -32.240   7.618   2.955  1.00 20.00     0.067 C 
BRANCH   7   8
HETATM    8  C2  UNL     1     -32.358   8.458   1.702  1.00 20.00    -0.091 C 
HETATM    9  C1  UNL     1     -31.917   8.014   0.515  1.00 20.00     0.014 C 
HETATM   10  C7  UNL     1     -33.029   9.795   1.836  1.00 20.00     0.042 C 
ENDBRANCH   7   8
ENDBRANCH   1   7
BRANCH   1  11
HETATM   11  O11 UNL     1     -32.011   8.356   5.254  1.00 20.00    -0.393 OA
HETATM   12  H27 UNL     1     -31.268   8.882   4.921  1.00 20.00     0.210 HD
ENDBRANCH   1  11
TORSDOF 4
ENDMDL
MODEL 2
REMARK VINA RESULT:      -4.4      0.948      1.650
REMARK  4 active torsions:
REMARK  status: ('A' for Active; 'I' for Inactive)
REMARK    1  A    between atoms: C2_2  and  C8_8 
REMARK    2  A    between atoms: C6_6  and  C9_9 
REMARK    3  A    between atoms: C8_8  and  C9_9 
REMARK    4  A    between atoms: C9_9  and  O11_11 
ROOT
HETATM    1  C9  UNL     1     -32.866   8.089   4.189  1.00 20.00     0.151 C 
ENDROOT
BRANCH   1   2
HETATM    2  C6  UNL     1     -33.208   6.806   4.921  1.00 20.00     0.150 C 
HETATM    3  C4  UNL     1     -34.050   7.025   6.168  1.00 20.00     0.036 C 
HETATM    4  C3  UNL     1     -34.754   5.699   6.292  1.00 20.00     0.029 C 
HETATM    5  C5  UNL     1     -35.029   5.354   4.842  1.00 20.00     0.168 C 
HETATM    6  O10 UNL     1     -33.979   5.946   4.065  1.00 20.00    -0.383 OA
ENDBRANCH   1   2
BRANCH   1   7
HETATM    7  C8  UNL     1     -32.113   7.791   2.886  1.00 20.00     0.067 C 
BRANCH   7   8
HETATM    8  C2  UNL     1     -32.478   8.721   1.750  1.00 20.00    -0.091 C 
HETATM    9  C1  UNL     1     -33.099   9.890   1.973  1.00 20.00     0.014 C 
HETATM   10  C7  UNL     1     -32.079   8.299   0.366  1.00 20.00     0.042 C 
ENDBRANCH   7   8
ENDBRANCH   1   7
BRANCH   1  11
HETATM   11  O11 UNL     1     -32.045   8.867   5.059  1.00 20.00    -0.393 OA
HETATM   12  H27 UNL     1     -32.540   8.966   5.887  1.00 20.00     0.210 HD
ENDBRANCH   1  11
TORSDOF 4
ENDMDL
MODEL 3
REMARK VINA RESULT:      -4.2     11.642     12.337
REMARK  4 active torsions:
REMARK  status: ('A' for Active; 'I' for Inactive)
REMARK    1  A    between atoms: C2_2  and  C8_8 
REMARK    2  A    between atoms: C6_6  and  C9_9 
REMARK    3  A    between atoms: C8_8  and  C9_9 
REMARK    4  A    between atoms: C9_9  and  O11_11 
ROOT
HETATM    1  C9  UNL     1     -34.104  17.823  -2.879  1.00 20.00     0.151 C 
ENDROOT
BRANCH   1   2
HETATM    2  C6  UNL     1     -33.857  16.977  -4.112  1.00 20.00     0.150 C 
HETATM    3  C4  UNL     1     -33.269  15.610  -3.801  1.00 20.00     0.036 C 
HETATM    4  C3  UNL     1     -33.727  14.808  -4.992  1.00 20.00     0.029 C 
HETATM    5  C5  UNL     1     -35.116  15.365  -5.229  1.00 20.00     0.168 C 
HETATM    6  O10 UNL     1     -35.098  16.732  -4.794  1.00 20.00    -0.383 OA
ENDBRANCH   1   2
BRANCH   1   7
HETATM    7  C8  UNL     1     -33.596  17.113  -1.617  1.00 20.00     0.067 C 
BRANCH   7   8
HETATM    8  C2  UNL     1     -32.999  18.053  -0.593  1.00 20.00    -0.091 C 
HETATM    9  C1  UNL     1     -31.764  18.556  -0.738  1.00 20.00     0.014 C 
HETATM   10  C7  UNL     1     -33.866  18.431   0.574  1.00 20.00     0.042 C 
ENDBRANCH   7   8
ENDBRANCH   1   7
BRANCH   1  11
HETATM   11  O11 UNL     1     -35.512  18.034  -2.785  1.00 20.00    -0.393 OA
HETATM   12  H27 UNL     1     -35.848  17.373  -2.161  1.00 20.00     0.210 HD
ENDBRANCH   1  11
TORSDOF 4
ENDMDL
MODEL 4
REMARK VINA RESULT:      -4.2     11.146     12.919
REMARK  4 active torsions:
REMARK  status: ('A' for Active; 'I' for Inactive)
REMARK    1  A    between atoms: C2_2  and  C8_8 
REMARK    2  A    between atoms: C6_6  and  C9_9 
REMARK    3  A    between atoms: C8_8  and  C9_9 
REMARK    4  A    between atoms: C9_9  and  O11_11 
ROOT
HETATM    1  C9  UNL     1     -35.108  14.579  -4.596  1.00 20.00     0.151 C 
ENDROOT
BRANCH   1   2
HETATM    2  C6  UNL     1     -35.351  14.651  -6.090  1.00 20.00     0.150 C 
HETATM    3  C4  UNL     1     -36.284  15.779  -6.498  1.00 20.00     0.036 C 
HETATM    4  C3  UNL     1     -35.846  16.033  -7.918  1.00 20.00     0.029 C 
HETATM    5  C5  UNL     1     -34.346  15.846  -7.821  1.00 20.00     0.168 C 
HETATM    6  O10 UNL     1     -34.110  14.891  -6.776  1.00 20.00    -0.383 OA
ENDBRANCH   1   2
BRANCH   1   7
HETATM    7  C8  UNL     1     -33.697  15.071  -4.246  1.00 20.00     0.067 C 
BRANCH   7   8
HETATM    8  C2  UNL     1     -33.678  16.431  -3.583  1.00 20.00    -0.091 C 
HETATM    9  C1  UNL     1     -33.433  16.568  -2.271  1.00 20.00     0.014 C 
HETATM   10  C7  UNL     1     -33.906  17.625  -4.465  1.00 20.00     0.042 C 
ENDBRANCH   7   8
ENDBRANCH   1   7
BRANCH   1  11
HETATM   11  O11 UNL     1     -35.257  13.214  -4.207  1.00 20.00    -0.393 OA
HETATM   12  H27 UNL     1     -35.758  12.780  -4.916  1.00 20.00     0.210 HD
ENDBRANCH   1  11
TORSDOF 4
ENDMDL
MODEL 5
REMARK VINA RESULT:      -4.1      1.091      4.382
REMARK  4 active torsions:
REMARK  status: ('A' for Active; 'I' for Inactive)
REMARK    1  A    between atoms: C2_2  and  C8_8 
REMARK    2  A    between atoms: C6_6  and  C9_9 
REMARK    3  A    between atoms: C8_8  and  C9_9 
REMARK    4  A    between atoms: C9_9  and  O11_11 
ROOT
HETATM    1  C9  UNL     1     -32.516   7.951   4.678  1.00 20.00     0.151 C 
ENDROOT
BRANCH   1   2
HETATM    2  C6  UNL     1     -31.970   8.335   3.317  1.00 20.00     0.150 C 
HETATM    3  C4  UNL     1     -32.208   7.281   2.249  1.00 20.00     0.036 C 
HETATM    4  C3  UNL     1     -32.198   8.117   0.995  1.00 20.00     0.029 C 
HETATM    5  C5  UNL     1     -32.903   9.377   1.452  1.00 20.00     0.168 C 
HETATM    6  O10 UNL     1     -32.619   9.530   2.851  1.00 20.00    -0.383 OA
ENDBRANCH   1   2
BRANCH   1   7
HETATM    7  C8  UNL     1     -33.995   7.553   4.582  1.00 20.00     0.067 C 
BRANCH   7   8
HETATM    8  C2  UNL     1     -34.308   6.225   5.236  1.00 20.00    -0.091 C 
HETATM    9  C1  UNL     1     -34.523   6.126   6.556  1.00 20.00     0.014 C 
HETATM   10  C7  UNL     1     -34.408   5.027   4.336  1.00 20.00     0.042 C 
ENDBRANCH   7   8
ENDBRANCH   1   7
BRANCH   1  11
HETATM   11  O11 UNL     1     -32.372   9.087   5.529  1.00 20.00    -0.393 OA
HETATM   12  H27 UNL     1     -31.719   9.666   5.106  1.00 20.00     0.210 HD
ENDBRANCH   1  11
TORSDOF 4
ENDMDL
MODEL 6
REMARK VINA RESULT:      -4.0     11.436     12.399
REMARK  4 active torsions:
REMARK  status: ('A' for Active; 'I' for Inactive)
REMARK    1  A    between atoms: C2_2  and  C8_8 
REMARK    2  A    between atoms: C6_6  and  C9_9 
REMARK    3  A    between atoms: C8_8  and  C9_9 
REMARK    4  A    between atoms: C9_9  and  O11_11 
ROOT
HETATM    1  C9  UNL     1     -33.503  18.091  -3.214  1.00 20.00     0.151 C 
ENDROOT
BRANCH   1   2
HETATM    2  C6  UNL     1     -33.267  18.757  -1.873  1.00 20.00     0.150 C 
HETATM    3  C4  UNL     1     -33.610  17.870  -0.687  1.00 20.00     0.036 C 
HETATM    4  C3  UNL     1     -32.724  18.448   0.387  1.00 20.00     0.029 C 
HETATM    5  C5  UNL     1     -31.468  18.784  -0.391  1.00 20.00     0.168 C 
HETATM    6  O10 UNL     1     -31.876  19.092  -1.732  1.00 20.00    -0.383 OA
ENDBRANCH   1   2
BRANCH   1   7
HETATM    7  C8  UNL     1     -33.193  16.589  -3.141  1.00 20.00     0.067 C 
BRANCH   7   8
HETATM    8  C2  UNL     1     -33.916  15.771  -4.188  1.00 20.00    -0.091 C 
HETATM    9  C1  UNL     1     -33.635  14.473  -4.382  1.00 20.00     0.014 C 
HETATM   10  C7  UNL     1     -34.991  16.464  -4.975  1.00 20.00     0.042 C 
ENDBRANCH   7   8
ENDBRANCH   1   7
BRANCH   1  11
HETATM   11  O11 UNL     1     -32.639  18.721  -4.158  1.00 20.00    -0.393 OA
HETATM   12  H27 UNL     1     -32.196  19.443  -3.686  1.00 20.00     0.210 HD
ENDBRANCH   1  11
TORSDOF 4
ENDMDL
MODEL 7
REMARK VINA RESULT:      -3.8      9.348     10.315
REMARK  4 active torsions:
REMARK  status: ('A' for Active; 'I' for Inactive)
REMARK    1  A    between atoms: C2_2  and  C8_8 
REMARK    2  A    between atoms: C6_6  and  C9_9 
REMARK    3  A    between atoms: C8_8  and  C9_9 
REMARK    4  A    between atoms: C9_9  and  O11_11 
ROOT
HETATM    1  C9  UNL     1     -41.063  12.643   6.879  1.00 20.00     0.151 C 
ENDROOT
BRANCH   1   2
HETATM    2  C6  UNL     1     -41.337  13.953   7.591  1.00 20.00     0.150 C 
HETATM    3  C4  UNL     1     -40.346  14.256   8.703  1.00 20.00     0.036 C 
HETATM    4  C3  UNL     1     -40.416  15.760   8.765  1.00 20.00     0.029 C 
HETATM    5  C5  UNL     1     -40.552  16.128   7.302  1.00 20.00     0.168 C 
HETATM    6  O10 UNL     1     -41.240  15.044   6.661  1.00 20.00    -0.383 OA
ENDBRANCH   1   2
BRANCH   1   7
HETATM    7  C8  UNL     1     -40.651  12.888   5.421  1.00 20.00     0.067 C 
BRANCH   7   8
HETATM    8  C2  UNL     1     -39.350  12.217   5.039  1.00 20.00    -0.091 C 
HETATM    9  C1  UNL     1     -39.141  11.748   3.800  1.00 20.00     0.014 C 
HETATM   10  C7  UNL     1     -38.287  12.135   6.096  1.00 20.00     0.042 C 
ENDBRANCH   7   8
ENDBRANCH   1   7
BRANCH   1  11
HETATM   11  O11 UNL     1     -42.266  11.877   6.922  1.00 20.00    -0.393 OA
HETATM   12  H27 UNL     1     -42.069  11.085   7.446  1.00 20.00     0.210 HD
ENDBRANCH   1  11
TORSDOF 4
ENDMDL
MODEL 8
REMARK VINA RESULT:      -3.8      9.443     10.518
REMARK  4 active torsions:
REMARK  status: ('A' for Active; 'I' for Inactive)
REMARK    1  A    between atoms: C2_2  and  C8_8 
REMARK    2  A    between atoms: C6_6  and  C9_9 
REMARK    3  A    between atoms: C8_8  and  C9_9 
REMARK    4  A    between atoms: C9_9  and  O11_11 
ROOT
HETATM    1  C9  UNL     1     -41.661  13.113   6.382  1.00 20.00     0.151 C 
ENDROOT
BRANCH   1   2
HETATM    2  C6  UNL     1     -40.288  13.124   5.741  1.00 20.00     0.150 C 
HETATM    3  C4  UNL     1     -39.296  12.191   6.418  1.00 20.00     0.036 C 
HETATM    4  C3  UNL     1     -38.339  11.901   5.290  1.00 20.00     0.029 C 
HETATM    5  C5  UNL     1     -39.274  11.816   4.100  1.00 20.00     0.168 C 
HETATM    6  O10 UNL     1     -40.382  12.685   4.376  1.00 20.00    -0.383 OA
ENDBRANCH   1   2
BRANCH   1   7
HETATM    7  C8  UNL     1     -41.708  14.055   7.593  1.00 20.00     0.067 C 
BRANCH   7   8
HETATM    8  C2  UNL     1     -41.498  15.510   7.235  1.00 20.00    -0.091 C 
HETATM    9  C1  UNL     1     -40.518  16.236   7.794  1.00 20.00     0.014 C 
HETATM   10  C7  UNL     1     -42.410  16.097   6.196  1.00 20.00     0.042 C 
ENDBRANCH   7   8
ENDBRANCH   1   7
BRANCH   1  11
HETATM   11  O11 UNL     1     -41.925  11.774   6.797  1.00 20.00    -0.393 OA
HETATM   12  H27 UNL     1     -42.338  11.834   7.672  1.00 20.00     0.210 HD
ENDBRANCH   1  11
TORSDOF 4
ENDMDL
MODEL 9
REMARK VINA RESULT:      -3.6     11.342     12.945
REMARK  4 active torsions:
REMARK  status: ('A' for Active; 'I' for Inactive)
REMARK    1  A    between atoms: C2_2  and  C8_8 
REMARK    2  A    between atoms: C6_6  and  C9_9 
REMARK    3  A    between atoms: C8_8  and  C9_9 
REMARK    4  A    between atoms: C9_9  and  O11_11 
ROOT
HETATM    1  C9  UNL     1     -34.121  15.188  -5.432  1.00 20.00     0.151 C 
ENDROOT
BRANCH   1   2
HETATM    2  C6  UNL     1     -34.294  16.190  -4.309  1.00 20.00     0.150 C 
HETATM    3  C4  UNL     1     -33.370  15.941  -3.127  1.00 20.00     0.036 C 
HETATM    4  C3  UNL     1     -33.263  17.322  -2.533  1.00 20.00     0.029 C 
HETATM    5  C5  UNL     1     -33.230  18.194  -3.772  1.00 20.00     0.168 C 
HETATM    6  O10 UNL     1     -33.987  17.512  -4.782  1.00 20.00    -0.383 OA
ENDBRANCH   1   2
BRANCH   1   7
HETATM    7  C8  UNL     1     -35.483  14.749  -5.987  1.00 20.00     0.067 C 
BRANCH   7   8
HETATM    8  C2  UNL     1     -36.224  15.850  -6.714  1.00 20.00    -0.091 C 
HETATM    9  C1  UNL     1     -35.817  16.296  -7.912  1.00 20.00     0.014 C 
HETATM   10  C7  UNL     1     -37.458  16.394  -6.054  1.00 20.00     0.042 C 
ENDBRANCH   7   8
ENDBRANCH   1   7
BRANCH   1  11
HETATM   11  O11 UNL     1     -33.429  14.062  -4.894  1.00 20.00    -0.393 OA
HETATM   12  H27 UNL     1     -32.651  13.924  -5.457  1.00 20.00     0.210 HD
ENDBRANCH   1  11
TORSDOF 4
ENDMDL
