MODEL 1
REMARK VINA RESULT:      -3.6      0.000      0.000
REMARK  2 active torsions:
REMARK  status: ('A' for Active; 'I' for Inactive)
REMARK    1  A    between atoms: C7_7  and  C8_8 
REMARK    2  A    between atoms: C7_7  and  N9_9 
ROOT
HETATM    1  C1  UNL     1     -33.196   8.126   4.184  1.00 20.00     0.277 C 
HETATM    2  C2  UNL     1     -33.261   6.000   3.215  1.00 20.00     0.277 C 
HETATM    3  C3  UNL     1     -34.033   7.237   5.119  1.00 20.00     0.015 C 
HETATM    4  C4  UNL     1     -33.743   5.803   4.647  1.00 20.00     0.015 C 
HETATM    5  C5  UNL     1     -33.690   7.440   6.589  1.00 20.00     0.012 C 
HETATM    6  C6  UNL     1     -34.947   4.878   4.743  1.00 20.00     0.012 C 
HETATM    7  N9  UNL     1     -32.423   7.190   3.362  1.00 20.00     0.090 N 
ENDROOT
BRANCH   7   8
HETATM    8  C7  UNL     1     -32.029   7.759   2.083  1.00 20.00     0.287 C 
BRANCH   8   9
HETATM    9  C8  UNL     1     -32.686   9.102   1.816  1.00 20.00     0.144 C 
HETATM   10 CL10 UNL     1     -32.890   9.388   0.069  1.00 20.00    -0.129 Cl
ENDBRANCH   8   9
ENDBRANCH   7   8
TORSDOF 2
ENDMDL
MODEL 2
REMARK VINA RESULT:      -3.5     11.650     12.139
REMARK  2 active torsions:
REMARK  status: ('A' for Active; 'I' for Inactive)
REMARK    1  A    between atoms: C7_7  and  C8_8 
REMARK    2  A    between atoms: C7_7  and  N9_9 
ROOT
HETATM    1  C1  UNL     1     -34.092  18.307  -0.891  1.00 20.00     0.277 C 
HETATM    2  C2  UNL     1     -31.778  18.643  -0.896  1.00 20.00     0.277 C 
HETATM    3  C3  UNL     1     -33.646  18.358   0.580  1.00 20.00     0.015 C 
HETATM    4  C4  UNL     1     -32.222  18.935   0.532  1.00 20.00     0.015 C 
HETATM    5  C5  UNL     1     -34.577  19.192   1.450  1.00 20.00     0.012 C 
HETATM    6  C6  UNL     1     -31.290  18.337   1.575  1.00 20.00     0.012 C 
HETATM    7  N9  UNL     1     -33.002  18.944  -1.638  1.00 20.00     0.090 N 
ENDROOT
BRANCH   7   8
HETATM    8  C7  UNL     1     -32.940  18.504  -3.023  1.00 20.00     0.287 C 
BRANCH   8   9
HETATM    9  C8  UNL     1     -34.004  17.471  -3.355  1.00 20.00     0.144 C 
HETATM   10 CL10 UNL     1     -33.313  15.831  -3.435  1.00 20.00    -0.129 Cl
ENDBRANCH   8   9
ENDBRANCH   7   8
TORSDOF 2
ENDMDL
MODEL 3
REMARK VINA RESULT:      -3.5     11.529     12.803
REMARK  2 active torsions:
REMARK  status: ('A' for Active; 'I' for Inactive)
REMARK    1  A    between atoms: C7_7  and  C8_8 
REMARK    2  A    between atoms: C7_7  and  N9_9 
ROOT
HETATM    1  C1  UNL     1     -33.429  17.149  -1.626  1.00 20.00     0.277 C 
HETATM    2  C2  UNL     1     -32.877  19.188  -2.630  1.00 20.00     0.277 C 
HETATM    3  C3  UNL     1     -33.830  17.039  -3.107  1.00 20.00     0.015 C 
HETATM    4  C4  UNL     1     -33.128  18.227  -3.785  1.00 20.00     0.015 C 
HETATM    5  C5  UNL     1     -33.435  15.705  -3.727  1.00 20.00     0.012 C 
HETATM    6  C6  UNL     1     -33.943  18.852  -4.907  1.00 20.00     0.012 C 
HETATM    7  N9  UNL     1     -32.471  18.259  -1.575  1.00 20.00     0.090 N 
ENDROOT
BRANCH   7   8
HETATM    8  C7  UNL     1     -32.413  18.889  -0.266  1.00 20.00     0.287 C 
BRANCH   8   9
HETATM    9  C8  UNL     1     -31.018  18.860   0.335  1.00 20.00     0.144 C 
HETATM   10 CL10 UNL     1     -31.042  18.233   2.002  1.00 20.00    -0.129 Cl
ENDBRANCH   8   9
ENDBRANCH   7   8
TORSDOF 2
ENDMDL
MODEL 4
REMARK VINA RESULT:      -3.5     11.552     11.957
REMARK  2 active torsions:
REMARK  status: ('A' for Active; 'I' for Inactive)
REMARK    1  A    between atoms: C7_7  and  C8_8 
REMARK    2  A    between atoms: C7_7  and  N9_9 
ROOT
HETATM    1  C1  UNL     1     -31.895  18.741  -1.024  1.00 20.00     0.277 C 
HETATM    2  C2  UNL     1     -34.183  18.265  -0.974  1.00 20.00     0.277 C 
HETATM    3  C3  UNL     1     -32.364  18.963   0.424  1.00 20.00     0.015 C 
HETATM    4  C4  UNL     1     -33.749  18.298   0.486  1.00 20.00     0.015 C 
HETATM    5  C5  UNL     1     -31.400  18.383   1.451  1.00 20.00     0.012 C 
HETATM    6  C6  UNL     1     -34.735  19.035   1.379  1.00 20.00     0.012 C 
HETATM    7  N9  UNL     1     -32.929  17.898  -1.632  1.00 20.00     0.090 N 
ENDROOT
BRANCH   7   8
HETATM    8  C7  UNL     1     -32.992  18.042  -3.078  1.00 20.00     0.287 C 
BRANCH   8   9
HETATM    9  C8  UNL     1     -34.034  17.136  -3.710  1.00 20.00     0.144 C 
HETATM   10 CL10 UNL     1     -33.554  15.424  -3.605  1.00 20.00    -0.129 Cl
ENDBRANCH   8   9
ENDBRANCH   7   8
TORSDOF 2
ENDMDL
MODEL 5
REMARK VINA RESULT:      -3.5     11.589     12.800
REMARK  2 active torsions:
REMARK  status: ('A' for Active; 'I' for Inactive)
REMARK    1  A    between atoms: C7_7  and  C8_8 
REMARK    2  A    between atoms: C7_7  and  N9_9 
ROOT
HETATM    1  C1  UNL     1     -32.825  19.259  -2.711  1.00 20.00     0.277 C 
HETATM    2  C2  UNL     1     -33.301  17.222  -1.665  1.00 20.00     0.277 C 
HETATM    3  C3  UNL     1     -33.144  18.250  -3.826  1.00 20.00     0.015 C 
HETATM    4  C4  UNL     1     -33.794  17.062  -3.098  1.00 20.00     0.015 C 
HETATM    5  C5  UNL     1     -34.049  18.830  -4.906  1.00 20.00     0.012 C 
HETATM    6  C6  UNL     1     -33.435  15.712  -3.699  1.00 20.00     0.012 C 
HETATM    7  N9  UNL     1     -33.398  18.672  -1.495  1.00 20.00     0.090 N 
ENDROOT
BRANCH   7   8
HETATM    8  C7  UNL     1     -32.742  19.139  -0.284  1.00 20.00     0.287 C 
BRANCH   8   9
HETATM    9  C8  UNL     1     -31.289  18.702  -0.202  1.00 20.00     0.144 C 
HETATM   10 CL10 UNL     1     -30.834  18.273   1.466  1.00 20.00    -0.129 Cl
ENDBRANCH   8   9
ENDBRANCH   7   8
TORSDOF 2
ENDMDL
MODEL 6
REMARK VINA RESULT:      -3.4     11.443     12.587
REMARK  2 active torsions:
REMARK  status: ('A' for Active; 'I' for Inactive)
REMARK    1  A    between atoms: C7_7  and  C8_8 
REMARK    2  A    between atoms: C7_7  and  N9_9 
ROOT
HETATM    1  C1  UNL     1     -33.191  16.584  -2.743  1.00 20.00     0.277 C 
HETATM    2  C2  UNL     1     -34.277  18.152  -4.095  1.00 20.00     0.277 C 
HETATM    3  C3  UNL     1     -34.000  15.790  -3.782  1.00 20.00     0.015 C 
HETATM    4  C4  UNL     1     -34.385  16.831  -4.846  1.00 20.00     0.015 C 
HETATM    5  C5  UNL     1     -33.218  14.624  -4.373  1.00 20.00     0.012 C 
HETATM    6  C6  UNL     1     -35.765  16.603  -5.445  1.00 20.00     0.012 C 
HETATM    7  N9  UNL     1     -33.062  17.930  -3.311  1.00 20.00     0.090 N 
ENDROOT
BRANCH   7   8
HETATM    8  C7  UNL     1     -32.857  18.950  -2.295  1.00 20.00     0.287 C 
BRANCH   8   9
HETATM    9  C8  UNL     1     -32.751  18.367  -0.896  1.00 20.00     0.144 C 
HETATM   10 CL10 UNL     1     -31.080  18.450  -0.285  1.00 20.00    -0.129 Cl
ENDBRANCH   8   9
ENDBRANCH   7   8
TORSDOF 2
ENDMDL
MODEL 7
REMARK VINA RESULT:      -3.4     11.448     12.504
REMARK  2 active torsions:
REMARK  status: ('A' for Active; 'I' for Inactive)
REMARK    1  A    between atoms: C7_7  and  C8_8 
REMARK    2  A    between atoms: C7_7  and  N9_9 
ROOT
HETATM    1  C1  UNL     1     -34.426  18.322  -3.513  1.00 20.00     0.277 C 
HETATM    2  C2  UNL     1     -33.262  16.643  -2.376  1.00 20.00     0.277 C 
HETATM    3  C3  UNL     1     -34.320  17.125  -4.473  1.00 20.00     0.015 C 
HETATM    4  C4  UNL     1     -33.889  15.951  -3.580  1.00 20.00     0.015 C 
HETATM    5  C5  UNL     1     -35.623  16.842  -5.210  1.00 20.00     0.012 C 
HETATM    6  C6  UNL     1     -32.938  14.983  -4.267  1.00 20.00     0.012 C 
HETATM    7  N9  UNL     1     -34.187  17.759  -2.180  1.00 20.00     0.090 N 
ENDROOT
BRANCH   7   8
HETATM    8  C7  UNL     1     -33.683  18.745  -1.237  1.00 20.00     0.287 C 
BRANCH   8   9
HETATM    9  C8  UNL     1     -32.206  19.040  -1.435  1.00 20.00     0.144 C 
HETATM   10 CL10 UNL     1     -31.241  18.482  -0.046  1.00 20.00    -0.129 Cl
ENDBRANCH   8   9
ENDBRANCH   7   8
TORSDOF 2
ENDMDL
MODEL 8
REMARK VINA RESULT:      -3.3      0.703      2.065
REMARK  2 active torsions:
REMARK  status: ('A' for Active; 'I' for Inactive)
REMARK    1  A    between atoms: C7_7  and  C8_8 
REMARK    2  A    between atoms: C7_7  and  N9_9 
ROOT
HETATM    1  C1  UNL     1     -33.299   6.036   3.314  1.00 20.00     0.277 C 
HETATM    2  C2  UNL     1     -32.749   8.002   4.454  1.00 20.00     0.277 C 
HETATM    3  C3  UNL     1     -34.040   5.992   4.661  1.00 20.00     0.015 C 
HETATM    4  C4  UNL     1     -33.948   7.429   5.199  1.00 20.00     0.015 C 
HETATM    5  C5  UNL     1     -35.482   5.518   4.526  1.00 20.00     0.012 C 
HETATM    6  C6  UNL     1     -33.795   7.502   6.710  1.00 20.00     0.012 C 
HETATM    7  N9  UNL     1     -32.958   7.449   3.116  1.00 20.00     0.090 N 
ENDROOT
BRANCH   7   8
HETATM    8  C7  UNL     1     -31.806   7.632   2.248  1.00 20.00     0.287 C 
BRANCH   8   9
HETATM    9  C8  UNL     1     -32.169   8.283   0.925  1.00 20.00     0.144 C 
HETATM   10 CL10 UNL     1     -32.922   9.878   1.173  1.00 20.00    -0.129 Cl
ENDBRANCH   8   9
ENDBRANCH   7   8
TORSDOF 2
ENDMDL
MODEL 9
REMARK VINA RESULT:      -3.2     10.285     11.201
REMARK  2 active torsions:
REMARK  status: ('A' for Active; 'I' for Inactive)
REMARK    1  A    between atoms: C7_7  and  C8_8 
REMARK    2  A    between atoms: C7_7  and  N9_9 
ROOT
HETATM    1  C1  UNL     1     -41.966  14.567   6.109  1.00 20.00     0.277 C 
HETATM    2  C2  UNL     1     -40.372  14.077   7.747  1.00 20.00     0.277 C 
HETATM    3  C3  UNL     1     -41.906  15.783   7.048  1.00 20.00     0.015 C 
HETATM    4  C4  UNL     1     -40.619  15.576   7.864  1.00 20.00     0.015 C 
HETATM    5  C5  UNL     1     -41.905  17.109   6.298  1.00 20.00     0.012 C 
HETATM    6  C6  UNL     1     -40.734  16.045   9.306  1.00 20.00     0.012 C 
HETATM    7  N9  UNL     1     -40.711  13.845   6.344  1.00 20.00     0.090 N 
ENDROOT
BRANCH   7   8
HETATM    8  C7  UNL     1     -40.809  12.431   6.018  1.00 20.00     0.287 C 
BRANCH   8   9
HETATM    9  C8  UNL     1     -39.449  11.780   5.829  1.00 20.00     0.144 C 
HETATM   10 CL10 UNL     1     -39.014  11.677   4.105  1.00 20.00    -0.129 Cl
ENDBRANCH   8   9
ENDBRANCH   7   8
TORSDOF 2
ENDMDL
