MODEL 1
REMARK VINA RESULT:      -3.6      0.000      0.000
REMARK  3 active torsions:
REMARK  status: ('A' for Active; 'I' for Inactive)
REMARK    1  A    between atoms: C1_1  and  C8_8 
REMARK    2  A    between atoms: C1_1  and  C9_9 
REMARK    3  A    between atoms: C9_9  and  C10_10 
ROOT
HETATM    1  C4  UNL     1     -40.555  15.148   7.083  1.00 20.00     0.018 C 
HETATM    2  C9  UNL     1     -41.028  13.691   7.062  1.00 20.00     0.059 C 
ENDROOT
BRANCH   2   3
HETATM    3  C1  UNL     1     -40.762  13.130   5.659  1.00 20.00     0.134 C 
HETATM    4  O11 UNL     1     -41.230  13.665   4.653  1.00 20.00    -0.297 OA
BRANCH   3   5
HETATM    5  C8  UNL     1     -39.859  11.900   5.564  1.00 20.00     0.048 C 
HETATM    6  C2  UNL     1     -38.765  11.987   6.623  1.00 20.00     0.017 C 
HETATM    7  C3  UNL     1     -39.257  11.769   4.168  1.00 20.00     0.017 C 
ENDBRANCH   3   5
ENDBRANCH   2   3
BRANCH   2   8
HETATM    8  C10 UNL     1     -42.501  13.466   7.540  1.00 20.00    -0.041 C 
HETATM    9  C5  UNL     1     -43.417  14.551   6.934  1.00 20.00     0.015 C 
HETATM   10  C6  UNL     1     -42.588  13.593   9.075  1.00 20.00     0.015 C 
HETATM   11  C7  UNL     1     -43.062  12.090   7.135  1.00 20.00     0.015 C 
ENDBRANCH   2   8
TORSDOF 3
ENDMDL
MODEL 2
REMARK VINA RESULT:      -3.4      1.464      2.178
REMARK  3 active torsions:
REMARK  status: ('A' for Active; 'I' for Inactive)
REMARK    1  A    between atoms: C1_1  and  C8_8 
REMARK    2  A    between atoms: C1_1  and  C9_9 
REMARK    3  A    between atoms: C9_9  and  C10_10 
ROOT
HETATM    1  C4  UNL     1     -42.177  14.474   5.148  1.00 20.00     0.018 C 
HETATM    2  C9  UNL     1     -41.092  14.109   6.168  1.00 20.00     0.059 C 
ENDROOT
BRANCH   2   3
HETATM    3  C1  UNL     1     -41.123  12.587   6.364  1.00 20.00     0.134 C 
HETATM    4  O11 UNL     1     -42.082  12.027   6.897  1.00 20.00    -0.297 OA
BRANCH   3   5
HETATM    5  C8  UNL     1     -39.927  11.796   5.834  1.00 20.00     0.048 C 
HETATM    6  C2  UNL     1     -38.708  12.067   6.709  1.00 20.00     0.017 C 
HETATM    7  C3  UNL     1     -39.642  12.148   4.377  1.00 20.00     0.017 C 
ENDBRANCH   3   5
ENDBRANCH   2   3
BRANCH   2   8
HETATM    8  C10 UNL     1     -41.160  14.899   7.517  1.00 20.00    -0.041 C 
HETATM    9  C5  UNL     1     -42.625  14.986   7.999  1.00 20.00     0.015 C 
HETATM   10  C6  UNL     1     -40.655  16.343   7.315  1.00 20.00     0.015 C 
HETATM   11  C7  UNL     1     -40.330  14.248   8.639  1.00 20.00     0.015 C 
ENDBRANCH   2   8
TORSDOF 3
ENDMDL
MODEL 3
REMARK VINA RESULT:      -3.2     12.518     14.382
REMARK  3 active torsions:
REMARK  status: ('A' for Active; 'I' for Inactive)
REMARK    1  A    between atoms: C1_1  and  C8_8 
REMARK    2  A    between atoms: C1_1  and  C9_9 
REMARK    3  A    between atoms: C9_9  and  C10_10 
ROOT
HETATM    1  C4  UNL     1     -36.905  15.980  -5.356  1.00 20.00     0.018 C 
HETATM    2  C9  UNL     1     -35.398  16.103  -5.606  1.00 20.00     0.059 C 
ENDROOT
BRANCH   2   3
HETATM    3  C1  UNL     1     -34.795  16.919  -4.454  1.00 20.00     0.134 C 
HETATM    4  O11 UNL     1     -35.357  17.923  -4.014  1.00 20.00    -0.297 OA
BRANCH   3   5
HETATM    5  C8  UNL     1     -33.485  16.409  -3.855  1.00 20.00     0.048 C 
HETATM    6  C2  UNL     1     -33.337  14.919  -4.146  1.00 20.00     0.017 C 
HETATM    7  C3  UNL     1     -33.428  16.679  -2.354  1.00 20.00     0.017 C 
ENDBRANCH   3   5
ENDBRANCH   2   3
BRANCH   2   8
HETATM    8  C10 UNL     1     -35.003  16.654  -7.016  1.00 20.00    -0.041 C 
HETATM    9  C5  UNL     1     -36.257  16.733  -7.915  1.00 20.00     0.015 C 
HETATM   10  C6  UNL     1     -34.005  15.698  -7.701  1.00 20.00     0.015 C 
HETATM   11  C7  UNL     1     -34.371  18.056  -6.960  1.00 20.00     0.015 C 
ENDBRANCH   2   8
TORSDOF 3
ENDMDL
MODEL 4
REMARK VINA RESULT:      -3.2     12.358     13.685
REMARK  3 active torsions:
REMARK  status: ('A' for Active; 'I' for Inactive)
REMARK    1  A    between atoms: C1_1  and  C8_8 
REMARK    2  A    between atoms: C1_1  and  C9_9 
REMARK    3  A    between atoms: C9_9  and  C10_10 
ROOT
HETATM    1  C4  UNL     1     -35.716  17.662  -5.947  1.00 20.00     0.018 C 
HETATM    2  C9  UNL     1     -35.219  16.771  -4.804  1.00 20.00     0.059 C 
ENDROOT
BRANCH   2   3
HETATM    3  C1  UNL     1     -34.162  17.560  -4.018  1.00 20.00     0.134 C 
HETATM    4  O11 UNL     1     -33.259  18.172  -4.591  1.00 20.00    -0.297 OA
BRANCH   3   5
HETATM    5  C8  UNL     1     -34.304  17.582  -2.497  1.00 20.00     0.048 C 
HETATM    6  C2  UNL     1     -35.072  18.830  -2.074  1.00 20.00     0.017 C 
HETATM    7  C3  UNL     1     -32.938  17.528  -1.819  1.00 20.00     0.017 C 
ENDBRANCH   3   5
ENDBRANCH   2   3
BRANCH   2   8
HETATM    8  C10 UNL     1     -34.723  15.352  -5.238  1.00 20.00    -0.041 C 
HETATM    9  C5  UNL     1     -34.100  15.426  -6.649  1.00 20.00     0.015 C 
HETATM   10  C6  UNL     1     -35.912  14.371  -5.311  1.00 20.00     0.015 C 
HETATM   11  C7  UNL     1     -33.668  14.765  -4.283  1.00 20.00     0.015 C 
ENDBRANCH   2   8
TORSDOF 3
ENDMDL
MODEL 5
REMARK VINA RESULT:      -3.2     12.070     13.449
REMARK  3 active torsions:
REMARK  status: ('A' for Active; 'I' for Inactive)
REMARK    1  A    between atoms: C1_1  and  C8_8 
REMARK    2  A    between atoms: C1_1  and  C9_9 
REMARK    3  A    between atoms: C9_9  and  C10_10 
ROOT
HETATM    1  C4  UNL     1     -33.588  19.156  -4.968  1.00 20.00     0.018 C 
HETATM    2  C9  UNL     1     -33.442  17.928  -4.063  1.00 20.00     0.059 C 
ENDROOT
BRANCH   2   3
HETATM    3  C1  UNL     1     -34.380  16.836  -4.596  1.00 20.00     0.134 C 
HETATM    4  O11 UNL     1     -35.590  17.031  -4.717  1.00 20.00    -0.297 OA
BRANCH   3   5
HETATM    5  C8  UNL     1     -33.738  15.510  -5.005  1.00 20.00     0.048 C 
HETATM    6  C2  UNL     1     -34.070  15.211  -6.463  1.00 20.00     0.017 C 
HETATM    7  C3  UNL     1     -34.200  14.375  -4.096  1.00 20.00     0.017 C 
ENDBRANCH   3   5
ENDBRANCH   2   3
BRANCH   2   8
HETATM    8  C10 UNL     1     -33.634  18.204  -2.535  1.00 20.00    -0.041 C 
HETATM    9  C5  UNL     1     -35.004  18.876  -2.295  1.00 20.00     0.015 C 
HETATM   10  C6  UNL     1     -32.549  19.177  -2.028  1.00 20.00     0.015 C 
HETATM   11  C7  UNL     1     -33.577  16.926  -1.679  1.00 20.00     0.015 C 
ENDBRANCH   2   8
TORSDOF 3
ENDMDL
MODEL 6
REMARK VINA RESULT:      -3.1     12.625     13.932
REMARK  3 active torsions:
REMARK  status: ('A' for Active; 'I' for Inactive)
REMARK    1  A    between atoms: C1_1  and  C8_8 
REMARK    2  A    between atoms: C1_1  and  C9_9 
REMARK    3  A    between atoms: C9_9  and  C10_10 
ROOT
HETATM    1  C4  UNL     1     -36.540  18.250  -5.092  1.00 20.00     0.018 C 
HETATM    2  C9  UNL     1     -35.807  16.905  -5.033  1.00 20.00     0.059 C 
ENDROOT
BRANCH   2   3
HETATM    3  C1  UNL     1     -34.419  17.152  -4.427  1.00 20.00     0.134 C 
HETATM    4  O11 UNL     1     -33.775  18.169  -4.688  1.00 20.00    -0.297 OA
BRANCH   3   5
HETATM    5  C8  UNL     1     -33.890  16.096  -3.456  1.00 20.00     0.048 C 
HETATM    6  C2  UNL     1     -33.343  16.781  -2.208  1.00 20.00     0.017 C 
HETATM    7  C3  UNL     1     -32.820  15.232  -4.117  1.00 20.00     0.017 C 
ENDBRANCH   3   5
ENDBRANCH   2   3
BRANCH   2   8
HETATM    8  C10 UNL     1     -35.751  16.121  -6.387  1.00 20.00    -0.041 C 
HETATM    9  C5  UNL     1     -36.967  16.502  -7.260  1.00 20.00     0.015 C 
HETATM   10  C6  UNL     1     -35.828  14.603  -6.127  1.00 20.00     0.015 C 
HETATM   11  C7  UNL     1     -34.475  16.410  -7.197  1.00 20.00     0.015 C 
ENDBRANCH   2   8
TORSDOF 3
ENDMDL
MODEL 7
REMARK VINA RESULT:      -3.1      2.028      3.845
REMARK  3 active torsions:
REMARK  status: ('A' for Active; 'I' for Inactive)
REMARK    1  A    between atoms: C1_1  and  C8_8 
REMARK    2  A    between atoms: C1_1  and  C9_9 
REMARK    3  A    between atoms: C9_9  and  C10_10 
ROOT
HETATM    1  C4  UNL     1     -40.077  13.068   6.418  1.00 20.00     0.018 C 
HETATM    2  C9  UNL     1     -41.050  14.121   6.960  1.00 20.00     0.059 C 
ENDROOT
BRANCH   2   3
HETATM    3  C1  UNL     1     -40.609  14.479   8.386  1.00 20.00     0.134 C 
HETATM    4  O11 UNL     1     -40.463  13.613   9.250  1.00 20.00    -0.297 OA
BRANCH   3   5
HETATM    5  C8  UNL     1     -40.324  15.953   8.674  1.00 20.00     0.048 C 
HETATM    6  C2  UNL     1     -41.101  16.390   9.911  1.00 20.00     0.017 C 
HETATM    7  C3  UNL     1     -40.678  16.823   7.472  1.00 20.00     0.017 C 
ENDBRANCH   3   5
ENDBRANCH   2   3
BRANCH   2   8
HETATM    8  C10 UNL     1     -42.563  13.734   6.868  1.00 20.00    -0.041 C 
HETATM    9  C5  UNL     1     -42.717  12.201   6.976  1.00 20.00     0.015 C 
HETATM   10  C6  UNL     1     -43.140  14.160   5.502  1.00 20.00     0.015 C 
HETATM   11  C7  UNL     1     -43.417  14.376   7.976  1.00 20.00     0.015 C 
ENDBRANCH   2   8
TORSDOF 3
ENDMDL
MODEL 8
REMARK VINA RESULT:      -3.1     20.551     22.946
REMARK  3 active torsions:
REMARK  status: ('A' for Active; 'I' for Inactive)
REMARK    1  A    between atoms: C1_1  and  C8_8 
REMARK    2  A    between atoms: C1_1  and  C9_9 
REMARK    3  A    between atoms: C9_9  and  C10_10 
ROOT
HETATM    1  C4  UNL     1     -24.287  -1.479  12.212  1.00 20.00     0.018 C 
HETATM    2  C9  UNL     1     -24.898  -2.114  10.957  1.00 20.00     0.059 C 
ENDROOT
BRANCH   2   3
HETATM    3  C1  UNL     1     -26.390  -2.348  11.227  1.00 20.00     0.134 C 
HETATM    4  O11 UNL     1     -26.793  -2.730  12.327  1.00 20.00    -0.297 OA
BRANCH   3   5
HETATM    5  C8  UNL     1     -27.357  -2.050  10.081  1.00 20.00     0.048 C 
HETATM    6  C2  UNL     1     -27.854  -0.613  10.193  1.00 20.00     0.017 C 
HETATM    7  C3  UNL     1     -28.525  -3.032  10.080  1.00 20.00     0.017 C 
ENDBRANCH   3   5
ENDBRANCH   2   3
BRANCH   2   8
HETATM    8  C10 UNL     1     -24.163  -3.395  10.439  1.00 20.00    -0.041 C 
HETATM    9  C5  UNL     1     -22.843  -3.590  11.216  1.00 20.00     0.015 C 
HETATM   10  C6  UNL     1     -23.801  -3.235   8.948  1.00 20.00     0.015 C 
HETATM   11  C7  UNL     1     -25.002  -4.676  10.599  1.00 20.00     0.015 C 
ENDBRANCH   2   8
TORSDOF 3
ENDMDL
MODEL 9
REMARK VINA RESULT:      -3.1      1.842      3.145
REMARK  3 active torsions:
REMARK  status: ('A' for Active; 'I' for Inactive)
REMARK    1  A    between atoms: C1_1  and  C8_8 
REMARK    2  A    between atoms: C1_1  and  C9_9 
REMARK    3  A    between atoms: C9_9  and  C10_10 
ROOT
HETATM    1  C4  UNL     1     -42.945  13.620   8.607  1.00 20.00     0.018 C 
HETATM    2  C9  UNL     1     -42.110  14.470   7.642  1.00 20.00     0.059 C 
ENDROOT
BRANCH   2   3
HETATM    3  C1  UNL     1     -40.759  13.768   7.446  1.00 20.00     0.134 C 
HETATM    4  O11 UNL     1     -40.031  13.496   8.401  1.00 20.00    -0.297 OA
BRANCH   3   5
HETATM    5  C8  UNL     1     -40.378  13.388   6.015  1.00 20.00     0.048 C 
HETATM    6  C2  UNL     1     -41.527  13.731   5.073  1.00 20.00     0.017 C 
HETATM    7  C3  UNL     1     -40.017  11.909   5.919  1.00 20.00     0.017 C 
ENDBRANCH   3   5
ENDBRANCH   2   3
BRANCH   2   8
HETATM    8  C10 UNL     1     -41.962  15.975   8.045  1.00 20.00    -0.041 C 
HETATM    9  C5  UNL     1     -42.008  16.111   9.582  1.00 20.00     0.015 C 
HETATM   10  C6  UNL     1     -43.137  16.796   7.474  1.00 20.00     0.015 C 
HETATM   11  C7  UNL     1     -40.646  16.604   7.551  1.00 20.00     0.015 C 
ENDBRANCH   2   8
TORSDOF 3
ENDMDL
