MODEL 1
REMARK VINA RESULT:      -4.7      0.000      0.000
REMARK  3 active torsions:
REMARK  status: ('A' for Active; 'I' for Inactive)
REMARK    1  A    between atoms: C3_3  and  C6_6 
REMARK    2  A    between atoms: C3_3  and  O8_8 
REMARK    3  A    between atoms: C6_6  and  C7_7 
ROOT
HETATM    1  C1  UNL     1     -35.448   6.124   4.420  1.00 20.00     0.045 A 
HETATM    2  C2  UNL     1     -34.404   5.044   4.292  1.00 20.00     0.019 A 
HETATM    3  C3  UNL     1     -34.523   5.836   5.576  1.00 20.00     0.061 A 
HETATM    4  C4  UNL     1     -33.260   5.213   3.353  1.00 20.00     0.013 C 
ENDROOT
BRANCH   3   5
HETATM    5  C6  UNL     1     -33.505   6.848   5.986  1.00 20.00     0.038 C 
BRANCH   5   6
HETATM    6  C7  UNL     1     -33.694   8.194   5.267  1.00 20.00    -0.002 C 
HETATM    7  C5  UNL     1     -32.429   8.659   4.561  1.00 20.00     0.005 C 
ENDBRANCH   5   6
ENDBRANCH   3   5
BRANCH   3   8
HETATM    8  O8  UNL     1     -35.107   5.130   6.686  1.00 20.00    -0.389 OA
HETATM    9  H22 UNL     1     -35.327   5.806   7.339  1.00 20.00     0.210 HD
ENDBRANCH   3   8
TORSDOF 3
ENDMDL
MODEL 2
REMARK VINA RESULT:      -4.2      2.125      3.355
REMARK  3 active torsions:
REMARK  status: ('A' for Active; 'I' for Inactive)
REMARK    1  A    between atoms: C3_3  and  C6_6 
REMARK    2  A    between atoms: C3_3  and  O8_8 
REMARK    3  A    between atoms: C6_6  and  C7_7 
ROOT
HETATM    1  C1  UNL     1     -34.137   8.432   5.943  1.00 20.00     0.045 A 
HETATM    2  C2  UNL     1     -33.586   7.070   6.278  1.00 20.00     0.019 A 
HETATM    3  C3  UNL     1     -33.159   7.769   5.005  1.00 20.00     0.061 A 
HETATM    4  C4  UNL     1     -34.478   5.876   6.273  1.00 20.00     0.013 C 
ENDROOT
BRANCH   3   5
HETATM    5  C6  UNL     1     -33.610   7.315   3.657  1.00 20.00     0.038 C 
BRANCH   5   6
HETATM    6  C7  UNL     1     -32.507   6.568   2.890  1.00 20.00    -0.002 C 
HETATM    7  C5  UNL     1     -32.882   5.125   2.591  1.00 20.00     0.005 C 
ENDBRANCH   5   6
ENDBRANCH   3   5
BRANCH   3   8
HETATM    8  O8  UNL     1     -31.822   8.304   5.012  1.00 20.00    -0.389 OA
HETATM    9  H22 UNL     1     -31.246   7.565   5.243  1.00 20.00     0.210 HD
ENDBRANCH   3   8
TORSDOF 3
ENDMDL
MODEL 3
REMARK VINA RESULT:      -4.2      1.717      3.221
REMARK  3 active torsions:
REMARK  status: ('A' for Active; 'I' for Inactive)
REMARK    1  A    between atoms: C3_3  and  C6_6 
REMARK    2  A    between atoms: C3_3  and  O8_8 
REMARK    3  A    between atoms: C6_6  and  C7_7 
ROOT
HETATM    1  C1  UNL     1     -32.039   8.834   4.904  1.00 20.00     0.045 A 
HETATM    2  C2  UNL     1     -32.876   8.203   3.821  1.00 20.00     0.019 A 
HETATM    3  C3  UNL     1     -33.310   8.107   5.268  1.00 20.00     0.061 A 
HETATM    4  C4  UNL     1     -32.362   7.028   3.062  1.00 20.00     0.013 C 
ENDROOT
BRANCH   3   5
HETATM    5  C6  UNL     1     -33.243   6.830   6.037  1.00 20.00     0.038 C 
BRANCH   5   6
HETATM    6  C7  UNL     1     -34.613   6.140   6.149  1.00 20.00    -0.002 C 
HETATM    7  C5  UNL     1     -34.864   5.159   5.014  1.00 20.00     0.005 C 
ENDBRANCH   5   6
ENDBRANCH   3   5
BRANCH   3   8
HETATM    8  O8  UNL     1     -34.425   8.940   5.636  1.00 20.00    -0.389 OA
HETATM    9  H22 UNL     1     -34.653   8.687   6.539  1.00 20.00     0.210 HD
ENDBRANCH   3   8
TORSDOF 3
ENDMDL
MODEL 4
REMARK VINA RESULT:      -4.0      1.256      2.756
REMARK  3 active torsions:
REMARK  status: ('A' for Active; 'I' for Inactive)
REMARK    1  A    between atoms: C3_3  and  C6_6 
REMARK    2  A    between atoms: C3_3  and  O8_8 
REMARK    3  A    between atoms: C6_6  and  C7_7 
ROOT
HETATM    1  C1  UNL     1     -34.676   6.086   6.464  1.00 20.00     0.045 A 
HETATM    2  C2  UNL     1     -34.348   7.195   5.496  1.00 20.00     0.019 A 
HETATM    3  C3  UNL     1     -34.678   5.811   4.981  1.00 20.00     0.061 A 
HETATM    4  C4  UNL     1     -32.970   7.760   5.441  1.00 20.00     0.013 C 
ENDROOT
BRANCH   3   5
HETATM    5  C6  UNL     1     -33.643   4.913   4.388  1.00 20.00     0.038 C 
BRANCH   5   6
HETATM    6  C7  UNL     1     -33.511   5.094   2.867  1.00 20.00    -0.002 C 
HETATM    7  C5  UNL     1     -32.500   6.167   2.495  1.00 20.00     0.005 C 
ENDBRANCH   5   6
ENDBRANCH   3   5
BRANCH   3   8
HETATM    8  O8  UNL     1     -35.974   5.671   4.370  1.00 20.00    -0.389 OA
HETATM    9  H22 UNL     1     -35.832   5.149   3.571  1.00 20.00     0.210 HD
ENDBRANCH   3   8
TORSDOF 3
ENDMDL
MODEL 5
REMARK VINA RESULT:      -3.9      1.496      2.552
REMARK  3 active torsions:
REMARK  status: ('A' for Active; 'I' for Inactive)
REMARK    1  A    between atoms: C3_3  and  C6_6 
REMARK    2  A    between atoms: C3_3  and  O8_8 
REMARK    3  A    between atoms: C6_6  and  C7_7 
ROOT
HETATM    1  C1  UNL     1     -33.727   5.222   2.292  1.00 20.00     0.045 A 
HETATM    2  C2  UNL     1     -32.657   5.762   3.207  1.00 20.00     0.019 A 
HETATM    3  C3  UNL     1     -33.909   5.142   3.788  1.00 20.00     0.061 A 
HETATM    4  C4  UNL     1     -32.389   7.227   3.268  1.00 20.00     0.013 C 
ENDROOT
BRANCH   3   5
HETATM    5  C6  UNL     1     -34.967   5.957   4.454  1.00 20.00     0.038 C 
BRANCH   5   6
HETATM    6  C7  UNL     1     -34.855   5.924   5.987  1.00 20.00    -0.002 C 
HETATM    7  C5  UNL     1     -34.039   7.084   6.535  1.00 20.00     0.005 C 
ENDBRANCH   5   6
ENDBRANCH   3   5
BRANCH   3   8
HETATM    8  O8  UNL     1     -33.740   3.837   4.371  1.00 20.00    -0.389 OA
HETATM    9  H22 UNL     1     -34.413   3.769   5.059  1.00 20.00     0.210 HD
ENDBRANCH   3   8
TORSDOF 3
ENDMDL
MODEL 6
REMARK VINA RESULT:      -3.9      1.980      3.603
REMARK  3 active torsions:
REMARK  status: ('A' for Active; 'I' for Inactive)
REMARK    1  A    between atoms: C3_3  and  C6_6 
REMARK    2  A    between atoms: C3_3  and  O8_8 
REMARK    3  A    between atoms: C6_6  and  C7_7 
ROOT
HETATM    1  C1  UNL     1     -32.770   8.122   2.705  1.00 20.00     0.045 A 
HETATM    2  C2  UNL     1     -32.080   7.919   4.030  1.00 20.00     0.019 A 
HETATM    3  C3  UNL     1     -33.085   6.902   3.534  1.00 20.00     0.061 A 
HETATM    4  C4  UNL     1     -32.364   8.830   5.174  1.00 20.00     0.013 C 
ENDROOT
BRANCH   3   5
HETATM    5  C6  UNL     1     -34.434   6.748   4.152  1.00 20.00     0.038 C 
BRANCH   5   6
HETATM    6  C7  UNL     1     -34.628   5.369   4.804  1.00 20.00    -0.002 C 
HETATM    7  C5  UNL     1     -34.554   5.428   6.322  1.00 20.00     0.005 C 
ENDBRANCH   5   6
ENDBRANCH   3   5
BRANCH   3   8
HETATM    8  O8  UNL     1     -32.527   5.662   3.060  1.00 20.00    -0.389 OA
HETATM    9  H22 UNL     1     -31.700   5.897   2.623  1.00 20.00     0.210 HD
ENDBRANCH   3   8
TORSDOF 3
ENDMDL
MODEL 7
REMARK VINA RESULT:      -3.8      8.782      9.706
REMARK  3 active torsions:
REMARK  status: ('A' for Active; 'I' for Inactive)
REMARK    1  A    between atoms: C3_3  and  C6_6 
REMARK    2  A    between atoms: C3_3  and  O8_8 
REMARK    3  A    between atoms: C6_6  and  C7_7 
ROOT
HETATM    1  C1  UNL     1     -41.819  13.821   5.532  1.00 20.00     0.045 A 
HETATM    2  C2  UNL     1     -42.140  13.343   6.925  1.00 20.00     0.019 A 
HETATM    3  C3  UNL     1     -40.730  13.224   6.388  1.00 20.00     0.061 A 
HETATM    4  C4  UNL     1     -43.018  12.157   7.130  1.00 20.00     0.013 C 
ENDROOT
BRANCH   3   5
HETATM    5  C6  UNL     1     -40.126  11.911   6.017  1.00 20.00     0.038 C 
BRANCH   5   6
HETATM    6  C7  UNL     1     -38.797  12.070   5.258  1.00 20.00    -0.002 C 
HETATM    7  C5  UNL     1     -38.908  11.651   3.801  1.00 20.00     0.005 C 
ENDBRANCH   5   6
ENDBRANCH   3   5
BRANCH   3   8
HETATM    8  O8  UNL     1     -39.780  14.158   6.934  1.00 20.00    -0.389 OA
HETATM    9  H22 UNL     1     -40.028  15.021   6.580  1.00 20.00     0.210 HD
ENDBRANCH   3   8
TORSDOF 3
ENDMDL
MODEL 8
REMARK VINA RESULT:      -3.8     12.777     13.732
REMARK  3 active torsions:
REMARK  status: ('A' for Active; 'I' for Inactive)
REMARK    1  A    between atoms: C3_3  and  C6_6 
REMARK    2  A    between atoms: C3_3  and  O8_8 
REMARK    3  A    between atoms: C6_6  and  C7_7 
ROOT
HETATM    1  C1  UNL     1     -35.494  14.737  -5.851  1.00 20.00     0.045 A 
HETATM    2  C2  UNL     1     -34.351  15.197  -6.720  1.00 20.00     0.019 A 
HETATM    3  C3  UNL     1     -34.174  15.107  -5.220  1.00 20.00     0.061 A 
HETATM    4  C4  UNL     1     -34.431  16.501  -7.438  1.00 20.00     0.013 C 
ENDROOT
BRANCH   3   5
HETATM    5  C6  UNL     1     -34.076  16.319  -4.355  1.00 20.00     0.038 C 
BRANCH   5   6
HETATM    6  C7  UNL     1     -33.217  16.077  -3.102  1.00 20.00    -0.002 C 
HETATM    7  C5  UNL     1     -33.536  17.055  -1.982  1.00 20.00     0.005 C 
ENDBRANCH   5   6
ENDBRANCH   3   5
BRANCH   3   8
HETATM    8  O8  UNL     1     -33.370  14.006  -4.757  1.00 20.00    -0.389 OA
HETATM    9  H22 UNL     1     -32.473  14.192  -5.062  1.00 20.00     0.210 HD
ENDBRANCH   3   8
TORSDOF 3
ENDMDL
MODEL 9
REMARK VINA RESULT:      -3.8      1.411      2.020
REMARK  3 active torsions:
REMARK  status: ('A' for Active; 'I' for Inactive)
REMARK    1  A    between atoms: C3_3  and  C6_6 
REMARK    2  A    between atoms: C3_3  and  O8_8 
REMARK    3  A    between atoms: C6_6  and  C7_7 
ROOT
HETATM    1  C1  UNL     1     -34.049   4.904   4.255  1.00 20.00     0.045 A 
HETATM    2  C2  UNL     1     -34.645   4.953   5.638  1.00 20.00     0.019 A 
HETATM    3  C3  UNL     1     -34.945   6.053   4.644  1.00 20.00     0.061 A 
HETATM    4  C4  UNL     1     -33.771   5.168   6.826  1.00 20.00     0.013 C 
ENDROOT
BRANCH   3   5
HETATM    5  C6  UNL     1     -34.379   7.427   4.779  1.00 20.00     0.038 C 
BRANCH   5   6
HETATM    6  C7  UNL     1     -33.033   7.582   4.052  1.00 20.00    -0.002 C 
HETATM    7  C5  UNL     1     -32.188   8.708   4.627  1.00 20.00     0.005 C 
ENDBRANCH   5   6
ENDBRANCH   3   5
BRANCH   3   8
HETATM    8  O8  UNL     1     -36.270   6.033   4.081  1.00 20.00    -0.389 OA
HETATM    9  H22 UNL     1     -36.148   5.940   3.128  1.00 20.00     0.210 HD
ENDBRANCH   3   8
TORSDOF 3
ENDMDL
