MODEL 1
REMARK VINA RESULT:      -3.9      0.000      0.000
REMARK  3 active torsions:
REMARK  status: ('A' for Active; 'I' for Inactive)
REMARK    1  A    between atoms: C2_2  and  C6_6 
REMARK    2  A    between atoms: C3_3  and  C7_7 
REMARK    3  A    between atoms: C3_3  and  O8_8 
ROOT
HETATM    1  C1  UNL     1     -32.919   6.520   3.722  1.00 20.00     0.045 A 
HETATM    2  C2  UNL     1     -33.887   7.353   4.521  1.00 20.00     0.022 A 
HETATM    3  C3  UNL     1     -32.667   7.995   3.906  1.00 20.00     0.062 A 
ENDROOT
BRANCH   3   4
HETATM    4  C7  UNL     1     -32.818   8.924   2.749  1.00 20.00     0.034 C 
HETATM    5  C5  UNL     1     -32.240   8.370   1.472  1.00 20.00     0.008 C 
ENDBRANCH   3   4
BRANCH   3   6
HETATM    6  O8  UNL     1     -31.587   8.341   4.790  1.00 20.00    -0.389 OA
HETATM    7  H22 UNL     1     -31.992   8.508   5.651  1.00 20.00     0.210 HD
ENDBRANCH   3   6
BRANCH   2   8
HETATM    8  C6  UNL     1     -34.007   7.155   5.994  1.00 20.00     0.003 C 
HETATM    9  C4  UNL     1     -34.482   5.773   6.365  1.00 20.00     0.005 C 
ENDBRANCH   2   8
TORSDOF 3
ENDMDL
MODEL 2
REMARK VINA RESULT:      -3.6      1.422      3.958
REMARK  3 active torsions:
REMARK  status: ('A' for Active; 'I' for Inactive)
REMARK    1  A    between atoms: C2_2  and  C6_6 
REMARK    2  A    between atoms: C3_3  and  C7_7 
REMARK    3  A    between atoms: C3_3  and  O8_8 
ROOT
HETATM    1  C1  UNL     1     -31.781   8.005   4.076  1.00 20.00     0.045 A 
HETATM    2  C2  UNL     1     -32.716   8.421   2.971  1.00 20.00     0.022 A 
HETATM    3  C3  UNL     1     -33.022   7.195   3.797  1.00 20.00     0.062 A 
ENDROOT
BRANCH   3   4
HETATM    4  C7  UNL     1     -34.155   7.215   4.768  1.00 20.00     0.034 C 
HETATM    5  C5  UNL     1     -34.860   5.888   4.875  1.00 20.00     0.008 C 
ENDBRANCH   3   4
BRANCH   3   6
HETATM    6  O8  UNL     1     -32.809   5.914   3.182  1.00 20.00    -0.389 OA
HETATM    7  H22 UNL     1     -33.665   5.465   3.202  1.00 20.00     0.210 HD
ENDBRANCH   3   6
BRANCH   2   8
HETATM    8  C6  UNL     1     -32.285   8.315   1.548  1.00 20.00     0.003 C 
HETATM    9  C4  UNL     1     -32.780   9.457   0.697  1.00 20.00     0.005 C 
ENDBRANCH   2   8
TORSDOF 3
ENDMDL
MODEL 3
REMARK VINA RESULT:      -3.6      1.366      3.694
REMARK  3 active torsions:
REMARK  status: ('A' for Active; 'I' for Inactive)
REMARK    1  A    between atoms: C2_2  and  C6_6 
REMARK    2  A    between atoms: C3_3  and  C7_7 
REMARK    3  A    between atoms: C3_3  and  O8_8 
ROOT
HETATM    1  C1  UNL     1     -34.282   8.503   5.634  1.00 20.00     0.045 A 
HETATM    2  C2  UNL     1     -33.626   7.714   4.531  1.00 20.00     0.022 A 
HETATM    3  C3  UNL     1     -33.849   7.081   5.883  1.00 20.00     0.062 A 
ENDROOT
BRANCH   3   4
HETATM    4  C7  UNL     1     -34.875   6.009   6.043  1.00 20.00     0.034 C 
HETATM    5  C5  UNL     1     -34.635   4.827   5.141  1.00 20.00     0.008 C 
ENDBRANCH   3   4
BRANCH   3   6
HETATM    6  O8  UNL     1     -32.701   6.915   6.732  1.00 20.00    -0.389 OA
HETATM    7  H22 UNL     1     -32.206   6.171   6.365  1.00 20.00     0.210 HD
ENDBRANCH   3   6
BRANCH   2   8
HETATM    8  C6  UNL     1     -32.261   8.083   4.058  1.00 20.00     0.003 C 
HETATM    9  C4  UNL     1     -31.972   7.599   2.660  1.00 20.00     0.005 C 
ENDBRANCH   2   8
TORSDOF 3
ENDMDL
MODEL 4
REMARK VINA RESULT:      -3.6      1.529      1.988
REMARK  3 active torsions:
REMARK  status: ('A' for Active; 'I' for Inactive)
REMARK    1  A    between atoms: C2_2  and  C6_6 
REMARK    2  A    between atoms: C3_3  and  C7_7 
REMARK    3  A    between atoms: C3_3  and  O8_8 
ROOT
HETATM    1  C1  UNL     1     -33.594   8.616   6.077  1.00 20.00     0.045 A 
HETATM    2  C2  UNL     1     -33.443   7.118   6.049  1.00 20.00     0.022 A 
HETATM    3  C3  UNL     1     -33.391   7.907   4.763  1.00 20.00     0.062 A 
ENDROOT
BRANCH   3   4
HETATM    4  C7  UNL     1     -32.099   8.055   4.031  1.00 20.00     0.034 C 
HETATM    5  C5  UNL     1     -32.142   7.475   2.641  1.00 20.00     0.008 C 
ENDBRANCH   3   4
BRANCH   3   6
HETATM    6  O8  UNL     1     -34.540   7.843   3.901  1.00 20.00    -0.389 OA
HETATM    7  H22 UNL     1     -35.288   8.144   4.435  1.00 20.00     0.210 HD
ENDBRANCH   3   6
BRANCH   2   8
HETATM    8  C6  UNL     1     -34.603   6.243   6.381  1.00 20.00     0.003 C 
HETATM    9  C4  UNL     1     -34.518   4.883   5.737  1.00 20.00     0.005 C 
ENDBRANCH   2   8
TORSDOF 3
ENDMDL
MODEL 5
REMARK VINA RESULT:      -3.6      9.182      9.818
REMARK  3 active torsions:
REMARK  status: ('A' for Active; 'I' for Inactive)
REMARK    1  A    between atoms: C2_2  and  C6_6 
REMARK    2  A    between atoms: C3_3  and  C7_7 
REMARK    3  A    between atoms: C3_3  and  O8_8 
ROOT
HETATM    1  C1  UNL     1     -41.631  12.744   6.773  1.00 20.00     0.045 A 
HETATM    2  C2  UNL     1     -40.907  14.055   6.612  1.00 20.00     0.022 A 
HETATM    3  C3  UNL     1     -40.234  12.765   6.208  1.00 20.00     0.062 A 
ENDROOT
BRANCH   3   4
HETATM    4  C7  UNL     1     -40.011  12.461   4.765  1.00 20.00     0.034 C 
HETATM    5  C5  UNL     1     -38.726  11.717   4.513  1.00 20.00     0.008 C 
ENDBRANCH   3   4
BRANCH   3   6
HETATM    6  O8  UNL     1     -39.201  12.261   7.072  1.00 20.00    -0.389 OA
HETATM    7  H22 UNL     1     -38.925  13.008   7.619  1.00 20.00     0.210 HD
ENDBRANCH   3   6
BRANCH   2   8
HETATM    8  C6  UNL     1     -40.470  14.821   7.814  1.00 20.00     0.003 C 
HETATM    9  C4  UNL     1     -40.597  16.312   7.639  1.00 20.00     0.005 C 
ENDBRANCH   2   8
TORSDOF 3
ENDMDL
MODEL 6
REMARK VINA RESULT:      -3.6     11.633     12.207
REMARK  3 active torsions:
REMARK  status: ('A' for Active; 'I' for Inactive)
REMARK    1  A    between atoms: C2_2  and  C6_6 
REMARK    2  A    between atoms: C3_3  and  C7_7 
REMARK    3  A    between atoms: C3_3  and  O8_8 
ROOT
HETATM    1  C1  UNL     1     -33.929  18.131  -1.068  1.00 20.00     0.045 A 
HETATM    2  C2  UNL     1     -33.258  17.055  -1.881  1.00 20.00     0.022 A 
HETATM    3  C3  UNL     1     -32.480  18.277  -1.457  1.00 20.00     0.062 A 
ENDROOT
BRANCH   3   4
HETATM    4  C7  UNL     1     -31.416  18.160  -0.418  1.00 20.00     0.034 C 
HETATM    5  C5  UNL     1     -31.661  19.047   0.776  1.00 20.00     0.008 C 
ENDBRANCH   3   4
BRANCH   3   6
HETATM    6  O8  UNL     1     -32.198  19.263  -2.465  1.00 20.00    -0.389 OA
HETATM    7  H22 UNL     1     -33.048  19.669  -2.682  1.00 20.00     0.210 HD
ENDBRANCH   3   6
BRANCH   2   8
HETATM    8  C6  UNL     1     -33.653  16.835  -3.301  1.00 20.00     0.003 C 
HETATM    9  C4  UNL     1     -33.294  15.461  -3.806  1.00 20.00     0.005 C 
ENDBRANCH   2   8
TORSDOF 3
ENDMDL
MODEL 7
REMARK VINA RESULT:      -3.6      2.167      4.123
REMARK  3 active torsions:
REMARK  status: ('A' for Active; 'I' for Inactive)
REMARK    1  A    between atoms: C2_2  and  C6_6 
REMARK    2  A    between atoms: C3_3  and  C7_7 
REMARK    3  A    between atoms: C3_3  and  O8_8 
ROOT
HETATM    1  C1  UNL     1     -34.024   4.171   4.315  1.00 20.00     0.045 A 
HETATM    2  C2  UNL     1     -33.246   5.438   4.072  1.00 20.00     0.022 A 
HETATM    3  C3  UNL     1     -34.556   5.487   4.821  1.00 20.00     0.062 A 
ENDROOT
BRANCH   3   4
HETATM    4  C7  UNL     1     -34.566   5.770   6.286  1.00 20.00     0.034 C 
HETATM    5  C5  UNL     1     -34.159   7.182   6.615  1.00 20.00     0.008 C 
ENDBRANCH   3   4
BRANCH   3   6
HETATM    6  O8  UNL     1     -35.697   6.012   4.123  1.00 20.00    -0.389 OA
HETATM    7  H22 UNL     1     -36.261   5.252   3.928  1.00 20.00     0.210 HD
ENDBRANCH   3   6
BRANCH   2   8
HETATM    8  C6  UNL     1     -33.116   5.982   2.691  1.00 20.00     0.003 C 
HETATM    9  C4  UNL     1     -32.260   7.221   2.625  1.00 20.00     0.005 C 
ENDBRANCH   2   8
TORSDOF 3
ENDMDL
MODEL 8
REMARK VINA RESULT:      -3.6      9.691     10.491
REMARK  3 active torsions:
REMARK  status: ('A' for Active; 'I' for Inactive)
REMARK    1  A    between atoms: C2_2  and  C6_6 
REMARK    2  A    between atoms: C3_3  and  C7_7 
REMARK    3  A    between atoms: C3_3  and  O8_8 
ROOT
HETATM    1  C1  UNL     1     -40.494  13.625   7.012  1.00 20.00     0.045 A 
HETATM    2  C2  UNL     1     -40.412  12.983   5.652  1.00 20.00     0.022 A 
HETATM    3  C3  UNL     1     -41.727  13.017   6.392  1.00 20.00     0.062 A 
ENDROOT
BRANCH   3   4
HETATM    4  C7  UNL     1     -42.829  13.900   5.912  1.00 20.00     0.034 C 
HETATM    5  C5  UNL     1     -43.417  14.753   7.006  1.00 20.00     0.008 C 
ENDBRANCH   3   4
BRANCH   3   6
HETATM    6  O8  UNL     1     -42.184  11.789   6.983  1.00 20.00    -0.389 OA
HETATM    7  H22 UNL     1     -41.758  11.737   7.848  1.00 20.00     0.210 HD
ENDBRANCH   3   6
BRANCH   2   8
HETATM    8  C6  UNL     1     -39.651  11.714   5.469  1.00 20.00     0.003 C 
HETATM    9  C4  UNL     1     -39.010  11.603   4.109  1.00 20.00     0.005 C 
ENDBRANCH   2   8
TORSDOF 3
ENDMDL
MODEL 9
REMARK VINA RESULT:      -3.5     11.619     12.156
REMARK  3 active torsions:
REMARK  status: ('A' for Active; 'I' for Inactive)
REMARK    1  A    between atoms: C2_2  and  C6_6 
REMARK    2  A    between atoms: C3_3  and  C7_7 
REMARK    3  A    between atoms: C3_3  and  O8_8 
ROOT
HETATM    1  C1  UNL     1     -32.827  14.894  -4.333  1.00 20.00     0.045 A 
HETATM    2  C2  UNL     1     -33.700  15.704  -3.412  1.00 20.00     0.022 A 
HETATM    3  C3  UNL     1     -34.092  15.524  -4.858  1.00 20.00     0.062 A 
ENDROOT
BRANCH   3   4
HETATM    4  C7  UNL     1     -35.257  14.663  -5.213  1.00 20.00     0.034 C 
HETATM    5  C5  UNL     1     -35.779  14.925  -6.602  1.00 20.00     0.008 C 
ENDBRANCH   3   4
BRANCH   3   6
HETATM    6  O8  UNL     1     -33.914  16.649  -5.736  1.00 20.00    -0.389 OA
HETATM    7  H22 UNL     1     -32.962  16.810  -5.770  1.00 20.00     0.210 HD
ENDBRANCH   3   6
BRANCH   2   8
HETATM    8  C6  UNL     1     -33.223  17.016  -2.890  1.00 20.00     0.003 C 
HETATM    9  C4  UNL     1     -33.625  17.262  -1.458  1.00 20.00     0.005 C 
ENDBRANCH   2   8
TORSDOF 3
ENDMDL
