MODEL 1
REMARK VINA RESULT:      -4.2      0.000      0.000
REMARK  2 active torsions:
REMARK  status: ('A' for Active; 'I' for Inactive)
REMARK    1  A    between atoms: C3_3  and  C7_7 
REMARK    2  A    between atoms: C3_3  and  O8_8 
ROOT
HETATM    1  C1  UNL     1     -32.163   8.255   4.614  1.00 20.00     0.045 A 
HETATM    2  C2  UNL     1     -33.137   8.691   3.551  1.00 20.00     0.019 A 
HETATM    3  C3  UNL     1     -33.158   7.269   4.056  1.00 20.00     0.065 A 
HETATM    4  C4  UNL     1     -32.650   9.026   2.183  1.00 20.00     0.013 C 
ENDROOT
BRANCH   3   5
HETATM    5  C7  UNL     1     -34.291   6.795   4.904  1.00 20.00     0.012 C 
HETATM    6  C5  UNL     1     -34.699   5.352   4.560  1.00 20.00     0.012 C 
HETATM    7  C6  UNL     1     -33.957   6.883   6.406  1.00 20.00     0.012 C 
ENDBRANCH   3   5
BRANCH   3   8
HETATM    8  O8  UNL     1     -32.617   6.254   3.194  1.00 20.00    -0.389 OA
HETATM    9  H22 UNL     1     -32.915   6.478   2.302  1.00 20.00     0.210 HD
ENDBRANCH   3   8
TORSDOF 2
ENDMDL
MODEL 2
REMARK VINA RESULT:      -4.0      1.592      3.129
REMARK  2 active torsions:
REMARK  status: ('A' for Active; 'I' for Inactive)
REMARK    1  A    between atoms: C3_3  and  C7_7 
REMARK    2  A    between atoms: C3_3  and  O8_8 
ROOT
HETATM    1  C1  UNL     1     -33.800   8.244   4.772  1.00 20.00     0.045 A 
HETATM    2  C2  UNL     1     -33.398   7.142   5.718  1.00 20.00     0.019 A 
HETATM    3  C3  UNL     1     -33.704   6.824   4.274  1.00 20.00     0.065 A 
HETATM    4  C4  UNL     1     -34.315   6.731   6.818  1.00 20.00     0.013 C 
ENDROOT
BRANCH   3   5
HETATM    5  C7  UNL     1     -32.601   6.435   3.347  1.00 20.00     0.012 C 
HETATM    6  C5  UNL     1     -32.929   5.141   2.580  1.00 20.00     0.012 C 
HETATM    7  C6  UNL     1     -32.278   7.554   2.340  1.00 20.00     0.012 C 
ENDBRANCH   3   5
BRANCH   3   8
HETATM    8  O8  UNL     1     -34.954   6.173   3.992  1.00 20.00    -0.389 OA
HETATM    9  H22 UNL     1     -34.726   5.290   3.674  1.00 20.00     0.210 HD
ENDBRANCH   3   8
TORSDOF 2
ENDMDL
MODEL 3
REMARK VINA RESULT:      -3.7      1.222      3.551
REMARK  2 active torsions:
REMARK  status: ('A' for Active; 'I' for Inactive)
REMARK    1  A    between atoms: C3_3  and  C7_7 
REMARK    2  A    between atoms: C3_3  and  O8_8 
ROOT
HETATM    1  C1  UNL     1     -35.430   6.304   4.494  1.00 20.00     0.045 A 
HETATM    2  C2  UNL     1     -34.521   6.246   5.694  1.00 20.00     0.019 A 
HETATM    3  C3  UNL     1     -33.935   6.373   4.309  1.00 20.00     0.065 A 
HETATM    4  C4  UNL     1     -34.401   4.985   6.480  1.00 20.00     0.013 C 
ENDROOT
BRANCH   3   5
HETATM    5  C7  UNL     1     -33.296   7.653   3.884  1.00 20.00     0.012 C 
HETATM    6  C5  UNL     1     -32.689   8.413   5.077  1.00 20.00     0.012 C 
HETATM    7  C6  UNL     1     -32.206   7.423   2.820  1.00 20.00     0.012 C 
ENDBRANCH   3   5
BRANCH   3   8
HETATM    8  O8  UNL     1     -33.319   5.204   3.743  1.00 20.00    -0.389 OA
HETATM    9  H22 UNL     1     -33.152   5.416   2.815  1.00 20.00     0.210 HD
ENDBRANCH   3   8
TORSDOF 2
ENDMDL
MODEL 4
REMARK VINA RESULT:      -3.7      1.616      1.913
REMARK  2 active torsions:
REMARK  status: ('A' for Active; 'I' for Inactive)
REMARK    1  A    between atoms: C3_3  and  C7_7 
REMARK    2  A    between atoms: C3_3  and  O8_8 
ROOT
HETATM    1  C1  UNL     1     -34.225   8.488   4.943  1.00 20.00     0.045 A 
HETATM    2  C2  UNL     1     -33.209   7.754   4.108  1.00 20.00     0.019 A 
HETATM    3  C3  UNL     1     -33.757   7.118   5.362  1.00 20.00     0.065 A 
HETATM    4  C4  UNL     1     -31.804   8.249   4.036  1.00 20.00     0.013 C 
ENDROOT
BRANCH   3   5
HETATM    5  C7  UNL     1     -34.685   5.953   5.262  1.00 20.00     0.012 C 
HETATM    6  C5  UNL     1     -34.212   4.934   4.210  1.00 20.00     0.012 C 
HETATM    7  C6  UNL     1     -34.858   5.241   6.617  1.00 20.00     0.012 C 
ENDBRANCH   3   5
BRANCH   3   8
HETATM    8  O8  UNL     1     -32.896   7.074   6.512  1.00 20.00    -0.389 OA
HETATM    9  H22 UNL     1     -33.019   7.918   6.967  1.00 20.00     0.210 HD
ENDBRANCH   3   8
TORSDOF 2
ENDMDL
MODEL 5
REMARK VINA RESULT:      -3.6     11.786     12.287
REMARK  2 active torsions:
REMARK  status: ('A' for Active; 'I' for Inactive)
REMARK    1  A    between atoms: C3_3  and  C7_7 
REMARK    2  A    between atoms: C3_3  and  O8_8 
ROOT
HETATM    1  C1  UNL     1     -34.313  18.372  -1.393  1.00 20.00     0.045 A 
HETATM    2  C2  UNL     1     -33.539  17.099  -1.616  1.00 20.00     0.019 A 
HETATM    3  C3  UNL     1     -32.850  18.308  -1.032  1.00 20.00     0.065 A 
HETATM    4  C4  UNL     1     -33.252  16.632  -3.002  1.00 20.00     0.013 C 
ENDROOT
BRANCH   3   5
HETATM    5  C7  UNL     1     -32.438  18.310   0.403  1.00 20.00     0.012 C 
HETATM    6  C5  UNL     1     -30.956  18.691   0.572  1.00 20.00     0.012 C 
HETATM    7  C6  UNL     1     -33.306  19.263   1.246  1.00 20.00     0.012 C 
ENDBRANCH   3   5
BRANCH   3   8
HETATM    8  O8  UNL     1     -31.960  19.040  -1.890  1.00 20.00    -0.389 OA
HETATM    9  H22 UNL     1     -31.428  18.376  -2.348  1.00 20.00     0.210 HD
ENDBRANCH   3   8
TORSDOF 2
ENDMDL
MODEL 6
REMARK VINA RESULT:      -3.6      1.672      2.197
REMARK  2 active torsions:
REMARK  status: ('A' for Active; 'I' for Inactive)
REMARK    1  A    between atoms: C3_3  and  C7_7 
REMARK    2  A    between atoms: C3_3  and  O8_8 
ROOT
HETATM    1  C1  UNL     1     -34.325   8.330   4.798  1.00 20.00     0.045 A 
HETATM    2  C2  UNL     1     -33.060   7.821   4.158  1.00 20.00     0.019 A 
HETATM    3  C3  UNL     1     -33.673   7.073   5.317  1.00 20.00     0.065 A 
HETATM    4  C4  UNL     1     -31.788   8.584   4.309  1.00 20.00     0.013 C 
ENDROOT
BRANCH   3   5
HETATM    5  C7  UNL     1     -34.324   5.749   5.089  1.00 20.00     0.012 C 
HETATM    6  C5  UNL     1     -34.543   4.985   6.406  1.00 20.00     0.012 C 
HETATM    7  C6  UNL     1     -35.670   5.893   4.354  1.00 20.00     0.012 C 
ENDBRANCH   3   5
BRANCH   3   8
HETATM    8  O8  UNL     1     -33.024   7.185   6.594  1.00 20.00    -0.389 OA
HETATM    9  H22 UNL     1     -32.377   6.468   6.626  1.00 20.00     0.210 HD
ENDBRANCH   3   8
TORSDOF 2
ENDMDL
MODEL 7
REMARK VINA RESULT:      -3.5      9.174      9.649
REMARK  2 active torsions:
REMARK  status: ('A' for Active; 'I' for Inactive)
REMARK    1  A    between atoms: C3_3  and  C7_7 
REMARK    2  A    between atoms: C3_3  and  O8_8 
ROOT
HETATM    1  C1  UNL     1     -40.794  13.844   6.747  1.00 20.00     0.045 A 
HETATM    2  C2  UNL     1     -41.884  12.813   6.607  1.00 20.00     0.019 A 
HETATM    3  C3  UNL     1     -40.796  12.908   5.565  1.00 20.00     0.065 A 
HETATM    4  C4  UNL     1     -43.283  13.240   6.316  1.00 20.00     0.013 C 
ENDROOT
BRANCH   3   5
HETATM    5  C7  UNL     1     -39.764  11.835   5.465  1.00 20.00     0.012 C 
HETATM    6  C5  UNL     1     -39.213  11.702   4.035  1.00 20.00     0.012 C 
HETATM    7  C6  UNL     1     -38.595  12.072   6.440  1.00 20.00     0.012 C 
ENDBRANCH   3   5
BRANCH   3   8
HETATM    8  O8  UNL     1     -41.142  13.497   4.301  1.00 20.00    -0.389 OA
HETATM    9  H22 UNL     1     -41.822  14.157   4.493  1.00 20.00     0.210 HD
ENDBRANCH   3   8
TORSDOF 2
ENDMDL
MODEL 8
REMARK VINA RESULT:      -3.5      9.047      9.422
REMARK  2 active torsions:
REMARK  status: ('A' for Active; 'I' for Inactive)
REMARK    1  A    between atoms: C3_3  and  C7_7 
REMARK    2  A    between atoms: C3_3  and  O8_8 
ROOT
HETATM    1  C1  UNL     1     -38.848  12.118   6.749  1.00 20.00     0.045 A 
HETATM    2  C2  UNL     1     -39.165  12.477   5.320  1.00 20.00     0.019 A 
HETATM    3  C3  UNL     1     -40.188  12.717   6.404  1.00 20.00     0.065 A 
HETATM    4  C4  UNL     1     -39.346  11.403   4.302  1.00 20.00     0.013 C 
ENDROOT
BRANCH   3   5
HETATM    5  C7  UNL     1     -40.510  14.111   6.829  1.00 20.00     0.012 C 
HETATM    6  C5  UNL     1     -41.936  14.520   6.419  1.00 20.00     0.012 C 
HETATM    7  C6  UNL     1     -40.345  14.298   8.349  1.00 20.00     0.012 C 
ENDBRANCH   3   5
BRANCH   3   8
HETATM    8  O8  UNL     1     -41.310  11.821   6.465  1.00 20.00    -0.389 OA
HETATM    9  H22 UNL     1     -41.034  11.091   7.035  1.00 20.00     0.210 HD
ENDBRANCH   3   8
TORSDOF 2
ENDMDL
MODEL 9
REMARK VINA RESULT:      -3.3     11.481     12.606
REMARK  2 active torsions:
REMARK  status: ('A' for Active; 'I' for Inactive)
REMARK    1  A    between atoms: C3_3  and  C7_7 
REMARK    2  A    between atoms: C3_3  and  O8_8 
ROOT
HETATM    1  C1  UNL     1     -34.112  14.594  -4.130  1.00 20.00     0.045 A 
HETATM    2  C2  UNL     1     -33.663  15.267  -5.401  1.00 20.00     0.019 A 
HETATM    3  C3  UNL     1     -34.173  16.096  -4.247  1.00 20.00     0.065 A 
HETATM    4  C4  UNL     1     -34.455  15.103  -6.653  1.00 20.00     0.013 C 
ENDROOT
BRANCH   3   5
HETATM    5  C7  UNL     1     -33.226  16.942  -3.462  1.00 20.00     0.012 C 
HETATM    6  C5  UNL     1     -33.293  18.420  -3.886  1.00 20.00     0.012 C 
HETATM    7  C6  UNL     1     -33.486  16.836  -1.947  1.00 20.00     0.012 C 
ENDBRANCH   3   5
BRANCH   3   8
HETATM    8  O8  UNL     1     -35.488  16.663  -4.371  1.00 20.00    -0.389 OA
HETATM    9  H22 UNL     1     -35.874  16.631  -3.486  1.00 20.00     0.210 HD
ENDBRANCH   3   8
TORSDOF 2
ENDMDL
