MODEL 1
REMARK VINA RESULT:      -3.9      0.000      0.000
REMARK  2 active torsions:
REMARK  status: ('A' for Active; 'I' for Inactive)
REMARK    1  A    between atoms: C5_5  and  C7_7 
REMARK    2  A    between atoms: C7_7  and  O9_9 
ROOT
HETATM    1  C2  UNL     1     -34.608  14.443  -4.494  1.00 20.00     0.045 A 
HETATM    2  C6  UNL     1     -33.306  15.114  -4.141  1.00 20.00     0.019 A 
HETATM    3  C7  UNL     1     -33.938  15.347  -5.486  1.00 20.00     0.066 A 
HETATM    4  C8  UNL     1     -33.261  16.156  -3.077  1.00 20.00     0.013 C 
ENDROOT
BRANCH   3   5
HETATM    5  C5  UNL     1     -34.581  16.663  -5.844  1.00 20.00     0.030 C 
HETATM    6  C1  UNL     1     -36.021  16.774  -5.337  1.00 20.00     0.018 C 
HETATM    7  C3  UNL     1     -36.907  15.950  -6.260  1.00 20.00     0.074 C 
HETATM    8  S10 UNL     1     -36.211  16.180  -7.918  1.00 20.00    -0.169 SA
HETATM    9  C4  UNL     1     -34.641  16.899  -7.352  1.00 20.00     0.081 C 
ENDBRANCH   3   5
BRANCH   3  10
HETATM   10  O9  UNL     1     -33.302  14.716  -6.606  1.00 20.00    -0.389 OA
HETATM   11  H24 UNL     1     -33.229  13.778  -6.379  1.00 20.00     0.210 HD
ENDBRANCH   3  10
TORSDOF 2
ENDMDL
MODEL 2
REMARK VINA RESULT:      -3.6     13.140     13.959
REMARK  2 active torsions:
REMARK  status: ('A' for Active; 'I' for Inactive)
REMARK    1  A    between atoms: C5_5  and  C7_7 
REMARK    2  A    between atoms: C7_7  and  O9_9 
ROOT
HETATM    1  C2  UNL     1     -39.311  12.001   6.638  1.00 20.00     0.045 A 
HETATM    2  C6  UNL     1     -39.783  11.497   5.298  1.00 20.00     0.019 A 
HETATM    3  C7  UNL     1     -40.683  12.357   6.144  1.00 20.00     0.066 A 
HETATM    4  C8  UNL     1     -39.144  11.984   4.044  1.00 20.00     0.013 C 
ENDROOT
BRANCH   3   5
HETATM    5  C5  UNL     1     -40.991  13.786   5.775  1.00 20.00     0.030 C 
HETATM    6  C1  UNL     1     -40.503  14.786   6.826  1.00 20.00     0.018 C 
HETATM    7  C3  UNL     1     -41.476  14.748   7.995  1.00 20.00     0.074 C 
HETATM    8  S10 UNL     1     -43.111  14.516   7.246  1.00 20.00    -0.169 SA
HETATM    9  C4  UNL     1     -42.487  14.041   5.606  1.00 20.00     0.081 C 
ENDBRANCH   3   5
BRANCH   3  10
HETATM   10  O9  UNL     1     -41.787  11.694   6.775  1.00 20.00    -0.389 OA
HETATM   11  H24 UNL     1     -41.898  10.854   6.308  1.00 20.00     0.210 HD
ENDBRANCH   3  10
TORSDOF 2
ENDMDL
MODEL 3
REMARK VINA RESULT:      -3.6     12.263     13.573
REMARK  2 active torsions:
REMARK  status: ('A' for Active; 'I' for Inactive)
REMARK    1  A    between atoms: C5_5  and  C7_7 
REMARK    2  A    between atoms: C7_7  and  O9_9 
ROOT
HETATM    1  C2  UNL     1     -31.657   7.640   3.779  1.00 20.00     0.045 A 
HETATM    2  C6  UNL     1     -32.297   7.878   2.435  1.00 20.00     0.019 A 
HETATM    3  C7  UNL     1     -32.922   6.921   3.414  1.00 20.00     0.066 A 
HETATM    4  C8  UNL     1     -32.891   9.205   2.109  1.00 20.00     0.013 C 
ENDROOT
BRANCH   3   5
HETATM    5  C5  UNL     1     -34.201   7.252   4.142  1.00 20.00     0.030 C 
HETATM    6  C1  UNL     1     -33.953   7.927   5.493  1.00 20.00     0.018 C 
HETATM    7  C3  UNL     1     -33.524   6.854   6.481  1.00 20.00     0.074 C 
HETATM    8  S10 UNL     1     -34.501   5.390   6.047  1.00 20.00    -0.169 SA
HETATM    9  C4  UNL     1     -35.050   6.017   4.432  1.00 20.00     0.081 C 
ENDBRANCH   3   5
BRANCH   3  10
HETATM   10  O9  UNL     1     -32.804   5.527   3.104  1.00 20.00    -0.389 OA
HETATM   11  H24 UNL     1     -31.935   5.252   3.429  1.00 20.00     0.210 HD
ENDBRANCH   3  10
TORSDOF 2
ENDMDL
MODEL 4
REMARK VINA RESULT:      -3.4     12.890     13.964
REMARK  2 active torsions:
REMARK  status: ('A' for Active; 'I' for Inactive)
REMARK    1  A    between atoms: C5_5  and  C7_7 
REMARK    2  A    between atoms: C7_7  and  O9_9 
ROOT
HETATM    1  C2  UNL     1     -40.625   6.782   0.990  1.00 20.00     0.045 A 
HETATM    2  C6  UNL     1     -40.714   7.495  -0.335  1.00 20.00     0.019 A 
HETATM    3  C7  UNL     1     -41.399   6.169  -0.140  1.00 20.00     0.066 A 
HETATM    4  C8  UNL     1     -41.457   8.781  -0.449  1.00 20.00     0.013 C 
ENDROOT
BRANCH   3   5
HETATM    5  C5  UNL     1     -42.900   6.058  -0.039  1.00 20.00     0.030 C 
HETATM    6  C1  UNL     1     -43.417   6.317   1.377  1.00 20.00     0.018 C 
HETATM    7  C3  UNL     1     -43.146   5.073   2.209  1.00 20.00     0.074 C 
HETATM    8  S10 UNL     1     -43.417   3.679   1.082  1.00 20.00    -0.169 SA
HETATM    9  C4  UNL     1     -43.416   4.677  -0.436  1.00 20.00     0.081 C 
ENDBRANCH   3   5
BRANCH   3  10
HETATM   10  O9  UNL     1     -40.800   5.043  -0.794  1.00 20.00    -0.389 OA
HETATM   11  H24 UNL     1     -40.966   5.162  -1.740  1.00 20.00     0.210 HD
ENDBRANCH   3  10
TORSDOF 2
ENDMDL
MODEL 5
REMARK VINA RESULT:      -3.2     13.781     14.683
REMARK  2 active torsions:
REMARK  status: ('A' for Active; 'I' for Inactive)
REMARK    1  A    between atoms: C5_5  and  C7_7 
REMARK    2  A    between atoms: C7_7  and  O9_9 
ROOT
HETATM    1  C2  UNL     1     -41.751  12.588   6.681  1.00 20.00     0.045 A 
HETATM    2  C6  UNL     1     -40.637  12.708   5.672  1.00 20.00     0.019 A 
HETATM    3  C7  UNL     1     -41.189  13.937   6.342  1.00 20.00     0.066 A 
HETATM    4  C8  UNL     1     -39.285  12.160   5.976  1.00 20.00     0.013 C 
ENDROOT
BRANCH   3   5
HETATM    5  C5  UNL     1     -40.403  14.697   7.380  1.00 20.00     0.030 C 
HETATM    6  C1  UNL     1     -40.669  14.200   8.802  1.00 20.00     0.018 C 
HETATM    7  C3  UNL     1     -42.017  14.746   9.246  1.00 20.00     0.074 C 
HETATM    8  S10 UNL     1     -42.114  16.410   8.533  1.00 20.00    -0.169 SA
HETATM    9  C4  UNL     1     -40.723  16.191   7.384  1.00 20.00     0.081 C 
ENDBRANCH   3   5
BRANCH   3  10
HETATM   10  O9  UNL     1     -42.008  14.789   5.529  1.00 20.00    -0.389 OA
HETATM   11  H24 UNL     1     -42.108  14.336   4.680  1.00 20.00     0.210 HD
ENDBRANCH   3  10
TORSDOF 2
ENDMDL
MODEL 6
REMARK VINA RESULT:      -3.1      2.688      3.734
REMARK  2 active torsions:
REMARK  status: ('A' for Active; 'I' for Inactive)
REMARK    1  A    between atoms: C5_5  and  C7_7 
REMARK    2  A    between atoms: C7_7  and  O9_9 
ROOT
HETATM    1  C2  UNL     1     -34.802  14.627  -4.720  1.00 20.00     0.045 A 
HETATM    2  C6  UNL     1     -34.966  15.238  -6.088  1.00 20.00     0.019 A 
HETATM    3  C7  UNL     1     -34.981  16.110  -4.861  1.00 20.00     0.066 A 
HETATM    4  C8  UNL     1     -33.835  15.225  -7.057  1.00 20.00     0.013 C 
ENDROOT
BRANCH   3   5
HETATM    5  C5  UNL     1     -33.835  17.032  -4.528  1.00 20.00     0.030 C 
HETATM    6  C1  UNL     1     -32.947  16.488  -3.407  1.00 20.00     0.018 C 
HETATM    7  C3  UNL     1     -33.670  16.710  -2.087  1.00 20.00     0.074 C 
HETATM    8  S10 UNL     1     -34.510  18.307  -2.268  1.00 20.00    -0.169 SA
HETATM    9  C4  UNL     1     -34.302  18.412  -4.071  1.00 20.00     0.081 C 
ENDBRANCH   3   5
BRANCH   3  10
HETATM   10  O9  UNL     1     -36.255  16.645  -4.477  1.00 20.00    -0.389 OA
HETATM   11  H24 UNL     1     -36.905  16.240  -5.069  1.00 20.00     0.210 HD
ENDBRANCH   3  10
TORSDOF 2
ENDMDL
MODEL 7
REMARK VINA RESULT:      -3.0      1.833      2.688
REMARK  2 active torsions:
REMARK  status: ('A' for Active; 'I' for Inactive)
REMARK    1  A    between atoms: C5_5  and  C7_7 
REMARK    2  A    between atoms: C7_7  and  O9_9 
ROOT
HETATM    1  C2  UNL     1     -34.031  17.840  -4.793  1.00 20.00     0.045 A 
HETATM    2  C6  UNL     1     -34.301  17.367  -3.388  1.00 20.00     0.019 A 
HETATM    3  C7  UNL     1     -35.074  16.791  -4.544  1.00 20.00     0.066 A 
HETATM    4  C8  UNL     1     -33.268  16.597  -2.641  1.00 20.00     0.013 C 
ENDROOT
BRANCH   3   5
HETATM    5  C5  UNL     1     -34.843  15.383  -5.030  1.00 20.00     0.030 C 
HETATM    6  C1  UNL     1     -33.731  15.295  -6.078  1.00 20.00     0.018 C 
HETATM    7  C3  UNL     1     -34.295  15.790  -7.401  1.00 20.00     0.074 C 
HETATM    8  S10 UNL     1     -36.009  15.203  -7.437  1.00 20.00    -0.169 SA
HETATM    9  C4  UNL     1     -36.085  14.770  -5.673  1.00 20.00     0.081 C 
ENDBRANCH   3   5
BRANCH   3  10
HETATM   10  O9  UNL     1     -36.442  17.203  -4.662  1.00 20.00    -0.389 OA
HETATM   11  H24 UNL     1     -36.664  17.642  -3.829  1.00 20.00     0.210 HD
ENDBRANCH   3  10
TORSDOF 2
ENDMDL
MODEL 8
REMARK VINA RESULT:      -3.0      2.241      2.934
REMARK  2 active torsions:
REMARK  status: ('A' for Active; 'I' for Inactive)
REMARK    1  A    between atoms: C5_5  and  C7_7 
REMARK    2  A    between atoms: C7_7  and  O9_9 
ROOT
HETATM    1  C2  UNL     1     -34.041  15.135  -6.174  1.00 20.00     0.045 A 
HETATM    2  C6  UNL     1     -34.597  14.434  -4.961  1.00 20.00     0.019 A 
HETATM    3  C7  UNL     1     -34.134  15.863  -4.865  1.00 20.00     0.066 A 
HETATM    4  C8  UNL     1     -36.033  14.043  -4.910  1.00 20.00     0.013 C 
ENDROOT
BRANCH   3   5
HETATM    5  C5  UNL     1     -35.109  17.004  -4.718  1.00 20.00     0.030 C 
HETATM    6  C1  UNL     1     -35.467  17.651  -6.058  1.00 20.00     0.018 C 
HETATM    7  C3  UNL     1     -34.304  18.536  -6.477  1.00 20.00     0.074 C 
HETATM    8  S10 UNL     1     -33.681  19.263  -4.937  1.00 20.00    -0.169 SA
HETATM    9  C4  UNL     1     -34.572  18.127  -3.833  1.00 20.00     0.081 C 
ENDBRANCH   3   5
BRANCH   3  10
HETATM   10  O9  UNL     1     -32.904  16.088  -4.164  1.00 20.00    -0.389 OA
HETATM   11  H24 UNL     1     -33.149  16.297  -3.252  1.00 20.00     0.210 HD
ENDBRANCH   3  10
TORSDOF 2
ENDMDL
MODEL 9
REMARK VINA RESULT:      -3.0      3.056      3.526
REMARK  2 active torsions:
REMARK  status: ('A' for Active; 'I' for Inactive)
REMARK    1  A    between atoms: C5_5  and  C7_7 
REMARK    2  A    between atoms: C7_7  and  O9_9 
ROOT
HETATM    1  C2  UNL     1     -33.815  17.195  -1.535  1.00 20.00     0.045 A 
HETATM    2  C6  UNL     1     -32.420  17.763  -1.597  1.00 20.00     0.019 A 
HETATM    3  C7  UNL     1     -33.277  17.720  -2.834  1.00 20.00     0.066 A 
HETATM    4  C8  UNL     1     -32.091  19.029  -0.885  1.00 20.00     0.013 C 
ENDROOT
BRANCH   3   5
HETATM    5  C5  UNL     1     -33.870  18.970  -3.433  1.00 20.00     0.030 C 
HETATM    6  C1  UNL     1     -35.377  19.080  -3.197  1.00 20.00     0.018 C 
HETATM    7  C3  UNL     1     -36.073  18.138  -4.167  1.00 20.00     0.074 C 
HETATM    8  S10 UNL     1     -35.102  18.225  -5.695  1.00 20.00    -0.169 SA
HETATM    9  C4  UNL     1     -33.668  19.052  -4.945  1.00 20.00     0.081 C 
ENDBRANCH   3   5
BRANCH   3  10
HETATM   10  O9  UNL     1     -32.918  16.745  -3.823  1.00 20.00    -0.389 OA
HETATM   11  H24 UNL     1     -33.695  16.638  -4.389  1.00 20.00     0.210 HD
ENDBRANCH   3  10
TORSDOF 2
ENDMDL
