MODEL 1
REMARK VINA RESULT:      -4.0      0.000      0.000
REMARK  4 active torsions:
REMARK  status: ('A' for Active; 'I' for Inactive)
REMARK    1  A    between atoms: C6_6  and  C7_7 
REMARK    2  A    between atoms: C6_6  and  C9_9 
REMARK    3  A    between atoms: C8_8  and  C10_10 
REMARK    4  A    between atoms: C9_9  and  C10_10 
ROOT
HETATM    1  C5  UNL     1     -32.971   5.018   2.561  1.00 20.00     0.011 C 
HETATM    2  C9  UNL     1     -33.025   6.085   3.666  1.00 20.00     0.001 C 
ENDROOT
BRANCH   2   3
HETATM    3  C6  UNL     1     -34.482   6.377   4.103  1.00 20.00     0.009 C 
BRANCH   3   4
HETATM    4  C7  UNL     1     -34.817   6.071   5.580  1.00 20.00    -0.022 C 
HETATM    5  C1  UNL     1     -34.190   7.078   6.544  1.00 20.00     0.009 C 
HETATM    6  C2  UNL     1     -34.342   4.657   5.931  1.00 20.00     0.009 C 
ENDBRANCH   3   4
ENDBRANCH   2   3
BRANCH   2   7
HETATM    7  C10 UNL     1     -32.247   7.370   3.245  1.00 20.00     0.089 C 
HETATM    8 CL11 UNL     1     -32.043   7.405   1.452  1.00 20.00    -0.124 Cl
BRANCH   7   9
HETATM    9  C8  UNL     1     -32.852   8.716   3.736  1.00 20.00    -0.004 C 
HETATM   10  C3  UNL     1     -32.939   9.758   2.615  1.00 20.00     0.011 C 
HETATM   11  C4  UNL     1     -32.034   9.319   4.890  1.00 20.00     0.011 C 
ENDBRANCH   7   9
ENDBRANCH   2   7
TORSDOF 4
ENDMDL
MODEL 2
REMARK VINA RESULT:      -3.9      1.828      4.539
REMARK  4 active torsions:
REMARK  status: ('A' for Active; 'I' for Inactive)
REMARK    1  A    between atoms: C6_6  and  C7_7 
REMARK    2  A    between atoms: C6_6  and  C9_9 
REMARK    3  A    between atoms: C8_8  and  C10_10 
REMARK    4  A    between atoms: C9_9  and  C10_10 
ROOT
HETATM    1  C5  UNL     1     -32.787   5.225   2.838  1.00 20.00     0.011 C 
HETATM    2  C9  UNL     1     -33.116   6.685   3.187  1.00 20.00     0.001 C 
ENDROOT
BRANCH   2   3
HETATM    3  C6  UNL     1     -32.136   7.668   2.500  1.00 20.00     0.009 C 
BRANCH   3   4
HETATM    4  C7  UNL     1     -32.666   8.374   1.233  1.00 20.00    -0.022 C 
HETATM    5  C1  UNL     1     -31.702   8.259   0.052  1.00 20.00     0.009 C 
HETATM    6  C2  UNL     1     -32.929   9.852   1.541  1.00 20.00     0.009 C 
ENDBRANCH   3   4
ENDBRANCH   2   3
BRANCH   2   7
HETATM    7  C10 UNL     1     -33.197   6.889   4.732  1.00 20.00     0.089 C 
HETATM    8 CL11 UNL     1     -32.794   8.598   5.149  1.00 20.00    -0.124 Cl
BRANCH   7   9
HETATM    9  C8  UNL     1     -34.544   6.485   5.396  1.00 20.00    -0.004 C 
HETATM   10  C3  UNL     1     -34.365   5.396   6.460  1.00 20.00     0.011 C 
HETATM   11  C4  UNL     1     -35.560   5.979   4.358  1.00 20.00     0.011 C 
ENDBRANCH   7   9
ENDBRANCH   2   7
TORSDOF 4
ENDMDL
MODEL 3
REMARK VINA RESULT:      -3.8      9.760     10.845
REMARK  4 active torsions:
REMARK  status: ('A' for Active; 'I' for Inactive)
REMARK    1  A    between atoms: C6_6  and  C7_7 
REMARK    2  A    between atoms: C6_6  and  C9_9 
REMARK    3  A    between atoms: C8_8  and  C10_10 
REMARK    4  A    between atoms: C9_9  and  C10_10 
ROOT
HETATM    1  C5  UNL     1     -42.903  12.505   7.265  1.00 20.00     0.011 C 
HETATM    2  C9  UNL     1     -41.593  13.230   6.914  1.00 20.00     0.001 C 
ENDROOT
BRANCH   2   3
HETATM    3  C6  UNL     1     -41.722  14.761   7.104  1.00 20.00     0.009 C 
BRANCH   3   4
HETATM    4  C7  UNL     1     -40.475  15.478   7.667  1.00 20.00    -0.022 C 
HETATM    5  C1  UNL     1     -40.142  15.040   9.094  1.00 20.00     0.009 C 
HETATM    6  C2  UNL     1     -40.697  16.994   7.633  1.00 20.00     0.009 C 
ENDBRANCH   3   4
ENDBRANCH   2   3
BRANCH   2   7
HETATM    7  C10 UNL     1     -41.097  12.834   5.488  1.00 20.00     0.089 C 
HETATM    8 CL11 UNL     1     -41.649  14.060   4.284  1.00 20.00    -0.124 Cl
BRANCH   7   9
HETATM    9  C8  UNL     1     -39.566  12.604   5.346  1.00 20.00    -0.004 C 
HETATM   10  C3  UNL     1     -39.224  11.663   4.185  1.00 20.00     0.011 C 
HETATM   11  C4  UNL     1     -38.957  12.021   6.632  1.00 20.00     0.011 C 
ENDBRANCH   7   9
ENDBRANCH   2   7
TORSDOF 4
ENDMDL
MODEL 4
REMARK VINA RESULT:      -3.8     10.095     11.057
REMARK  4 active torsions:
REMARK  status: ('A' for Active; 'I' for Inactive)
REMARK    1  A    between atoms: C6_6  and  C7_7 
REMARK    2  A    between atoms: C6_6  and  C9_9 
REMARK    3  A    between atoms: C8_8  and  C10_10 
REMARK    4  A    between atoms: C9_9  and  C10_10 
ROOT
HETATM    1  C5  UNL     1     -42.585  12.176   6.863  1.00 20.00     0.011 C 
HETATM    2  C9  UNL     1     -42.127  13.532   6.303  1.00 20.00     0.001 C 
ENDROOT
BRANCH   2   3
HETATM    3  C6  UNL     1     -40.797  13.403   5.520  1.00 20.00     0.009 C 
BRANCH   3   4
HETATM    4  C7  UNL     1     -40.054  12.058   5.670  1.00 20.00    -0.022 C 
HETATM    5  C1  UNL     1     -38.974  12.102   6.751  1.00 20.00     0.009 C 
HETATM    6  C2  UNL     1     -39.423  11.669   4.328  1.00 20.00     0.009 C 
ENDBRANCH   3   4
ENDBRANCH   2   3
BRANCH   2   7
HETATM    7  C10 UNL     1     -42.068  14.613   7.427  1.00 20.00     0.089 C 
HETATM    8 CL11 UNL     1     -42.756  13.947   8.957  1.00 20.00    -0.124 Cl
BRANCH   7   9
HETATM    9  C8  UNL     1     -40.665  15.226   7.700  1.00 20.00    -0.004 C 
HETATM   10  C3  UNL     1     -40.154  14.906   9.110  1.00 20.00     0.011 C 
HETATM   11  C4  UNL     1     -40.670  16.754   7.527  1.00 20.00     0.011 C 
ENDBRANCH   7   9
ENDBRANCH   2   7
TORSDOF 4
ENDMDL
MODEL 5
REMARK VINA RESULT:      -3.7     11.615     12.853
REMARK  4 active torsions:
REMARK  status: ('A' for Active; 'I' for Inactive)
REMARK    1  A    between atoms: C6_6  and  C7_7 
REMARK    2  A    between atoms: C6_6  and  C9_9 
REMARK    3  A    between atoms: C8_8  and  C10_10 
REMARK    4  A    between atoms: C9_9  and  C10_10 
ROOT
HETATM    1  C5  UNL     1     -33.654  18.562  -4.123  1.00 20.00     0.011 C 
HETATM    2  C9  UNL     1     -34.022  17.190  -3.535  1.00 20.00     0.001 C 
ENDROOT
BRANCH   2   3
HETATM    3  C6  UNL     1     -33.250  16.909  -2.223  1.00 20.00     0.009 C 
BRANCH   3   4
HETATM    4  C7  UNL     1     -33.100  18.106  -1.259  1.00 20.00    -0.022 C 
HETATM    5  C1  UNL     1     -31.649  18.342  -0.839  1.00 20.00     0.009 C 
HETATM    6  C2  UNL     1     -33.965  17.875  -0.015  1.00 20.00     0.009 C 
ENDBRANCH   3   4
ENDBRANCH   2   3
BRANCH   2   7
HETATM    7  C10 UNL     1     -33.848  16.059  -4.596  1.00 20.00     0.089 C 
HETATM    8 CL11 UNL     1     -34.025  14.445  -3.808  1.00 20.00    -0.124 Cl
BRANCH   7   9
HETATM    9  C8  UNL     1     -34.781  16.149  -5.837  1.00 20.00    -0.004 C 
HETATM   10  C3  UNL     1     -36.149  15.502  -5.586  1.00 20.00     0.011 C 
HETATM   11  C4  UNL     1     -34.153  15.478  -7.070  1.00 20.00     0.011 C 
ENDBRANCH   7   9
ENDBRANCH   2   7
TORSDOF 4
ENDMDL
MODEL 6
REMARK VINA RESULT:      -3.7     11.811     12.866
REMARK  4 active torsions:
REMARK  status: ('A' for Active; 'I' for Inactive)
REMARK    1  A    between atoms: C6_6  and  C7_7 
REMARK    2  A    between atoms: C6_6  and  C9_9 
REMARK    3  A    between atoms: C8_8  and  C10_10 
REMARK    4  A    between atoms: C9_9  and  C10_10 
ROOT
HETATM    1  C5  UNL     1     -32.626  14.928  -4.140  1.00 20.00     0.011 C 
HETATM    2  C9  UNL     1     -33.354  16.261  -3.905  1.00 20.00     0.001 C 
ENDROOT
BRANCH   2   3
HETATM    3  C6  UNL     1     -33.668  16.480  -2.404  1.00 20.00     0.009 C 
BRANCH   3   4
HETATM    4  C7  UNL     1     -32.882  17.613  -1.709  1.00 20.00    -0.022 C 
HETATM    5  C1  UNL     1     -33.512  18.034  -0.382  1.00 20.00     0.009 C 
HETATM    6  C2  UNL     1     -32.794  18.824  -2.645  1.00 20.00     0.009 C 
ENDBRANCH   3   4
ENDBRANCH   2   3
BRANCH   2   7
HETATM    7  C10 UNL     1     -34.618  16.379  -4.813  1.00 20.00     0.089 C 
HETATM    8 CL11 UNL     1     -34.546  17.907  -5.770  1.00 20.00    -0.124 Cl
BRANCH   7   9
HETATM    9  C8  UNL     1     -34.884  15.173  -5.759  1.00 20.00    -0.004 C 
HETATM   10  C3  UNL     1     -35.185  15.616  -7.196  1.00 20.00     0.011 C 
HETATM   11  C4  UNL     1     -36.059  14.313  -5.265  1.00 20.00     0.011 C 
ENDBRANCH   7   9
ENDBRANCH   2   7
TORSDOF 4
ENDMDL
MODEL 7
REMARK VINA RESULT:      -3.7     11.860     13.110
REMARK  4 active torsions:
REMARK  status: ('A' for Active; 'I' for Inactive)
REMARK    1  A    between atoms: C6_6  and  C7_7 
REMARK    2  A    between atoms: C6_6  and  C9_9 
REMARK    3  A    between atoms: C8_8  and  C10_10 
REMARK    4  A    between atoms: C9_9  and  C10_10 
ROOT
HETATM    1  C5  UNL     1     -33.278  15.504  -3.738  1.00 20.00     0.011 C 
HETATM    2  C9  UNL     1     -33.263  16.936  -3.179  1.00 20.00     0.001 C 
ENDROOT
BRANCH   2   3
HETATM    3  C6  UNL     1     -33.578  16.957  -1.663  1.00 20.00     0.009 C 
BRANCH   3   4
HETATM    4  C7  UNL     1     -33.163  18.238  -0.906  1.00 20.00    -0.022 C 
HETATM    5  C1  UNL     1     -31.646  18.394  -0.808  1.00 20.00     0.009 C 
HETATM    6  C2  UNL     1     -33.771  18.221   0.501  1.00 20.00     0.009 C 
ENDBRANCH   3   4
ENDBRANCH   2   3
BRANCH   2   7
HETATM    7  C10 UNL     1     -34.197  17.872  -4.007  1.00 20.00     0.089 C 
HETATM    8 CL11 UNL     1     -33.250  19.263  -4.661  1.00 20.00    -0.124 Cl
BRANCH   7   9
HETATM    9  C8  UNL     1     -34.995  17.188  -5.153  1.00 20.00    -0.004 C 
HETATM   10  C3  UNL     1     -34.529  17.645  -6.540  1.00 20.00     0.011 C 
HETATM   11  C4  UNL     1     -36.504  17.464  -5.038  1.00 20.00     0.011 C 
ENDBRANCH   7   9
ENDBRANCH   2   7
TORSDOF 4
ENDMDL
MODEL 8
REMARK VINA RESULT:      -3.6      1.438      2.460
REMARK  4 active torsions:
REMARK  status: ('A' for Active; 'I' for Inactive)
REMARK    1  A    between atoms: C6_6  and  C7_7 
REMARK    2  A    between atoms: C6_6  and  C9_9 
REMARK    3  A    between atoms: C8_8  and  C10_10 
REMARK    4  A    between atoms: C9_9  and  C10_10 
ROOT
HETATM    1  C5  UNL     1     -32.222   9.134   4.853  1.00 20.00     0.011 C 
HETATM    2  C9  UNL     1     -32.986   7.976   4.191  1.00 20.00     0.001 C 
ENDROOT
BRANCH   2   3
HETATM    3  C6  UNL     1     -33.177   6.790   5.168  1.00 20.00     0.009 C 
BRANCH   3   4
HETATM    4  C7  UNL     1     -34.635   6.473   5.566  1.00 20.00    -0.022 C 
HETATM    5  C1  UNL     1     -34.727   5.396   6.647  1.00 20.00     0.009 C 
HETATM    6  C2  UNL     1     -35.419   6.026   4.327  1.00 20.00     0.009 C 
ENDBRANCH   3   4
ENDBRANCH   2   3
BRANCH   2   7
HETATM    7  C10 UNL     1     -32.313   7.555   2.848  1.00 20.00     0.089 C 
HETATM    8 CL11 UNL     1     -32.512   5.779   2.592  1.00 20.00    -0.124 Cl
BRANCH   7   9
HETATM    9  C8  UNL     1     -32.785   8.328   1.584  1.00 20.00    -0.004 C 
HETATM   10  C3  UNL     1     -31.808   8.181   0.412  1.00 20.00     0.011 C 
HETATM   11  C4  UNL     1     -32.968   9.828   1.871  1.00 20.00     0.011 C 
ENDBRANCH   7   9
ENDBRANCH   2   7
TORSDOF 4
ENDMDL
MODEL 9
REMARK VINA RESULT:      -3.6      9.905     11.013
REMARK  4 active torsions:
REMARK  status: ('A' for Active; 'I' for Inactive)
REMARK    1  A    between atoms: C6_6  and  C7_7 
REMARK    2  A    between atoms: C6_6  and  C9_9 
REMARK    3  A    between atoms: C8_8  and  C10_10 
REMARK    4  A    between atoms: C9_9  and  C10_10 
ROOT
HETATM    1  C5  UNL     1     -42.335  14.803   4.788  1.00 20.00     0.011 C 
HETATM    2  C9  UNL     1     -41.495  14.022   5.811  1.00 20.00     0.001 C 
ENDROOT
BRANCH   2   3
HETATM    3  C6  UNL     1     -40.968  12.692   5.218  1.00 20.00     0.009 C 
BRANCH   3   4
HETATM    4  C7  UNL     1     -39.433  12.526   5.193  1.00 20.00    -0.022 C 
HETATM    5  C1  UNL     1     -38.960  11.619   4.057  1.00 20.00     0.009 C 
HETATM    6  C2  UNL     1     -38.957  11.961   6.536  1.00 20.00     0.009 C 
ENDBRANCH   3   4
ENDBRANCH   2   3
BRANCH   2   7
HETATM    7  C10 UNL     1     -42.278  13.824   7.146  1.00 20.00     0.089 C 
HETATM    8 CL11 UNL     1     -42.900  12.133   7.248  1.00 20.00    -0.124 Cl
BRANCH   7   9
HETATM    9  C8  UNL     1     -41.501  14.182   8.444  1.00 20.00    -0.004 C 
HETATM   10  C3  UNL     1     -42.414  14.768   9.527  1.00 20.00     0.011 C 
HETATM   11  C4  UNL     1     -40.372  15.189   8.171  1.00 20.00     0.011 C 
ENDBRANCH   7   9
ENDBRANCH   2   7
TORSDOF 4
ENDMDL
