MODEL 1
REMARK VINA RESULT:      -3.7      0.000      0.000
REMARK  2 active torsions:
REMARK  status: ('A' for Active; 'I' for Inactive)
REMARK    1  A    between atoms: C4_4  and  C7_7 
REMARK    2  A    between atoms: C7_7  and  C8_8 
ROOT
HETATM    1  C1  UNL     1     -33.323  16.082  -3.088  1.00 20.00     0.034 C 
HETATM    2  C2  UNL     1     -33.758  15.440  -4.389  1.00 20.00     0.168 C 
HETATM    3  C3  UNL     1     -34.495  17.651  -4.379  1.00 20.00     0.173 C 
HETATM    4  C4  UNL     1     -33.286  17.547  -3.466  1.00 20.00     0.026 C 
HETATM    5  O9  UNL     1     -34.600  16.391  -5.059  1.00 20.00    -0.391 OA
ENDROOT
BRANCH   4   6
HETATM    6  C7  UNL     1     -33.330  18.496  -2.283  1.00 20.00     0.067 C 
HETATM    7 BR10 UNL     1     -35.183  19.113  -2.051  1.00 20.00    -0.090 Br
BRANCH   6   8
HETATM    8  C8  UNL     1     -32.787  17.942  -0.951  1.00 20.00    -0.008 C 
HETATM    9  C5  UNL     1     -33.826  18.104   0.166  1.00 20.00     0.011 C 
HETATM   10  C6  UNL     1     -31.474  18.554  -0.518  1.00 20.00     0.011 C 
ENDBRANCH   6   8
ENDBRANCH   4   6
TORSDOF 2
ENDMDL
MODEL 2
REMARK VINA RESULT:      -3.6      2.548      4.526
REMARK  2 active torsions:
REMARK  status: ('A' for Active; 'I' for Inactive)
REMARK    1  A    between atoms: C4_4  and  C7_7 
REMARK    2  A    between atoms: C7_7  and  C8_8 
ROOT
HETATM    1  C1  UNL     1     -32.924  18.554   1.050  1.00 20.00     0.034 C 
HETATM    2  C2  UNL     1     -31.608  19.013   1.643  1.00 20.00     0.168 C 
HETATM    3  C3  UNL     1     -31.248  18.450  -0.589  1.00 20.00     0.173 C 
HETATM    4  C4  UNL     1     -32.709  18.831  -0.423  1.00 20.00     0.026 C 
HETATM    5  O9  UNL     1     -30.600  18.777   0.649  1.00 20.00    -0.391 OA
ENDROOT
BRANCH   4   6
HETATM    6  C7  UNL     1     -33.648  18.073  -1.341  1.00 20.00     0.067 C 
HETATM    7 BR10 UNL     1     -35.189  19.228  -1.743  1.00 20.00    -0.090 Br
BRANCH   6   8
HETATM    8  C8  UNL     1     -33.032  17.541  -2.650  1.00 20.00    -0.008 C 
HETATM    9  C5  UNL     1     -33.334  18.491  -3.816  1.00 20.00     0.011 C 
HETATM   10  C6  UNL     1     -33.466  16.139  -3.010  1.00 20.00     0.011 C 
ENDBRANCH   6   8
ENDBRANCH   4   6
TORSDOF 2
ENDMDL
MODEL 3
REMARK VINA RESULT:      -3.4      2.267      3.581
REMARK  2 active torsions:
REMARK  status: ('A' for Active; 'I' for Inactive)
REMARK    1  A    between atoms: C4_4  and  C7_7 
REMARK    2  A    between atoms: C7_7  and  C8_8 
ROOT
HETATM    1  C1  UNL     1     -34.604  16.213  -7.195  1.00 20.00     0.034 C 
HETATM    2  C2  UNL     1     -35.539  15.248  -7.892  1.00 20.00     0.168 C 
HETATM    3  C3  UNL     1     -35.751  14.941  -5.592  1.00 20.00     0.173 C 
HETATM    4  C4  UNL     1     -35.266  16.359  -5.842  1.00 20.00     0.026 C 
HETATM    5  O9  UNL     1     -36.089  14.395  -6.876  1.00 20.00    -0.391 OA
ENDROOT
BRANCH   4   6
HETATM    6  C7  UNL     1     -34.352  16.893  -4.756  1.00 20.00     0.067 C 
HETATM    7 BR10 UNL     1     -35.284  18.355  -3.826  1.00 20.00    -0.090 Br
BRANCH   6   8
HETATM    8  C8  UNL     1     -33.839  15.860  -3.734  1.00 20.00    -0.008 C 
HETATM    9  C5  UNL     1     -33.470  16.544  -2.412  1.00 20.00     0.011 C 
HETATM   10  C6  UNL     1     -32.670  15.037  -4.225  1.00 20.00     0.011 C 
ENDBRANCH   6   8
ENDBRANCH   4   6
TORSDOF 2
ENDMDL
MODEL 4
REMARK VINA RESULT:      -3.4      1.416      1.867
REMARK  2 active torsions:
REMARK  status: ('A' for Active; 'I' for Inactive)
REMARK    1  A    between atoms: C4_4  and  C7_7 
REMARK    2  A    between atoms: C7_7  and  C8_8 
ROOT
HETATM    1  C1  UNL     1     -34.663  16.671  -4.694  1.00 20.00     0.034 C 
HETATM    2  C2  UNL     1     -34.974  15.346  -5.359  1.00 20.00     0.168 C 
HETATM    3  C3  UNL     1     -32.977  15.124  -4.178  1.00 20.00     0.173 C 
HETATM    4  C4  UNL     1     -33.789  16.237  -3.538  1.00 20.00     0.026 C 
HETATM    5  O9  UNL     1     -33.837  14.496  -5.141  1.00 20.00    -0.391 OA
ENDROOT
BRANCH   4   6
HETATM    6  C7  UNL     1     -32.943  17.348  -2.946  1.00 20.00     0.067 C 
HETATM    7 BR10 UNL     1     -33.243  18.982  -3.999  1.00 20.00    -0.090 Br
BRANCH   6   8
HETATM    8  C8  UNL     1     -33.160  17.638  -1.447  1.00 20.00    -0.008 C 
HETATM    9  C5  UNL     1     -34.428  18.475  -1.236  1.00 20.00     0.011 C 
HETATM   10  C6  UNL     1     -31.987  18.313  -0.774  1.00 20.00     0.011 C 
ENDBRANCH   6   8
ENDBRANCH   4   6
TORSDOF 2
ENDMDL
MODEL 5
REMARK VINA RESULT:      -3.4     12.497     13.391
REMARK  2 active torsions:
REMARK  status: ('A' for Active; 'I' for Inactive)
REMARK    1  A    between atoms: C4_4  and  C7_7 
REMARK    2  A    between atoms: C7_7  and  C8_8 
ROOT
HETATM    1  C1  UNL     1     -34.101   6.913   6.223  1.00 20.00     0.034 C 
HETATM    2  C2  UNL     1     -34.842   5.710   6.768  1.00 20.00     0.168 C 
HETATM    3  C3  UNL     1     -34.725   5.511   4.448  1.00 20.00     0.173 C 
HETATM    4  C4  UNL     1     -33.567   6.377   4.912  1.00 20.00     0.026 C 
HETATM    5  O9  UNL     1     -35.333   4.977   5.635  1.00 20.00    -0.391 OA
ENDROOT
BRANCH   4   6
HETATM    6  C7  UNL     1     -33.168   7.450   3.918  1.00 20.00     0.067 C 
HETATM    7 BR10 UNL     1     -32.329   8.930   4.906  1.00 20.00    -0.090 Br
BRANCH   6   8
HETATM    8  C8  UNL     1     -32.251   6.998   2.765  1.00 20.00    -0.008 C 
HETATM    9  C5  UNL     1     -32.242   8.040   1.639  1.00 20.00     0.011 C 
HETATM   10  C6  UNL     1     -32.597   5.640   2.198  1.00 20.00     0.011 C 
ENDBRANCH   6   8
ENDBRANCH   4   6
TORSDOF 2
ENDMDL
MODEL 6
REMARK VINA RESULT:      -3.4     11.252     12.631
REMARK  2 active torsions:
REMARK  status: ('A' for Active; 'I' for Inactive)
REMARK    1  A    between atoms: C4_4  and  C7_7 
REMARK    2  A    between atoms: C7_7  and  C8_8 
ROOT
HETATM    1  C1  UNL     1     -39.473  11.851   6.089  1.00 20.00     0.034 C 
HETATM    2  C2  UNL     1     -39.057  11.755   4.636  1.00 20.00     0.168 C 
HETATM    3  C3  UNL     1     -40.830  13.260   4.794  1.00 20.00     0.173 C 
HETATM    4  C4  UNL     1     -40.117  13.220   6.134  1.00 20.00     0.026 C 
HETATM    5  O9  UNL     1     -40.017  12.508   3.879  1.00 20.00    -0.391 OA
ENDROOT
BRANCH   4   6
HETATM    6  C7  UNL     1     -41.034  13.437   7.322  1.00 20.00     0.067 C 
HETATM    7 BR10 UNL     1     -40.561  15.150   8.167  1.00 20.00    -0.090 Br
BRANCH   6   8
HETATM    8  C8  UNL     1     -42.546  13.395   7.027  1.00 20.00    -0.008 C 
HETATM    9  C5  UNL     1     -43.272  14.532   7.755  1.00 20.00     0.011 C 
HETATM   10  C6  UNL     1     -43.203  12.075   7.362  1.00 20.00     0.011 C 
ENDBRANCH   6   8
ENDBRANCH   4   6
TORSDOF 2
ENDMDL
MODEL 7
REMARK VINA RESULT:      -3.4      2.503      4.359
REMARK  2 active torsions:
REMARK  status: ('A' for Active; 'I' for Inactive)
REMARK    1  A    between atoms: C4_4  and  C7_7 
REMARK    2  A    between atoms: C7_7  and  C8_8 
ROOT
HETATM    1  C1  UNL     1     -33.317  16.796  -2.346  1.00 20.00     0.034 C 
HETATM    2  C2  UNL     1     -32.740  17.915  -1.504  1.00 20.00     0.168 C 
HETATM    3  C3  UNL     1     -32.917  18.667  -3.703  1.00 20.00     0.173 C 
HETATM    4  C4  UNL     1     -33.939  17.564  -3.492  1.00 20.00     0.026 C 
HETATM    5  O9  UNL     1     -32.370  18.966  -2.409  1.00 20.00    -0.391 OA
ENDROOT
BRANCH   4   6
HETATM    6  C7  UNL     1     -34.202  16.728  -4.730  1.00 20.00     0.067 C 
HETATM    7 BR10 UNL     1     -33.859  14.842  -4.289  1.00 20.00    -0.090 Br
BRANCH   6   8
HETATM    8  C8  UNL     1     -35.599  16.877  -5.363  1.00 20.00    -0.008 C 
HETATM    9  C5  UNL     1     -36.466  17.840  -4.542  1.00 20.00     0.011 C 
HETATM   10  C6  UNL     1     -36.332  15.570  -5.554  1.00 20.00     0.011 C 
ENDBRANCH   6   8
ENDBRANCH   4   6
TORSDOF 2
ENDMDL
MODEL 8
REMARK VINA RESULT:      -3.3     12.483     13.253
REMARK  2 active torsions:
REMARK  status: ('A' for Active; 'I' for Inactive)
REMARK    1  A    between atoms: C4_4  and  C7_7 
REMARK    2  A    between atoms: C7_7  and  C8_8 
ROOT
HETATM    1  C1  UNL     1     -34.336   5.206   4.937  1.00 20.00     0.034 C 
HETATM    2  C2  UNL     1     -35.098   5.317   6.242  1.00 20.00     0.168 C 
HETATM    3  C3  UNL     1     -33.683   7.160   6.059  1.00 20.00     0.173 C 
HETATM    4  C4  UNL     1     -33.989   6.653   4.661  1.00 20.00     0.026 C 
HETATM    5  O9  UNL     1     -34.544   6.435   6.951  1.00 20.00    -0.391 OA
ENDROOT
BRANCH   4   6
HETATM    6  C7  UNL     1     -32.850   6.842   3.678  1.00 20.00     0.067 C 
HETATM    7 BR10 UNL     1     -32.860   5.331   2.418  1.00 20.00    -0.090 Br
BRANCH   6   8
HETATM    8  C8  UNL     1     -32.837   8.175   2.904  1.00 20.00    -0.008 C 
HETATM    9  C5  UNL     1     -32.030   8.040   1.607  1.00 20.00     0.011 C 
HETATM   10  C6  UNL     1     -32.321   9.348   3.705  1.00 20.00     0.011 C 
ENDBRANCH   6   8
ENDBRANCH   4   6
TORSDOF 2
ENDMDL
MODEL 9
REMARK VINA RESULT:      -3.3     11.152     12.468
REMARK  2 active torsions:
REMARK  status: ('A' for Active; 'I' for Inactive)
REMARK    1  A    between atoms: C4_4  and  C7_7 
REMARK    2  A    between atoms: C7_7  and  C8_8 
ROOT
HETATM    1  C1  UNL     1     -40.197  12.630   4.571  1.00 20.00     0.034 C 
HETATM    2  C2  UNL     1     -38.930  11.836   4.329  1.00 20.00     0.168 C 
HETATM    3  C3  UNL     1     -39.052  12.350   6.599  1.00 20.00     0.173 C 
HETATM    4  C4  UNL     1     -40.462  12.347   6.034  1.00 20.00     0.026 C 
HETATM    5  O9  UNL     1     -38.199  11.835   5.565  1.00 20.00    -0.391 OA
ENDROOT
BRANCH   4   6
HETATM    6  C7  UNL     1     -41.391  13.342   6.702  1.00 20.00     0.067 C 
HETATM    7 BR10 UNL     1     -43.027  12.395   7.246  1.00 20.00    -0.090 Br
BRANCH   6   8
HETATM    8  C8  UNL     1     -40.805  14.117   7.899  1.00 20.00    -0.008 C 
HETATM    9  C5  UNL     1     -41.777  14.092   9.086  1.00 20.00     0.011 C 
HETATM   10  C6  UNL     1     -40.423  15.544   7.583  1.00 20.00     0.011 C 
ENDBRANCH   6   8
ENDBRANCH   4   6
TORSDOF 2
ENDMDL
