MODEL 1
REMARK VINA RESULT:      -3.6      0.000      0.000
REMARK  5 active torsions:
REMARK  status: ('A' for Active; 'I' for Inactive)
REMARK    1  A    between atoms: C4_4  and  C7_7 
REMARK    2  A    between atoms: C5_5  and  C8_8 
REMARK    3  A    between atoms: C6_6  and  C7_7 
REMARK    4  A    between atoms: C6_6  and  O9_9 
REMARK    5  A    between atoms: C7_7  and  C8_8 
ROOT
HETATM    1  C7  UNL     1     -33.079   7.466   3.455  1.00 20.00     0.027 C 
ENDROOT
BRANCH   1   2
HETATM    2  C4  UNL     1     -32.428   6.174   2.909  1.00 20.00     0.004 C 
HETATM    3  C1  UNL     1     -33.366   4.973   2.912  1.00 20.00     0.005 C 
ENDBRANCH   1   2
BRANCH   1   4
HETATM    4  C6  UNL     1     -32.600   8.698   2.661  1.00 20.00     0.173 C 
BRANCH   4   5
HETATM    5  O9  UNL     1     -32.224   8.344   1.336  1.00 20.00    -0.396 OA
HETATM    6  C3  UNL     1     -32.709   9.285   0.388  1.00 20.00     0.201 C 
ENDBRANCH   4   5
ENDBRANCH   1   4
BRANCH   1   7
HETATM    7  C8  UNL     1     -32.868   7.652   4.986  1.00 20.00     0.088 C 
HETATM    8 CL10 UNL     1     -32.171   9.282   5.312  1.00 20.00    -0.125 Cl
BRANCH   7   9
HETATM    9  C5  UNL     1     -34.136   7.443   5.831  1.00 20.00     0.016 C 
HETATM   10  C2  UNL     1     -34.303   6.010   6.326  1.00 20.00     0.006 C 
ENDBRANCH   7   9
ENDBRANCH   1   7
TORSDOF 5
ENDMDL
MODEL 2
REMARK VINA RESULT:      -3.4      2.055      2.775
REMARK  5 active torsions:
REMARK  status: ('A' for Active; 'I' for Inactive)
REMARK    1  A    between atoms: C4_4  and  C7_7 
REMARK    2  A    between atoms: C5_5  and  C8_8 
REMARK    3  A    between atoms: C6_6  and  C7_7 
REMARK    4  A    between atoms: C6_6  and  O9_9 
REMARK    5  A    between atoms: C7_7  and  C8_8 
ROOT
HETATM    1  C7  UNL     1     -32.980   6.926   4.014  1.00 20.00     0.027 C 
ENDROOT
BRANCH   1   2
HETATM    2  C4  UNL     1     -33.438   8.279   4.607  1.00 20.00     0.004 C 
HETATM    3  C1  UNL     1     -32.311   9.070   5.260  1.00 20.00     0.005 C 
ENDBRANCH   1   2
BRANCH   1   4
HETATM    4  C6  UNL     1     -32.233   7.138   2.681  1.00 20.00     0.173 C 
BRANCH   4   5
HETATM    5  O9  UNL     1     -32.512   8.419   2.131  1.00 20.00    -0.396 OA
HETATM    6  C3  UNL     1     -32.215   8.465   0.743  1.00 20.00     0.201 C 
ENDBRANCH   4   5
ENDBRANCH   1   4
BRANCH   1   7
HETATM    7  C8  UNL     1     -34.144   5.903   3.864  1.00 20.00     0.088 C 
HETATM    8 CL10 UNL     1     -33.472   4.246   3.634  1.00 20.00    -0.125 Cl
BRANCH   7   9
HETATM    9  C5  UNL     1     -35.146   5.907   5.031  1.00 20.00     0.016 C 
HETATM   10  C2  UNL     1     -34.560   5.370   6.332  1.00 20.00     0.006 C 
ENDBRANCH   7   9
ENDBRANCH   1   7
TORSDOF 5
ENDMDL
MODEL 3
REMARK VINA RESULT:      -3.3     11.404     12.468
REMARK  5 active torsions:
REMARK  status: ('A' for Active; 'I' for Inactive)
REMARK    1  A    between atoms: C4_4  and  C7_7 
REMARK    2  A    between atoms: C5_5  and  C8_8 
REMARK    3  A    between atoms: C6_6  and  C7_7 
REMARK    4  A    between atoms: C6_6  and  O9_9 
REMARK    5  A    between atoms: C7_7  and  C8_8 
ROOT
HETATM    1  C7  UNL     1     -32.718  17.851  -1.243  1.00 20.00     0.027 C 
ENDROOT
BRANCH   1   2
HETATM    2  C4  UNL     1     -33.986  17.729  -0.367  1.00 20.00     0.004 C 
HETATM    3  C1  UNL     1     -34.285  18.981   0.449  1.00 20.00     0.005 C 
ENDBRANCH   1   2
BRANCH   1   4
HETATM    4  C6  UNL     1     -31.933  19.132  -0.892  1.00 20.00     0.173 C 
BRANCH   4   5
HETATM    5  O9  UNL     1     -30.660  18.821  -0.340  1.00 20.00    -0.396 OA
HETATM    6  C3  UNL     1     -30.722  18.700   1.074  1.00 20.00     0.201 C 
ENDBRANCH   4   5
ENDBRANCH   1   4
BRANCH   1   7
HETATM    7  C8  UNL     1     -33.022  17.762  -2.767  1.00 20.00     0.088 C 
HETATM    8 CL10 UNL     1     -33.443  16.065  -3.207  1.00 20.00    -0.125 Cl
BRANCH   7   9
HETATM    9  C5  UNL     1     -34.123  18.720  -3.251  1.00 20.00     0.016 C 
HETATM   10  C2  UNL     1     -35.231  18.022  -4.033  1.00 20.00     0.006 C 
ENDBRANCH   7   9
ENDBRANCH   1   7
TORSDOF 5
ENDMDL
MODEL 4
REMARK VINA RESULT:      -3.2      9.892     10.914
REMARK  5 active torsions:
REMARK  status: ('A' for Active; 'I' for Inactive)
REMARK    1  A    between atoms: C4_4  and  C7_7 
REMARK    2  A    between atoms: C5_5  and  C8_8 
REMARK    3  A    between atoms: C6_6  and  C7_7 
REMARK    4  A    between atoms: C6_6  and  O9_9 
REMARK    5  A    between atoms: C7_7  and  C8_8 
ROOT
HETATM    1  C7  UNL     1     -41.049  14.175   6.012  1.00 20.00     0.027 C 
ENDROOT
BRANCH   1   2
HETATM    2  C4  UNL     1     -41.094  15.272   7.100  1.00 20.00     0.004 C 
HETATM    3  C1  UNL     1     -40.382  14.880   8.389  1.00 20.00     0.005 C 
ENDBRANCH   1   2
BRANCH   1   4
HETATM    4  C6  UNL     1     -42.239  14.318   5.041  1.00 20.00     0.173 C 
BRANCH   4   5
HETATM    5  O9  UNL     1     -41.818  14.198   3.689  1.00 20.00    -0.396 OA
HETATM    6  C3  UNL     1     -42.324  15.260   2.891  1.00 20.00     0.201 C 
ENDBRANCH   4   5
ENDBRANCH   1   4
BRANCH   1   7
HETATM    7  C8  UNL     1     -40.959  12.737   6.603  1.00 20.00     0.088 C 
HETATM    8 CL10 UNL     1     -42.617  12.107   6.929  1.00 20.00    -0.125 Cl
BRANCH   7   9
HETATM    9  C5  UNL     1     -40.180  11.740   5.728  1.00 20.00     0.016 C 
HETATM   10  C2  UNL     1     -38.740  12.165   5.465  1.00 20.00     0.006 C 
ENDBRANCH   7   9
ENDBRANCH   1   7
TORSDOF 5
ENDMDL
MODEL 5
REMARK VINA RESULT:      -3.2     10.953     11.934
REMARK  5 active torsions:
REMARK  status: ('A' for Active; 'I' for Inactive)
REMARK    1  A    between atoms: C4_4  and  C7_7 
REMARK    2  A    between atoms: C5_5  and  C8_8 
REMARK    3  A    between atoms: C6_6  and  C7_7 
REMARK    4  A    between atoms: C6_6  and  O9_9 
REMARK    5  A    between atoms: C7_7  and  C8_8 
ROOT
HETATM    1  C7  UNL     1     -32.955  18.181  -2.331  1.00 20.00     0.027 C 
ENDROOT
BRANCH   1   2
HETATM    2  C4  UNL     1     -33.966  19.056  -3.108  1.00 20.00     0.004 C 
HETATM    3  C1  UNL     1     -35.411  18.596  -2.956  1.00 20.00     0.005 C 
ENDBRANCH   1   2
BRANCH   1   4
HETATM    4  C6  UNL     1     -33.393  16.702  -2.339  1.00 20.00     0.173 C 
BRANCH   4   5
HETATM    5  O9  UNL     1     -32.869  16.014  -3.466  1.00 20.00    -0.396 OA
HETATM    6  C3  UNL     1     -33.820  15.113  -4.015  1.00 20.00     0.201 C 
ENDBRANCH   4   5
ENDBRANCH   1   4
BRANCH   1   7
HETATM    7  C8  UNL     1     -32.691  18.695  -0.886  1.00 20.00     0.088 C 
HETATM    8 CL10 UNL     1     -33.848  17.918   0.258  1.00 20.00    -0.125 Cl
BRANCH   7   9
HETATM    9  C5  UNL     1     -31.248  18.492  -0.394  1.00 20.00     0.016 C 
HETATM   10  C2  UNL     1     -31.127  18.454   1.126  1.00 20.00     0.006 C 
ENDBRANCH   7   9
ENDBRANCH   1   7
TORSDOF 5
ENDMDL
MODEL 6
REMARK VINA RESULT:      -3.2      2.582      4.623
REMARK  5 active torsions:
REMARK  status: ('A' for Active; 'I' for Inactive)
REMARK    1  A    between atoms: C4_4  and  C7_7 
REMARK    2  A    between atoms: C5_5  and  C8_8 
REMARK    3  A    between atoms: C6_6  and  C7_7 
REMARK    4  A    between atoms: C6_6  and  O9_9 
REMARK    5  A    between atoms: C7_7  and  C8_8 
ROOT
HETATM    1  C7  UNL     1     -33.476   7.499   4.028  1.00 20.00     0.027 C 
ENDROOT
BRANCH   1   2
HETATM    2  C4  UNL     1     -32.873   8.100   5.319  1.00 20.00     0.004 C 
HETATM    3  C1  UNL     1     -32.034   9.348   5.074  1.00 20.00     0.005 C 
ENDBRANCH   1   2
BRANCH   1   4
HETATM    4  C6  UNL     1     -34.564   6.459   4.365  1.00 20.00     0.173 C 
BRANCH   4   5
HETATM    5  O9  UNL     1     -34.742   6.336   5.770  1.00 20.00    -0.396 OA
HETATM    6  C3  UNL     1     -34.503   5.006   6.210  1.00 20.00     0.201 C 
ENDBRANCH   4   5
ENDBRANCH   1   4
BRANCH   1   7
HETATM    7  C8  UNL     1     -32.398   6.913   3.069  1.00 20.00     0.088 C 
HETATM    8 CL10 UNL     1     -32.829   5.219   2.630  1.00 20.00    -0.125 Cl
BRANCH   7   9
HETATM    9  C5  UNL     1     -32.163   7.744   1.796  1.00 20.00     0.016 C 
HETATM   10  C2  UNL     1     -32.874   9.093   1.815  1.00 20.00     0.006 C 
ENDBRANCH   7   9
ENDBRANCH   1   7
TORSDOF 5
ENDMDL
MODEL 7
REMARK VINA RESULT:      -3.2      2.201      3.930
REMARK  5 active torsions:
REMARK  status: ('A' for Active; 'I' for Inactive)
REMARK    1  A    between atoms: C4_4  and  C7_7 
REMARK    2  A    between atoms: C5_5  and  C8_8 
REMARK    3  A    between atoms: C6_6  and  C7_7 
REMARK    4  A    between atoms: C6_6  and  O9_9 
REMARK    5  A    between atoms: C7_7  and  C8_8 
ROOT
HETATM    1  C7  UNL     1     -33.414   6.477   4.142  1.00 20.00     0.027 C 
ENDROOT
BRANCH   1   2
HETATM    2  C4  UNL     1     -32.590   5.982   2.931  1.00 20.00     0.004 C 
HETATM    3  C1  UNL     1     -33.049   4.630   2.396  1.00 20.00     0.005 C 
ENDBRANCH   1   2
BRANCH   1   4
HETATM    4  C6  UNL     1     -34.779   5.761   4.204  1.00 20.00     0.173 C 
BRANCH   4   5
HETATM    5  O9  UNL     1     -34.781   4.738   5.191  1.00 20.00    -0.396 OA
HETATM    6  C3  UNL     1     -34.430   5.247   6.470  1.00 20.00     0.201 C 
ENDBRANCH   4   5
ENDBRANCH   1   4
BRANCH   1   7
HETATM    7  C8  UNL     1     -33.574   8.025   4.176  1.00 20.00     0.088 C 
HETATM    8 CL10 UNL     1     -33.725   8.585   5.883  1.00 20.00    -0.125 Cl
BRANCH   7   9
HETATM    9  C5  UNL     1     -32.447   8.795   3.467  1.00 20.00     0.016 C 
HETATM   10  C2  UNL     1     -32.889   9.445   2.160  1.00 20.00     0.006 C 
ENDBRANCH   7   9
ENDBRANCH   1   7
TORSDOF 5
ENDMDL
MODEL 8
REMARK VINA RESULT:      -3.2     11.205     12.412
REMARK  5 active torsions:
REMARK  status: ('A' for Active; 'I' for Inactive)
REMARK    1  A    between atoms: C4_4  and  C7_7 
REMARK    2  A    between atoms: C5_5  and  C8_8 
REMARK    3  A    between atoms: C6_6  and  C7_7 
REMARK    4  A    between atoms: C6_6  and  O9_9 
REMARK    5  A    between atoms: C7_7  and  C8_8 
ROOT
HETATM    1  C7  UNL     1     -34.143  16.168  -3.912  1.00 20.00     0.027 C 
ENDROOT
BRANCH   1   2
HETATM    2  C4  UNL     1     -33.053  16.611  -2.908  1.00 20.00     0.004 C 
HETATM    3  C1  UNL     1     -33.616  17.193  -1.618  1.00 20.00     0.005 C 
ENDBRANCH   1   2
BRANCH   1   4
HETATM    4  C6  UNL     1     -33.768  14.824  -4.569  1.00 20.00     0.173 C 
BRANCH   4   5
HETATM    5  O9  UNL     1     -34.557  13.760  -4.053  1.00 20.00    -0.396 OA
HETATM    6  C3  UNL     1     -35.833  13.709  -4.677  1.00 20.00     0.201 C 
ENDBRANCH   4   5
ENDBRANCH   1   4
BRANCH   1   7
HETATM    7  C8  UNL     1     -34.467  17.257  -4.976  1.00 20.00     0.088 C 
HETATM    8 CL10 UNL     1     -34.501  16.514  -6.618  1.00 20.00    -0.125 Cl
BRANCH   7   9
HETATM    9  C5  UNL     1     -35.774  18.026  -4.719  1.00 20.00     0.016 C 
HETATM   10  C2  UNL     1     -37.019  17.269  -5.172  1.00 20.00     0.006 C 
ENDBRANCH   7   9
ENDBRANCH   1   7
TORSDOF 5
ENDMDL
MODEL 9
REMARK VINA RESULT:      -3.1     11.394     12.051
REMARK  5 active torsions:
REMARK  status: ('A' for Active; 'I' for Inactive)
REMARK    1  A    between atoms: C4_4  and  C7_7 
REMARK    2  A    between atoms: C5_5  and  C8_8 
REMARK    3  A    between atoms: C6_6  and  C7_7 
REMARK    4  A    between atoms: C6_6  and  O9_9 
REMARK    5  A    between atoms: C7_7  and  C8_8 
ROOT
HETATM    1  C7  UNL     1     -33.992  17.696  -1.992  1.00 20.00     0.027 C 
ENDROOT
BRANCH   1   2
HETATM    2  C4  UNL     1     -33.043  16.652  -2.624  1.00 20.00     0.004 C 
HETATM    3  C1  UNL     1     -33.720  15.767  -3.664  1.00 20.00     0.005 C 
ENDBRANCH   1   2
BRANCH   1   4
HETATM    4  C6  UNL     1     -34.634  18.581  -3.080  1.00 20.00     0.173 C 
BRANCH   4   5
HETATM    5  O9  UNL     1     -36.053  18.532  -3.013  1.00 20.00    -0.396 OA
HETATM    6  C3  UNL     1     -36.622  18.193  -4.271  1.00 20.00     0.201 C 
ENDBRANCH   4   5
ENDBRANCH   1   4
BRANCH   1   7
HETATM    7  C8  UNL     1     -33.305  18.552  -0.887  1.00 20.00     0.088 C 
HETATM    8 CL10 UNL     1     -33.962  18.101   0.730  1.00 20.00    -0.125 Cl
BRANCH   7   9
HETATM    9  C5  UNL     1     -31.770  18.458  -0.877  1.00 20.00     0.016 C 
HETATM   10  C2  UNL     1     -31.169  18.544   0.523  1.00 20.00     0.006 C 
ENDBRANCH   7   9
ENDBRANCH   1   7
TORSDOF 5
ENDMDL
