MODEL 1
REMARK VINA RESULT:      -3.7      0.000      0.000
REMARK  4 active torsions:
REMARK  status: ('A' for Active; 'I' for Inactive)
REMARK    1  A    between atoms: C5_5  and  C8_8 
REMARK    2  A    between atoms: C6_6  and  C8_8 
REMARK    3  A    between atoms: C7_7  and  N9_9 
REMARK    4  A    between atoms: C8_8  and  N9_9 
ROOT
HETATM    1  C8  UNL     1     -33.210   7.136   4.253  1.00 20.00     0.237 C 
ENDROOT
BRANCH   1   2
HETATM    2  C5  UNL     1     -33.318   8.664   4.222  1.00 20.00     0.150 C 
HETATM    3 CL10 UNL     1     -31.948   9.428   5.077  1.00 20.00    -0.128 Cl
ENDBRANCH   1   2
BRANCH   1   4
HETATM    4  C6  UNL     1     -32.376   6.590   3.064  1.00 20.00     0.011 C 
HETATM    5  C1  UNL     1     -32.221   7.589   1.914  1.00 20.00     0.012 C 
HETATM    6  C2  UNL     1     -32.956   5.274   2.534  1.00 20.00     0.012 C 
ENDBRANCH   1   4
BRANCH   1   7
HETATM    7  N9  UNL     1     -34.523   6.532   4.305  1.00 20.00     0.093 N 
HETATM    8  H28 UNL     1     -34.564   5.739   3.658  1.00 20.00     0.316 HD
BRANCH   7   9
HETATM    9  C7  UNL     1     -34.836   6.057   5.650  1.00 20.00     0.213 C 
HETATM   10  C3  UNL     1     -34.191   6.985   6.669  1.00 20.00     0.042 C 
HETATM   11  C4  UNL     1     -34.337   4.627   5.795  1.00 20.00     0.042 C 
ENDBRANCH   7   9
ENDBRANCH   1   7
TORSDOF 4
ENDMDL
MODEL 2
REMARK VINA RESULT:      -3.6      9.880     11.102
REMARK  4 active torsions:
REMARK  status: ('A' for Active; 'I' for Inactive)
REMARK    1  A    between atoms: C5_5  and  C8_8 
REMARK    2  A    between atoms: C6_6  and  C8_8 
REMARK    3  A    between atoms: C7_7  and  N9_9 
REMARK    4  A    between atoms: C8_8  and  N9_9 
ROOT
HETATM    1  C8  UNL     1     -40.714  13.203   6.701  1.00 20.00     0.237 C 
ENDROOT
BRANCH   1   2
HETATM    2  C5  UNL     1     -40.257  12.690   5.331  1.00 20.00     0.150 C 
HETATM    3 CL10 UNL     1     -38.575  12.091   5.392  1.00 20.00    -0.128 Cl
ENDBRANCH   1   2
BRANCH   1   4
HETATM    4  C6  UNL     1     -42.247  13.434   6.751  1.00 20.00     0.011 C 
HETATM    5  C1  UNL     1     -43.043  12.185   7.142  1.00 20.00     0.012 C 
HETATM    6  C2  UNL     1     -42.772  13.988   5.422  1.00 20.00     0.012 C 
ENDBRANCH   1   4
BRANCH   1   7
HETATM    7  N9  UNL     1     -39.983  14.394   7.071  1.00 20.00     0.093 N 
HETATM    8  H28 UNL     1     -39.812  14.966   6.239  1.00 20.00     0.316 HD
BRANCH   7   9
HETATM    9  C7  UNL     1     -40.725  15.191   8.044  1.00 20.00     0.213 C 
HETATM   10  C3  UNL     1     -40.645  16.660   7.651  1.00 20.00     0.042 C 
HETATM   11  C4  UNL     1     -40.142  14.946   9.428  1.00 20.00     0.042 C 
ENDBRANCH   7   9
ENDBRANCH   1   7
TORSDOF 4
ENDMDL
MODEL 3
REMARK VINA RESULT:      -3.6      9.566     10.569
REMARK  4 active torsions:
REMARK  status: ('A' for Active; 'I' for Inactive)
REMARK    1  A    between atoms: C5_5  and  C8_8 
REMARK    2  A    between atoms: C6_6  and  C8_8 
REMARK    3  A    between atoms: C7_7  and  N9_9 
REMARK    4  A    between atoms: C8_8  and  N9_9 
ROOT
HETATM    1  C8  UNL     1     -40.634  13.692   5.986  1.00 20.00     0.237 C 
ENDROOT
BRANCH   1   2
HETATM    2  C5  UNL     1     -42.128  13.669   6.329  1.00 20.00     0.150 C 
HETATM    3 CL10 UNL     1     -42.622  12.072   6.960  1.00 20.00    -0.128 Cl
ENDBRANCH   1   2
BRANCH   1   4
HETATM    4  C6  UNL     1     -40.057  12.263   5.811  1.00 20.00     0.011 C 
HETATM    5  C1  UNL     1     -38.902  11.946   6.765  1.00 20.00     0.012 C 
HETATM    6  C2  UNL     1     -39.618  12.012   4.364  1.00 20.00     0.012 C 
ENDBRANCH   1   4
BRANCH   1   7
HETATM    7  N9  UNL     1     -39.894  14.447   6.973  1.00 20.00     0.093 N 
HETATM    8  H28 UNL     1     -39.347  15.178   6.510  1.00 20.00     0.316 HD
BRANCH   7   9
HETATM    9  C7  UNL     1     -40.790  15.074   7.942  1.00 20.00     0.213 C 
HETATM   10  C3  UNL     1     -40.683  16.587   7.813  1.00 20.00     0.042 C 
HETATM   11  C4  UNL     1     -40.415  14.600   9.337  1.00 20.00     0.042 C 
ENDBRANCH   7   9
ENDBRANCH   1   7
TORSDOF 4
ENDMDL
MODEL 4
REMARK VINA RESULT:      -3.6      2.004      4.054
REMARK  4 active torsions:
REMARK  status: ('A' for Active; 'I' for Inactive)
REMARK    1  A    between atoms: C5_5  and  C8_8 
REMARK    2  A    between atoms: C6_6  and  C8_8 
REMARK    3  A    between atoms: C7_7  and  N9_9 
REMARK    4  A    between atoms: C8_8  and  N9_9 
ROOT
HETATM    1  C8  UNL     1     -33.664   6.240   4.580  1.00 20.00     0.237 C 
ENDROOT
BRANCH   1   2
HETATM    2  C5  UNL     1     -34.006   5.064   3.657  1.00 20.00     0.150 C 
HETATM    3 CL10 UNL     1     -32.812   4.910   2.336  1.00 20.00    -0.128 Cl
ENDBRANCH   1   2
BRANCH   1   4
HETATM    4  C6  UNL     1     -34.569   6.269   5.839  1.00 20.00     0.011 C 
HETATM    5  C1  UNL     1     -34.200   7.375   6.833  1.00 20.00     0.012 C 
HETATM    6  C2  UNL     1     -34.576   4.913   6.553  1.00 20.00     0.012 C 
ENDBRANCH   1   4
BRANCH   1   7
HETATM    7  N9  UNL     1     -33.718   7.490   3.855  1.00 20.00     0.093 N 
HETATM    8  H28 UNL     1     -34.275   8.170   4.381  1.00 20.00     0.316 HD
BRANCH   7   9
HETATM    9  C7  UNL     1     -32.382   8.040   3.646  1.00 20.00     0.213 C 
HETATM   10  C3  UNL     1     -32.118   9.120   4.686  1.00 20.00     0.042 C 
HETATM   11  C4  UNL     1     -32.291   8.588   2.230  1.00 20.00     0.042 C 
ENDBRANCH   7   9
ENDBRANCH   1   7
TORSDOF 4
ENDMDL
MODEL 5
REMARK VINA RESULT:      -3.6      2.001      2.785
REMARK  4 active torsions:
REMARK  status: ('A' for Active; 'I' for Inactive)
REMARK    1  A    between atoms: C5_5  and  C8_8 
REMARK    2  A    between atoms: C6_6  and  C8_8 
REMARK    3  A    between atoms: C7_7  and  N9_9 
REMARK    4  A    between atoms: C8_8  and  N9_9 
ROOT
HETATM    1  C8  UNL     1     -33.322   7.196   3.783  1.00 20.00     0.237 C 
ENDROOT
BRANCH   1   2
HETATM    2  C5  UNL     1     -32.329   6.493   2.851  1.00 20.00     0.150 C 
HETATM    3 CL10 UNL     1     -32.845   4.820   2.497  1.00 20.00    -0.128 Cl
ENDBRANCH   1   2
BRANCH   1   4
HETATM    4  C6  UNL     1     -33.112   8.732   3.803  1.00 20.00     0.011 C 
HETATM    5  C1  UNL     1     -32.673   9.309   2.453  1.00 20.00     0.012 C 
HETATM    6  C2  UNL     1     -32.115   9.145   4.891  1.00 20.00     0.012 C 
ENDBRANCH   1   4
BRANCH   1   7
HETATM    7  N9  UNL     1     -33.260   6.632   5.114  1.00 20.00     0.093 N 
HETATM    8  H28 UNL     1     -32.820   7.301   5.751  1.00 20.00     0.316 HD
BRANCH   7   9
HETATM    9  C7  UNL     1     -34.593   6.312   5.616  1.00 20.00     0.213 C 
HETATM   10  C3  UNL     1     -34.488   5.169   6.616  1.00 20.00     0.042 C 
HETATM   11  C4  UNL     1     -35.489   5.952   4.441  1.00 20.00     0.042 C 
ENDBRANCH   7   9
ENDBRANCH   1   7
TORSDOF 4
ENDMDL
MODEL 6
REMARK VINA RESULT:      -3.6     12.091     12.750
REMARK  4 active torsions:
REMARK  status: ('A' for Active; 'I' for Inactive)
REMARK    1  A    between atoms: C5_5  and  C8_8 
REMARK    2  A    between atoms: C6_6  and  C8_8 
REMARK    3  A    between atoms: C7_7  and  N9_9 
REMARK    4  A    between atoms: C8_8  and  N9_9 
ROOT
HETATM    1  C8  UNL     1     -33.468  16.938  -3.111  1.00 20.00     0.237 C 
ENDROOT
BRANCH   1   2
HETATM    2  C5  UNL     1     -34.223  18.142  -3.685  1.00 20.00     0.150 C 
HETATM    3 CL10 UNL     1     -33.113  19.262  -4.523  1.00 20.00    -0.128 Cl
ENDBRANCH   1   2
BRANCH   1   4
HETATM    4  C6  UNL     1     -33.853  15.617  -3.826  1.00 20.00     0.011 C 
HETATM    5  C1  UNL     1     -32.646  14.786  -4.272  1.00 20.00     0.012 C 
HETATM    6  C2  UNL     1     -34.772  15.879  -5.024  1.00 20.00     0.012 C 
ENDBRANCH   1   4
BRANCH   1   7
HETATM    7  N9  UNL     1     -33.664  16.846  -1.681  1.00 20.00     0.093 N 
HETATM    8  H28 UNL     1     -33.061  16.113  -1.296  1.00 20.00     0.316 HD
BRANCH   7   9
HETATM    9  C7  UNL     1     -33.348  18.109  -1.020  1.00 20.00     0.213 C 
HETATM   10  C3  UNL     1     -31.836  18.277  -0.962  1.00 20.00     0.042 C 
HETATM   11  C4  UNL     1     -33.968  18.106   0.369  1.00 20.00     0.042 C 
ENDBRANCH   7   9
ENDBRANCH   1   7
TORSDOF 4
ENDMDL
MODEL 7
REMARK VINA RESULT:      -3.5     12.115     13.544
REMARK  4 active torsions:
REMARK  status: ('A' for Active; 'I' for Inactive)
REMARK    1  A    between atoms: C5_5  and  C8_8 
REMARK    2  A    between atoms: C6_6  and  C8_8 
REMARK    3  A    between atoms: C7_7  and  N9_9 
REMARK    4  A    between atoms: C8_8  and  N9_9 
ROOT
HETATM    1  C8  UNL     1     -34.277  17.391  -3.639  1.00 20.00     0.237 C 
ENDROOT
BRANCH   1   2
HETATM    2  C5  UNL     1     -35.106  18.632  -3.990  1.00 20.00     0.150 C 
HETATM    3 CL10 UNL     1     -36.553  18.758  -2.950  1.00 20.00    -0.128 Cl
ENDBRANCH   1   2
BRANCH   1   4
HETATM    4  C6  UNL     1     -33.190  17.701  -2.578  1.00 20.00     0.011 C 
HETATM    5  C1  UNL     1     -33.627  17.392  -1.143  1.00 20.00     0.012 C 
HETATM    6  C2  UNL     1     -32.717  19.156  -2.672  1.00 20.00     0.012 C 
ENDBRANCH   1   4
BRANCH   1   7
HETATM    7  N9  UNL     1     -33.706  16.805  -4.831  1.00 20.00     0.093 N 
HETATM    8  H28 UNL     1     -32.717  16.591  -4.671  1.00 20.00     0.316 HD
BRANCH   7   9
HETATM    9  C7  UNL     1     -34.398  15.573  -5.201  1.00 20.00     0.213 C 
HETATM   10  C3  UNL     1     -34.000  14.467  -4.234  1.00 20.00     0.042 C 
HETATM   11  C4  UNL     1     -34.042  15.221  -6.637  1.00 20.00     0.042 C 
ENDBRANCH   7   9
ENDBRANCH   1   7
TORSDOF 4
ENDMDL
MODEL 8
REMARK VINA RESULT:      -3.5     12.105     13.468
REMARK  4 active torsions:
REMARK  status: ('A' for Active; 'I' for Inactive)
REMARK    1  A    between atoms: C5_5  and  C8_8 
REMARK    2  A    between atoms: C6_6  and  C8_8 
REMARK    3  A    between atoms: C7_7  and  N9_9 
REMARK    4  A    between atoms: C8_8  and  N9_9 
ROOT
HETATM    1  C8  UNL     1     -34.377  16.053  -4.780  1.00 20.00     0.237 C 
ENDROOT
BRANCH   1   2
HETATM    2  C5  UNL     1     -34.177  14.539  -4.645  1.00 20.00     0.150 C 
HETATM    3 CL10 UNL     1     -35.743  13.683  -4.563  1.00 20.00    -0.128 Cl
ENDBRANCH   1   2
BRANCH   1   4
HETATM    4  C6  UNL     1     -34.628  16.475  -6.251  1.00 20.00     0.011 C 
HETATM    5  C1  UNL     1     -36.105  16.715  -6.577  1.00 20.00     0.012 C 
HETATM    6  C2  UNL     1     -34.039  15.456  -7.232  1.00 20.00     0.012 C 
ENDBRANCH   1   4
BRANCH   1   7
HETATM    7  N9  UNL     1     -33.262  16.769  -4.202  1.00 20.00     0.093 N 
HETATM    8  H28 UNL     1     -32.775  17.296  -4.932  1.00 20.00     0.316 HD
BRANCH   7   9
HETATM    9  C7  UNL     1     -33.707  17.701  -3.169  1.00 20.00     0.213 C 
HETATM   10  C3  UNL     1     -32.931  19.003  -3.303  1.00 20.00     0.042 C 
HETATM   11  C4  UNL     1     -33.501  17.059  -1.805  1.00 20.00     0.042 C 
ENDBRANCH   7   9
ENDBRANCH   1   7
TORSDOF 4
ENDMDL
MODEL 9
REMARK VINA RESULT:      -3.5     12.078     13.550
REMARK  4 active torsions:
REMARK  status: ('A' for Active; 'I' for Inactive)
REMARK    1  A    between atoms: C5_5  and  C8_8 
REMARK    2  A    between atoms: C6_6  and  C8_8 
REMARK    3  A    between atoms: C7_7  and  N9_9 
REMARK    4  A    between atoms: C8_8  and  N9_9 
ROOT
HETATM    1  C8  UNL     1     -33.528  16.945  -3.748  1.00 20.00     0.237 C 
ENDROOT
BRANCH   1   2
HETATM    2  C5  UNL     1     -32.979  15.530  -3.963  1.00 20.00     0.150 C 
HETATM    3 CL10 UNL     1     -34.300  14.332  -4.065  1.00 20.00    -0.128 Cl
ENDBRANCH   1   2
BRANCH   1   4
HETATM    4  C6  UNL     1     -32.931  17.612  -2.482  1.00 20.00     0.011 C 
HETATM    5  C1  UNL     1     -33.749  17.361  -1.212  1.00 20.00     0.012 C 
HETATM    6  C2  UNL     1     -32.738  19.119  -2.683  1.00 20.00     0.012 C 
ENDBRANCH   1   4
BRANCH   1   7
HETATM    7  N9  UNL     1     -34.973  16.933  -3.713  1.00 20.00     0.093 N 
HETATM    8  H28 UNL     1     -35.299  17.257  -2.798  1.00 20.00     0.316 HD
BRANCH   7   9
HETATM    9  C7  UNL     1     -35.537  17.799  -4.745  1.00 20.00     0.213 C 
HETATM   10  C3  UNL     1     -36.398  18.866  -4.086  1.00 20.00     0.042 C 
HETATM   11  C4  UNL     1     -36.340  16.947  -5.717  1.00 20.00     0.042 C 
ENDBRANCH   7   9
ENDBRANCH   1   7
TORSDOF 4
ENDMDL
