MODEL 1
REMARK VINA RESULT:      -4.4      0.000      0.000
REMARK  2 active torsions:
REMARK  status: ('A' for Active; 'I' for Inactive)
REMARK    1  A    between atoms: C6_6  and  C9_9 
REMARK    2  A    between atoms: C8_8  and  C9_9 
ROOT
HETATM    1  C1  UNL     1     -34.992   5.551   4.425  1.00 20.00     0.027 C 
HETATM    2  C2  UNL     1     -33.782   6.072   3.652  1.00 20.00     0.008 C 
HETATM    3  C3  UNL     1     -33.580   7.953   5.401  1.00 20.00     0.032 C 
HETATM    4  C4  UNL     1     -34.685   5.012   5.820  1.00 20.00     0.167 C 
HETATM    5  C5  UNL     1     -34.251   7.240   6.582  1.00 20.00     0.168 C 
HETATM    6  C6  UNL     1     -32.846   7.026   4.418  1.00 20.00     0.006 C 
HETATM    7  O10 UNL     1     -33.898   5.865   6.647  1.00 20.00    -0.391 OA
ENDROOT
BRANCH   6   8
HETATM    8  C9  UNL     1     -32.021   7.850   3.425  1.00 20.00     0.086 C 
HETATM    9 CL11 UNL     1     -32.443   9.561   3.673  1.00 20.00    -0.125 Cl
BRANCH   8  10
HETATM   10  C8  UNL     1     -32.296   7.393   1.999  1.00 20.00     0.016 C 
HETATM   11  C7  UNL     1     -32.293   8.549   1.008  1.00 20.00     0.006 C 
ENDBRANCH   8  10
ENDBRANCH   6   8
TORSDOF 2
ENDMDL
MODEL 2
REMARK VINA RESULT:      -4.1      1.227      2.037
REMARK  2 active torsions:
REMARK  status: ('A' for Active; 'I' for Inactive)
REMARK    1  A    between atoms: C6_6  and  C9_9 
REMARK    2  A    between atoms: C8_8  and  C9_9 
ROOT
HETATM    1  C1  UNL     1     -33.881   6.230   6.357  1.00 20.00     0.027 C 
HETATM    2  C2  UNL     1     -33.351   7.462   5.626  1.00 20.00     0.008 C 
HETATM    3  C3  UNL     1     -32.955   5.965   3.567  1.00 20.00     0.032 C 
HETATM    4  C4  UNL     1     -35.182   5.657   5.801  1.00 20.00     0.167 C 
HETATM    5  C5  UNL     1     -34.010   4.890   3.859  1.00 20.00     0.168 C 
HETATM    6  C6  UNL     1     -33.300   7.369   4.089  1.00 20.00     0.006 C 
HETATM    7  O10 UNL     1     -35.205   5.445   4.392  1.00 20.00    -0.391 OA
ENDROOT
BRANCH   6   8
HETATM    8  C9  UNL     1     -32.308   8.399   3.542  1.00 20.00     0.086 C 
HETATM    9 CL11 UNL     1     -31.939   9.535   4.861  1.00 20.00    -0.125 Cl
BRANCH   8  10
HETATM   10  C8  UNL     1     -32.891   9.103   2.325  1.00 20.00     0.016 C 
HETATM   11  C7  UNL     1     -32.272   8.618   1.021  1.00 20.00     0.006 C 
ENDBRANCH   8  10
ENDBRANCH   6   8
TORSDOF 2
ENDMDL
MODEL 3
REMARK VINA RESULT:      -3.9     12.044     13.158
REMARK  2 active torsions:
REMARK  status: ('A' for Active; 'I' for Inactive)
REMARK    1  A    between atoms: C6_6  and  C9_9 
REMARK    2  A    between atoms: C8_8  and  C9_9 
ROOT
HETATM    1  C1  UNL     1     -33.431  16.097  -3.918  1.00 20.00     0.027 C 
HETATM    2  C2  UNL     1     -33.459  16.341  -2.410  1.00 20.00     0.008 C 
HETATM    3  C3  UNL     1     -32.746  18.772  -2.877  1.00 20.00     0.032 C 
HETATM    4  C4  UNL     1     -34.482  16.864  -4.717  1.00 20.00     0.167 C 
HETATM    5  C5  UNL     1     -33.304  18.907  -4.299  1.00 20.00     0.168 C 
HETATM    6  C6  UNL     1     -33.526  17.814  -1.963  1.00 20.00     0.006 C 
HETATM    7  O10 UNL     1     -34.562  18.260  -4.442  1.00 20.00    -0.391 OA
ENDROOT
BRANCH   6   8
HETATM    8  C9  UNL     1     -33.034  17.938  -0.517  1.00 20.00     0.086 C 
HETATM    9 CL11 UNL     1     -34.253  18.873   0.380  1.00 20.00    -0.125 Cl
BRANCH   8  10
HETATM   10  C8  UNL     1     -31.663  18.597  -0.478  1.00 20.00     0.016 C 
HETATM   11  C7  UNL     1     -30.987  18.451   0.879  1.00 20.00     0.006 C 
ENDBRANCH   8  10
ENDBRANCH   6   8
TORSDOF 2
ENDMDL
MODEL 4
REMARK VINA RESULT:      -3.8     12.128     13.147
REMARK  2 active torsions:
REMARK  status: ('A' for Active; 'I' for Inactive)
REMARK    1  A    between atoms: C6_6  and  C9_9 
REMARK    2  A    between atoms: C8_8  and  C9_9 
ROOT
HETATM    1  C1  UNL     1     -35.996  15.929  -5.530  1.00 20.00     0.027 C 
HETATM    2  C2  UNL     1     -35.464  17.126  -4.744  1.00 20.00     0.008 C 
HETATM    3  C3  UNL     1     -33.760  15.538  -3.644  1.00 20.00     0.032 C 
HETATM    4  C4  UNL     1     -35.021  15.337  -6.545  1.00 20.00     0.167 C 
HETATM    5  C5  UNL     1     -33.683  14.480  -4.753  1.00 20.00     0.168 C 
HETATM    6  C6  UNL     1     -34.060  16.965  -4.130  1.00 20.00     0.006 C 
HETATM    7  O10 UNL     1     -33.713  15.062  -6.049  1.00 20.00    -0.391 OA
ENDROOT
BRANCH   6   8
HETATM    8  C9  UNL     1     -33.878  17.966  -2.986  1.00 20.00     0.086 C 
HETATM    9 CL11 UNL     1     -32.788  19.247  -3.569  1.00 20.00    -0.125 Cl
BRANCH   8  10
HETATM   10  C8  UNL     1     -33.330  17.266  -1.750  1.00 20.00     0.016 C 
HETATM   11  C7  UNL     1     -33.750  17.955  -0.459  1.00 20.00     0.006 C 
ENDBRANCH   8  10
ENDBRANCH   6   8
TORSDOF 2
ENDMDL
MODEL 5
REMARK VINA RESULT:      -3.8      9.717     10.690
REMARK  2 active torsions:
REMARK  status: ('A' for Active; 'I' for Inactive)
REMARK    1  A    between atoms: C6_6  and  C9_9 
REMARK    2  A    between atoms: C8_8  and  C9_9 
ROOT
HETATM    1  C1  UNL     1     -43.177  13.844   8.483  1.00 20.00     0.027 C 
HETATM    2  C2  UNL     1     -42.376  13.260   7.321  1.00 20.00     0.008 C 
HETATM    3  C3  UNL     1     -40.406  14.757   8.037  1.00 20.00     0.032 C 
HETATM    4  C4  UNL     1     -42.655  13.487   9.873  1.00 20.00     0.167 C 
HETATM    5  C5  UNL     1     -40.759  14.907   9.522  1.00 20.00     0.168 C 
HETATM    6  C6  UNL     1     -40.847  13.432   7.397  1.00 20.00     0.006 C 
HETATM    7  O10 UNL     1     -41.261  13.698  10.076  1.00 20.00    -0.391 OA
ENDROOT
BRANCH   6   8
HETATM    8  C9  UNL     1     -40.241  13.288   5.998  1.00 20.00     0.086 C 
HETATM    9 CL11 UNL     1     -41.489  13.770   4.825  1.00 20.00    -0.125 Cl
BRANCH   8  10
HETATM   10  C8  UNL     1     -39.762  11.861   5.771  1.00 20.00     0.016 C 
HETATM   11  C7  UNL     1     -39.186  11.657   4.376  1.00 20.00     0.006 C 
ENDBRANCH   8  10
ENDBRANCH   6   8
TORSDOF 2
ENDMDL
MODEL 6
REMARK VINA RESULT:      -3.8     11.941     13.077
REMARK  2 active torsions:
REMARK  status: ('A' for Active; 'I' for Inactive)
REMARK    1  A    between atoms: C6_6  and  C9_9 
REMARK    2  A    between atoms: C8_8  and  C9_9 
ROOT
HETATM    1  C1  UNL     1     -33.557  17.315  -1.507  1.00 20.00     0.027 C 
HETATM    2  C2  UNL     1     -33.482  16.267  -2.615  1.00 20.00     0.008 C 
HETATM    3  C3  UNL     1     -34.607  17.969  -4.186  1.00 20.00     0.032 C 
HETATM    4  C4  UNL     1     -32.693  18.554  -1.729  1.00 20.00     0.167 C 
HETATM    5  C5  UNL     1     -34.162  19.259  -3.485  1.00 20.00     0.168 C 
HETATM    6  C6  UNL     1     -33.630  16.790  -4.056  1.00 20.00     0.006 C 
HETATM    7  O10 UNL     1     -32.826  19.172  -3.006  1.00 20.00    -0.391 OA
ENDROOT
BRANCH   6   8
HETATM    8  C9  UNL     1     -34.050  15.645  -4.982  1.00 20.00     0.086 C 
HETATM    9 CL11 UNL     1     -35.493  16.184  -5.873  1.00 20.00    -0.125 Cl
BRANCH   8  10
HETATM   10  C8  UNL     1     -34.313  14.381  -4.176  1.00 20.00     0.016 C 
HETATM   11  C7  UNL     1     -35.636  13.723  -4.544  1.00 20.00     0.006 C 
ENDBRANCH   8  10
ENDBRANCH   6   8
TORSDOF 2
ENDMDL
MODEL 7
REMARK VINA RESULT:      -3.8     12.118     13.074
REMARK  2 active torsions:
REMARK  status: ('A' for Active; 'I' for Inactive)
REMARK    1  A    between atoms: C6_6  and  C9_9 
REMARK    2  A    between atoms: C8_8  and  C9_9 
ROOT
HETATM    1  C1  UNL     1     -33.245  15.141  -4.259  1.00 20.00     0.027 C 
HETATM    2  C2  UNL     1     -33.397  16.063  -3.050  1.00 20.00     0.008 C 
HETATM    3  C3  UNL     1     -34.262  17.884  -4.653  1.00 20.00     0.032 C 
HETATM    4  C4  UNL     1     -34.554  14.741  -4.935  1.00 20.00     0.167 C 
HETATM    5  C5  UNL     1     -34.806  16.974  -5.762  1.00 20.00     0.168 C 
HETATM    6  C6  UNL     1     -34.316  17.285  -3.239  1.00 20.00     0.006 C 
HETATM    7  O10 UNL     1     -35.440  15.815  -5.239  1.00 20.00    -0.391 OA
ENDROOT
BRANCH   6   8
HETATM    8  C9  UNL     1     -33.978  18.352  -2.194  1.00 20.00     0.086 C 
HETATM    9 CL11 UNL     1     -32.574  19.263  -2.800  1.00 20.00    -0.125 Cl
BRANCH   8  10
HETATM   10  C8  UNL     1     -33.704  17.706  -0.844  1.00 20.00     0.016 C 
HETATM   11  C7  UNL     1     -32.704  18.499  -0.013  1.00 20.00     0.006 C 
ENDBRANCH   8  10
ENDBRANCH   6   8
TORSDOF 2
ENDMDL
MODEL 8
REMARK VINA RESULT:      -3.7     12.197     13.377
REMARK  2 active torsions:
REMARK  status: ('A' for Active; 'I' for Inactive)
REMARK    1  A    between atoms: C6_6  and  C9_9 
REMARK    2  A    between atoms: C8_8  and  C9_9 
ROOT
HETATM    1  C1  UNL     1     -33.353  17.273  -1.957  1.00 20.00     0.027 C 
HETATM    2  C2  UNL     1     -33.491  16.199  -3.035  1.00 20.00     0.008 C 
HETATM    3  C3  UNL     1     -35.169  17.742  -4.236  1.00 20.00     0.032 C 
HETATM    4  C4  UNL     1     -32.708  18.576  -2.422  1.00 20.00     0.167 C 
HETATM    5  C5  UNL     1     -34.669  19.088  -3.697  1.00 20.00     0.168 C 
HETATM    6  C6  UNL     1     -34.086  16.660  -4.379  1.00 20.00     0.006 C 
HETATM    7  O10 UNL     1     -33.252  19.138  -3.613  1.00 20.00    -0.391 OA
ENDROOT
BRANCH   6   8
HETATM    8  C9  UNL     1     -34.638  15.452  -5.142  1.00 20.00     0.086 C 
HETATM    9 CL11 UNL     1     -34.474  14.033  -4.080  1.00 20.00    -0.125 Cl
BRANCH   8  10
HETATM   10  C8  UNL     1     -33.895  15.271  -6.458  1.00 20.00     0.016 C 
HETATM   11  C7  UNL     1     -34.568  16.006  -7.610  1.00 20.00     0.006 C 
ENDBRANCH   8  10
ENDBRANCH   6   8
TORSDOF 2
ENDMDL
MODEL 9
REMARK VINA RESULT:      -3.5     11.941     12.607
REMARK  2 active torsions:
REMARK  status: ('A' for Active; 'I' for Inactive)
REMARK    1  A    between atoms: C6_6  and  C9_9 
REMARK    2  A    between atoms: C8_8  and  C9_9 
ROOT
HETATM    1  C1  UNL     1     -34.868  19.263  -0.641  1.00 20.00     0.027 C 
HETATM    2  C2  UNL     1     -34.805  18.329  -1.849  1.00 20.00     0.008 C 
HETATM    3  C3  UNL     1     -32.237  18.493  -1.735  1.00 20.00     0.032 C 
HETATM    4  C4  UNL     1     -34.309  18.682   0.655  1.00 20.00     0.167 C 
HETATM    5  C5  UNL     1     -32.093  18.818  -0.243  1.00 20.00     0.168 C 
HETATM    6  C6  UNL     1     -33.456  17.629  -2.095  1.00 20.00     0.006 C 
HETATM    7  O10 UNL     1     -33.017  18.089   0.554  1.00 20.00    -0.391 OA
ENDROOT
BRANCH   6   8
HETATM    8  C9  UNL     1     -33.370  17.169  -3.554  1.00 20.00     0.086 C 
HETATM    9 CL11 UNL     1     -34.898  17.624  -4.345  1.00 20.00    -0.125 Cl
BRANCH   8  10
HETATM   10  C8  UNL     1     -33.113  15.670  -3.623  1.00 20.00     0.016 C 
HETATM   11  C7  UNL     1     -34.160  14.939  -4.453  1.00 20.00     0.006 C 
ENDBRANCH   8  10
ENDBRANCH   6   8
TORSDOF 2
ENDMDL
