MODEL 1
REMARK VINA RESULT:      -3.8      0.000      0.000
REMARK  3 active torsions:
REMARK  status: ('A' for Active; 'I' for Inactive)
REMARK    1  A    between atoms: C3_3  and  C9_9 
REMARK    2  A    between atoms: C3_3  and  O10_10 
REMARK    3  A    between atoms: C8_8  and  C9_9 
ROOT
HETATM    1  C1  UNL     1     -40.524  15.376   7.147  1.00 20.00     0.046 A 
HETATM    2  C2  UNL     1     -41.570  14.932   8.135  1.00 20.00     0.019 A 
HETATM    3  C3  UNL     1     -40.709  13.906   7.429  1.00 20.00     0.068 A 
HETATM    4  C4  UNL     1     -43.017  15.106   7.828  1.00 20.00     0.013 C 
ENDROOT
BRANCH   3   5
HETATM    5  C9  UNL     1     -41.268  12.977   6.335  1.00 20.00    -0.017 C 
HETATM    6  C6  UNL     1     -42.541  12.302   6.871  1.00 20.00     0.018 C 
HETATM    7  C7  UNL     1     -41.625  13.829   5.106  1.00 20.00     0.018 C 
BRANCH   5   8
HETATM    8  C8  UNL     1     -40.180  11.926   5.990  1.00 20.00     0.007 C 
HETATM    9  C5  UNL     1     -39.544  12.056   4.612  1.00 20.00     0.006 C 
ENDBRANCH   5   8
ENDBRANCH   3   5
BRANCH   3  10
HETATM   10  O10 UNL     1     -39.691  13.290   8.239  1.00 20.00    -0.389 OA
HETATM   11  H28 UNL     1     -38.854  13.478   7.795  1.00 20.00     0.210 HD
ENDBRANCH   3  10
TORSDOF 3
ENDMDL
MODEL 2
REMARK VINA RESULT:      -3.6     13.354     14.780
REMARK  3 active torsions:
REMARK  status: ('A' for Active; 'I' for Inactive)
REMARK    1  A    between atoms: C3_3  and  C9_9 
REMARK    2  A    between atoms: C3_3  and  O10_10 
REMARK    3  A    between atoms: C8_8  and  C9_9 
ROOT
HETATM    1  C1  UNL     1     -35.239  15.649  -7.918  1.00 20.00     0.046 A 
HETATM    2  C2  UNL     1     -34.307  16.791  -7.612  1.00 20.00     0.019 A 
HETATM    3  C3  UNL     1     -34.353  15.586  -6.699  1.00 20.00     0.068 A 
HETATM    4  C4  UNL     1     -34.850  18.119  -7.211  1.00 20.00     0.013 C 
ENDROOT
BRANCH   3   5
HETATM    5  C9  UNL     1     -34.976  15.645  -5.291  1.00 20.00    -0.017 C 
HETATM    6  C6  UNL     1     -36.466  16.000  -5.431  1.00 20.00     0.018 C 
HETATM    7  C7  UNL     1     -34.845  14.258  -4.640  1.00 20.00     0.018 C 
BRANCH   5   8
HETATM    8  C8  UNL     1     -34.220  16.722  -4.470  1.00 20.00     0.007 C 
HETATM    9  C5  UNL     1     -33.372  16.203  -3.316  1.00 20.00     0.006 C 
ENDBRANCH   5   8
ENDBRANCH   3   5
BRANCH   3  10
HETATM   10  O10 UNL     1     -33.225  14.698  -6.788  1.00 20.00    -0.389 OA
HETATM   11  H28 UNL     1     -33.225  14.363  -7.694  1.00 20.00     0.210 HD
ENDBRANCH   3  10
TORSDOF 3
ENDMDL
MODEL 3
REMARK VINA RESULT:      -3.5      0.790      1.989
REMARK  3 active torsions:
REMARK  status: ('A' for Active; 'I' for Inactive)
REMARK    1  A    between atoms: C3_3  and  C9_9 
REMARK    2  A    between atoms: C3_3  and  O10_10 
REMARK    3  A    between atoms: C8_8  and  C9_9 
ROOT
HETATM    1  C1  UNL     1     -40.365  15.392   7.630  1.00 20.00     0.046 A 
HETATM    2  C2  UNL     1     -41.229  14.675   8.634  1.00 20.00     0.019 A 
HETATM    3  C3  UNL     1     -40.613  13.912   7.482  1.00 20.00     0.068 A 
HETATM    4  C4  UNL     1     -42.689  14.961   8.711  1.00 20.00     0.013 C 
ENDROOT
BRANCH   3   5
HETATM    5  C9  UNL     1     -41.451  13.385   6.301  1.00 20.00    -0.017 C 
HETATM    6  C6  UNL     1     -40.511  12.671   5.316  1.00 20.00     0.018 C 
HETATM    7  C7  UNL     1     -42.479  12.377   6.843  1.00 20.00     0.018 C 
BRANCH   5   8
HETATM    8  C8  UNL     1     -42.153  14.594   5.629  1.00 20.00     0.007 C 
HETATM    9  C5  UNL     1     -42.271  14.532   4.111  1.00 20.00     0.006 C 
ENDBRANCH   5   8
ENDBRANCH   3   5
BRANCH   3  10
HETATM   10  O10 UNL     1     -39.510  13.055   7.828  1.00 20.00    -0.389 OA
HETATM   11  H28 UNL     1     -39.470  13.053   8.793  1.00 20.00     0.210 HD
ENDBRANCH   3  10
TORSDOF 3
ENDMDL
MODEL 4
REMARK VINA RESULT:      -3.5     12.900     13.785
REMARK  3 active torsions:
REMARK  status: ('A' for Active; 'I' for Inactive)
REMARK    1  A    between atoms: C3_3  and  C9_9 
REMARK    2  A    between atoms: C3_3  and  O10_10 
REMARK    3  A    between atoms: C8_8  and  C9_9 
ROOT
HETATM    1  C1  UNL     1     -32.893  14.653  -4.517  1.00 20.00     0.046 A 
HETATM    2  C2  UNL     1     -33.636  15.494  -3.512  1.00 20.00     0.019 A 
HETATM    3  C3  UNL     1     -34.395  14.762  -4.597  1.00 20.00     0.068 A 
HETATM    4  C4  UNL     1     -33.480  16.975  -3.509  1.00 20.00     0.013 C 
ENDROOT
BRANCH   3   5
HETATM    5  C9  UNL     1     -35.052  15.497  -5.781  1.00 20.00    -0.017 C 
HETATM    6  C6  UNL     1     -33.946  15.949  -6.749  1.00 20.00     0.018 C 
HETATM    7  C7  UNL     1     -35.990  14.516  -6.505  1.00 20.00     0.018 C 
BRANCH   5   8
HETATM    8  C8  UNL     1     -35.837  16.712  -5.222  1.00 20.00     0.007 C 
HETATM    9  C5  UNL     1     -37.355  16.629  -5.329  1.00 20.00     0.006 C 
ENDBRANCH   5   8
ENDBRANCH   3   5
BRANCH   3  10
HETATM   10  O10 UNL     1     -35.131  13.603  -4.163  1.00 20.00    -0.389 OA
HETATM   11  H28 UNL     1     -34.499  12.873  -4.171  1.00 20.00     0.210 HD
ENDBRANCH   3  10
TORSDOF 3
ENDMDL
MODEL 5
REMARK VINA RESULT:      -3.3      1.176      3.489
REMARK  3 active torsions:
REMARK  status: ('A' for Active; 'I' for Inactive)
REMARK    1  A    between atoms: C3_3  and  C9_9 
REMARK    2  A    between atoms: C3_3  and  O10_10 
REMARK    3  A    between atoms: C8_8  and  C9_9 
ROOT
HETATM    1  C1  UNL     1     -41.851  12.515   6.699  1.00 20.00     0.046 A 
HETATM    2  C2  UNL     1     -41.265  13.434   5.660  1.00 20.00     0.019 A 
HETATM    3  C3  UNL     1     -40.764  13.487   7.086  1.00 20.00     0.068 A 
HETATM    4  C4  UNL     1     -42.092  14.520   5.063  1.00 20.00     0.013 C 
ENDROOT
BRANCH   3   5
HETATM    5  C9  UNL     1     -41.083  14.664   8.027  1.00 20.00    -0.017 C 
HETATM    6  C6  UNL     1     -42.610  14.762   8.186  1.00 20.00     0.018 C 
HETATM    7  C7  UNL     1     -40.448  14.380   9.398  1.00 20.00     0.018 C 
BRANCH   5   8
HETATM    8  C8  UNL     1     -40.503  15.958   7.398  1.00 20.00     0.007 C 
HETATM    9  C5  UNL     1     -40.905  17.263   8.075  1.00 20.00     0.006 C 
ENDBRANCH   5   8
ENDBRANCH   3   5
BRANCH   3  10
HETATM   10  O10 UNL     1     -39.462  12.915   7.306  1.00 20.00    -0.389 OA
HETATM   11  H28 UNL     1     -39.250  13.092   8.232  1.00 20.00     0.210 HD
ENDBRANCH   3  10
TORSDOF 3
ENDMDL
MODEL 6
REMARK VINA RESULT:      -3.2     12.899     13.906
REMARK  3 active torsions:
REMARK  status: ('A' for Active; 'I' for Inactive)
REMARK    1  A    between atoms: C3_3  and  C9_9 
REMARK    2  A    between atoms: C3_3  and  O10_10 
REMARK    3  A    between atoms: C8_8  and  C9_9 
ROOT
HETATM    1  C1  UNL     1     -36.755  17.054  -5.069  1.00 20.00     0.046 A 
HETATM    2  C2  UNL     1     -36.648  16.609  -6.504  1.00 20.00     0.019 A 
HETATM    3  C3  UNL     1     -36.140  15.715  -5.394  1.00 20.00     0.068 A 
HETATM    4  C4  UNL     1     -35.731  17.314  -7.443  1.00 20.00     0.013 C 
ENDROOT
BRANCH   3   5
HETATM    5  C9  UNL     1     -34.637  15.479  -5.150  1.00 20.00    -0.017 C 
HETATM    6  C6  UNL     1     -34.480  14.275  -4.206  1.00 20.00     0.018 C 
HETATM    7  C7  UNL     1     -33.969  15.157  -6.497  1.00 20.00     0.018 C 
BRANCH   5   8
HETATM    8  C8  UNL     1     -34.040  16.765  -4.521  1.00 20.00     0.007 C 
HETATM    9  C5  UNL     1     -33.381  16.593  -3.158  1.00 20.00     0.006 C 
ENDBRANCH   5   8
ENDBRANCH   3   5
BRANCH   3  10
HETATM   10  O10 UNL     1     -36.955  14.565  -5.105  1.00 20.00    -0.389 OA
HETATM   11  H28 UNL     1     -36.875  13.986  -5.874  1.00 20.00     0.210 HD
ENDBRANCH   3  10
TORSDOF 3
ENDMDL
MODEL 7
REMARK VINA RESULT:      -3.1     12.937     14.523
REMARK  3 active torsions:
REMARK  status: ('A' for Active; 'I' for Inactive)
REMARK    1  A    between atoms: C3_3  and  C9_9 
REMARK    2  A    between atoms: C3_3  and  O10_10 
REMARK    3  A    between atoms: C8_8  and  C9_9 
ROOT
HETATM    1  C1  UNL     1     -33.960  15.245  -4.461  1.00 20.00     0.046 A 
HETATM    2  C2  UNL     1     -34.784  14.107  -5.004  1.00 20.00     0.019 A 
HETATM    3  C3  UNL     1     -34.258  15.175  -5.938  1.00 20.00     0.068 A 
HETATM    4  C4  UNL     1     -36.228  13.990  -4.657  1.00 20.00     0.013 C 
ENDROOT
BRANCH   3   5
HETATM    5  C9  UNL     1     -35.179  16.226  -6.587  1.00 20.00    -0.017 C 
HETATM    6  C6  UNL     1     -34.324  17.140  -7.480  1.00 20.00     0.018 C 
HETATM    7  C7  UNL     1     -36.216  15.495  -7.457  1.00 20.00     0.018 C 
BRANCH   5   8
HETATM    8  C8  UNL     1     -35.867  17.033  -5.456  1.00 20.00     0.007 C 
HETATM    9  C5  UNL     1     -37.328  17.395  -5.692  1.00 20.00     0.006 C 
ENDBRANCH   5   8
ENDBRANCH   3   5
BRANCH   3  10
HETATM   10  O10 UNL     1     -33.162  14.777  -6.780  1.00 20.00    -0.389 OA
HETATM   11  H28 UNL     1     -32.375  14.811  -6.221  1.00 20.00     0.210 HD
ENDBRANCH   3  10
TORSDOF 3
ENDMDL
MODEL 8
REMARK VINA RESULT:      -3.1      1.866      3.015
REMARK  3 active torsions:
REMARK  status: ('A' for Active; 'I' for Inactive)
REMARK    1  A    between atoms: C3_3  and  C9_9 
REMARK    2  A    between atoms: C3_3  and  O10_10 
REMARK    3  A    between atoms: C8_8  and  C9_9 
ROOT
HETATM    1  C1  UNL     1     -43.417  14.224   5.005  1.00 20.00     0.046 A 
HETATM    2  C2  UNL     1     -42.551  15.445   5.165  1.00 20.00     0.019 A 
HETATM    3  C3  UNL     1     -41.924  14.068   5.147  1.00 20.00     0.068 A 
HETATM    4  C4  UNL     1     -42.633  16.268   6.404  1.00 20.00     0.013 C 
ENDROOT
BRANCH   3   5
HETATM    5  C9  UNL     1     -41.335  13.416   6.412  1.00 20.00    -0.017 C 
HETATM    6  C6  UNL     1     -42.495  12.996   7.330  1.00 20.00     0.018 C 
HETATM    7  C7  UNL     1     -40.542  12.166   5.993  1.00 20.00     0.018 C 
BRANCH   5   8
HETATM    8  C8  UNL     1     -40.416  14.453   7.110  1.00 20.00     0.007 C 
HETATM    9  C5  UNL     1     -40.336  14.353   8.628  1.00 20.00     0.006 C 
ENDBRANCH   5   8
ENDBRANCH   3   5
BRANCH   3  10
HETATM   10  O10 UNL     1     -41.212  13.729   3.943  1.00 20.00    -0.389 OA
HETATM   11  H28 UNL     1     -40.354  14.166   4.013  1.00 20.00     0.210 HD
ENDBRANCH   3  10
TORSDOF 3
ENDMDL
MODEL 9
REMARK VINA RESULT:      -3.1     12.898     14.373
REMARK  3 active torsions:
REMARK  status: ('A' for Active; 'I' for Inactive)
REMARK    1  A    between atoms: C3_3  and  C9_9 
REMARK    2  A    between atoms: C3_3  and  O10_10 
REMARK    3  A    between atoms: C8_8  and  C9_9 
ROOT
HETATM    1  C1  UNL     1     -35.622  14.642  -5.426  1.00 20.00     0.046 A 
HETATM    2  C2  UNL     1     -35.531  15.194  -6.824  1.00 20.00     0.019 A 
HETATM    3  C3  UNL     1     -34.522  15.612  -5.778  1.00 20.00     0.068 A 
HETATM    4  C4  UNL     1     -36.579  16.120  -7.337  1.00 20.00     0.013 C 
ENDROOT
BRANCH   3   5
HETATM    5  C9  UNL     1     -34.514  17.023  -5.160  1.00 20.00    -0.017 C 
HETATM    6  C6  UNL     1     -34.303  18.048  -6.286  1.00 20.00     0.018 C 
HETATM    7  C7  UNL     1     -35.879  17.273  -4.496  1.00 20.00     0.018 C 
BRANCH   5   8
HETATM    8  C8  UNL     1     -33.365  17.091  -4.120  1.00 20.00     0.007 C 
HETATM    9  C5  UNL     1     -33.639  16.414  -2.783  1.00 20.00     0.006 C 
ENDBRANCH   5   8
ENDBRANCH   3   5
BRANCH   3  10
HETATM   10  O10 UNL     1     -33.208  15.044  -5.923  1.00 20.00    -0.389 OA
HETATM   11  H28 UNL     1     -33.347  14.120  -6.168  1.00 20.00     0.210 HD
ENDBRANCH   3  10
TORSDOF 3
ENDMDL
