MODEL 1
REMARK VINA RESULT:      -4.3      0.000      0.000
REMARK  3 active torsions:
REMARK  status: ('A' for Active; 'I' for Inactive)
REMARK    1  A    between atoms: C2_2  and  C6_6 
REMARK    2  A    between atoms: C3_3  and  C7_7 
REMARK    3  A    between atoms: C3_3  and  O8_8 
ROOT
HETATM    1  C1  UNL     1     -33.560   8.619   4.498  1.00 20.00     0.045 A 
HETATM    2  C2  UNL     1     -32.418   7.699   4.154  1.00 20.00     0.022 A 
HETATM    3  C3  UNL     1     -33.465   7.264   5.154  1.00 20.00     0.062 A 
ENDROOT
BRANCH   3   4
HETATM    4  C7  UNL     1     -34.479   6.212   4.842  1.00 20.00     0.034 C 
HETATM    5  C5  UNL     1     -34.744   5.292   6.005  1.00 20.00     0.008 C 
ENDBRANCH   3   4
BRANCH   3   6
HETATM    6  O8  UNL     1     -33.045   7.262   6.530  1.00 20.00    -0.389 OA
HETATM    7  H22 UNL     1     -33.227   6.372   6.858  1.00 20.00     0.210 HD
ENDBRANCH   3   6
BRANCH   2   8
HETATM    8  C6  UNL     1     -32.316   7.101   2.793  1.00 20.00     0.003 C 
HETATM    9  C4  UNL     1     -32.196   8.134   1.701  1.00 20.00     0.005 C 
ENDBRANCH   2   8
TORSDOF 3
ENDMDL
MODEL 2
REMARK VINA RESULT:      -4.0      2.169      3.466
REMARK  3 active torsions:
REMARK  status: ('A' for Active; 'I' for Inactive)
REMARK    1  A    between atoms: C2_2  and  C6_6 
REMARK    2  A    between atoms: C3_3  and  C7_7 
REMARK    3  A    between atoms: C3_3  and  O8_8 
ROOT
HETATM    1  C1  UNL     1     -35.411   6.019   4.693  1.00 20.00     0.045 A 
HETATM    2  C2  UNL     1     -34.393   5.904   5.797  1.00 20.00     0.022 A 
HETATM    3  C3  UNL     1     -34.108   5.304   4.438  1.00 20.00     0.062 A 
ENDROOT
BRANCH   3   4
HETATM    4  C7  UNL     1     -33.106   5.892   3.500  1.00 20.00     0.034 C 
HETATM    5  C5  UNL     1     -32.863   5.032   2.288  1.00 20.00     0.008 C 
ENDBRANCH   3   4
BRANCH   3   6
HETATM    6  O8  UNL     1     -34.183   3.868   4.367  1.00 20.00    -0.389 OA
HETATM    7  H22 UNL     1     -34.300   3.659   3.431  1.00 20.00     0.210 HD
ENDBRANCH   3   6
BRANCH   2   8
HETATM    8  C6  UNL     1     -33.686   7.116   6.299  1.00 20.00     0.003 C 
HETATM    9  C4  UNL     1     -34.067   8.371   5.555  1.00 20.00     0.005 C 
ENDBRANCH   2   8
TORSDOF 3
ENDMDL
MODEL 3
REMARK VINA RESULT:      -3.8      1.340      3.337
REMARK  3 active torsions:
REMARK  status: ('A' for Active; 'I' for Inactive)
REMARK    1  A    between atoms: C2_2  and  C6_6 
REMARK    2  A    between atoms: C3_3  and  C7_7 
REMARK    3  A    between atoms: C3_3  and  O8_8 
ROOT
HETATM    1  C1  UNL     1     -33.544   6.674   6.342  1.00 20.00     0.045 A 
HETATM    2  C2  UNL     1     -34.700   6.756   5.380  1.00 20.00     0.022 A 
HETATM    3  C3  UNL     1     -33.536   7.713   5.249  1.00 20.00     0.062 A 
ENDROOT
BRANCH   3   4
HETATM    4  C7  UNL     1     -32.546   7.618   4.136  1.00 20.00     0.034 C 
HETATM    5  C5  UNL     1     -32.590   8.804   3.208  1.00 20.00     0.008 C 
ENDBRANCH   3   4
BRANCH   3   6
HETATM    6  O8  UNL     1     -33.797   9.066   5.667  1.00 20.00    -0.389 OA
HETATM    7  H22 UNL     1     -33.921   9.572   4.853  1.00 20.00     0.210 HD
ENDBRANCH   3   6
BRANCH   2   8
HETATM    8  C6  UNL     1     -34.945   5.658   4.403  1.00 20.00     0.003 C 
HETATM    9  C4  UNL     1     -34.175   4.402   4.721  1.00 20.00     0.005 C 
ENDBRANCH   2   8
TORSDOF 3
ENDMDL
MODEL 4
REMARK VINA RESULT:      -3.8      1.407      1.952
REMARK  3 active torsions:
REMARK  status: ('A' for Active; 'I' for Inactive)
REMARK    1  A    between atoms: C2_2  and  C6_6 
REMARK    2  A    between atoms: C3_3  and  C7_7 
REMARK    3  A    between atoms: C3_3  and  O8_8 
ROOT
HETATM    1  C1  UNL     1     -32.707   8.800   2.971  1.00 20.00     0.045 A 
HETATM    2  C2  UNL     1     -32.247   7.371   3.090  1.00 20.00     0.022 A 
HETATM    3  C3  UNL     1     -32.792   8.095   4.301  1.00 20.00     0.062 A 
ENDROOT
BRANCH   3   4
HETATM    4  C7  UNL     1     -34.125   7.772   4.891  1.00 20.00     0.034 C 
HETATM    5  C5  UNL     1     -34.024   7.019   6.191  1.00 20.00     0.008 C 
ENDBRANCH   3   4
BRANCH   3   6
HETATM    6  O8  UNL     1     -31.813   8.486   5.282  1.00 20.00    -0.389 OA
HETATM    7  H22 UNL     1     -31.506   7.664   5.686  1.00 20.00     0.210 HD
ENDBRANCH   3   6
BRANCH   2   8
HETATM    8  C6  UNL     1     -32.996   6.279   2.408  1.00 20.00     0.003 C 
HETATM    9  C4  UNL     1     -32.728   4.919   3.001  1.00 20.00     0.005 C 
ENDBRANCH   2   8
TORSDOF 3
ENDMDL
MODEL 5
REMARK VINA RESULT:      -3.8      1.845      2.481
REMARK  3 active torsions:
REMARK  status: ('A' for Active; 'I' for Inactive)
REMARK    1  A    between atoms: C2_2  and  C6_6 
REMARK    2  A    between atoms: C3_3  and  C7_7 
REMARK    3  A    between atoms: C3_3  and  O8_8 
ROOT
HETATM    1  C1  UNL     1     -33.759   4.718   3.646  1.00 20.00     0.045 A 
HETATM    2  C2  UNL     1     -33.713   6.209   3.435  1.00 20.00     0.022 A 
HETATM    3  C3  UNL     1     -34.464   5.634   4.615  1.00 20.00     0.062 A 
ENDROOT
BRANCH   3   4
HETATM    4  C7  UNL     1     -33.966   5.763   6.017  1.00 20.00     0.034 C 
HETATM    5  C5  UNL     1     -34.301   7.093   6.639  1.00 20.00     0.008 C 
ENDBRANCH   3   4
BRANCH   3   6
HETATM    6  O8  UNL     1     -35.899   5.670   4.513  1.00 20.00    -0.389 OA
HETATM    7  H22 UNL     1     -36.124   6.588   4.312  1.00 20.00     0.210 HD
ENDBRANCH   3   6
BRANCH   2   8
HETATM    8  C6  UNL     1     -32.431   6.952   3.589  1.00 20.00     0.003 C 
HETATM    9  C4  UNL     1     -32.610   8.449   3.577  1.00 20.00     0.005 C 
ENDBRANCH   2   8
TORSDOF 3
ENDMDL
MODEL 6
REMARK VINA RESULT:      -3.8      1.563      3.656
REMARK  3 active torsions:
REMARK  status: ('A' for Active; 'I' for Inactive)
REMARK    1  A    between atoms: C2_2  and  C6_6 
REMARK    2  A    between atoms: C3_3  and  C7_7 
REMARK    3  A    between atoms: C3_3  and  O8_8 
ROOT
HETATM    1  C1  UNL     1     -32.542   8.170   5.344  1.00 20.00     0.045 A 
HETATM    2  C2  UNL     1     -33.912   7.852   4.805  1.00 20.00     0.022 A 
HETATM    3  C3  UNL     1     -32.793   8.221   3.858  1.00 20.00     0.062 A 
ENDROOT
BRANCH   3   4
HETATM    4  C7  UNL     1     -32.146   7.221   2.958  1.00 20.00     0.034 C 
HETATM    5  C5  UNL     1     -32.085   7.676   1.523  1.00 20.00     0.008 C 
ENDBRANCH   3   4
BRANCH   3   6
HETATM    6  O8  UNL     1     -32.878   9.537   3.281  1.00 20.00    -0.389 OA
HETATM    7  H22 UNL     1     -32.117  10.023   3.624  1.00 20.00     0.210 HD
ENDBRANCH   3   6
BRANCH   2   8
HETATM    8  C6  UNL     1     -34.455   6.467   4.899  1.00 20.00     0.003 C 
HETATM    9  C4  UNL     1     -34.475   5.935   6.309  1.00 20.00     0.005 C 
ENDBRANCH   2   8
TORSDOF 3
ENDMDL
MODEL 7
REMARK VINA RESULT:      -3.7     11.717     13.010
REMARK  3 active torsions:
REMARK  status: ('A' for Active; 'I' for Inactive)
REMARK    1  A    between atoms: C2_2  and  C6_6 
REMARK    2  A    between atoms: C3_3  and  C7_7 
REMARK    3  A    between atoms: C3_3  and  O8_8 
ROOT
HETATM    1  C1  UNL     1     -34.135  14.384  -4.124  1.00 20.00     0.045 A 
HETATM    2  C2  UNL     1     -33.389  15.690  -4.199  1.00 20.00     0.022 A 
HETATM    3  C3  UNL     1     -34.121  15.165  -5.414  1.00 20.00     0.062 A 
ENDROOT
BRANCH   3   4
HETATM    4  C7  UNL     1     -35.379  15.791  -5.920  1.00 20.00     0.034 C 
HETATM    5  C5  UNL     1     -35.780  15.284  -7.280  1.00 20.00     0.008 C 
ENDBRANCH   3   4
BRANCH   3   6
HETATM    6  O8  UNL     1     -33.286  14.635  -6.460  1.00 20.00    -0.389 OA
HETATM    7  H22 UNL     1     -33.675  13.784  -6.699  1.00 20.00     0.210 HD
ENDBRANCH   3   6
BRANCH   2   8
HETATM    8  C6  UNL     1     -33.865  16.874  -3.430  1.00 20.00     0.003 C 
HETATM    9  C4  UNL     1     -33.390  16.877  -1.999  1.00 20.00     0.005 C 
ENDBRANCH   2   8
TORSDOF 3
ENDMDL
MODEL 8
REMARK VINA RESULT:      -3.5      1.862      3.912
REMARK  3 active torsions:
REMARK  status: ('A' for Active; 'I' for Inactive)
REMARK    1  A    between atoms: C2_2  and  C6_6 
REMARK    2  A    between atoms: C3_3  and  C7_7 
REMARK    3  A    between atoms: C3_3  and  O8_8 
ROOT
HETATM    1  C1  UNL     1     -35.303   5.897   4.210  1.00 20.00     0.045 A 
HETATM    2  C2  UNL     1     -34.397   5.040   5.054  1.00 20.00     0.022 A 
HETATM    3  C3  UNL     1     -33.823   5.859   3.919  1.00 20.00     0.062 A 
ENDROOT
BRANCH   3   4
HETATM    4  C7  UNL     1     -32.985   7.072   4.155  1.00 20.00     0.034 C 
HETATM    5  C5  UNL     1     -32.202   7.489   2.938  1.00 20.00     0.008 C 
ENDBRANCH   3   4
BRANCH   3   6
HETATM    6  O8  UNL     1     -33.432   5.112   2.753  1.00 20.00    -0.389 OA
HETATM    7  H22 UNL     1     -32.931   4.355   3.082  1.00 20.00     0.210 HD
ENDBRANCH   3   6
BRANCH   2   8
HETATM    8  C6  UNL     1     -34.157   5.380   6.485  1.00 20.00     0.003 C 
HETATM    9  C4  UNL     1     -34.515   6.805   6.821  1.00 20.00     0.005 C 
ENDBRANCH   2   8
TORSDOF 3
ENDMDL
MODEL 9
REMARK VINA RESULT:      -3.5      9.229     10.447
REMARK  3 active torsions:
REMARK  status: ('A' for Active; 'I' for Inactive)
REMARK    1  A    between atoms: C2_2  and  C6_6 
REMARK    2  A    between atoms: C3_3  and  C7_7 
REMARK    3  A    between atoms: C3_3  and  O8_8 
ROOT
HETATM    1  C1  UNL     1     -41.684  13.962   5.630  1.00 20.00     0.045 A 
HETATM    2  C2  UNL     1     -41.391  14.194   7.089  1.00 20.00     0.022 A 
HETATM    3  C3  UNL     1     -41.078  12.856   6.457  1.00 20.00     0.062 A 
ENDROOT
BRANCH   3   4
HETATM    4  C7  UNL     1     -39.680  12.406   6.192  1.00 20.00     0.034 C 
HETATM    5  C5  UNL     1     -39.506  11.810   4.820  1.00 20.00     0.008 C 
ENDBRANCH   3   4
BRANCH   3   6
HETATM    6  O8  UNL     1     -41.967  11.781   6.813  1.00 20.00    -0.389 OA
HETATM    7  H22 UNL     1     -41.981  11.190   6.049  1.00 20.00     0.210 HD
ENDBRANCH   3   6
BRANCH   2   8
HETATM    8  C6  UNL     1     -40.326  15.152   7.500  1.00 20.00     0.003 C 
HETATM    9  C4  UNL     1     -40.251  15.346   8.993  1.00 20.00     0.005 C 
ENDBRANCH   2   8
TORSDOF 3
ENDMDL
