MODEL 1
REMARK VINA RESULT:      -5.1      0.000      0.000
REMARK  2 active torsions:
REMARK  status: ('A' for Active; 'I' for Inactive)
REMARK    1  A    between atoms: C3_3  and  C6_6 
REMARK    2  A    between atoms: C6_6  and  O9_9 
ROOT
HETATM    1  C2  UNL     1     -33.347   8.827   4.372  1.00 20.00     0.045 A 
HETATM    2  C5  UNL     1     -32.243   7.904   3.920  1.00 20.00     0.019 A 
HETATM    3  C6  UNL     1     -33.346   7.386   4.817  1.00 20.00     0.066 A 
HETATM    4  C8  UNL     1     -32.141   7.505   2.489  1.00 20.00     0.013 C 
ENDROOT
BRANCH   3   5
HETATM    5  C3  UNL     1     -34.418   6.396   4.372  1.00 20.00     0.024 A 
HETATM    6  C1  UNL     1     -34.141   4.927   4.182  1.00 20.00     0.012 A 
HETATM    7  C4  UNL     1     -35.071   5.378   5.278  1.00 20.00    -0.011 A 
HETATM    8  C7  UNL     1     -34.675   5.226   6.706  1.00 20.00     0.010 C 
ENDBRANCH   3   5
BRANCH   3   9
HETATM    9  O9  UNL     1     -32.941   7.191   6.193  1.00 20.00    -0.389 OA
HETATM   10  H23 UNL     1     -32.789   8.076   6.542  1.00 20.00     0.210 HD
ENDBRANCH   3   9
TORSDOF 2
ENDMDL
MODEL 2
REMARK VINA RESULT:      -5.0      1.360      3.894
REMARK  2 active torsions:
REMARK  status: ('A' for Active; 'I' for Inactive)
REMARK    1  A    between atoms: C3_3  and  C6_6 
REMARK    2  A    between atoms: C6_6  and  O9_9 
ROOT
HETATM    1  C2  UNL     1     -35.437   5.836   4.286  1.00 20.00     0.045 A 
HETATM    2  C5  UNL     1     -34.468   5.390   5.351  1.00 20.00     0.019 A 
HETATM    3  C6  UNL     1     -34.003   6.301   4.236  1.00 20.00     0.066 A 
HETATM    4  C8  UNL     1     -34.621   5.876   6.751  1.00 20.00     0.013 C 
ENDROOT
BRANCH   3   5
HETATM    5  C3  UNL     1     -33.615   7.764   4.431  1.00 20.00     0.024 A 
HETATM    6  C1  UNL     1     -32.217   8.193   4.794  1.00 20.00     0.012 A 
HETATM    7  C4  UNL     1     -32.790   8.567   3.452  1.00 20.00    -0.011 A 
HETATM    8  C7  UNL     1     -32.237   7.963   2.208  1.00 20.00     0.010 C 
ENDBRANCH   3   5
BRANCH   3   9
HETATM    9  O9  UNL     1     -33.199   5.637   3.233  1.00 20.00    -0.389 OA
HETATM   10  H23 UNL     1     -32.305   5.622   3.593  1.00 20.00     0.210 HD
ENDBRANCH   3   9
TORSDOF 2
ENDMDL
MODEL 3
REMARK VINA RESULT:      -4.9     15.571     16.494
REMARK  2 active torsions:
REMARK  status: ('A' for Active; 'I' for Inactive)
REMARK    1  A    between atoms: C3_3  and  C6_6 
REMARK    2  A    between atoms: C6_6  and  O9_9 
ROOT
HETATM    1  C2  UNL     1     -21.606  18.898   9.039  1.00 20.00     0.045 A 
HETATM    2  C5  UNL     1     -22.488  18.416   7.916  1.00 20.00     0.019 A 
HETATM    3  C6  UNL     1     -22.530  17.728   9.263  1.00 20.00     0.066 A 
HETATM    4  C8  UNL     1     -23.613  19.263   7.431  1.00 20.00     0.013 C 
ENDROOT
BRANCH   3   5
HETATM    5  C3  UNL     1     -23.714  17.797  10.223  1.00 20.00     0.024 A 
HETATM    6  C1  UNL     1     -23.961  16.759  11.287  1.00 20.00     0.012 A 
HETATM    7  C4  UNL     1     -23.608  18.168  11.685  1.00 20.00    -0.011 A 
HETATM    8  C7  UNL     1     -22.298  18.457  12.331  1.00 20.00     0.010 C 
ENDBRANCH   3   5
BRANCH   3   9
HETATM    9  O9  UNL     1     -21.864  16.443   9.287  1.00 20.00    -0.389 OA
HETATM   10  H23 UNL     1     -21.831  16.191  10.216  1.00 20.00     0.210 HD
ENDBRANCH   3   9
TORSDOF 2
ENDMDL
MODEL 4
REMARK VINA RESULT:      -4.8      9.138     10.128
REMARK  2 active torsions:
REMARK  status: ('A' for Active; 'I' for Inactive)
REMARK    1  A    between atoms: C3_3  and  C6_6 
REMARK    2  A    between atoms: C6_6  and  O9_9 
ROOT
HETATM    1  C2  UNL     1     -39.389  12.418   6.576  1.00 20.00     0.045 A 
HETATM    2  C5  UNL     1     -39.742  11.521   5.417  1.00 20.00     0.019 A 
HETATM    3  C6  UNL     1     -40.782  12.453   6.000  1.00 20.00     0.066 A 
HETATM    4  C8  UNL     1     -39.137  11.758   4.076  1.00 20.00     0.013 C 
ENDROOT
BRANCH   3   5
HETATM    5  C3  UNL     1     -41.334  13.679   5.278  1.00 20.00     0.024 A 
HETATM    6  C1  UNL     1     -42.788  14.069   5.332  1.00 20.00     0.012 A 
HETATM    7  C4  UNL     1     -41.750  14.959   5.965  1.00 20.00    -0.011 A 
HETATM    8  C7  UNL     1     -41.698  15.112   7.446  1.00 20.00     0.010 C 
ENDBRANCH   3   5
BRANCH   3   9
HETATM    9  O9  UNL     1     -41.777  11.787   6.812  1.00 20.00    -0.389 OA
HETATM   10  H23 UNL     1     -41.732  10.858   6.559  1.00 20.00     0.210 HD
ENDBRANCH   3   9
TORSDOF 2
ENDMDL
MODEL 5
REMARK VINA RESULT:      -4.6     12.418     14.195
REMARK  2 active torsions:
REMARK  status: ('A' for Active; 'I' for Inactive)
REMARK    1  A    between atoms: C3_3  and  C6_6 
REMARK    2  A    between atoms: C6_6  and  O9_9 
ROOT
HETATM    1  C2  UNL     1     -34.550  14.373  -4.497  1.00 20.00     0.045 A 
HETATM    2  C5  UNL     1     -33.310  15.154  -4.145  1.00 20.00     0.019 A 
HETATM    3  C6  UNL     1     -33.960  15.332  -5.500  1.00 20.00     0.066 A 
HETATM    4  C8  UNL     1     -33.365  16.215  -3.101  1.00 20.00     0.013 C 
ENDROOT
BRANCH   3   5
HETATM    5  C3  UNL     1     -34.687  16.599  -5.940  1.00 20.00     0.024 A 
HETATM    6  C1  UNL     1     -34.439  17.259  -7.271  1.00 20.00     0.012 A 
HETATM    7  C4  UNL     1     -35.780  16.638  -6.983  1.00 20.00    -0.011 A 
HETATM    8  C7  UNL     1     -36.213  15.416  -7.717  1.00 20.00     0.010 C 
ENDBRANCH   3   5
BRANCH   3   9
HETATM    9  O9  UNL     1     -33.244  14.692  -6.583  1.00 20.00    -0.389 OA
HETATM   10  H23 UNL     1     -33.871  14.653  -7.314  1.00 20.00     0.210 HD
ENDBRANCH   3   9
TORSDOF 2
ENDMDL
MODEL 6
REMARK VINA RESULT:      -4.5     12.323     13.311
REMARK  2 active torsions:
REMARK  status: ('A' for Active; 'I' for Inactive)
REMARK    1  A    between atoms: C3_3  and  C6_6 
REMARK    2  A    between atoms: C6_6  and  O9_9 
ROOT
HETATM    1  C2  UNL     1     -35.014  16.893  -4.362  1.00 20.00     0.045 A 
HETATM    2  C5  UNL     1     -33.894  15.940  -4.695  1.00 20.00     0.019 A 
HETATM    3  C6  UNL     1     -33.653  17.092  -3.743  1.00 20.00     0.066 A 
HETATM    4  C8  UNL     1     -33.948  14.528  -4.222  1.00 20.00     0.013 C 
ENDROOT
BRANCH   3   5
HETATM    5  C3  UNL     1     -33.408  16.929  -2.246  1.00 20.00     0.024 A 
HETATM    6  C1  UNL     1     -32.519  17.858  -1.461  1.00 20.00     0.012 A 
HETATM    7  C4  UNL     1     -33.999  17.823  -1.181  1.00 20.00    -0.011 A 
HETATM    8  C7  UNL     1     -34.854  18.995  -1.521  1.00 20.00     0.010 C 
ENDBRANCH   3   5
BRANCH   3   9
HETATM    9  O9  UNL     1     -32.893  18.180  -4.320  1.00 20.00    -0.389 OA
HETATM   10  H23 UNL     1     -32.149  17.761  -4.768  1.00 20.00     0.210 HD
ENDBRANCH   3   9
TORSDOF 2
ENDMDL
MODEL 7
REMARK VINA RESULT:      -4.4      1.313      3.561
REMARK  2 active torsions:
REMARK  status: ('A' for Active; 'I' for Inactive)
REMARK    1  A    between atoms: C3_3  and  C6_6 
REMARK    2  A    between atoms: C6_6  and  O9_9 
ROOT
HETATM    1  C2  UNL     1     -34.126   6.453   6.210  1.00 20.00     0.045 A 
HETATM    2  C5  UNL     1     -34.801   5.665   5.117  1.00 20.00     0.019 A 
HETATM    3  C6  UNL     1     -34.089   6.960   4.790  1.00 20.00     0.066 A 
HETATM    4  C8  UNL     1     -34.257   4.342   4.703  1.00 20.00     0.013 C 
ENDROOT
BRANCH   3   5
HETATM    5  C3  UNL     1     -32.793   7.045   3.990  1.00 20.00     0.024 A 
HETATM    6  C1  UNL     1     -32.605   8.007   2.846  1.00 20.00     0.012 A 
HETATM    7  C4  UNL     1     -31.791   8.172   4.103  1.00 20.00    -0.011 A 
HETATM    8  C7  UNL     1     -32.020   9.343   4.995  1.00 20.00     0.010 C 
ENDBRANCH   3   5
BRANCH   3   9
HETATM    9  O9  UNL     1     -34.980   8.071   4.534  1.00 20.00    -0.389 OA
HETATM   10  H23 UNL     1     -35.607   8.069   5.266  1.00 20.00     0.210 HD
ENDBRANCH   3   9
TORSDOF 2
ENDMDL
MODEL 8
REMARK VINA RESULT:      -4.4      8.903     10.019
REMARK  2 active torsions:
REMARK  status: ('A' for Active; 'I' for Inactive)
REMARK    1  A    between atoms: C3_3  and  C6_6 
REMARK    2  A    between atoms: C6_6  and  O9_9 
ROOT
HETATM    1  C2  UNL     1     -42.006  13.842   5.181  1.00 20.00     0.045 A 
HETATM    2  C5  UNL     1     -42.069  14.351   6.598  1.00 20.00     0.019 A 
HETATM    3  C6  UNL     1     -41.233  13.135   6.265  1.00 20.00     0.066 A 
HETATM    4  C8  UNL     1     -41.450  15.659   6.952  1.00 20.00     0.013 C 
ENDROOT
BRANCH   3   5
HETATM    5  C3  UNL     1     -39.707  13.112   6.294  1.00 20.00     0.024 A 
HETATM    6  C1  UNL     1     -38.920  11.914   6.758  1.00 20.00     0.012 A 
HETATM    7  C4  UNL     1     -38.846  12.345   5.317  1.00 20.00    -0.011 A 
HETATM    8  C7  UNL     1     -39.436  11.491   4.248  1.00 20.00     0.010 C 
ENDBRANCH   3   5
BRANCH   3   9
HETATM    9  O9  UNL     1     -41.820  11.884   6.693  1.00 20.00    -0.389 OA
HETATM   10  H23 UNL     1     -42.244  11.520   5.908  1.00 20.00     0.210 HD
ENDBRANCH   3   9
TORSDOF 2
ENDMDL
MODEL 9
REMARK VINA RESULT:      -4.3     12.027     13.264
REMARK  2 active torsions:
REMARK  status: ('A' for Active; 'I' for Inactive)
REMARK    1  A    between atoms: C3_3  and  C6_6 
REMARK    2  A    between atoms: C6_6  and  O9_9 
ROOT
HETATM    1  C2  UNL     1     -33.444  18.207  -4.048  1.00 20.00     0.045 A 
HETATM    2  C5  UNL     1     -33.873  17.926  -2.630  1.00 20.00     0.019 A 
HETATM    3  C6  UNL     1     -34.211  16.947  -3.734  1.00 20.00     0.066 A 
HETATM    4  C8  UNL     1     -32.854  17.616  -1.589  1.00 20.00     0.013 C 
ENDROOT
BRANCH   3   5
HETATM    5  C3  UNL     1     -33.588  15.561  -3.868  1.00 20.00     0.024 A 
HETATM    6  C1  UNL     1     -34.411  14.315  -4.074  1.00 20.00     0.012 A 
HETATM    7  C4  UNL     1     -33.487  14.791  -5.165  1.00 20.00    -0.011 A 
HETATM    8  C7  UNL     1     -34.046  15.321  -6.441  1.00 20.00     0.010 C 
ENDBRANCH   3   5
BRANCH   3   9
HETATM    9  O9  UNL     1     -35.599  16.979  -4.142  1.00 20.00    -0.389 OA
HETATM   10  H23 UNL     1     -35.728  17.849  -4.536  1.00 20.00     0.210 HD
ENDBRANCH   3   9
TORSDOF 2
ENDMDL
