MODEL 1
REMARK VINA RESULT:      -4.7      0.000      0.000
REMARK  2 active torsions:
REMARK  status: ('A' for Active; 'I' for Inactive)
REMARK    1  A    between atoms: C3_3  and  C6_6 
REMARK    2  A    between atoms: C6_6  and  O9_9 
ROOT
HETATM    1  C2  UNL     1     -35.348   6.022   4.174  1.00 20.00     0.045 A 
HETATM    2  C5  UNL     1     -34.666   5.122   5.171  1.00 20.00     0.019 A 
HETATM    3  C6  UNL     1     -33.890   5.679   3.998  1.00 20.00     0.066 A 
HETATM    4  C8  UNL     1     -34.430   5.591   6.565  1.00 20.00     0.013 C 
ENDROOT
BRANCH   3   5
HETATM    5  C3  UNL     1     -32.787   6.726   4.120  1.00 20.00     0.024 A 
HETATM    6  C1  UNL     1     -32.318   7.552   2.950  1.00 20.00     0.012 A 
HETATM    7  C4  UNL     1     -33.070   8.206   4.082  1.00 20.00    -0.011 A 
HETATM    8  C7  UNL     1     -32.367   9.131   5.013  1.00 20.00     0.010 C 
ENDBRANCH   3   5
BRANCH   3   9
HETATM    9  O9  UNL     1     -33.631   4.713   2.953  1.00 20.00    -0.389 OA
HETATM   10  H23 UNL     1     -33.172   5.203   2.260  1.00 20.00     0.210 HD
ENDBRANCH   3   9
TORSDOF 2
ENDMDL
MODEL 2
REMARK VINA RESULT:      -4.5      2.118      3.925
REMARK  2 active torsions:
REMARK  status: ('A' for Active; 'I' for Inactive)
REMARK    1  A    between atoms: C3_3  and  C6_6 
REMARK    2  A    between atoms: C6_6  and  O9_9 
ROOT
HETATM    1  C2  UNL     1     -33.326   8.779   3.645  1.00 20.00     0.045 A 
HETATM    2  C5  UNL     1     -32.101   7.955   3.343  1.00 20.00     0.019 A 
HETATM    3  C6  UNL     1     -32.568   8.123   4.772  1.00 20.00     0.066 A 
HETATM    4  C8  UNL     1     -32.229   6.659   2.620  1.00 20.00     0.013 C 
ENDROOT
BRANCH   3   5
HETATM    5  C3  UNL     1     -33.170   7.001   5.613  1.00 20.00     0.024 A 
HETATM    6  C1  UNL     1     -34.276   7.237   6.608  1.00 20.00     0.012 A 
HETATM    7  C4  UNL     1     -34.546   6.446   5.353  1.00 20.00    -0.011 A 
HETATM    8  C7  UNL     1     -34.793   4.980   5.430  1.00 20.00     0.010 C 
ENDBRANCH   3   5
BRANCH   3   9
HETATM    9  O9  UNL     1     -31.759   9.034   5.551  1.00 20.00    -0.389 OA
HETATM   10  H23 UNL     1     -32.387   9.603   6.011  1.00 20.00     0.210 HD
ENDBRANCH   3   9
TORSDOF 2
ENDMDL
MODEL 3
REMARK VINA RESULT:      -4.4      1.633      2.472
REMARK  2 active torsions:
REMARK  status: ('A' for Active; 'I' for Inactive)
REMARK    1  A    between atoms: C3_3  and  C6_6 
REMARK    2  A    between atoms: C6_6  and  O9_9 
ROOT
HETATM    1  C2  UNL     1     -33.905   4.555   4.912  1.00 20.00     0.045 A 
HETATM    2  C5  UNL     1     -33.979   4.933   3.456  1.00 20.00     0.019 A 
HETATM    3  C6  UNL     1     -34.713   5.756   4.491  1.00 20.00     0.066 A 
HETATM    4  C8  UNL     1     -32.772   5.449   2.752  1.00 20.00     0.013 C 
ENDROOT
BRANCH   3   5
HETATM    5  C3  UNL     1     -34.325   7.178   4.887  1.00 20.00     0.024 A 
HETATM    6  C1  UNL     1     -33.983   7.561   6.304  1.00 20.00     0.012 A 
HETATM    7  C4  UNL     1     -32.912   7.560   5.244  1.00 20.00    -0.011 A 
HETATM    8  C7  UNL     1     -32.334   8.844   4.760  1.00 20.00     0.010 C 
ENDBRANCH   3   5
BRANCH   3   9
HETATM    9  O9  UNL     1     -36.144   5.542   4.506  1.00 20.00    -0.389 OA
HETATM   10  H23 UNL     1     -36.274   4.660   4.138  1.00 20.00     0.210 HD
ENDBRANCH   3   9
TORSDOF 2
ENDMDL
MODEL 4
REMARK VINA RESULT:      -4.3      1.995      2.696
REMARK  2 active torsions:
REMARK  status: ('A' for Active; 'I' for Inactive)
REMARK    1  A    between atoms: C3_3  and  C6_6 
REMARK    2  A    between atoms: C6_6  and  O9_9 
ROOT
HETATM    1  C2  UNL     1     -33.404   5.813   6.301  1.00 20.00     0.045 A 
HETATM    2  C5  UNL     1     -34.839   5.888   5.849  1.00 20.00     0.019 A 
HETATM    3  C6  UNL     1     -34.005   7.147   5.935  1.00 20.00     0.066 A 
HETATM    4  C8  UNL     1     -35.245   5.300   4.541  1.00 20.00     0.013 C 
ENDROOT
BRANCH   3   5
HETATM    5  C3  UNL     1     -33.534   7.946   4.724  1.00 20.00     0.024 A 
HETATM    6  C1  UNL     1     -32.343   8.868   4.772  1.00 20.00     0.012 A 
HETATM    7  C4  UNL     1     -32.281   7.598   3.963  1.00 20.00    -0.011 A 
HETATM    8  C7  UNL     1     -32.263   7.657   2.475  1.00 20.00     0.010 C 
ENDBRANCH   3   5
BRANCH   3   9
HETATM    9  O9  UNL     1     -34.322   7.986   7.070  1.00 20.00    -0.389 OA
HETATM   10  H23 UNL     1     -33.645   7.792   7.728  1.00 20.00     0.210 HD
ENDBRANCH   3   9
TORSDOF 2
ENDMDL
MODEL 5
REMARK VINA RESULT:      -4.2      9.411     10.094
REMARK  2 active torsions:
REMARK  status: ('A' for Active; 'I' for Inactive)
REMARK    1  A    between atoms: C3_3  and  C6_6 
REMARK    2  A    between atoms: C6_6  and  O9_9 
ROOT
HETATM    1  C2  UNL     1     -42.158  14.330   6.254  1.00 20.00     0.045 A 
HETATM    2  C5  UNL     1     -41.491  14.281   7.604  1.00 20.00     0.019 A 
HETATM    3  C6  UNL     1     -41.263  13.168   6.604  1.00 20.00     0.066 A 
HETATM    4  C8  UNL     1     -40.423  15.260   7.949  1.00 20.00     0.013 C 
ENDROOT
BRANCH   3   5
HETATM    5  C3  UNL     1     -39.938  12.918   5.890  1.00 20.00     0.024 A 
HETATM    6  C1  UNL     1     -38.901  11.959   6.416  1.00 20.00     0.012 A 
HETATM    7  C4  UNL     1     -39.649  11.639   5.147  1.00 20.00    -0.011 A 
HETATM    8  C7  UNL     1     -38.948  11.673   3.834  1.00 20.00     0.010 C 
ENDBRANCH   3   5
BRANCH   3   9
HETATM    9  O9  UNL     1     -41.972  11.946   6.913  1.00 20.00    -0.389 OA
HETATM   10  H23 UNL     1     -42.905  12.188   6.922  1.00 20.00     0.210 HD
ENDBRANCH   3   9
TORSDOF 2
ENDMDL
MODEL 6
REMARK VINA RESULT:      -3.9     12.159     13.506
REMARK  2 active torsions:
REMARK  status: ('A' for Active; 'I' for Inactive)
REMARK    1  A    between atoms: C3_3  and  C6_6 
REMARK    2  A    between atoms: C6_6  and  O9_9 
ROOT
HETATM    1  C2  UNL     1     -34.254  14.245  -4.194  1.00 20.00     0.045 A 
HETATM    2  C5  UNL     1     -33.201  15.314  -4.054  1.00 20.00     0.019 A 
HETATM    3  C6  UNL     1     -34.030  15.226  -5.317  1.00 20.00     0.066 A 
HETATM    4  C8  UNL     1     -33.380  16.418  -3.070  1.00 20.00     0.013 C 
ENDROOT
BRANCH   3   5
HETATM    5  C3  UNL     1     -35.084  16.253  -5.722  1.00 20.00     0.024 A 
HETATM    6  C1  UNL     1     -35.930  16.102  -6.960  1.00 20.00     0.012 A 
HETATM    7  C4  UNL     1     -36.561  15.987  -5.596  1.00 20.00    -0.011 A 
HETATM    8  C7  UNL     1     -37.479  17.051  -5.102  1.00 20.00     0.010 C 
ENDBRANCH   3   5
BRANCH   3   9
HETATM    9  O9  UNL     1     -33.318  14.678  -6.450  1.00 20.00    -0.389 OA
HETATM   10  H23 UNL     1     -32.584  14.179  -6.073  1.00 20.00     0.210 HD
ENDBRANCH   3   9
TORSDOF 2
ENDMDL
MODEL 7
REMARK VINA RESULT:      -3.9     12.385     13.821
REMARK  2 active torsions:
REMARK  status: ('A' for Active; 'I' for Inactive)
REMARK    1  A    between atoms: C3_3  and  C6_6 
REMARK    2  A    between atoms: C6_6  and  O9_9 
ROOT
HETATM    1  C2  UNL     1     -34.387  16.941  -7.162  1.00 20.00     0.045 A 
HETATM    2  C5  UNL     1     -35.445  15.885  -7.343  1.00 20.00     0.019 A 
HETATM    3  C6  UNL     1     -34.305  15.658  -6.375  1.00 20.00     0.066 A 
HETATM    4  C8  UNL     1     -36.838  16.131  -6.875  1.00 20.00     0.013 C 
ENDROOT
BRANCH   3   5
HETATM    5  C3  UNL     1     -34.464  15.622  -4.858  1.00 20.00     0.024 A 
HETATM    6  C1  UNL     1     -34.101  14.416  -4.032  1.00 20.00     0.012 A 
HETATM    7  C4  UNL     1     -33.286  15.678  -3.920  1.00 20.00    -0.011 A 
HETATM    8  C7  UNL     1     -33.347  16.504  -2.683  1.00 20.00     0.010 C 
ENDBRANCH   3   5
BRANCH   3   9
HETATM    9  O9  UNL     1     -33.303  14.731  -6.854  1.00 20.00    -0.389 OA
HETATM   10  H23 UNL     1     -33.589  14.482  -7.741  1.00 20.00     0.210 HD
ENDBRANCH   3   9
TORSDOF 2
ENDMDL
MODEL 8
REMARK VINA RESULT:      -3.8      9.628     10.291
REMARK  2 active torsions:
REMARK  status: ('A' for Active; 'I' for Inactive)
REMARK    1  A    between atoms: C3_3  and  C6_6 
REMARK    2  A    between atoms: C6_6  and  O9_9 
ROOT
HETATM    1  C2  UNL     1     -39.258  12.100   6.567  1.00 20.00     0.045 A 
HETATM    2  C5  UNL     1     -39.743  11.483   5.282  1.00 20.00     0.019 A 
HETATM    3  C6  UNL     1     -40.635  12.433   6.050  1.00 20.00     0.066 A 
HETATM    4  C8  UNL     1     -39.119  11.866   3.984  1.00 20.00     0.013 C 
ENDROOT
BRANCH   3   5
HETATM    5  C3  UNL     1     -41.008  13.833   5.572  1.00 20.00     0.024 A 
HETATM    6  C1  UNL     1     -42.262  14.115   4.785  1.00 20.00     0.012 A 
HETATM    7  C4  UNL     1     -42.125  14.629   6.196  1.00 20.00    -0.011 A 
HETATM    8  C7  UNL     1     -41.960  16.087   6.450  1.00 20.00     0.010 C 
ENDBRANCH   3   5
BRANCH   3   9
HETATM    9  O9  UNL     1     -41.710  11.781   6.765  1.00 20.00    -0.389 OA
HETATM   10  H23 UNL     1     -41.283  11.287   7.474  1.00 20.00     0.210 HD
ENDBRANCH   3   9
TORSDOF 2
ENDMDL
MODEL 9
REMARK VINA RESULT:      -3.7      2.001      3.595
REMARK  2 active torsions:
REMARK  status: ('A' for Active; 'I' for Inactive)
REMARK    1  A    between atoms: C3_3  and  C6_6 
REMARK    2  A    between atoms: C6_6  and  O9_9 
ROOT
HETATM    1  C2  UNL     1     -34.443   8.348   4.765  1.00 20.00     0.045 A 
HETATM    2  C5  UNL     1     -33.056   8.482   5.336  1.00 20.00     0.019 A 
HETATM    3  C6  UNL     1     -33.841   7.206   5.542  1.00 20.00     0.066 A 
HETATM    4  C8  UNL     1     -31.875   8.542   4.429  1.00 20.00     0.013 C 
ENDROOT
BRANCH   3   5
HETATM    5  C3  UNL     1     -33.493   5.871   4.889  1.00 20.00     0.024 A 
HETATM    6  C1  UNL     1     -34.523   4.805   4.622  1.00 20.00     0.012 A 
HETATM    7  C4  UNL     1     -33.883   5.539   3.472  1.00 20.00    -0.011 A 
HETATM    8  C7  UNL     1     -32.927   4.836   2.572  1.00 20.00     0.010 C 
ENDBRANCH   3   5
BRANCH   3   9
HETATM    9  O9  UNL     1     -34.371   7.052   6.879  1.00 20.00    -0.389 OA
HETATM   10  H23 UNL     1     -35.330   7.091   6.779  1.00 20.00     0.210 HD
ENDBRANCH   3   9
TORSDOF 2
ENDMDL
