MODEL 1
REMARK VINA RESULT:      -4.6      0.000      0.000
REMARK  3 active torsions:
REMARK  status: ('A' for Active; 'I' for Inactive)
REMARK    1  A    between atoms: C2_2  and  C6_6 
REMARK    2  A    between atoms: C3_3  and  C7_7 
REMARK    3  A    between atoms: C3_3  and  O8_8 
ROOT
HETATM    1  C1  UNL     1     -34.451   6.258   6.301  1.00 20.00     0.045 A 
HETATM    2  C2  UNL     1     -34.163   7.279   5.232  1.00 20.00     0.022 A 
HETATM    3  C3  UNL     1     -34.579   5.876   4.848  1.00 20.00     0.062 A 
ENDROOT
BRANCH   3   4
HETATM    4  C7  UNL     1     -33.625   4.898   4.248  1.00 20.00     0.034 C 
HETATM    5  C5  UNL     1     -33.372   5.146   2.784  1.00 20.00     0.008 C 
ENDBRANCH   3   4
BRANCH   3   6
HETATM    6  O8  UNL     1     -35.923   5.744   4.350  1.00 20.00    -0.389 OA
HETATM    7  H22 UNL     1     -36.060   6.497   3.761  1.00 20.00     0.210 HD
ENDBRANCH   3   6
BRANCH   2   8
HETATM    8  C6  UNL     1     -32.775   7.784   5.028  1.00 20.00     0.003 C 
HETATM    9  C4  UNL     1     -32.640   8.666   3.813  1.00 20.00     0.005 C 
ENDBRANCH   2   8
TORSDOF 3
ENDMDL
MODEL 2
REMARK VINA RESULT:      -4.4      2.194      3.353
REMARK  3 active torsions:
REMARK  status: ('A' for Active; 'I' for Inactive)
REMARK    1  A    between atoms: C2_2  and  C6_6 
REMARK    2  A    between atoms: C3_3  and  C7_7 
REMARK    3  A    between atoms: C3_3  and  O8_8 
ROOT
HETATM    1  C1  UNL     1     -34.008   8.587   4.482  1.00 20.00     0.045 A 
HETATM    2  C2  UNL     1     -33.736   7.394   5.361  1.00 20.00     0.022 A 
HETATM    3  C3  UNL     1     -32.677   7.882   4.396  1.00 20.00     0.062 A 
ENDROOT
BRANCH   3   4
HETATM    4  C7  UNL     1     -32.313   7.126   3.162  1.00 20.00     0.034 C 
HETATM    5  C5  UNL     1     -32.227   8.002   1.940  1.00 20.00     0.008 C 
ENDBRANCH   3   4
BRANCH   3   6
HETATM    6  O8  UNL     1     -31.564   8.569   4.996  1.00 20.00    -0.389 OA
HETATM    7  H22 UNL     1     -30.801   8.370   4.438  1.00 20.00     0.210 HD
ENDBRANCH   3   6
BRANCH   2   8
HETATM    8  C6  UNL     1     -34.480   6.120   5.151  1.00 20.00     0.003 C 
HETATM    9  C4  UNL     1     -34.543   5.262   6.389  1.00 20.00     0.005 C 
ENDBRANCH   2   8
TORSDOF 3
ENDMDL
MODEL 3
REMARK VINA RESULT:      -4.1      1.425      2.900
REMARK  3 active torsions:
REMARK  status: ('A' for Active; 'I' for Inactive)
REMARK    1  A    between atoms: C2_2  and  C6_6 
REMARK    2  A    between atoms: C3_3  and  C7_7 
REMARK    3  A    between atoms: C3_3  and  O8_8 
ROOT
HETATM    1  C1  UNL     1     -35.471   6.209   4.408  1.00 20.00     0.045 A 
HETATM    2  C2  UNL     1     -34.296   5.287   4.212  1.00 20.00     0.022 A 
HETATM    3  C3  UNL     1     -34.557   5.904   5.569  1.00 20.00     0.062 A 
ENDROOT
BRANCH   3   4
HETATM    4  C7  UNL     1     -33.691   6.978   6.137  1.00 20.00     0.034 C 
HETATM    5  C5  UNL     1     -33.930   8.323   5.502  1.00 20.00     0.008 C 
ENDBRANCH   3   4
BRANCH   3   6
HETATM    6  O8  UNL     1     -35.086   5.008   6.564  1.00 20.00    -0.389 OA
HETATM    7  H22 UNL     1     -34.470   4.264   6.600  1.00 20.00     0.210 HD
ENDBRANCH   3   6
BRANCH   2   8
HETATM    8  C6  UNL     1     -33.149   5.702   3.355  1.00 20.00     0.003 C 
HETATM    9  C4  UNL     1     -32.874   4.738   2.229  1.00 20.00     0.005 C 
ENDBRANCH   2   8
TORSDOF 3
ENDMDL
MODEL 4
REMARK VINA RESULT:      -4.1      1.628      3.039
REMARK  3 active torsions:
REMARK  status: ('A' for Active; 'I' for Inactive)
REMARK    1  A    between atoms: C2_2  and  C6_6 
REMARK    2  A    between atoms: C3_3  and  C7_7 
REMARK    3  A    between atoms: C3_3  and  O8_8 
ROOT
HETATM    1  C1  UNL     1     -35.055   5.995   5.904  1.00 20.00     0.045 A 
HETATM    2  C2  UNL     1     -33.951   5.430   5.049  1.00 20.00     0.022 A 
HETATM    3  C3  UNL     1     -33.797   6.795   5.682  1.00 20.00     0.062 A 
ENDROOT
BRANCH   3   4
HETATM    4  C7  UNL     1     -33.846   8.055   4.884  1.00 20.00     0.034 C 
HETATM    5  C5  UNL     1     -32.494   8.699   4.720  1.00 20.00     0.008 C 
ENDBRANCH   3   4
BRANCH   3   6
HETATM    6  O8  UNL     1     -32.890   6.860   6.798  1.00 20.00    -0.389 OA
HETATM    7  H22 UNL     1     -32.904   5.981   7.199  1.00 20.00     0.210 HD
ENDBRANCH   3   6
BRANCH   2   8
HETATM    8  C6  UNL     1     -34.153   5.249   3.583  1.00 20.00     0.003 C 
HETATM    9  C4  UNL     1     -32.859   5.174   2.814  1.00 20.00     0.005 C 
ENDBRANCH   2   8
TORSDOF 3
ENDMDL
MODEL 5
REMARK VINA RESULT:      -3.8     11.992     12.776
REMARK  3 active torsions:
REMARK  status: ('A' for Active; 'I' for Inactive)
REMARK    1  A    between atoms: C2_2  and  C6_6 
REMARK    2  A    between atoms: C3_3  and  C7_7 
REMARK    3  A    between atoms: C3_3  and  O8_8 
ROOT
HETATM    1  C1  UNL     1     -32.892  14.639  -4.423  1.00 20.00     0.045 A 
HETATM    2  C2  UNL     1     -33.702  15.370  -3.384  1.00 20.00     0.022 A 
HETATM    3  C3  UNL     1     -34.386  14.762  -4.589  1.00 20.00     0.062 A 
ENDROOT
BRANCH   3   4
HETATM    4  C7  UNL     1     -34.946  15.594  -5.693  1.00 20.00     0.034 C 
HETATM    5  C5  UNL     1     -34.202  15.424  -6.992  1.00 20.00     0.008 C 
ENDBRANCH   3   4
BRANCH   3   6
HETATM    6  O8  UNL     1     -35.146  13.567  -4.330  1.00 20.00    -0.389 OA
HETATM    7  H22 UNL     1     -36.032  13.741  -4.672  1.00 20.00     0.210 HD
ENDBRANCH   3   6
BRANCH   2   8
HETATM    8  C6  UNL     1     -33.550  16.843  -3.213  1.00 20.00     0.003 C 
HETATM    9  C4  UNL     1     -33.432  17.260  -1.769  1.00 20.00     0.005 C 
ENDBRANCH   2   8
TORSDOF 3
ENDMDL
MODEL 6
REMARK VINA RESULT:      -3.8     12.391     13.022
REMARK  3 active torsions:
REMARK  status: ('A' for Active; 'I' for Inactive)
REMARK    1  A    between atoms: C2_2  and  C6_6 
REMARK    2  A    between atoms: C3_3  and  C7_7 
REMARK    3  A    between atoms: C3_3  and  O8_8 
ROOT
HETATM    1  C1  UNL     1     -34.077  18.867  -1.273  1.00 20.00     0.045 A 
HETATM    2  C2  UNL     1     -33.727  17.411  -1.430  1.00 20.00     0.022 A 
HETATM    3  C3  UNL     1     -33.094  18.228  -0.325  1.00 20.00     0.062 A 
ENDROOT
BRANCH   3   4
HETATM    4  C7  UNL     1     -31.658  18.634  -0.356  1.00 20.00     0.034 C 
HETATM    5  C5  UNL     1     -30.968  18.450   0.971  1.00 20.00     0.008 C 
ENDBRANCH   3   4
BRANCH   3   6
HETATM    6  O8  UNL     1     -33.585  17.960   1.001  1.00 20.00    -0.389 OA
HETATM    7  H22 UNL     1     -34.539  17.843   0.909  1.00 20.00     0.210 HD
ENDBRANCH   3   6
BRANCH   2   8
HETATM    8  C6  UNL     1     -32.958  16.946  -2.620  1.00 20.00     0.003 C 
HETATM    9  C4  UNL     1     -33.625  15.805  -3.344  1.00 20.00     0.005 C 
ENDBRANCH   2   8
TORSDOF 3
ENDMDL
MODEL 7
REMARK VINA RESULT:      -3.8      8.891      9.971
REMARK  3 active torsions:
REMARK  status: ('A' for Active; 'I' for Inactive)
REMARK    1  A    between atoms: C2_2  and  C6_6 
REMARK    2  A    between atoms: C3_3  and  C7_7 
REMARK    3  A    between atoms: C3_3  and  O8_8 
ROOT
HETATM    1  C1  UNL     1     -41.455  13.310   5.434  1.00 20.00     0.045 A 
HETATM    2  C2  UNL     1     -40.560  12.228   5.980  1.00 20.00     0.022 A 
HETATM    3  C3  UNL     1     -41.086  13.311   6.896  1.00 20.00     0.062 A 
ENDROOT
BRANCH   3   4
HETATM    4  C7  UNL     1     -40.210  14.388   7.443  1.00 20.00     0.034 C 
HETATM    5  C5  UNL     1     -40.309  14.523   8.940  1.00 20.00     0.008 C 
ENDBRANCH   3   4
BRANCH   3   6
HETATM    6  O8  UNL     1     -42.124  12.902   7.805  1.00 20.00    -0.389 OA
HETATM    7  H22 UNL     1     -41.781  13.074   8.691  1.00 20.00     0.210 HD
ENDBRANCH   3   6
BRANCH   2   8
HETATM    8  C6  UNL     1     -39.129  12.156   5.569  1.00 20.00     0.003 C 
HETATM    9  C4  UNL     1     -38.947  11.704   4.142  1.00 20.00     0.005 C 
ENDBRANCH   2   8
TORSDOF 3
ENDMDL
MODEL 8
REMARK VINA RESULT:      -3.7     12.128     12.872
REMARK  3 active torsions:
REMARK  status: ('A' for Active; 'I' for Inactive)
REMARK    1  A    between atoms: C2_2  and  C6_6 
REMARK    2  A    between atoms: C3_3  and  C7_7 
REMARK    3  A    between atoms: C3_3  and  O8_8 
ROOT
HETATM    1  C1  UNL     1     -34.502  16.752  -4.730  1.00 20.00     0.045 A 
HETATM    2  C2  UNL     1     -33.321  16.513  -3.827  1.00 20.00     0.022 A 
HETATM    3  C3  UNL     1     -33.840  15.397  -4.707  1.00 20.00     0.062 A 
ENDROOT
BRANCH   3   4
HETATM    4  C7  UNL     1     -34.573  14.220  -4.154  1.00 20.00     0.034 C 
HETATM    5  C5  UNL     1     -35.862  13.937  -4.880  1.00 20.00     0.008 C 
ENDBRANCH   3   4
BRANCH   3   6
HETATM    6  O8  UNL     1     -33.023  15.078  -5.848  1.00 20.00    -0.389 OA
HETATM    7  H22 UNL     1     -33.099  15.834  -6.444  1.00 20.00     0.210 HD
ENDBRANCH   3   6
BRANCH   2   8
HETATM    8  C6  UNL     1     -33.495  16.508  -2.346  1.00 20.00     0.003 C 
HETATM    9  C4  UNL     1     -32.877  17.708  -1.676  1.00 20.00     0.005 C 
ENDBRANCH   2   8
TORSDOF 3
ENDMDL
MODEL 9
REMARK VINA RESULT:      -3.7     12.033     13.375
REMARK  3 active torsions:
REMARK  status: ('A' for Active; 'I' for Inactive)
REMARK    1  A    between atoms: C2_2  and  C6_6 
REMARK    2  A    between atoms: C3_3  and  C7_7 
REMARK    3  A    between atoms: C3_3  and  O8_8 
ROOT
HETATM    1  C1  UNL     1     -34.398  14.309  -4.144  1.00 20.00     0.045 A 
HETATM    2  C2  UNL     1     -34.212  14.907  -5.514  1.00 20.00     0.022 A 
HETATM    3  C3  UNL     1     -33.313  15.331  -4.374  1.00 20.00     0.062 A 
ENDROOT
BRANCH   3   4
HETATM    4  C7  UNL     1     -33.412  16.678  -3.739  1.00 20.00     0.034 C 
HETATM    5  C5  UNL     1     -33.446  16.616  -2.233  1.00 20.00     0.008 C 
ENDBRANCH   3   4
BRANCH   3   6
HETATM    6  O8  UNL     1     -31.969  14.818  -4.422  1.00 20.00    -0.389 OA
HETATM    7  H22 UNL     1     -31.768  14.699  -5.359  1.00 20.00     0.210 HD
ENDBRANCH   3   6
BRANCH   2   8
HETATM    8  C6  UNL     1     -35.251  15.808  -6.089  1.00 20.00     0.003 C 
HETATM    9  C4  UNL     1     -35.840  15.286  -7.375  1.00 20.00     0.005 C 
ENDBRANCH   2   8
TORSDOF 3
ENDMDL
