MODEL 1
REMARK VINA RESULT:      -4.5      0.000      0.000
REMARK  3 active torsions:
REMARK  status: ('A' for Active; 'I' for Inactive)
REMARK    1  A    between atoms: C1_1  and  C7_7 
REMARK    2  A    between atoms: C1_1  and  C8_8 
REMARK    3  A    between atoms: C8_8  and  C9_9 
ROOT
HETATM    1  C3  UNL     1     -33.588   8.256   5.287  1.00 20.00     0.018 C 
HETATM    2  C8  UNL     1     -33.239   6.845   4.802  1.00 20.00     0.058 C 
ENDROOT
BRANCH   2   3
HETATM    3  C1  UNL     1     -32.766   6.954   3.347  1.00 20.00     0.131 C 
HETATM    4  O10 UNL     1     -32.607   5.958   2.642  1.00 20.00    -0.298 OA
BRANCH   3   5
HETATM    5  C7  UNL     1     -32.536   8.362   2.818  1.00 20.00     0.074 C 
HETATM    6  C2  UNL     1     -32.223   8.384   1.333  1.00 20.00     0.013 C 
ENDBRANCH   3   5
ENDBRANCH   2   3
BRANCH   2   7
HETATM    7  C9  UNL     1     -34.362   5.776   5.006  1.00 20.00    -0.041 C 
HETATM    8  C4  UNL     1     -34.731   5.672   6.501  1.00 20.00     0.015 C 
HETATM    9  C5  UNL     1     -33.961   4.376   4.507  1.00 20.00     0.015 C 
HETATM   10  C6  UNL     1     -35.635   6.206   4.244  1.00 20.00     0.015 C 
ENDBRANCH   2   7
TORSDOF 3
ENDMDL
MODEL 2
REMARK VINA RESULT:      -4.5      0.048      1.363
REMARK  3 active torsions:
REMARK  status: ('A' for Active; 'I' for Inactive)
REMARK    1  A    between atoms: C1_1  and  C7_7 
REMARK    2  A    between atoms: C1_1  and  C8_8 
REMARK    3  A    between atoms: C8_8  and  C9_9 
ROOT
HETATM    1  C3  UNL     1     -33.545   8.262   5.260  1.00 20.00     0.018 C 
HETATM    2  C8  UNL     1     -33.240   6.839   4.780  1.00 20.00     0.058 C 
ENDROOT
BRANCH   2   3
HETATM    3  C1  UNL     1     -32.760   6.928   3.326  1.00 20.00     0.131 C 
HETATM    4  O10 UNL     1     -32.604   5.923   2.633  1.00 20.00    -0.298 OA
BRANCH   3   5
HETATM    5  C7  UNL     1     -32.519   8.328   2.781  1.00 20.00     0.074 C 
HETATM    6  C2  UNL     1     -32.170   8.329   1.304  1.00 20.00     0.013 C 
ENDBRANCH   3   5
ENDBRANCH   2   3
BRANCH   2   7
HETATM    7  C9  UNL     1     -34.397   5.807   4.984  1.00 20.00    -0.041 C 
HETATM    8  C4  UNL     1     -33.949   4.407   4.514  1.00 20.00     0.015 C 
HETATM    9  C5  UNL     1     -35.684   6.184   4.227  1.00 20.00     0.015 C 
HETATM   10  C6  UNL     1     -34.742   5.701   6.486  1.00 20.00     0.015 C 
ENDBRANCH   2   7
TORSDOF 3
ENDMDL
MODEL 3
REMARK VINA RESULT:      -4.1      1.261      1.306
REMARK  3 active torsions:
REMARK  status: ('A' for Active; 'I' for Inactive)
REMARK    1  A    between atoms: C1_1  and  C7_7 
REMARK    2  A    between atoms: C1_1  and  C8_8 
REMARK    3  A    between atoms: C8_8  and  C9_9 
ROOT
HETATM    1  C3  UNL     1     -33.700   7.676   6.513  1.00 20.00     0.018 C 
HETATM    2  C8  UNL     1     -33.372   6.768   5.323  1.00 20.00     0.058 C 
ENDROOT
BRANCH   2   3
HETATM    3  C1  UNL     1     -33.110   7.666   4.107  1.00 20.00     0.131 C 
HETATM    4  O10 UNL     1     -33.576   8.803   4.030  1.00 20.00    -0.298 OA
BRANCH   3   5
HETATM    5  C7  UNL     1     -32.218   7.085   3.021  1.00 20.00     0.074 C 
HETATM    6  C2  UNL     1     -32.189   7.941   1.768  1.00 20.00     0.013 C 
ENDBRANCH   3   5
ENDBRANCH   2   3
BRANCH   2   7
HETATM    7  C9  UNL     1     -34.418   5.640   5.040  1.00 20.00    -0.041 C 
HETATM    8  C4  UNL     1     -34.935   5.050   6.369  1.00 20.00     0.015 C 
HETATM    9  C5  UNL     1     -33.851   4.490   4.187  1.00 20.00     0.015 C 
HETATM   10  C6  UNL     1     -35.633   6.232   4.293  1.00 20.00     0.015 C 
ENDBRANCH   2   7
TORSDOF 3
ENDMDL
MODEL 4
REMARK VINA RESULT:      -4.0      9.856     11.007
REMARK  3 active torsions:
REMARK  status: ('A' for Active; 'I' for Inactive)
REMARK    1  A    between atoms: C1_1  and  C7_7 
REMARK    2  A    between atoms: C1_1  and  C8_8 
REMARK    3  A    between atoms: C8_8  and  C9_9 
ROOT
HETATM    1  C3  UNL     1     -42.153  14.499   5.251  1.00 20.00     0.018 C 
HETATM    2  C8  UNL     1     -41.018  14.231   6.245  1.00 20.00     0.058 C 
ENDROOT
BRANCH   2   3
HETATM    3  C1  UNL     1     -40.887  12.711   6.406  1.00 20.00     0.131 C 
HETATM    4  O10 UNL     1     -41.843  12.010   6.737  1.00 20.00    -0.298 OA
BRANCH   3   5
HETATM    5  C7  UNL     1     -39.519  12.118   6.102  1.00 20.00     0.074 C 
HETATM    6  C2  UNL     1     -39.339  11.786   4.632  1.00 20.00     0.013 C 
ENDBRANCH   3   5
ENDBRANCH   2   3
BRANCH   2   7
HETATM    7  C9  UNL     1     -41.137  14.986   7.609  1.00 20.00    -0.041 C 
HETATM    8  C4  UNL     1     -40.708  16.459   7.440  1.00 20.00     0.015 C 
HETATM    9  C5  UNL     1     -40.283  14.357   8.725  1.00 20.00     0.015 C 
HETATM   10  C6  UNL     1     -42.609  14.984   8.078  1.00 20.00     0.015 C 
ENDBRANCH   2   7
TORSDOF 3
ENDMDL
MODEL 5
REMARK VINA RESULT:      -3.9     15.856     16.896
REMARK  3 active torsions:
REMARK  status: ('A' for Active; 'I' for Inactive)
REMARK    1  A    between atoms: C1_1  and  C7_7 
REMARK    2  A    between atoms: C1_1  and  C8_8 
REMARK    3  A    between atoms: C8_8  and  C9_9 
ROOT
HETATM    1  C3  UNL     1     -24.836  19.261   9.172  1.00 20.00     0.018 C 
HETATM    2  C8  UNL     1     -23.698  19.191  10.195  1.00 20.00     0.058 C 
ENDROOT
BRANCH   2   3
HETATM    3  C1  UNL     1     -22.394  18.939   9.428  1.00 20.00     0.131 C 
HETATM    4  O10 UNL     1     -21.293  19.077   9.961  1.00 20.00    -0.298 OA
BRANCH   3   5
HETATM    5  C7  UNL     1     -22.540  18.481   7.985  1.00 20.00     0.074 C 
HETATM    6  C2  UNL     1     -21.346  17.677   7.504  1.00 20.00     0.013 C 
ENDBRANCH   3   5
ENDBRANCH   2   3
BRANCH   2   7
HETATM    7  C9  UNL     1     -23.924  18.187  11.372  1.00 20.00    -0.041 C 
HETATM    8  C4  UNL     1     -22.711  18.207  12.327  1.00 20.00     0.015 C 
HETATM    9  C5  UNL     1     -24.144  16.739  10.898  1.00 20.00     0.015 C 
HETATM   10  C6  UNL     1     -25.163  18.613  12.190  1.00 20.00     0.015 C 
ENDBRANCH   2   7
TORSDOF 3
ENDMDL
MODEL 6
REMARK VINA RESULT:      -3.7     11.809     13.429
REMARK  3 active torsions:
REMARK  status: ('A' for Active; 'I' for Inactive)
REMARK    1  A    between atoms: C1_1  and  C7_7 
REMARK    2  A    between atoms: C1_1  and  C8_8 
REMARK    3  A    between atoms: C8_8  and  C9_9 
ROOT
HETATM    1  C3  UNL     1     -33.887  14.589  -4.004  1.00 20.00     0.018 C 
HETATM    2  C8  UNL     1     -33.811  15.942  -4.718  1.00 20.00     0.058 C 
ENDROOT
BRANCH   2   3
HETATM    3  C1  UNL     1     -33.462  17.005  -3.669  1.00 20.00     0.131 C 
HETATM    4  O10 UNL     1     -33.132  18.147  -3.989  1.00 20.00    -0.298 OA
BRANCH   3   5
HETATM    5  C7  UNL     1     -33.577  16.578  -2.213  1.00 20.00     0.074 C 
HETATM    6  C2  UNL     1     -33.340  17.724  -1.247  1.00 20.00     0.013 C 
ENDBRANCH   3   5
ENDBRANCH   2   3
BRANCH   2   7
HETATM    7  C9  UNL     1     -35.065  16.312  -5.575  1.00 20.00    -0.041 C 
HETATM    8  C4  UNL     1     -34.627  16.975  -6.899  1.00 20.00     0.015 C 
HETATM    9  C5  UNL     1     -36.032  17.268  -4.852  1.00 20.00     0.015 C 
HETATM   10  C6  UNL     1     -35.846  15.030  -5.937  1.00 20.00     0.015 C 
ENDBRANCH   2   7
TORSDOF 3
ENDMDL
MODEL 7
REMARK VINA RESULT:      -3.7     10.035     11.191
REMARK  3 active torsions:
REMARK  status: ('A' for Active; 'I' for Inactive)
REMARK    1  A    between atoms: C1_1  and  C7_7 
REMARK    2  A    between atoms: C1_1  and  C8_8 
REMARK    3  A    between atoms: C8_8  and  C9_9 
ROOT
HETATM    1  C3  UNL     1     -42.672  12.354   7.121  1.00 20.00     0.018 C 
HETATM    2  C8  UNL     1     -42.321  13.577   6.268  1.00 20.00     0.058 C 
ENDROOT
BRANCH   2   3
HETATM    3  C1  UNL     1     -41.231  13.156   5.274  1.00 20.00     0.131 C 
HETATM    4  O10 UNL     1     -41.167  13.637   4.143  1.00 20.00    -0.298 OA
BRANCH   3   5
HETATM    5  C7  UNL     1     -40.219  12.138   5.776  1.00 20.00     0.074 C 
HETATM    6  C2  UNL     1     -39.195  11.763   4.720  1.00 20.00     0.013 C 
ENDBRANCH   3   5
ENDBRANCH   2   3
BRANCH   2   7
HETATM    7  C9  UNL     1     -41.955  14.866   7.074  1.00 20.00    -0.041 C 
HETATM    8  C4  UNL     1     -42.375  16.123   6.283  1.00 20.00     0.015 C 
HETATM    9  C5  UNL     1     -40.452  14.973   7.392  1.00 20.00     0.015 C 
HETATM   10  C6  UNL     1     -42.727  14.881   8.411  1.00 20.00     0.015 C 
ENDBRANCH   2   7
TORSDOF 3
ENDMDL
MODEL 8
REMARK VINA RESULT:      -3.7      1.181      2.175
REMARK  3 active torsions:
REMARK  status: ('A' for Active; 'I' for Inactive)
REMARK    1  A    between atoms: C1_1  and  C7_7 
REMARK    2  A    between atoms: C1_1  and  C8_8 
REMARK    3  A    between atoms: C8_8  and  C9_9 
ROOT
HETATM    1  C3  UNL     1     -32.714   5.245   2.670  1.00 20.00     0.018 C 
HETATM    2  C8  UNL     1     -33.473   6.437   3.262  1.00 20.00     0.058 C 
ENDROOT
BRANCH   2   3
HETATM    3  C1  UNL     1     -32.484   7.601   3.397  1.00 20.00     0.131 C 
HETATM    4  O10 UNL     1     -31.430   7.486   4.022  1.00 20.00    -0.298 OA
BRANCH   3   5
HETATM    5  C7  UNL     1     -32.864   8.893   2.689  1.00 20.00     0.074 C 
HETATM    6  C2  UNL     1     -32.549   8.860   1.204  1.00 20.00     0.013 C 
ENDBRANCH   3   5
ENDBRANCH   2   3
BRANCH   2   7
HETATM    7  C9  UNL     1     -34.254   6.137   4.583  1.00 20.00    -0.041 C 
HETATM    8  C4  UNL     1     -35.775   6.222   4.332  1.00 20.00     0.015 C 
HETATM    9  C5  UNL     1     -33.897   7.103   5.729  1.00 20.00     0.015 C 
HETATM   10  C6  UNL     1     -33.943   4.701   5.057  1.00 20.00     0.015 C 
ENDBRANCH   2   7
TORSDOF 3
ENDMDL
MODEL 9
REMARK VINA RESULT:      -3.6      1.494      3.879
REMARK  3 active torsions:
REMARK  status: ('A' for Active; 'I' for Inactive)
REMARK    1  A    between atoms: C1_1  and  C7_7 
REMARK    2  A    between atoms: C1_1  and  C8_8 
REMARK    3  A    between atoms: C8_8  and  C9_9 
ROOT
HETATM    1  C3  UNL     1     -33.050   8.842   5.280  1.00 20.00     0.018 C 
HETATM    2  C8  UNL     1     -33.595   7.952   4.158  1.00 20.00     0.058 C 
ENDROOT
BRANCH   2   3
HETATM    3  C1  UNL     1     -34.413   6.829   4.807  1.00 20.00     0.131 C 
HETATM    4  O10 UNL     1     -35.279   6.215   4.184  1.00 20.00    -0.298 OA
BRANCH   3   5
HETATM    5  C7  UNL     1     -34.072   6.496   6.252  1.00 20.00     0.074 C 
HETATM    6  C2  UNL     1     -34.430   5.068   6.623  1.00 20.00     0.013 C 
ENDBRANCH   3   5
ENDBRANCH   2   3
BRANCH   2   7
HETATM    7  C9  UNL     1     -32.524   7.428   3.146  1.00 20.00    -0.041 C 
HETATM    8  C4  UNL     1     -32.609   8.221   1.825  1.00 20.00     0.015 C 
HETATM    9  C5  UNL     1     -32.679   5.930   2.824  1.00 20.00     0.015 C 
HETATM   10  C6  UNL     1     -31.109   7.646   3.726  1.00 20.00     0.015 C 
ENDBRANCH   2   7
TORSDOF 3
ENDMDL
