MODEL 1
REMARK VINA RESULT:      -3.7      0.000      0.000
REMARK  2 active torsions:
REMARK  status: ('A' for Active; 'I' for Inactive)
REMARK    1  A    between atoms: C4_4  and  C7_7 
REMARK    2  A    between atoms: C6_6  and  C7_7 
ROOT
HETATM    1  C1  UNL     1     -33.348   8.123   5.567  1.00 20.00     0.034 C 
HETATM    2  C2  UNL     1     -32.258   9.023   5.023  1.00 20.00     0.168 C 
HETATM    3  C3  UNL     1     -32.593   7.279   3.513  1.00 20.00     0.173 C 
HETATM    4  C4  UNL     1     -33.875   7.479   4.303  1.00 20.00     0.026 C 
HETATM    5  O8  UNL     1     -31.729   8.375   3.856  1.00 20.00    -0.391 OA
ENDROOT
BRANCH   4   6
HETATM    6  C7  UNL     1     -34.655   6.198   4.536  1.00 20.00     0.063 C 
HETATM    7 BR9  UNL     1     -34.542   5.758   6.446  1.00 20.00    -0.091 Br
BRANCH   6   8
HETATM    8  C6  UNL     1     -34.108   5.038   3.700  1.00 20.00     0.012 C 
HETATM    9  C5  UNL     1     -33.643   3.852   4.536  1.00 20.00     0.006 C 
ENDBRANCH   6   8
ENDBRANCH   4   6
TORSDOF 2
ENDMDL
MODEL 2
REMARK VINA RESULT:      -3.7      2.451      3.886
REMARK  2 active torsions:
REMARK  status: ('A' for Active; 'I' for Inactive)
REMARK    1  A    between atoms: C4_4  and  C7_7 
REMARK    2  A    between atoms: C6_6  and  C7_7 
ROOT
HETATM    1  C1  UNL     1     -33.992   5.478   4.171  1.00 20.00     0.034 C 
HETATM    2  C2  UNL     1     -35.060   5.078   5.167  1.00 20.00     0.168 C 
HETATM    3  C3  UNL     1     -33.887   6.892   6.039  1.00 20.00     0.173 C 
HETATM    4  C4  UNL     1     -33.772   6.933   4.525  1.00 20.00     0.026 C 
HETATM    5  O8  UNL     1     -34.844   5.866   6.347  1.00 20.00    -0.391 OA
ENDROOT
BRANCH   4   6
HETATM    6  C7  UNL     1     -32.456   7.501   4.026  1.00 20.00     0.063 C 
HETATM    7 BR9  UNL     1     -32.213   9.270   4.842  1.00 20.00    -0.091 Br
BRANCH   6   8
HETATM    8  C6  UNL     1     -32.430   7.622   2.500  1.00 20.00     0.012 C 
HETATM    9  C5  UNL     1     -32.678   9.039   1.997  1.00 20.00     0.006 C 
ENDBRANCH   6   8
ENDBRANCH   4   6
TORSDOF 2
ENDMDL
MODEL 3
REMARK VINA RESULT:      -3.6      2.325      3.684
REMARK  2 active torsions:
REMARK  status: ('A' for Active; 'I' for Inactive)
REMARK    1  A    between atoms: C4_4  and  C7_7 
REMARK    2  A    between atoms: C6_6  and  C7_7 
ROOT
HETATM    1  C1  UNL     1     -34.458   5.145   4.981  1.00 20.00     0.034 C 
HETATM    2  C2  UNL     1     -34.889   5.306   6.424  1.00 20.00     0.168 C 
HETATM    3  C3  UNL     1     -33.741   7.230   5.782  1.00 20.00     0.173 C 
HETATM    4  C4  UNL     1     -34.327   6.585   4.537  1.00 20.00     0.026 C 
HETATM    5  O8  UNL     1     -34.289   6.519   6.904  1.00 20.00    -0.391 OA
ENDROOT
BRANCH   4   6
HETATM    6  C7  UNL     1     -33.479   6.778   3.293  1.00 20.00     0.063 C 
HETATM    7 BR9  UNL     1     -32.890   5.009   2.681  1.00 20.00    -0.091 Br
BRANCH   6   8
HETATM    8  C6  UNL     1     -32.263   7.669   3.565  1.00 20.00     0.012 C 
HETATM    9  C5  UNL     1     -32.446   9.107   3.095  1.00 20.00     0.006 C 
ENDBRANCH   6   8
ENDBRANCH   4   6
TORSDOF 2
ENDMDL
MODEL 4
REMARK VINA RESULT:      -3.5      1.719      1.836
REMARK  2 active torsions:
REMARK  status: ('A' for Active; 'I' for Inactive)
REMARK    1  A    between atoms: C4_4  and  C7_7 
REMARK    2  A    between atoms: C6_6  and  C7_7 
ROOT
HETATM    1  C1  UNL     1     -32.908   7.919   5.410  1.00 20.00     0.034 C 
HETATM    2  C2  UNL     1     -32.500   9.277   4.877  1.00 20.00     0.168 C 
HETATM    3  C3  UNL     1     -32.398   7.740   3.128  1.00 20.00     0.173 C 
HETATM    4  C4  UNL     1     -33.394   7.229   4.154  1.00 20.00     0.026 C 
HETATM    5  O8  UNL     1     -32.049   9.075   3.529  1.00 20.00    -0.391 OA
ENDROOT
BRANCH   4   6
HETATM    6  C7  UNL     1     -33.445   5.717   4.256  1.00 20.00     0.063 C 
HETATM    7 BR9  UNL     1     -33.083   4.976   2.475  1.00 20.00    -0.091 Br
BRANCH   6   8
HETATM    8  C6  UNL     1     -34.806   5.225   4.759  1.00 20.00     0.012 C 
HETATM    9  C5  UNL     1     -34.930   5.228   6.277  1.00 20.00     0.006 C 
ENDBRANCH   6   8
ENDBRANCH   4   6
TORSDOF 2
ENDMDL
MODEL 5
REMARK VINA RESULT:      -3.5      2.590      3.982
REMARK  2 active torsions:
REMARK  status: ('A' for Active; 'I' for Inactive)
REMARK    1  A    between atoms: C4_4  and  C7_7 
REMARK    2  A    between atoms: C6_6  and  C7_7 
ROOT
HETATM    1  C1  UNL     1     -34.331   6.461   6.213  1.00 20.00     0.034 C 
HETATM    2  C2  UNL     1     -34.611   4.985   6.408  1.00 20.00     0.168 C 
HETATM    3  C3  UNL     1     -34.365   5.390   4.127  1.00 20.00     0.173 C 
HETATM    4  C4  UNL     1     -33.604   6.463   4.887  1.00 20.00     0.026 C 
HETATM    5  O8  UNL     1     -34.778   4.418   5.101  1.00 20.00    -0.391 OA
ENDROOT
BRANCH   4   6
HETATM    6  C7  UNL     1     -33.586   7.810   4.189  1.00 20.00     0.063 C 
HETATM    7 BR9  UNL     1     -32.236   7.738   2.766  1.00 20.00    -0.091 Br
BRANCH   6   8
HETATM    8  C6  UNL     1     -33.262   8.950   5.159  1.00 20.00     0.012 C 
HETATM    9  C5  UNL     1     -31.829   9.456   5.045  1.00 20.00     0.006 C 
ENDBRANCH   6   8
ENDBRANCH   4   6
TORSDOF 2
ENDMDL
MODEL 6
REMARK VINA RESULT:      -3.5     12.407     12.814
REMARK  2 active torsions:
REMARK  status: ('A' for Active; 'I' for Inactive)
REMARK    1  A    between atoms: C4_4  and  C7_7 
REMARK    2  A    between atoms: C6_6  and  C7_7 
ROOT
HETATM    1  C1  UNL     1     -33.305  18.461   0.658  1.00 20.00     0.034 C 
HETATM    2  C2  UNL     1     -32.167  18.712   1.625  1.00 20.00     0.168 C 
HETATM    3  C3  UNL     1     -31.271  18.458  -0.511  1.00 20.00     0.173 C 
HETATM    4  C4  UNL     1     -32.706  18.935  -0.649  1.00 20.00     0.026 C 
HETATM    5  O8  UNL     1     -30.948  18.540   0.887  1.00 20.00    -0.391 OA
ENDROOT
BRANCH   4   6
HETATM    6  C7  UNL     1     -33.410  18.404  -1.884  1.00 20.00     0.063 C 
HETATM    7 BR9  UNL     1     -35.215  19.173  -1.930  1.00 20.00    -0.091 Br
BRANCH   6   8
HETATM    8  C6  UNL     1     -33.494  16.875  -1.879  1.00 20.00     0.012 C 
HETATM    9  C5  UNL     1     -33.315  16.252  -3.258  1.00 20.00     0.006 C 
ENDBRANCH   6   8
ENDBRANCH   4   6
TORSDOF 2
ENDMDL
MODEL 7
REMARK VINA RESULT:      -3.4     12.442     13.234
REMARK  2 active torsions:
REMARK  status: ('A' for Active; 'I' for Inactive)
REMARK    1  A    between atoms: C4_4  and  C7_7 
REMARK    2  A    between atoms: C6_6  and  C7_7 
ROOT
HETATM    1  C1  UNL     1     -33.520  17.009  -1.764  1.00 20.00     0.034 C 
HETATM    2  C2  UNL     1     -33.480  16.895  -3.274  1.00 20.00     0.168 C 
HETATM    3  C3  UNL     1     -32.863  19.064  -2.685  1.00 20.00     0.173 C 
HETATM    4  C4  UNL     1     -32.552  18.145  -1.516  1.00 20.00     0.026 C 
HETATM    5  O8  UNL     1     -33.230  18.214  -3.784  1.00 20.00    -0.391 OA
ENDROOT
BRANCH   4   6
HETATM    6  C7  UNL     1     -32.706  18.808  -0.160  1.00 20.00     0.063 C 
HETATM    7 BR9  UNL     1     -31.036  18.543   0.838  1.00 20.00    -0.091 Br
BRANCH   6   8
HETATM    8  C6  UNL     1     -33.883  18.225   0.628  1.00 20.00     0.012 C 
HETATM    9  C5  UNL     1     -34.931  19.263   1.012  1.00 20.00     0.006 C 
ENDBRANCH   6   8
ENDBRANCH   4   6
TORSDOF 2
ENDMDL
MODEL 8
REMARK VINA RESULT:      -3.4     12.581     12.850
REMARK  2 active torsions:
REMARK  status: ('A' for Active; 'I' for Inactive)
REMARK    1  A    between atoms: C4_4  and  C7_7 
REMARK    2  A    between atoms: C6_6  and  C7_7 
ROOT
HETATM    1  C1  UNL     1     -29.820  19.068   2.196  1.00 20.00     0.034 C 
HETATM    2  C2  UNL     1     -29.595  18.880   3.682  1.00 20.00     0.168 C 
HETATM    3  C3  UNL     1     -31.866  19.263   3.326  1.00 20.00     0.173 C 
HETATM    4  C4  UNL     1     -31.275  18.679   2.055  1.00 20.00     0.026 C 
HETATM    5  O8  UNL     1     -30.843  19.168   4.331  1.00 20.00    -0.391 OA
ENDROOT
BRANCH   4   6
HETATM    6  C7  UNL     1     -31.934  19.187   0.786  1.00 20.00     0.063 C 
HETATM    7 BR9  UNL     1     -33.867  18.885   0.943  1.00 20.00    -0.091 Br
BRANCH   6   8
HETATM    8  C6  UNL     1     -31.394  18.477  -0.459  1.00 20.00     0.012 C 
HETATM    9  C5  UNL     1     -32.482  18.064  -1.443  1.00 20.00     0.006 C 
ENDBRANCH   6   8
ENDBRANCH   4   6
TORSDOF 2
ENDMDL
MODEL 9
REMARK VINA RESULT:      -3.4     12.583     13.266
REMARK  2 active torsions:
REMARK  status: ('A' for Active; 'I' for Inactive)
REMARK    1  A    between atoms: C4_4  and  C7_7 
REMARK    2  A    between atoms: C6_6  and  C7_7 
ROOT
HETATM    1  C1  UNL     1     -33.237  16.570  -2.780  1.00 20.00     0.034 C 
HETATM    2  C2  UNL     1     -34.085  16.803  -4.014  1.00 20.00     0.168 C 
HETATM    3  C3  UNL     1     -34.619  18.433  -2.436  1.00 20.00     0.173 C 
HETATM    4  C4  UNL     1     -33.205  17.951  -2.164  1.00 20.00     0.026 C 
HETATM    5  O8  UNL     1     -35.015  17.846  -3.687  1.00 20.00    -0.391 OA
ENDROOT
BRANCH   4   6
HETATM    6  C7  UNL     1     -32.826  17.968  -0.695  1.00 20.00     0.063 C 
HETATM    7 BR9  UNL     1     -34.211  18.962   0.277  1.00 20.00    -0.091 Br
BRANCH   6   8
HETATM    8  C6  UNL     1     -31.459  18.618  -0.466  1.00 20.00     0.012 C 
HETATM    9  C5  UNL     1     -30.941  18.460   0.958  1.00 20.00     0.006 C 
ENDBRANCH   6   8
ENDBRANCH   4   6
TORSDOF 2
ENDMDL
