MODEL 1
REMARK VINA RESULT:      -4.7      0.000      0.000
REMARK  3 active torsions:
REMARK  status: ('A' for Active; 'I' for Inactive)
REMARK    1  A    between atoms: C1_1  and  C7_7 
REMARK    2  A    between atoms: C1_1  and  C12_12 
REMARK    3  A    between atoms: C8_8  and  C13_13 
ROOT
HETATM    1  C2  UNL     1     -33.659  18.916  -4.584  1.00 20.00     0.001 C 
HETATM    2  C3  UNL     1     -33.832  18.845  -3.071  1.00 20.00     0.012 C 
HETATM    3  C4  UNL     1     -33.335  16.346  -2.665  1.00 20.00     0.012 C 
HETATM    4  C5  UNL     1     -34.512  17.937  -5.387  1.00 20.00     0.005 C 
HETATM    5  C6  UNL     1     -33.486  15.937  -4.132  1.00 20.00     0.006 C 
HETATM    6  C7  UNL     1     -32.920  17.797  -2.426  1.00 20.00     0.055 C 
HETATM    7  C8  UNL     1     -34.736  16.538  -4.792  1.00 20.00    -0.011 C 
ENDROOT
BRANCH   6   8
HETATM    8  C1  UNL     1     -32.889  18.031  -0.944  1.00 20.00     0.130 C 
HETATM    9  O14 UNL     1     -33.885  17.831  -0.250  1.00 20.00    -0.298 OA
BRANCH   8  10
HETATM   10  C12 UNL     1     -31.573  18.523  -0.372  1.00 20.00     0.074 C 
HETATM   11  C9  UNL     1     -31.558  18.525   1.146  1.00 20.00     0.013 C 
ENDBRANCH   8  10
ENDBRANCH   6   8
BRANCH   7  12
HETATM   12  C13 UNL     1     -35.255  15.606  -5.893  1.00 20.00    -0.019 C 
HETATM   13  C10 UNL     1     -34.112  15.172  -6.804  1.00 20.00     0.010 C 
HETATM   14  C11 UNL     1     -35.947  14.393  -5.279  1.00 20.00     0.010 C 
ENDBRANCH   7  12
TORSDOF 3
ENDMDL
MODEL 2
REMARK VINA RESULT:      -4.5      2.576      6.053
REMARK  3 active torsions:
REMARK  status: ('A' for Active; 'I' for Inactive)
REMARK    1  A    between atoms: C1_1  and  C7_7 
REMARK    2  A    between atoms: C1_1  and  C12_12 
REMARK    3  A    between atoms: C8_8  and  C13_13 
ROOT
HETATM    1  C2  UNL     1     -33.230  15.148  -4.120  1.00 20.00     0.001 C 
HETATM    2  C3  UNL     1     -34.497  14.964  -4.949  1.00 20.00     0.012 C 
HETATM    3  C4  UNL     1     -34.973  17.412  -5.613  1.00 20.00     0.012 C 
HETATM    4  C5  UNL     1     -33.343  16.135  -2.960  1.00 20.00     0.005 C 
HETATM    5  C6  UNL     1     -34.037  18.021  -4.568  1.00 20.00     0.006 C 
HETATM    6  C7  UNL     1     -34.616  15.999  -6.072  1.00 20.00     0.055 C 
HETATM    7  C8  UNL     1     -34.203  17.389  -3.178  1.00 20.00    -0.011 C 
ENDROOT
BRANCH   6   8
HETATM    8  C1  UNL     1     -35.673  15.544  -7.035  1.00 20.00     0.130 C 
HETATM    9  O14 UNL     1     -36.013  14.363  -7.092  1.00 20.00    -0.298 OA
BRANCH   8  10
HETATM   10  C12 UNL     1     -36.281  16.618  -7.918  1.00 20.00     0.074 C 
HETATM   11  C9  UNL     1     -37.788  16.714  -7.769  1.00 20.00     0.013 C 
ENDBRANCH   8  10
ENDBRANCH   6   8
BRANCH   7  12
HETATM   12  C13 UNL     1     -33.873  18.415  -2.086  1.00 20.00    -0.019 C 
HETATM   13  C10 UNL     1     -33.680  17.717  -0.744  1.00 20.00     0.010 C 
HETATM   14  C11 UNL     1     -32.630  19.212  -2.465  1.00 20.00     0.010 C 
ENDBRANCH   7  12
TORSDOF 3
ENDMDL
MODEL 3
REMARK VINA RESULT:      -4.3      1.480      2.252
REMARK  3 active torsions:
REMARK  status: ('A' for Active; 'I' for Inactive)
REMARK    1  A    between atoms: C1_1  and  C7_7 
REMARK    2  A    between atoms: C1_1  and  C12_12 
REMARK    3  A    between atoms: C8_8  and  C13_13 
ROOT
HETATM    1  C2  UNL     1     -33.647  16.030  -3.216  1.00 20.00     0.001 C 
HETATM    2  C3  UNL     1     -32.962  17.011  -2.271  1.00 20.00     0.012 C 
HETATM    3  C4  UNL     1     -34.808  18.800  -2.043  1.00 20.00     0.012 C 
HETATM    4  C5  UNL     1     -34.151  16.628  -4.529  1.00 20.00     0.005 C 
HETATM    5  C6  UNL     1     -35.612  18.321  -3.254  1.00 20.00     0.006 C 
HETATM    6  C7  UNL     1     -33.956  17.733  -1.357  1.00 20.00     0.055 C 
HETATM    7  C8  UNL     1     -34.732  18.049  -4.483  1.00 20.00    -0.011 C 
ENDROOT
BRANCH   6   8
HETATM    8  C1  UNL     1     -33.195  18.394  -0.245  1.00 20.00     0.130 C 
HETATM    9  O14 UNL     1     -33.772  18.807   0.760  1.00 20.00    -0.298 OA
BRANCH   8  10
HETATM   10  C12 UNL     1     -31.696  18.517  -0.442  1.00 20.00     0.074 C 
HETATM   11  C9  UNL     1     -30.926  18.449   0.865  1.00 20.00     0.013 C 
ENDBRANCH   8  10
ENDBRANCH   6   8
BRANCH   7  12
HETATM   12  C13 UNL     1     -35.525  18.304  -5.771  1.00 20.00    -0.019 C 
HETATM   13  C10 UNL     1     -34.671  17.984  -6.993  1.00 20.00     0.010 C 
HETATM   14  C11 UNL     1     -36.807  17.478  -5.776  1.00 20.00     0.010 C 
ENDBRANCH   7  12
TORSDOF 3
ENDMDL
MODEL 4
REMARK VINA RESULT:      -4.3      1.453      2.300
REMARK  3 active torsions:
REMARK  status: ('A' for Active; 'I' for Inactive)
REMARK    1  A    between atoms: C1_1  and  C7_7 
REMARK    2  A    between atoms: C1_1  and  C12_12 
REMARK    3  A    between atoms: C8_8  and  C13_13 
ROOT
HETATM    1  C2  UNL     1     -33.785  15.161  -3.799  1.00 20.00     0.001 C 
HETATM    2  C3  UNL     1     -32.918  16.323  -3.327  1.00 20.00     0.012 C 
HETATM    3  C4  UNL     1     -34.564  18.285  -3.644  1.00 20.00     0.012 C 
HETATM    4  C5  UNL     1     -34.372  15.308  -5.201  1.00 20.00     0.005 C 
HETATM    5  C6  UNL     1     -35.532  17.508  -4.538  1.00 20.00     0.006 C 
HETATM    6  C7  UNL     1     -33.740  17.438  -2.675  1.00 20.00     0.055 C 
HETATM    7  C8  UNL     1     -34.817  16.711  -5.639  1.00 20.00    -0.011 C 
ENDROOT
BRANCH   6   8
HETATM    8  C1  UNL     1     -32.808  18.355  -1.937  1.00 20.00     0.130 C 
HETATM    9  O14 UNL     1     -32.168  19.221  -2.532  1.00 20.00    -0.298 OA
BRANCH   8  10
HETATM   10  C12 UNL     1     -32.709  18.143  -0.438  1.00 20.00     0.074 C 
HETATM   11  C9  UNL     1     -31.345  18.513   0.117  1.00 20.00     0.013 C 
ENDBRANCH   8  10
ENDBRANCH   6   8
BRANCH   7  12
HETATM   12  C13 UNL     1     -35.719  16.585  -6.873  1.00 20.00    -0.019 C 
HETATM   13  C10 UNL     1     -35.898  15.119  -7.252  1.00 20.00     0.010 C 
HETATM   14  C11 UNL     1     -37.069  17.245  -6.614  1.00 20.00     0.010 C 
ENDBRANCH   7  12
TORSDOF 3
ENDMDL
MODEL 5
REMARK VINA RESULT:      -4.1     13.104     14.944
REMARK  3 active torsions:
REMARK  status: ('A' for Active; 'I' for Inactive)
REMARK    1  A    between atoms: C1_1  and  C7_7 
REMARK    2  A    between atoms: C1_1  and  C12_12 
REMARK    3  A    between atoms: C8_8  and  C13_13 
ROOT
HETATM    1  C2  UNL     1     -40.930  15.775   8.178  1.00 20.00     0.001 C 
HETATM    2  C3  UNL     1     -40.428  14.729   7.188  1.00 20.00     0.012 C 
HETATM    3  C4  UNL     1     -42.371  13.033   7.284  1.00 20.00     0.012 C 
HETATM    4  C5  UNL     1     -41.277  15.248   9.568  1.00 20.00     0.005 C 
HETATM    5  C6  UNL     1     -42.977  13.593   8.572  1.00 20.00     0.006 C 
HETATM    6  C7  UNL     1     -41.571  14.030   6.446  1.00 20.00     0.055 C 
HETATM    7  C8  UNL     1     -41.925  13.859   9.659  1.00 20.00    -0.011 C 
ENDROOT
BRANCH   6   8
HETATM    8  C1  UNL     1     -41.001  13.293   5.269  1.00 20.00     0.130 C 
HETATM    9  O14 UNL     1     -41.258  13.642   4.118  1.00 20.00    -0.298 OA
BRANCH   8  10
HETATM   10  C12 UNL     1     -40.105  12.112   5.590  1.00 20.00     0.074 C 
HETATM   11  C9  UNL     1     -39.201  11.731   4.431  1.00 20.00     0.013 C 
ENDBRANCH   8  10
ENDBRANCH   6   8
BRANCH   7  12
HETATM   12  C13 UNL     1     -42.546  13.689  11.051  1.00 20.00    -0.019 C 
HETATM   13  C10 UNL     1     -43.304  12.368  11.136  1.00 20.00     0.010 C 
HETATM   14  C11 UNL     1     -41.467  13.764  12.126  1.00 20.00     0.010 C 
ENDBRANCH   7  12
TORSDOF 3
ENDMDL
MODEL 6
REMARK VINA RESULT:      -4.1     11.584     13.442
REMARK  3 active torsions:
REMARK  status: ('A' for Active; 'I' for Inactive)
REMARK    1  A    between atoms: C1_1  and  C7_7 
REMARK    2  A    between atoms: C1_1  and  C12_12 
REMARK    3  A    between atoms: C8_8  and  C13_13 
ROOT
HETATM    1  C2  UNL     1     -43.034  15.002   6.238  1.00 20.00     0.001 C 
HETATM    2  C3  UNL     1     -41.849  14.206   5.702  1.00 20.00     0.012 C 
HETATM    3  C4  UNL     1     -40.082  14.741   7.505  1.00 20.00     0.012 C 
HETATM    4  C5  UNL     1     -42.771  16.486   6.482  1.00 20.00     0.005 C 
HETATM    5  C6  UNL     1     -40.844  15.929   8.094  1.00 20.00     0.006 C 
HETATM    6  C7  UNL     1     -40.944  13.681   6.820  1.00 20.00     0.055 C 
HETATM    7  C8  UNL     1     -41.387  16.881   7.019  1.00 20.00    -0.011 C 
ENDROOT
BRANCH   6   8
HETATM    8  C1  UNL     1     -40.029  12.638   6.249  1.00 20.00     0.130 C 
HETATM    9  O14 UNL     1     -39.270  11.995   6.974  1.00 20.00    -0.298 OA
BRANCH   8  10
HETATM   10  C12 UNL     1     -40.101  12.434   4.748  1.00 20.00     0.074 C 
HETATM   11  C9  UNL     1     -38.922  11.646   4.206  1.00 20.00     0.013 C 
ENDBRANCH   8  10
ENDBRANCH   6   8
BRANCH   7  12
HETATM   12  C13 UNL     1     -41.455  18.314   7.563  1.00 20.00    -0.019 C 
HETATM   13  C10 UNL     1     -41.439  18.303   9.087  1.00 20.00     0.010 C 
HETATM   14  C11 UNL     1     -40.299  19.144   7.015  1.00 20.00     0.010 C 
ENDBRANCH   7  12
TORSDOF 3
ENDMDL
MODEL 7
REMARK VINA RESULT:      -4.1     12.816     14.708
REMARK  3 active torsions:
REMARK  status: ('A' for Active; 'I' for Inactive)
REMARK    1  A    between atoms: C1_1  and  C7_7 
REMARK    2  A    between atoms: C1_1  and  C12_12 
REMARK    3  A    between atoms: C8_8  and  C13_13 
ROOT
HETATM    1  C2  UNL     1     -43.169  12.652   8.045  1.00 20.00     0.001 C 
HETATM    2  C3  UNL     1     -42.535  12.893   6.680  1.00 20.00     0.012 C 
HETATM    3  C4  UNL     1     -40.423  14.201   7.377  1.00 20.00     0.012 C 
HETATM    4  C5  UNL     1     -43.417  13.904   8.884  1.00 20.00     0.005 C 
HETATM    5  C6  UNL     1     -40.921  14.522   8.788  1.00 20.00     0.006 C 
HETATM    6  C7  UNL     1     -41.006  12.938   6.745  1.00 20.00     0.055 C 
HETATM    7  C8  UNL     1     -42.371  15.026   8.808  1.00 20.00    -0.011 C 
ENDROOT
BRANCH   6   8
HETATM    8  C1  UNL     1     -40.461  12.824   5.352  1.00 20.00     0.130 C 
HETATM    9  O14 UNL     1     -41.041  13.344   4.399  1.00 20.00    -0.298 OA
BRANCH   8  10
HETATM   10  C12 UNL     1     -39.172  12.038   5.200  1.00 20.00     0.074 C 
HETATM   11  C9  UNL     1     -38.931  11.578   3.773  1.00 20.00     0.013 C 
ENDBRANCH   8  10
ENDBRANCH   6   8
BRANCH   7  12
HETATM   12  C13 UNL     1     -42.583  15.985   9.986  1.00 20.00    -0.019 C 
HETATM   13  C10 UNL     1     -42.626  15.212  11.299  1.00 20.00     0.010 C 
HETATM   14  C11 UNL     1     -41.484  17.041  10.015  1.00 20.00     0.010 C 
ENDBRANCH   7  12
TORSDOF 3
ENDMDL
MODEL 8
REMARK VINA RESULT:      -3.8     12.288     14.208
REMARK  3 active torsions:
REMARK  status: ('A' for Active; 'I' for Inactive)
REMARK    1  A    between atoms: C1_1  and  C7_7 
REMARK    2  A    between atoms: C1_1  and  C12_12 
REMARK    3  A    between atoms: C8_8  and  C13_13 
ROOT
HETATM    1  C2  UNL     1     -40.087  15.410   9.142  1.00 20.00     0.001 C 
HETATM    2  C3  UNL     1     -40.487  14.068   8.538  1.00 20.00     0.012 C 
HETATM    3  C4  UNL     1     -41.639  14.864   6.369  1.00 20.00     0.012 C 
HETATM    4  C5  UNL     1     -41.225  16.410   9.330  1.00 20.00     0.005 C 
HETATM    5  C6  UNL     1     -41.786  16.319   6.819  1.00 20.00     0.006 C 
HETATM    6  C7  UNL     1     -40.484  14.092   7.006  1.00 20.00     0.055 C 
HETATM    7  C8  UNL     1     -42.320  16.448   8.253  1.00 20.00    -0.011 C 
ENDROOT
BRANCH   6   8
HETATM    8  C1  UNL     1     -40.538  12.680   6.503  1.00 20.00     0.130 C 
HETATM    9  O14 UNL     1     -41.585  12.034   6.535  1.00 20.00    -0.298 OA
BRANCH   8  10
HETATM   10  C12 UNL     1     -39.239  12.112   5.962  1.00 20.00     0.074 C 
HETATM   11  C9  UNL     1     -39.304  11.812   4.476  1.00 20.00     0.013 C 
ENDBRANCH   8  10
ENDBRANCH   6   8
BRANCH   7  12
HETATM   12  C13 UNL     1     -43.123  17.746   8.405  1.00 20.00    -0.019 C 
HETATM   13  C10 UNL     1     -42.754  18.449   9.707  1.00 20.00     0.010 C 
HETATM   14  C11 UNL     1     -42.884  18.661   7.209  1.00 20.00     0.010 C 
ENDBRANCH   7  12
TORSDOF 3
ENDMDL
MODEL 9
REMARK VINA RESULT:      -3.8      3.032      5.873
REMARK  3 active torsions:
REMARK  status: ('A' for Active; 'I' for Inactive)
REMARK    1  A    between atoms: C1_1  and  C7_7 
REMARK    2  A    between atoms: C1_1  and  C12_12 
REMARK    3  A    between atoms: C8_8  and  C13_13 
ROOT
HETATM    1  C2  UNL     1     -34.780  15.223  -5.847  1.00 20.00     0.001 C 
HETATM    2  C3  UNL     1     -36.278  15.258  -5.562  1.00 20.00     0.012 C 
HETATM    3  C4  UNL     1     -36.545  17.709  -4.799  1.00 20.00     0.012 C 
HETATM    4  C5  UNL     1     -33.883  15.653  -4.689  1.00 20.00     0.005 C 
HETATM    5  C6  UNL     1     -35.050  17.944  -4.571  1.00 20.00     0.006 C 
HETATM    6  C7  UNL     1     -36.891  16.636  -5.830  1.00 20.00     0.055 C 
HETATM    7  C8  UNL     1     -34.379  16.800  -3.796  1.00 20.00    -0.011 C 
ENDROOT
BRANCH   6   8
HETATM    8  C1  UNL     1     -38.385  16.498  -5.870  1.00 20.00     0.130 C 
HETATM    9  O14 UNL     1     -38.983  16.385  -6.939  1.00 20.00    -0.298 OA
BRANCH   8  10
HETATM   10  C12 UNL     1     -39.094  16.507  -4.529  1.00 20.00     0.074 C 
HETATM   11  C9  UNL     1     -39.591  15.132  -4.119  1.00 20.00     0.013 C 
ENDBRANCH   8  10
ENDBRANCH   6   8
BRANCH   7  12
HETATM   12  C13 UNL     1     -33.201  17.337  -2.973  1.00 20.00    -0.019 C 
HETATM   13  C10 UNL     1     -32.910  18.786  -3.346  1.00 20.00     0.010 C 
HETATM   14  C11 UNL     1     -33.493  17.209  -1.482  1.00 20.00     0.010 C 
ENDBRANCH   7  12
TORSDOF 3
ENDMDL
