MODEL 1
REMARK VINA RESULT:      -4.8      0.000      0.000
REMARK  4 active torsions:
REMARK  status: ('A' for Active; 'I' for Inactive)
REMARK    1  A    between atoms: C3_3  and  C5_5 
REMARK    2  A    between atoms: C3_3  and  O8_8 
REMARK    3  A    between atoms: C5_5  and  C6_6 
REMARK    4  A    between atoms: C6_6  and  C7_7 
ROOT
HETATM    1  C1  UNL     1     -31.591   8.126   3.922  1.00 20.00     0.045 A 
HETATM    2  C2  UNL     1     -32.552   8.619   2.872  1.00 20.00     0.019 A 
HETATM    3  C3  UNL     1     -32.944   7.478   3.778  1.00 20.00     0.062 A 
HETATM    4  C4  UNL     1     -32.255   8.401   1.428  1.00 20.00     0.013 C 
ENDROOT
BRANCH   3   5
HETATM    5  C5  UNL     1     -33.983   7.685   4.830  1.00 20.00     0.047 C 
BRANCH   5   6
HETATM    6  C6  UNL     1     -33.824   6.705   5.993  1.00 20.00     0.120 C 
BRANCH   6   7
HETATM    7  C7  UNL     1     -34.732   5.503   5.855  1.00 20.00     0.388 C 
HETATM    8  F9  UNL     1     -34.041   4.402   5.495  1.00 20.00    -0.171 F 
HETATM    9  F10 UNL     1     -35.373   5.236   7.013  1.00 20.00    -0.171 F 
HETATM   10  F11 UNL     1     -35.671   5.726   4.909  1.00 20.00    -0.171 F 
ENDBRANCH   6   7
ENDBRANCH   5   6
ENDBRANCH   3   5
BRANCH   3  11
HETATM   11  O8  UNL     1     -32.949   6.156   3.214  1.00 20.00    -0.389 OA
HETATM   12  H22 UNL     1     -32.035   5.971   2.965  1.00 20.00     0.210 HD
ENDBRANCH   3  11
TORSDOF 4
ENDMDL
MODEL 2
REMARK VINA RESULT:      -4.5      2.747      4.151
REMARK  4 active torsions:
REMARK  status: ('A' for Active; 'I' for Inactive)
REMARK    1  A    between atoms: C3_3  and  C5_5 
REMARK    2  A    between atoms: C3_3  and  O8_8 
REMARK    3  A    between atoms: C5_5  and  C6_6 
REMARK    4  A    between atoms: C6_6  and  C7_7 
ROOT
HETATM    1  C1  UNL     1     -34.660   5.086   6.432  1.00 20.00     0.045 A 
HETATM    2  C2  UNL     1     -33.691   4.932   5.289  1.00 20.00     0.019 A 
HETATM    3  C3  UNL     1     -34.500   6.199   5.428  1.00 20.00     0.062 A 
HETATM    4  C4  UNL     1     -33.965   3.946   4.206  1.00 20.00     0.013 C 
ENDROOT
BRANCH   3   5
HETATM    5  C5  UNL     1     -33.829   7.470   5.828  1.00 20.00     0.047 C 
BRANCH   5   6
HETATM    6  C6  UNL     1     -33.782   8.479   4.679  1.00 20.00     0.120 C 
BRANCH   6   7
HETATM    7  C7  UNL     1     -32.583   8.265   3.781  1.00 20.00     0.388 C 
HETATM    8  F9  UNL     1     -31.433   8.270   4.487  1.00 20.00    -0.171 F 
HETATM    9  F10 UNL     1     -32.666   7.089   3.123  1.00 20.00    -0.171 F 
HETATM   10  F11 UNL     1     -32.501   9.248   2.858  1.00 20.00    -0.171 F 
ENDBRANCH   6   7
ENDBRANCH   5   6
ENDBRANCH   3   5
BRANCH   3  11
HETATM   11  O8  UNL     1     -35.598   6.386   4.519  1.00 20.00    -0.389 OA
HETATM   12  H22 UNL     1     -35.289   6.063   3.662  1.00 20.00     0.210 HD
ENDBRANCH   3  11
TORSDOF 4
ENDMDL
MODEL 3
REMARK VINA RESULT:      -4.4      9.033     10.055
REMARK  4 active torsions:
REMARK  status: ('A' for Active; 'I' for Inactive)
REMARK    1  A    between atoms: C3_3  and  C5_5 
REMARK    2  A    between atoms: C3_3  and  O8_8 
REMARK    3  A    between atoms: C5_5  and  C6_6 
REMARK    4  A    between atoms: C6_6  and  C7_7 
ROOT
HETATM    1  C1  UNL     1     -42.097  14.160   8.029  1.00 20.00     0.045 A 
HETATM    2  C2  UNL     1     -41.338  15.177   7.216  1.00 20.00     0.019 A 
HETATM    3  C3  UNL     1     -40.899  13.733   7.222  1.00 20.00     0.062 A 
HETATM    4  C4  UNL     1     -40.544  16.237   7.899  1.00 20.00     0.013 C 
ENDROOT
BRANCH   3   5
HETATM    5  C5  UNL     1     -41.085  12.893   6.002  1.00 20.00     0.047 C 
BRANCH   5   6
HETATM    6  C6  UNL     1     -40.082  11.740   5.942  1.00 20.00     0.120 C 
BRANCH   6   7
HETATM    7  C7  UNL     1     -39.309  11.724   4.641  1.00 20.00     0.388 C 
HETATM    8  F9  UNL     1     -39.375  10.515   4.045  1.00 20.00    -0.171 F 
HETATM    9  F10 UNL     1     -39.785  12.644   3.776  1.00 20.00    -0.171 F 
HETATM   10  F11 UNL     1     -38.006  12.003   4.861  1.00 20.00    -0.171 F 
ENDBRANCH   6   7
ENDBRANCH   5   6
ENDBRANCH   3   5
BRANCH   3  11
HETATM   11  O8  UNL     1     -39.720  13.403   7.975  1.00 20.00    -0.389 OA
HETATM   12  H22 UNL     1     -39.651  14.075   8.666  1.00 20.00     0.210 HD
ENDBRANCH   3  11
TORSDOF 4
ENDMDL
MODEL 4
REMARK VINA RESULT:      -4.4      2.734      4.318
REMARK  4 active torsions:
REMARK  status: ('A' for Active; 'I' for Inactive)
REMARK    1  A    between atoms: C3_3  and  C5_5 
REMARK    2  A    between atoms: C3_3  and  O8_8 
REMARK    3  A    between atoms: C5_5  and  C6_6 
REMARK    4  A    between atoms: C6_6  and  C7_7 
ROOT
HETATM    1  C1  UNL     1     -35.598   5.814   4.436  1.00 20.00     0.045 A 
HETATM    2  C2  UNL     1     -34.517   6.091   5.447  1.00 20.00     0.019 A 
HETATM    3  C3  UNL     1     -34.172   5.433   4.133  1.00 20.00     0.062 A 
HETATM    4  C4  UNL     1     -34.483   5.334   6.730  1.00 20.00     0.013 C 
ENDROOT
BRANCH   3   5
HETATM    5  C5  UNL     1     -33.405   6.190   3.100  1.00 20.00     0.047 C 
BRANCH   5   6
HETATM    6  C6  UNL     1     -32.338   7.090   3.726  1.00 20.00     0.120 C 
BRANCH   6   7
HETATM    7  C7  UNL     1     -32.752   8.546   3.730  1.00 20.00     0.388 C 
HETATM    8  F9  UNL     1     -32.638   9.093   2.502  1.00 20.00    -0.171 F 
HETATM    9  F10 UNL     1     -34.030   8.692   4.137  1.00 20.00    -0.171 F 
HETATM   10  F11 UNL     1     -31.970   9.258   4.570  1.00 20.00    -0.171 F 
ENDBRANCH   6   7
ENDBRANCH   5   6
ENDBRANCH   3   5
BRANCH   3  11
HETATM   11  O8  UNL     1     -33.880   4.026   4.153  1.00 20.00    -0.389 OA
HETATM   12  H22 UNL     1     -33.417   3.840   3.326  1.00 20.00     0.210 HD
ENDBRANCH   3  11
TORSDOF 4
ENDMDL
MODEL 5
REMARK VINA RESULT:      -4.3     12.085     12.759
REMARK  4 active torsions:
REMARK  status: ('A' for Active; 'I' for Inactive)
REMARK    1  A    between atoms: C3_3  and  C5_5 
REMARK    2  A    between atoms: C3_3  and  O8_8 
REMARK    3  A    between atoms: C5_5  and  C6_6 
REMARK    4  A    between atoms: C6_6  and  C7_7 
ROOT
HETATM    1  C1  UNL     1     -32.724  18.692  -1.844  1.00 20.00     0.045 A 
HETATM    2  C2  UNL     1     -33.263  17.905  -0.678  1.00 20.00     0.019 A 
HETATM    3  C3  UNL     1     -33.722  17.587  -2.080  1.00 20.00     0.062 A 
HETATM    4  C4  UNL     1     -34.168  18.560   0.310  1.00 20.00     0.013 C 
ENDROOT
BRANCH   3   5
HETATM    5  C5  UNL     1     -33.287  16.320  -2.736  1.00 20.00     0.047 C 
BRANCH   5   6
HETATM    6  C6  UNL     1     -33.963  16.117  -4.093  1.00 20.00     0.120 C 
BRANCH   6   7
HETATM    7  C7  UNL     1     -33.815  14.698  -4.597  1.00 20.00     0.388 C 
HETATM    8  F9  UNL     1     -34.785  13.898  -4.106  1.00 20.00    -0.171 F 
HETATM    9  F10 UNL     1     -33.873  14.646  -5.945  1.00 20.00    -0.171 F 
HETATM   10  F11 UNL     1     -32.627  14.181  -4.217  1.00 20.00    -0.171 F 
ENDBRANCH   6   7
ENDBRANCH   5   6
ENDBRANCH   3   5
BRANCH   3  11
HETATM   11  O8  UNL     1     -35.045  18.007  -2.454  1.00 20.00    -0.389 OA
HETATM   12  H22 UNL     1     -35.651  17.424  -1.978  1.00 20.00     0.210 HD
ENDBRANCH   3  11
TORSDOF 4
ENDMDL
MODEL 6
REMARK VINA RESULT:      -4.2      2.912      3.788
REMARK  4 active torsions:
REMARK  status: ('A' for Active; 'I' for Inactive)
REMARK    1  A    between atoms: C3_3  and  C5_5 
REMARK    2  A    between atoms: C3_3  and  O8_8 
REMARK    3  A    between atoms: C5_5  and  C6_6 
REMARK    4  A    between atoms: C6_6  and  C7_7 
ROOT
HETATM    1  C1  UNL     1     -34.048   4.350   4.805  1.00 20.00     0.045 A 
HETATM    2  C2  UNL     1     -33.306   5.188   3.798  1.00 20.00     0.019 A 
HETATM    3  C3  UNL     1     -34.342   5.824   4.692  1.00 20.00     0.062 A 
HETATM    4  C4  UNL     1     -33.547   4.992   2.340  1.00 20.00     0.013 C 
ENDROOT
BRANCH   3   5
HETATM    5  C5  UNL     1     -33.918   6.752   5.781  1.00 20.00     0.047 C 
BRANCH   5   6
HETATM    6  C6  UNL     1     -33.956   8.214   5.333  1.00 20.00     0.120 C 
BRANCH   6   7
HETATM    7  C7  UNL     1     -32.705   8.612   4.580  1.00 20.00     0.388 C 
HETATM    8  F9  UNL     1     -32.154   9.730   5.098  1.00 20.00    -0.171 F 
HETATM    9  F10 UNL     1     -31.777   7.633   4.617  1.00 20.00    -0.171 F 
HETATM   10  F11 UNL     1     -32.990   8.859   3.283  1.00 20.00    -0.171 F 
ENDBRANCH   6   7
ENDBRANCH   5   6
ENDBRANCH   3   5
BRANCH   3  11
HETATM   11  O8  UNL     1     -35.606   6.167   4.099  1.00 20.00    -0.389 OA
HETATM   12  H22 UNL     1     -35.765   7.090   4.335  1.00 20.00     0.210 HD
ENDBRANCH   3  11
TORSDOF 4
ENDMDL
MODEL 7
REMARK VINA RESULT:      -4.2      1.425      2.020
REMARK  4 active torsions:
REMARK  status: ('A' for Active; 'I' for Inactive)
REMARK    1  A    between atoms: C3_3  and  C5_5 
REMARK    2  A    between atoms: C3_3  and  O8_8 
REMARK    3  A    between atoms: C5_5  and  C6_6 
REMARK    4  A    between atoms: C6_6  and  C7_7 
ROOT
HETATM    1  C1  UNL     1     -32.273   7.735   2.877  1.00 20.00     0.045 A 
HETATM    2  C2  UNL     1     -32.070   7.893   4.361  1.00 20.00     0.019 A 
HETATM    3  C3  UNL     1     -33.356   7.305   3.833  1.00 20.00     0.062 A 
HETATM    4  C4  UNL     1     -32.025   9.253   4.968  1.00 20.00     0.013 C 
ENDROOT
BRANCH   3   5
HETATM    5  C5  UNL     1     -33.646   5.854   4.024  1.00 20.00     0.047 C 
BRANCH   5   6
HETATM    6  C6  UNL     1     -34.877   5.627   4.903  1.00 20.00     0.120 C 
BRANCH   6   7
HETATM    7  C7  UNL     1     -34.559   5.758   6.376  1.00 20.00     0.388 C 
HETATM    8  F9  UNL     1     -33.346   5.242   6.665  1.00 20.00    -0.171 F 
HETATM    9  F10 UNL     1     -34.568   7.050   6.768  1.00 20.00    -0.171 F 
HETATM   10  F11 UNL     1     -35.473   5.098   7.119  1.00 20.00    -0.171 F 
ENDBRANCH   6   7
ENDBRANCH   5   6
ENDBRANCH   3   5
BRANCH   3  11
HETATM   11  O8  UNL     1     -34.528   8.138   3.869  1.00 20.00    -0.389 OA
HETATM   12  H22 UNL     1     -34.272   8.932   4.357  1.00 20.00     0.210 HD
ENDBRANCH   3  11
TORSDOF 4
ENDMDL
MODEL 8
REMARK VINA RESULT:      -4.2      9.232     10.368
REMARK  4 active torsions:
REMARK  status: ('A' for Active; 'I' for Inactive)
REMARK    1  A    between atoms: C3_3  and  C5_5 
REMARK    2  A    between atoms: C3_3  and  O8_8 
REMARK    3  A    between atoms: C5_5  and  C6_6 
REMARK    4  A    between atoms: C6_6  and  C7_7 
ROOT
HETATM    1  C1  UNL     1     -42.862  14.181   6.796  1.00 20.00     0.045 A 
HETATM    2  C2  UNL     1     -42.260  13.980   8.162  1.00 20.00     0.019 A 
HETATM    3  C3  UNL     1     -41.816  13.117   7.007  1.00 20.00     0.062 A 
HETATM    4  C4  UNL     1     -43.092  13.433   9.271  1.00 20.00     0.013 C 
ENDROOT
BRANCH   3   5
HETATM    5  C5  UNL     1     -40.451  13.291   6.429  1.00 20.00     0.047 C 
BRANCH   5   6
HETATM    6  C6  UNL     1     -40.396  12.879   4.957  1.00 20.00     0.120 C 
BRANCH   6   7
HETATM    7  C7  UNL     1     -39.282  11.892   4.682  1.00 20.00     0.388 C 
HETATM    8  F9  UNL     1     -38.164  12.210   5.367  1.00 20.00    -0.171 F 
HETATM    9  F10 UNL     1     -39.641  10.637   5.026  1.00 20.00    -0.171 F 
HETATM   10  F11 UNL     1     -38.970  11.884   3.368  1.00 20.00    -0.171 F 
ENDBRANCH   6   7
ENDBRANCH   5   6
ENDBRANCH   3   5
BRANCH   3  11
HETATM   11  O8  UNL     1     -42.288  11.759   6.976  1.00 20.00    -0.389 OA
HETATM   12  H22 UNL     1     -43.123  11.759   7.461  1.00 20.00     0.210 HD
ENDBRANCH   3  11
TORSDOF 4
ENDMDL
MODEL 9
REMARK VINA RESULT:      -4.0     12.369     13.163
REMARK  4 active torsions:
REMARK  status: ('A' for Active; 'I' for Inactive)
REMARK    1  A    between atoms: C3_3  and  C5_5 
REMARK    2  A    between atoms: C3_3  and  O8_8 
REMARK    3  A    between atoms: C5_5  and  C6_6 
REMARK    4  A    between atoms: C6_6  and  C7_7 
ROOT
HETATM    1  C1  UNL     1     -34.339  14.337  -4.157  1.00 20.00     0.045 A 
HETATM    2  C2  UNL     1     -33.672  15.036  -5.313  1.00 20.00     0.019 A 
HETATM    3  C3  UNL     1     -34.032  15.809  -4.068  1.00 20.00     0.062 A 
HETATM    4  C4  UNL     1     -34.410  15.232  -6.593  1.00 20.00     0.013 C 
ENDROOT
BRANCH   3   5
HETATM    5  C5  UNL     1     -32.955  16.289  -3.152  1.00 20.00     0.047 C 
BRANCH   5   6
HETATM    6  C6  UNL     1     -33.524  17.010  -1.928  1.00 20.00     0.120 C 
BRANCH   6   7
HETATM    7  C7  UNL     1     -32.740  18.258  -1.586  1.00 20.00     0.388 C 
HETATM    8  F9  UNL     1     -32.381  18.934  -2.698  1.00 20.00    -0.171 F 
HETATM    9  F10 UNL     1     -33.458  19.090  -0.803  1.00 20.00    -0.171 F 
HETATM   10  F11 UNL     1     -31.610  17.939  -0.918  1.00 20.00    -0.171 F 
ENDBRANCH   6   7
ENDBRANCH   5   6
ENDBRANCH   3   5
BRANCH   3  11
HETATM   11  O8  UNL     1     -35.164  16.692  -4.141  1.00 20.00    -0.389 OA
HETATM   12  H22 UNL     1     -35.516  16.746  -3.243  1.00 20.00     0.210 HD
ENDBRANCH   3  11
TORSDOF 4
ENDMDL
