MODEL 1
REMARK VINA RESULT:      -3.6      0.000      0.000
REMARK  2 active torsions:
REMARK  status: ('A' for Active; 'I' for Inactive)
REMARK    1  A    between atoms: C4_4  and  C7_7 
REMARK    2  A    between atoms: C7_7  and  C8_8 
ROOT
HETATM    1  C1  UNL     1     -33.485  17.210  -1.780  1.00 20.00     0.034 C 
HETATM    2  C2  UNL     1     -32.405  18.105  -1.209  1.00 20.00     0.168 C 
HETATM    3  C3  UNL     1     -32.863  18.805  -3.383  1.00 20.00     0.173 C 
HETATM    4  C4  UNL     1     -33.233  17.337  -3.267  1.00 20.00     0.026 C 
HETATM    5  O9  UNL     1     -32.184  19.151  -2.166  1.00 20.00    -0.391 OA
ENDROOT
BRANCH   4   6
HETATM    6  C7  UNL     1     -34.410  16.933  -4.134  1.00 20.00     0.067 C 
HETATM    7 BR10 UNL     1     -34.919  18.474  -5.246  1.00 20.00    -0.090 Br
BRANCH   6   8
HETATM    8  C8  UNL     1     -34.202  15.688  -5.020  1.00 20.00    -0.008 C 
HETATM    9  C5  UNL     1     -35.538  15.215  -5.608  1.00 20.00     0.011 C 
HETATM   10  C6  UNL     1     -33.519  14.538  -4.315  1.00 20.00     0.011 C 
ENDBRANCH   6   8
ENDBRANCH   4   6
TORSDOF 2
ENDMDL
MODEL 2
REMARK VINA RESULT:      -3.6     12.713     13.664
REMARK  2 active torsions:
REMARK  status: ('A' for Active; 'I' for Inactive)
REMARK    1  A    between atoms: C4_4  and  C7_7 
REMARK    2  A    between atoms: C7_7  and  C8_8 
ROOT
HETATM    1  C1  UNL     1     -33.898   6.731   6.154  1.00 20.00     0.034 C 
HETATM    2  C2  UNL     1     -35.008   5.924   6.794  1.00 20.00     0.168 C 
HETATM    3  C3  UNL     1     -34.508   4.972   4.728  1.00 20.00     0.173 C 
HETATM    4  C4  UNL     1     -34.113   6.437   4.686  1.00 20.00     0.026 C 
HETATM    5  O9  UNL     1     -35.224   4.779   5.956  1.00 20.00    -0.391 OA
ENDROOT
BRANCH   4   6
HETATM    6  C7  UNL     1     -32.906   6.721   3.812  1.00 20.00     0.067 C 
HETATM    7 BR10 UNL     1     -32.832   5.356   2.396  1.00 20.00    -0.090 Br
BRANCH   6   8
HETATM    8  C8  UNL     1     -32.836   8.131   3.191  1.00 20.00    -0.008 C 
HETATM    9  C5  UNL     1     -32.082   8.096   1.855  1.00 20.00     0.011 C 
HETATM   10  C6  UNL     1     -32.221   9.173   4.098  1.00 20.00     0.011 C 
ENDBRANCH   6   8
ENDBRANCH   4   6
TORSDOF 2
ENDMDL
MODEL 3
REMARK VINA RESULT:      -3.6      2.063      4.138
REMARK  2 active torsions:
REMARK  status: ('A' for Active; 'I' for Inactive)
REMARK    1  A    between atoms: C4_4  and  C7_7 
REMARK    2  A    between atoms: C7_7  and  C8_8 
ROOT
HETATM    1  C1  UNL     1     -33.151  15.335  -3.960  1.00 20.00     0.034 C 
HETATM    2  C2  UNL     1     -34.245  14.787  -4.852  1.00 20.00     0.168 C 
HETATM    3  C3  UNL     1     -34.637  17.060  -4.522  1.00 20.00     0.173 C 
HETATM    4  C4  UNL     1     -33.830  16.539  -3.346  1.00 20.00     0.026 C 
HETATM    5  O9  UNL     1     -35.023  15.911  -5.291  1.00 20.00    -0.391 OA
ENDROOT
BRANCH   4   6
HETATM    6  C7  UNL     1     -32.874  17.560  -2.759  1.00 20.00     0.067 C 
HETATM    7 BR10 UNL     1     -33.121  19.261  -3.717  1.00 20.00    -0.090 Br
BRANCH   6   8
HETATM    8  C8  UNL     1     -32.979  17.791  -1.238  1.00 20.00    -0.008 C 
HETATM    9  C5  UNL     1     -34.247  18.583  -0.898  1.00 20.00     0.011 C 
HETATM   10  C6  UNL     1     -31.772  18.474  -0.636  1.00 20.00     0.011 C 
ENDBRANCH   6   8
ENDBRANCH   4   6
TORSDOF 2
ENDMDL
MODEL 4
REMARK VINA RESULT:      -3.5     12.431     13.384
REMARK  2 active torsions:
REMARK  status: ('A' for Active; 'I' for Inactive)
REMARK    1  A    between atoms: C4_4  and  C7_7 
REMARK    2  A    between atoms: C7_7  and  C8_8 
ROOT
HETATM    1  C1  UNL     1     -34.765   5.823   4.644  1.00 20.00     0.034 C 
HETATM    2  C2  UNL     1     -35.168   5.300   6.006  1.00 20.00     0.168 C 
HETATM    3  C3  UNL     1     -33.857   7.202   6.310  1.00 20.00     0.173 C 
HETATM    4  C4  UNL     1     -33.499   6.584   4.970  1.00 20.00     0.026 C 
HETATM    5  O9  UNL     1     -34.724   6.266   6.970  1.00 20.00    -0.391 OA
ENDROOT
BRANCH   4   6
HETATM    6  C7  UNL     1     -33.095   7.598   3.917  1.00 20.00     0.067 C 
HETATM    7 BR10 UNL     1     -32.198   9.101   4.817  1.00 20.00    -0.090 Br
BRANCH   6   8
HETATM    8  C8  UNL     1     -32.212   7.068   2.768  1.00 20.00    -0.008 C 
HETATM    9  C5  UNL     1     -32.211   8.051   1.591  1.00 20.00     0.011 C 
HETATM   10  C6  UNL     1     -32.598   5.689   2.283  1.00 20.00     0.011 C 
ENDBRANCH   6   8
ENDBRANCH   4   6
TORSDOF 2
ENDMDL
MODEL 5
REMARK VINA RESULT:      -3.5      2.069      4.138
REMARK  2 active torsions:
REMARK  status: ('A' for Active; 'I' for Inactive)
REMARK    1  A    between atoms: C4_4  and  C7_7 
REMARK    2  A    between atoms: C7_7  and  C8_8 
ROOT
HETATM    1  C1  UNL     1     -32.950  15.428  -3.747  1.00 20.00     0.034 C 
HETATM    2  C2  UNL     1     -34.027  14.607  -4.425  1.00 20.00     0.168 C 
HETATM    3  C3  UNL     1     -34.672  16.845  -4.475  1.00 20.00     0.173 C 
HETATM    4  C4  UNL     1     -33.729  16.646  -3.301  1.00 20.00     0.026 C 
HETATM    5  O9  UNL     1     -34.966  15.536  -4.986  1.00 20.00    -0.391 OA
ENDROOT
BRANCH   4   6
HETATM    6  C7  UNL     1     -32.869  17.857  -2.996  1.00 20.00     0.067 C 
HETATM    7 BR10 UNL     1     -33.287  19.261  -4.310  1.00 20.00    -0.090 Br
BRANCH   6   8
HETATM    8  C8  UNL     1     -32.978  18.423  -1.566  1.00 20.00    -0.008 C 
HETATM    9  C5  UNL     1     -31.625  18.342  -0.848  1.00 20.00     0.011 C 
HETATM   10  C6  UNL     1     -34.044  17.762  -0.723  1.00 20.00     0.011 C 
ENDBRANCH   6   8
ENDBRANCH   4   6
TORSDOF 2
ENDMDL
MODEL 6
REMARK VINA RESULT:      -3.5      2.035      4.192
REMARK  2 active torsions:
REMARK  status: ('A' for Active; 'I' for Inactive)
REMARK    1  A    between atoms: C4_4  and  C7_7 
REMARK    2  A    between atoms: C7_7  and  C8_8 
ROOT
HETATM    1  C1  UNL     1     -34.603  17.408  -4.583  1.00 20.00     0.034 C 
HETATM    2  C2  UNL     1     -34.473  16.074  -5.288  1.00 20.00     0.168 C 
HETATM    3  C3  UNL     1     -33.322  15.951  -3.266  1.00 20.00     0.173 C 
HETATM    4  C4  UNL     1     -33.379  17.406  -3.695  1.00 20.00     0.026 C 
HETATM    5  O9  UNL     1     -33.823  15.182  -4.370  1.00 20.00    -0.391 OA
ENDROOT
BRANCH   4   6
HETATM    6  C7  UNL     1     -33.450  18.383  -2.536  1.00 20.00     0.067 C 
HETATM    7 BR10 UNL     1     -35.328  18.914  -2.288  1.00 20.00    -0.090 Br
BRANCH   6   8
HETATM    8  C8  UNL     1     -32.858  17.892  -1.199  1.00 20.00    -0.008 C 
HETATM    9  C5  UNL     1     -33.902  17.989  -0.079  1.00 20.00     0.011 C 
HETATM   10  C6  UNL     1     -31.595  18.613  -0.785  1.00 20.00     0.011 C 
ENDBRANCH   6   8
ENDBRANCH   4   6
TORSDOF 2
ENDMDL
MODEL 7
REMARK VINA RESULT:      -3.4      1.961      2.340
REMARK  2 active torsions:
REMARK  status: ('A' for Active; 'I' for Inactive)
REMARK    1  A    between atoms: C4_4  and  C7_7 
REMARK    2  A    between atoms: C7_7  and  C8_8 
ROOT
HETATM    1  C1  UNL     1     -33.457  16.585  -2.336  1.00 20.00     0.034 C 
HETATM    2  C2  UNL     1     -33.651  17.598  -1.228  1.00 20.00     0.168 C 
HETATM    3  C3  UNL     1     -34.987  18.220  -3.033  1.00 20.00     0.173 C 
HETATM    4  C4  UNL     1     -33.827  17.393  -3.559  1.00 20.00     0.026 C 
HETATM    5  O9  UNL     1     -34.708  18.474  -1.647  1.00 20.00    -0.391 OA
ENDROOT
BRANCH   4   6
HETATM    6  C7  UNL     1     -34.176  16.557  -4.776  1.00 20.00     0.067 C 
HETATM    7 BR10 UNL     1     -33.872  14.663  -4.333  1.00 20.00    -0.090 Br
BRANCH   6   8
HETATM    8  C8  UNL     1     -35.597  16.745  -5.343  1.00 20.00    -0.008 C 
HETATM    9  C5  UNL     1     -36.279  15.387  -5.554  1.00 20.00     0.011 C 
HETATM   10  C6  UNL     1     -35.646  17.545  -6.625  1.00 20.00     0.011 C 
ENDBRANCH   6   8
ENDBRANCH   4   6
TORSDOF 2
ENDMDL
MODEL 8
REMARK VINA RESULT:      -3.3      1.439      1.802
REMARK  2 active torsions:
REMARK  status: ('A' for Active; 'I' for Inactive)
REMARK    1  A    between atoms: C4_4  and  C7_7 
REMARK    2  A    between atoms: C7_7  and  C8_8 
ROOT
HETATM    1  C1  UNL     1     -33.531  16.310  -3.157  1.00 20.00     0.034 C 
HETATM    2  C2  UNL     1     -33.249  17.090  -1.890  1.00 20.00     0.168 C 
HETATM    3  C3  UNL     1     -34.924  18.195  -3.073  1.00 20.00     0.173 C 
HETATM    4  C4  UNL     1     -34.100  17.384  -4.058  1.00 20.00     0.026 C 
HETATM    5  O9  UNL     1     -34.233  18.131  -1.816  1.00 20.00    -0.391 OA
ENDROOT
BRANCH   4   6
HETATM    6  C7  UNL     1     -34.900  16.852  -5.232  1.00 20.00     0.067 C 
HETATM    7 BR10 UNL     1     -34.592  18.032  -6.776  1.00 20.00    -0.090 Br
BRANCH   6   8
HETATM    8  C8  UNL     1     -34.631  15.385  -5.626  1.00 20.00    -0.008 C 
HETATM    9  C5  UNL     1     -34.006  15.307  -7.024  1.00 20.00     0.011 C 
HETATM   10  C6  UNL     1     -35.854  14.498  -5.562  1.00 20.00     0.011 C 
ENDBRANCH   6   8
ENDBRANCH   4   6
TORSDOF 2
ENDMDL
MODEL 9
REMARK VINA RESULT:      -3.3     12.589     13.769
REMARK  2 active torsions:
REMARK  status: ('A' for Active; 'I' for Inactive)
REMARK    1  A    between atoms: C4_4  and  C7_7 
REMARK    2  A    between atoms: C7_7  and  C8_8 
ROOT
HETATM    1  C1  UNL     1     -39.732  12.422   6.459  1.00 20.00     0.034 C 
HETATM    2  C2  UNL     1     -39.375  11.860   5.099  1.00 20.00     0.168 C 
HETATM    3  C3  UNL     1     -41.121  13.379   4.829  1.00 20.00     0.173 C 
HETATM    4  C4  UNL     1     -41.170  12.843   6.249  1.00 20.00     0.026 C 
HETATM    5  O9  UNL     1     -40.140  12.596   4.132  1.00 20.00    -0.391 OA
ENDROOT
BRANCH   4   6
HETATM    6  C7  UNL     1     -41.679  13.847   7.265  1.00 20.00     0.067 C 
HETATM    7 BR10 UNL     1     -43.108  12.996   8.316  1.00 20.00    -0.090 Br
BRANCH   6   8
HETATM    8  C8  UNL     1     -40.620  14.454   8.208  1.00 20.00    -0.008 C 
HETATM    9  C5  UNL     1     -41.035  14.274   9.673  1.00 20.00     0.011 C 
HETATM   10  C6  UNL     1     -40.317  15.910   7.937  1.00 20.00     0.011 C 
ENDBRANCH   6   8
ENDBRANCH   4   6
TORSDOF 2
ENDMDL
