MODEL 1
REMARK VINA RESULT:      -4.5      0.000      0.000
REMARK  2 active torsions:
REMARK  status: ('A' for Active; 'I' for Inactive)
REMARK    1  A    between atoms: C4_4  and  C5_5 
REMARK    2  A    between atoms: C6_6  and  C7_7 
ROOT
HETATM    1  C1  UNL     1     -34.102   6.527   6.395  1.00 20.00     0.038 A 
HETATM    2  C2  UNL     1     -34.530   5.228   6.542  1.00 20.00     0.142 A 
HETATM    3  C3  UNL     1     -34.544   5.633   4.401  1.00 20.00     0.152 A 
HETATM    4  C4  UNL     1     -34.111   6.789   5.005  1.00 20.00    -0.011 A 
HETATM    5  O10 UNL     1     -34.802   4.676   5.331  1.00 20.00    -0.334 OA
ENDROOT
BRANCH   4   6
HETATM    6  C5  UNL     1     -33.741   8.030   4.311  1.00 20.00     0.023 C 
HETATM    7  C7  UNL     1     -32.824   8.130   3.336  1.00 20.00    -0.024 C 
HETATM    8  C8  UNL     1     -32.016   7.027   2.725  1.00 20.00     0.051 C 
BRANCH   7   9
HETATM    9  C6  UNL     1     -32.610   9.500   2.791  1.00 20.00     0.265 C 
HETATM   10  O9  UNL     1     -32.894   9.812   1.640  1.00 20.00    -0.302 OA
ENDBRANCH   7   9
ENDBRANCH   4   6
TORSDOF 2
ENDMDL
MODEL 2
REMARK VINA RESULT:      -4.1     11.921     12.698
REMARK  2 active torsions:
REMARK  status: ('A' for Active; 'I' for Inactive)
REMARK    1  A    between atoms: C4_4  and  C5_5 
REMARK    2  A    between atoms: C6_6  and  C7_7 
ROOT
HETATM    1  C1  UNL     1     -33.302  15.653  -3.572  1.00 20.00     0.038 A 
HETATM    2  C2  UNL     1     -34.318  15.380  -4.458  1.00 20.00     0.142 A 
HETATM    3  C3  UNL     1     -34.437  17.515  -4.039  1.00 20.00     0.152 A 
HETATM    4  C4  UNL     1     -33.380  17.039  -3.299  1.00 20.00    -0.011 A 
HETATM    5  O10 UNL     1     -35.014  16.510  -4.748  1.00 20.00    -0.334 OA
ENDROOT
BRANCH   4   6
HETATM    6  C5  UNL     1     -32.526  17.842  -2.414  1.00 20.00     0.023 C 
HETATM    7  C7  UNL     1     -32.779  18.106  -1.122  1.00 20.00    -0.024 C 
HETATM    8  C8  UNL     1     -33.936  17.627  -0.301  1.00 20.00     0.051 C 
BRANCH   7   9
HETATM    9  C6  UNL     1     -31.771  18.957  -0.430  1.00 20.00     0.265 C 
HETATM   10  O9  UNL     1     -30.577  18.685  -0.399  1.00 20.00    -0.302 OA
ENDBRANCH   7   9
ENDBRANCH   4   6
TORSDOF 2
ENDMDL
MODEL 3
REMARK VINA RESULT:      -4.1     12.174     12.976
REMARK  2 active torsions:
REMARK  status: ('A' for Active; 'I' for Inactive)
REMARK    1  A    between atoms: C4_4  and  C5_5 
REMARK    2  A    between atoms: C6_6  and  C7_7 
ROOT
HETATM    1  C1  UNL     1     -33.327  16.594  -2.651  1.00 20.00     0.038 A 
HETATM    2  C2  UNL     1     -33.997  16.757  -3.842  1.00 20.00     0.142 A 
HETATM    3  C3  UNL     1     -33.187  18.714  -3.330  1.00 20.00     0.152 A 
HETATM    4  C4  UNL     1     -32.801  17.865  -2.320  1.00 20.00    -0.011 A 
HETATM    5  O10 UNL     1     -33.916  18.046  -4.262  1.00 20.00    -0.334 OA
ENDROOT
BRANCH   4   6
HETATM    6  C5  UNL     1     -32.003  18.241  -1.146  1.00 20.00     0.023 C 
HETATM    7  C7  UNL     1     -32.490  18.454   0.088  1.00 20.00    -0.024 C 
HETATM    8  C8  UNL     1     -33.910  18.324   0.545  1.00 20.00     0.051 C 
BRANCH   7   9
HETATM    9  C6  UNL     1     -31.485  18.841   1.118  1.00 20.00     0.265 C 
HETATM   10  O9  UNL     1     -30.344  19.191   0.839  1.00 20.00    -0.302 OA
ENDBRANCH   7   9
ENDBRANCH   4   6
TORSDOF 2
ENDMDL
MODEL 4
REMARK VINA RESULT:      -4.1      1.035      1.322
REMARK  2 active torsions:
REMARK  status: ('A' for Active; 'I' for Inactive)
REMARK    1  A    between atoms: C4_4  and  C5_5 
REMARK    2  A    between atoms: C6_6  and  C7_7 
ROOT
HETATM    1  C1  UNL     1     -34.064   6.773   5.659  1.00 20.00     0.038 A 
HETATM    2  C2  UNL     1     -34.719   5.897   6.492  1.00 20.00     0.142 A 
HETATM    3  C3  UNL     1     -34.379   4.821   4.628  1.00 20.00     0.152 A 
HETATM    4  C4  UNL     1     -33.844   6.075   4.449  1.00 20.00    -0.011 A 
HETATM    5  O10 UNL     1     -34.914   4.704   5.871  1.00 20.00    -0.334 OA
ENDROOT
BRANCH   4   6
HETATM    6  C5  UNL     1     -33.184   6.555   3.228  1.00 20.00     0.023 C 
HETATM    7  C7  UNL     1     -32.509   7.711   3.113  1.00 20.00    -0.024 C 
HETATM    8  C8  UNL     1     -32.251   8.727   4.182  1.00 20.00     0.051 C 
BRANCH   7   9
HETATM    9  C6  UNL     1     -31.936   7.991   1.766  1.00 20.00     0.265 C 
HETATM   10  O9  UNL     1     -32.410   8.822   1.000  1.00 20.00    -0.302 OA
ENDBRANCH   7   9
ENDBRANCH   4   6
TORSDOF 2
ENDMDL
MODEL 5
REMARK VINA RESULT:      -4.0     11.549     12.511
REMARK  2 active torsions:
REMARK  status: ('A' for Active; 'I' for Inactive)
REMARK    1  A    between atoms: C4_4  and  C5_5 
REMARK    2  A    between atoms: C6_6  and  C7_7 
ROOT
HETATM    1  C1  UNL     1     -34.042  17.760  -0.572  1.00 20.00     0.038 A 
HETATM    2  C2  UNL     1     -33.502  18.878   0.020  1.00 20.00     0.142 A 
HETATM    3  C3  UNL     1     -32.168  18.357  -1.621  1.00 20.00     0.152 A 
HETATM    4  C4  UNL     1     -33.176  17.422  -1.637  1.00 20.00    -0.011 A 
HETATM    5  O10 UNL     1     -32.360  19.248  -0.614  1.00 20.00    -0.334 OA
ENDROOT
BRANCH   4   6
HETATM    6  C5  UNL     1     -33.292  16.308  -2.587  1.00 20.00     0.023 C 
HETATM    7  C7  UNL     1     -33.843  16.385  -3.810  1.00 20.00    -0.024 C 
HETATM    8  C8  UNL     1     -34.414  17.596  -4.480  1.00 20.00     0.051 C 
BRANCH   7   9
HETATM    9  C6  UNL     1     -33.861  15.115  -4.589  1.00 20.00     0.265 C 
HETATM   10  O9  UNL     1     -34.032  14.017  -4.071  1.00 20.00    -0.302 OA
ENDBRANCH   7   9
ENDBRANCH   4   6
TORSDOF 2
ENDMDL
MODEL 6
REMARK VINA RESULT:      -3.9     12.116     13.058
REMARK  2 active torsions:
REMARK  status: ('A' for Active; 'I' for Inactive)
REMARK    1  A    between atoms: C4_4  and  C5_5 
REMARK    2  A    between atoms: C6_6  and  C7_7 
ROOT
HETATM    1  C1  UNL     1     -33.325  17.256  -1.828  1.00 20.00     0.038 A 
HETATM    2  C2  UNL     1     -32.486  18.230  -1.339  1.00 20.00     0.142 A 
HETATM    3  C3  UNL     1     -32.868  18.749  -3.420  1.00 20.00     0.152 A 
HETATM    4  C4  UNL     1     -33.573  17.593  -3.180  1.00 20.00    -0.011 A 
HETATM    5  O10 UNL     1     -32.204  19.144  -2.304  1.00 20.00    -0.334 OA
ENDROOT
BRANCH   4   6
HETATM    6  C5  UNL     1     -34.404  16.880  -4.158  1.00 20.00     0.023 C 
HETATM    7  C7  UNL     1     -34.142  15.661  -4.658  1.00 20.00    -0.024 C 
HETATM    8  C8  UNL     1     -32.995  14.761  -4.315  1.00 20.00     0.051 C 
BRANCH   7   9
HETATM    9  C6  UNL     1     -35.127  15.147  -5.650  1.00 20.00     0.265 C 
HETATM   10  O9  UNL     1     -34.813  14.797  -6.782  1.00 20.00    -0.302 OA
ENDBRANCH   7   9
ENDBRANCH   4   6
TORSDOF 2
ENDMDL
MODEL 7
REMARK VINA RESULT:      -3.9      9.178      9.849
REMARK  2 active torsions:
REMARK  status: ('A' for Active; 'I' for Inactive)
REMARK    1  A    between atoms: C4_4  and  C5_5 
REMARK    2  A    between atoms: C6_6  and  C7_7 
ROOT
HETATM    1  C1  UNL     1     -42.495  12.818   6.926  1.00 20.00     0.038 A 
HETATM    2  C2  UNL     1     -42.954  13.798   7.775  1.00 20.00     0.142 A 
HETATM    3  C3  UNL     1     -41.411  14.730   6.552  1.00 20.00     0.152 A 
HETATM    4  C4  UNL     1     -41.493  13.423   6.132  1.00 20.00    -0.011 A 
HETATM    5  O10 UNL     1     -42.298  14.967   7.552  1.00 20.00    -0.334 OA
ENDROOT
BRANCH   4   6
HETATM    6  C5  UNL     1     -40.683  12.815   5.069  1.00 20.00     0.023 C 
HETATM    7  C7  UNL     1     -39.504  12.196   5.248  1.00 20.00    -0.024 C 
HETATM    8  C8  UNL     1     -38.785  11.959   6.539  1.00 20.00     0.051 C 
BRANCH   7   9
HETATM    9  C6  UNL     1     -38.860  11.669   4.013  1.00 20.00     0.265 C 
HETATM   10  O9  UNL     1     -39.194  12.015   2.886  1.00 20.00    -0.302 OA
ENDBRANCH   7   9
ENDBRANCH   4   6
TORSDOF 2
ENDMDL
MODEL 8
REMARK VINA RESULT:      -3.8     11.959     12.865
REMARK  2 active torsions:
REMARK  status: ('A' for Active; 'I' for Inactive)
REMARK    1  A    between atoms: C4_4  and  C5_5 
REMARK    2  A    between atoms: C6_6  and  C7_7 
ROOT
HETATM    1  C1  UNL     1     -30.897  18.423  -0.050  1.00 20.00     0.038 A 
HETATM    2  C2  UNL     1     -30.994  18.388   1.322  1.00 20.00     0.142 A 
HETATM    3  C3  UNL     1     -32.945  19.027   0.593  1.00 20.00     0.152 A 
HETATM    4  C4  UNL     1     -32.164  18.838  -0.523  1.00 20.00    -0.011 A 
HETATM    5  O10 UNL     1     -32.239  18.755   1.721  1.00 20.00    -0.334 OA
ENDROOT
BRANCH   4   6
HETATM    6  C5  UNL     1     -32.596  19.038  -1.912  1.00 20.00     0.023 C 
HETATM    7  C7  UNL     1     -33.117  18.090  -2.708  1.00 20.00    -0.024 C 
HETATM    8  C8  UNL     1     -33.403  16.662  -2.360  1.00 20.00     0.051 C 
BRANCH   7   9
HETATM    9  C6  UNL     1     -33.469  18.529  -4.087  1.00 20.00     0.265 C 
HETATM   10  O9  UNL     1     -34.022  17.797  -4.900  1.00 20.00    -0.302 OA
ENDBRANCH   7   9
ENDBRANCH   4   6
TORSDOF 2
ENDMDL
MODEL 9
REMARK VINA RESULT:      -3.8     11.690     13.245
REMARK  2 active torsions:
REMARK  status: ('A' for Active; 'I' for Inactive)
REMARK    1  A    between atoms: C4_4  and  C5_5 
REMARK    2  A    between atoms: C6_6  and  C7_7 
ROOT
HETATM    1  C1  UNL     1     -34.798  16.193  -7.181  1.00 20.00     0.038 A 
HETATM    2  C2  UNL     1     -35.539  15.298  -7.918  1.00 20.00     0.142 A 
HETATM    3  C3  UNL     1     -35.891  14.799  -5.826  1.00 20.00     0.152 A 
HETATM    4  C4  UNL     1     -35.026  15.868  -5.823  1.00 20.00    -0.011 A 
HETATM    5  O10 UNL     1     -36.208  14.446  -7.099  1.00 20.00    -0.334 OA
ENDROOT
BRANCH   4   6
HETATM    6  C5  UNL     1     -34.472  16.515  -4.627  1.00 20.00     0.023 C 
HETATM    7  C7  UNL     1     -33.444  16.050  -3.898  1.00 20.00    -0.024 C 
HETATM    8  C8  UNL     1     -32.629  14.820  -4.151  1.00 20.00     0.051 C 
BRANCH   7   9
HETATM    9  C6  UNL     1     -33.067  16.875  -2.717  1.00 20.00     0.265 C 
HETATM   10  O9  UNL     1     -33.663  16.820  -1.647  1.00 20.00    -0.302 OA
ENDBRANCH   7   9
ENDBRANCH   4   6
TORSDOF 2
ENDMDL
