MODEL 1
REMARK VINA RESULT:      -4.4      0.000      0.000
REMARK  4 active torsions:
REMARK  status: ('A' for Active; 'I' for Inactive)
REMARK    1  A    between atoms: C1_1  and  C9_9 
REMARK    2  A    between atoms: C2_2  and  C7_7 
REMARK    3  A    between atoms: C2_2  and  C8_8 
REMARK    4  A    between atoms: C8_8  and  O10_10 
ROOT
HETATM    1  C1  UNL     1     -33.679   7.057   4.884  1.00 20.00    -0.013 C 
HETATM    2  C2  UNL     1     -32.825   7.552   3.962  1.00 20.00    -0.060 C 
ENDROOT
BRANCH   2   3
HETATM    3  C7  UNL     1     -32.481   6.912   2.637  1.00 20.00     0.031 C 
HETATM    4  C3  UNL     1     -32.154   7.935   1.557  1.00 20.00     0.010 C 
ENDBRANCH   2   3
BRANCH   2   5
HETATM    5  C8  UNL     1     -32.148   8.880   4.231  1.00 20.00     0.198 C 
BRANCH   5   6
HETATM    6  O10 UNL     1     -32.062   9.100   5.633  1.00 20.00    -0.397 OA
HETATM    7  H28 UNL     1     -32.922   9.451   5.914  1.00 20.00     0.209 HD
ENDBRANCH   5   6
ENDBRANCH   2   5
BRANCH   1   8
HETATM    8  C9  UNL     1     -34.494   5.767   4.919  1.00 20.00    -0.033 C 
HETATM    9  C4  UNL     1     -35.868   5.981   4.261  1.00 20.00     0.018 C 
HETATM   10  C5  UNL     1     -33.768   4.573   4.271  1.00 20.00     0.018 C 
HETATM   11  C6  UNL     1     -34.736   5.395   6.401  1.00 20.00     0.018 C 
ENDBRANCH   1   8
TORSDOF 4
ENDMDL
MODEL 2
REMARK VINA RESULT:      -4.1     11.768     12.964
REMARK  4 active torsions:
REMARK  status: ('A' for Active; 'I' for Inactive)
REMARK    1  A    between atoms: C1_1  and  C9_9 
REMARK    2  A    between atoms: C2_2  and  C7_7 
REMARK    3  A    between atoms: C2_2  and  C8_8 
REMARK    4  A    between atoms: C8_8  and  O10_10 
ROOT
HETATM    1  C1  UNL     1     -33.475  16.668  -2.482  1.00 20.00    -0.013 C 
HETATM    2  C2  UNL     1     -33.716  16.283  -3.754  1.00 20.00    -0.060 C 
ENDROOT
BRANCH   2   3
HETATM    3  C7  UNL     1     -34.257  17.161  -4.859  1.00 20.00     0.031 C 
HETATM    4  C3  UNL     1     -35.641  16.732  -5.328  1.00 20.00     0.010 C 
ENDBRANCH   2   3
BRANCH   2   5
HETATM    5  C8  UNL     1     -33.409  14.856  -4.158  1.00 20.00     0.198 C 
BRANCH   5   6
HETATM    6  O10 UNL     1     -32.036  14.744  -4.514  1.00 20.00    -0.397 OA
HETATM    7  H28 UNL     1     -31.837  13.795  -4.561  1.00 20.00     0.209 HD
ENDBRANCH   5   6
ENDBRANCH   2   5
BRANCH   1   8
HETATM    8  C9  UNL     1     -33.683  18.002  -1.771  1.00 20.00    -0.033 C 
HETATM    9  C4  UNL     1     -32.551  18.982  -2.123  1.00 20.00     0.018 C 
HETATM   10  C5  UNL     1     -35.054  18.638  -2.065  1.00 20.00     0.018 C 
HETATM   11  C6  UNL     1     -33.625  17.745  -0.247  1.00 20.00     0.018 C 
ENDBRANCH   1   8
TORSDOF 4
ENDMDL
MODEL 3
REMARK VINA RESULT:      -4.0     11.713     13.119
REMARK  4 active torsions:
REMARK  status: ('A' for Active; 'I' for Inactive)
REMARK    1  A    between atoms: C1_1  and  C9_9 
REMARK    2  A    between atoms: C2_2  and  C7_7 
REMARK    3  A    between atoms: C2_2  and  C8_8 
REMARK    4  A    between atoms: C8_8  and  O10_10 
ROOT
HETATM    1  C1  UNL     1     -33.210  16.594  -3.001  1.00 20.00    -0.013 C 
HETATM    2  C2  UNL     1     -33.897  15.997  -3.998  1.00 20.00    -0.060 C 
ENDROOT
BRANCH   2   3
HETATM    3  C7  UNL     1     -34.965  16.643  -4.851  1.00 20.00     0.031 C 
HETATM    4  C3  UNL     1     -34.543  16.797  -6.306  1.00 20.00     0.010 C 
ENDBRANCH   2   3
BRANCH   2   5
HETATM    5  C8  UNL     1     -33.583  14.556  -4.343  1.00 20.00     0.198 C 
BRANCH   5   6
HETATM    6  O10 UNL     1     -34.732  13.749  -4.124  1.00 20.00    -0.397 OA
HETATM    7  H28 UNL     1     -34.588  13.277  -3.288  1.00 20.00     0.209 HD
ENDBRANCH   5   6
ENDBRANCH   2   5
BRANCH   1   8
HETATM    8  C9  UNL     1     -33.295  18.001  -2.413  1.00 20.00    -0.033 C 
HETATM    9  C4  UNL     1     -32.863  19.046  -3.456  1.00 20.00     0.018 C 
HETATM   10  C5  UNL     1     -34.689  18.341  -1.856  1.00 20.00     0.018 C 
HETATM   11  C6  UNL     1     -32.305  18.083  -1.228  1.00 20.00     0.018 C 
ENDBRANCH   1   8
TORSDOF 4
ENDMDL
MODEL 4
REMARK VINA RESULT:      -3.8     11.792     13.097
REMARK  4 active torsions:
REMARK  status: ('A' for Active; 'I' for Inactive)
REMARK    1  A    between atoms: C1_1  and  C9_9 
REMARK    2  A    between atoms: C2_2  and  C7_7 
REMARK    3  A    between atoms: C2_2  and  C8_8 
REMARK    4  A    between atoms: C8_8  and  O10_10 
ROOT
HETATM    1  C1  UNL     1     -33.284  16.507  -3.037  1.00 20.00    -0.013 C 
HETATM    2  C2  UNL     1     -33.755  16.016  -4.203  1.00 20.00    -0.060 C 
ENDROOT
BRANCH   2   3
HETATM    3  C7  UNL     1     -34.444  16.813  -5.287  1.00 20.00     0.031 C 
HETATM    4  C3  UNL     1     -35.954  16.616  -5.292  1.00 20.00     0.010 C 
ENDBRANCH   2   3
BRANCH   2   5
HETATM    5  C8  UNL     1     -33.574  14.543  -4.504  1.00 20.00     0.198 C 
BRANCH   5   6
HETATM    6  O10 UNL     1     -34.622  13.797  -3.897  1.00 20.00    -0.397 OA
HETATM    7  H28 UNL     1     -35.273  14.441  -3.576  1.00 20.00     0.209 HD
ENDBRANCH   5   6
ENDBRANCH   2   5
BRANCH   1   8
HETATM    8  C9  UNL     1     -33.318  17.913  -2.442  1.00 20.00    -0.033 C 
HETATM    9  C4  UNL     1     -32.508  17.964  -1.135  1.00 20.00     0.018 C 
HETATM   10  C5  UNL     1     -32.829  18.997  -3.420  1.00 20.00     0.018 C 
HETATM   11  C6  UNL     1     -34.788  18.249  -2.097  1.00 20.00     0.018 C 
ENDBRANCH   1   8
TORSDOF 4
ENDMDL
MODEL 5
REMARK VINA RESULT:      -3.5     11.832     14.130
REMARK  4 active torsions:
REMARK  status: ('A' for Active; 'I' for Inactive)
REMARK    1  A    between atoms: C1_1  and  C9_9 
REMARK    2  A    between atoms: C2_2  and  C7_7 
REMARK    3  A    between atoms: C2_2  and  C8_8 
REMARK    4  A    between atoms: C8_8  and  O10_10 
ROOT
HETATM    1  C1  UNL     1     -35.882  15.952  -6.195  1.00 20.00    -0.013 C 
HETATM    2  C2  UNL     1     -35.364  14.989  -5.402  1.00 20.00    -0.060 C 
ENDROOT
BRANCH   2   3
HETATM    3  C7  UNL     1     -33.903  14.816  -5.057  1.00 20.00     0.031 C 
HETATM    4  C3  UNL     1     -33.513  15.531  -3.770  1.00 20.00     0.010 C 
ENDBRANCH   2   3
BRANCH   2   5
HETATM    5  C8  UNL     1     -36.300  13.986  -4.762  1.00 20.00     0.198 C 
BRANCH   5   6
HETATM    6  O10 UNL     1     -35.582  12.805  -4.427  1.00 20.00    -0.397 OA
HETATM    7  H28 UNL     1     -34.641  13.003  -4.561  1.00 20.00     0.209 HD
ENDBRANCH   5   6
ENDBRANCH   2   5
BRANCH   1   8
HETATM    8  C9  UNL     1     -35.221  17.080  -6.982  1.00 20.00    -0.033 C 
HETATM    9  C4  UNL     1     -34.694  18.165  -6.026  1.00 20.00     0.018 C 
HETATM   10  C5  UNL     1     -34.096  16.592  -7.913  1.00 20.00     0.018 C 
HETATM   11  C6  UNL     1     -36.299  17.730  -7.881  1.00 20.00     0.018 C 
ENDBRANCH   1   8
TORSDOF 4
ENDMDL
MODEL 6
REMARK VINA RESULT:      -3.5     11.869     13.432
REMARK  4 active torsions:
REMARK  status: ('A' for Active; 'I' for Inactive)
REMARK    1  A    between atoms: C1_1  and  C9_9 
REMARK    2  A    between atoms: C2_2  and  C7_7 
REMARK    3  A    between atoms: C2_2  and  C8_8 
REMARK    4  A    between atoms: C8_8  and  O10_10 
ROOT
HETATM    1  C1  UNL     1     -34.111  17.058  -4.851  1.00 20.00    -0.013 C 
HETATM    2  C2  UNL     1     -34.278  15.773  -5.232  1.00 20.00    -0.060 C 
ENDROOT
BRANCH   2   3
HETATM    3  C7  UNL     1     -34.406  14.583  -4.308  1.00 20.00     0.031 C 
HETATM    4  C3  UNL     1     -35.645  13.746  -4.594  1.00 20.00     0.010 C 
ENDBRANCH   2   3
BRANCH   2   5
HETATM    5  C8  UNL     1     -34.378  15.455  -6.709  1.00 20.00     0.198 C 
BRANCH   5   6
HETATM    6  O10 UNL     1     -33.155  14.886  -7.161  1.00 20.00    -0.397 OA
HETATM    7  H28 UNL     1     -32.979  15.264  -8.037  1.00 20.00     0.209 HD
ENDBRANCH   5   6
ENDBRANCH   2   5
BRANCH   1   8
HETATM    8  C9  UNL     1     -33.965  17.694  -3.471  1.00 20.00    -0.033 C 
HETATM    9  C4  UNL     1     -35.319  18.234  -2.982  1.00 20.00     0.018 C 
HETATM   10  C5  UNL     1     -33.357  16.741  -2.426  1.00 20.00     0.018 C 
HETATM   11  C6  UNL     1     -32.999  18.895  -3.599  1.00 20.00     0.018 C 
ENDBRANCH   1   8
TORSDOF 4
ENDMDL
MODEL 7
REMARK VINA RESULT:      -3.5     11.579     13.780
REMARK  4 active torsions:
REMARK  status: ('A' for Active; 'I' for Inactive)
REMARK    1  A    between atoms: C1_1  and  C9_9 
REMARK    2  A    between atoms: C2_2  and  C7_7 
REMARK    3  A    between atoms: C2_2  and  C8_8 
REMARK    4  A    between atoms: C8_8  and  O10_10 
ROOT
HETATM    1  C1  UNL     1     -35.020  16.264  -5.242  1.00 20.00    -0.013 C 
HETATM    2  C2  UNL     1     -34.027  15.937  -4.388  1.00 20.00    -0.060 C 
ENDROOT
BRANCH   2   3
HETATM    3  C7  UNL     1     -33.231  16.904  -3.541  1.00 20.00     0.031 C 
HETATM    4  C3  UNL     1     -33.544  16.781  -2.056  1.00 20.00     0.010 C 
ENDBRANCH   2   3
BRANCH   2   5
HETATM    5  C8  UNL     1     -33.661  14.478  -4.213  1.00 20.00     0.198 C 
BRANCH   5   6
HETATM    6  O10 UNL     1     -34.844  13.692  -4.143  1.00 20.00    -0.397 OA
HETATM    7  H28 UNL     1     -34.585  12.829  -3.783  1.00 20.00     0.209 HD
ENDBRANCH   5   6
ENDBRANCH   2   5
BRANCH   1   8
HETATM    8  C9  UNL     1     -35.607  17.614  -5.643  1.00 20.00    -0.033 C 
HETATM    9  C4  UNL     1     -36.307  18.275  -4.443  1.00 20.00     0.018 C 
HETATM   10  C5  UNL     1     -34.567  18.571  -6.252  1.00 20.00     0.018 C 
HETATM   11  C6  UNL     1     -36.678  17.364  -6.731  1.00 20.00     0.018 C 
ENDBRANCH   1   8
TORSDOF 4
ENDMDL
MODEL 8
REMARK VINA RESULT:      -3.5     10.585     11.656
REMARK  4 active torsions:
REMARK  status: ('A' for Active; 'I' for Inactive)
REMARK    1  A    between atoms: C1_1  and  C9_9 
REMARK    2  A    between atoms: C2_2  and  C7_7 
REMARK    3  A    between atoms: C2_2  and  C8_8 
REMARK    4  A    between atoms: C8_8  and  O10_10 
ROOT
HETATM    1  C1  UNL     1     -41.543  13.799   4.948  1.00 20.00    -0.013 C 
HETATM    2  C2  UNL     1     -42.437  14.779   4.695  1.00 20.00    -0.060 C 
ENDROOT
BRANCH   2   3
HETATM    3  C7  UNL     1     -43.337  15.443   5.712  1.00 20.00     0.031 C 
HETATM    4  C3  UNL     1     -42.790  16.778   6.200  1.00 20.00     0.010 C 
ENDBRANCH   2   3
BRANCH   2   5
HETATM    5  C8  UNL     1     -42.564  15.308   3.282  1.00 20.00     0.198 C 
BRANCH   5   6
HETATM    6  O10 UNL     1     -41.681  14.597   2.423  1.00 20.00    -0.397 OA
HETATM    7  H28 UNL     1     -41.245  13.922   2.967  1.00 20.00     0.209 HD
ENDBRANCH   5   6
ENDBRANCH   2   5
BRANCH   1   8
HETATM    8  C9  UNL     1     -41.190  13.058   6.235  1.00 20.00    -0.033 C 
HETATM    9  C4  UNL     1     -40.508  14.009   7.234  1.00 20.00     0.018 C 
HETATM   10  C5  UNL     1     -42.402  12.369   6.890  1.00 20.00     0.018 C 
HETATM   11  C6  UNL     1     -40.177  11.943   5.881  1.00 20.00     0.018 C 
ENDBRANCH   1   8
TORSDOF 4
ENDMDL
MODEL 9
REMARK VINA RESULT:      -3.4      1.658      2.550
REMARK  4 active torsions:
REMARK  status: ('A' for Active; 'I' for Inactive)
REMARK    1  A    between atoms: C1_1  and  C9_9 
REMARK    2  A    between atoms: C2_2  and  C7_7 
REMARK    3  A    between atoms: C2_2  and  C8_8 
REMARK    4  A    between atoms: C8_8  and  O10_10 
ROOT
HETATM    1  C1  UNL     1     -33.314   6.193   3.674  1.00 20.00    -0.013 C 
HETATM    2  C2  UNL     1     -32.824   7.414   3.367  1.00 20.00    -0.060 C 
ENDROOT
BRANCH   2   3
HETATM    3  C7  UNL     1     -33.168   8.709   4.066  1.00 20.00     0.031 C 
HETATM    4  C3  UNL     1     -32.064   9.184   5.002  1.00 20.00     0.010 C 
ENDBRANCH   2   3
BRANCH   2   5
HETATM    5  C8  UNL     1     -31.817   7.537   2.243  1.00 20.00     0.198 C 
BRANCH   5   6
HETATM    6  O10 UNL     1     -32.338   8.378   1.222  1.00 20.00    -0.397 OA
HETATM    7  H28 UNL     1     -32.790   7.799   0.587  1.00 20.00     0.209 HD
ENDBRANCH   5   6
ENDBRANCH   2   5
BRANCH   1   8
HETATM    8  C9  UNL     1     -34.330   5.744   4.722  1.00 20.00    -0.033 C 
HETATM    9  C4  UNL     1     -34.014   6.382   6.085  1.00 20.00     0.018 C 
HETATM   10  C5  UNL     1     -35.786   6.034   4.317  1.00 20.00     0.018 C 
HETATM   11  C6  UNL     1     -34.204   4.210   4.880  1.00 20.00     0.018 C 
ENDBRANCH   1   8
TORSDOF 4
ENDMDL
