MODEL 1
REMARK VINA RESULT:      -3.8      0.000      0.000
REMARK  4 active torsions:
REMARK  status: ('A' for Active; 'I' for Inactive)
REMARK    1  A    between atoms: C2_2  and  C8_8 
REMARK    2  A    between atoms: C3_3  and  C10_10 
REMARK    3  A    between atoms: C3_3  and  O11_11 
REMARK    4  A    between atoms: C9_9  and  C10_10 
ROOT
HETATM    1  C1  UNL     1     -32.919  14.745  -4.525  1.00 20.00     0.046 A 
HETATM    2  C2  UNL     1     -33.667  15.443  -3.420  1.00 20.00     0.023 A 
HETATM    3  C3  UNL     1     -34.426  14.788  -4.553  1.00 20.00     0.069 A 
ENDROOT
BRANCH   3   4
HETATM    4  C10 UNL     1     -35.154  15.606  -5.637  1.00 20.00    -0.017 C 
HETATM    5  C6  UNL     1     -35.986  14.644  -6.500  1.00 20.00     0.018 C 
HETATM    6  C7  UNL     1     -36.094  16.606  -4.943  1.00 20.00     0.018 C 
BRANCH   4   7
HETATM    7  C9  UNL     1     -34.085  16.341  -6.487  1.00 20.00     0.007 C 
HETATM    8  C5  UNL     1     -33.919  15.844  -7.918  1.00 20.00     0.006 C 
ENDBRANCH   4   7
ENDBRANCH   3   4
BRANCH   3   9
HETATM    9  O11 UNL     1     -35.094  13.557  -4.219  1.00 20.00    -0.389 OA
HETATM   10  H31 UNL     1     -35.023  12.999  -5.003  1.00 20.00     0.210 HD
ENDBRANCH   3   9
BRANCH   2  11
HETATM   11  C8  UNL     1     -33.577  16.923  -3.269  1.00 20.00     0.003 C 
HETATM   12  C4  UNL     1     -33.488  17.366  -1.831  1.00 20.00     0.005 C 
ENDBRANCH   2  11
TORSDOF 4
ENDMDL
MODEL 2
REMARK VINA RESULT:      -3.7      0.509      1.912
REMARK  4 active torsions:
REMARK  status: ('A' for Active; 'I' for Inactive)
REMARK    1  A    between atoms: C2_2  and  C8_8 
REMARK    2  A    between atoms: C3_3  and  C10_10 
REMARK    3  A    between atoms: C3_3  and  O11_11 
REMARK    4  A    between atoms: C9_9  and  C10_10 
ROOT
HETATM    1  C1  UNL     1     -33.049  14.538  -4.592  1.00 20.00     0.046 A 
HETATM    2  C2  UNL     1     -33.772  15.301  -3.514  1.00 20.00     0.023 A 
HETATM    3  C3  UNL     1     -34.546  14.698  -4.667  1.00 20.00     0.069 A 
ENDROOT
BRANCH   3   4
HETATM    4  C10 UNL     1     -35.174  15.563  -5.776  1.00 20.00    -0.017 C 
HETATM    5  C6  UNL     1     -34.044  16.245  -6.564  1.00 20.00     0.018 C 
HETATM    6  C7  UNL     1     -35.967  14.644  -6.720  1.00 20.00     0.018 C 
BRANCH   4   7
HETATM    7  C9  UNL     1     -36.102  16.610  -5.106  1.00 20.00     0.007 C 
HETATM    8  C5  UNL     1     -37.595  16.420  -5.340  1.00 20.00     0.006 C 
ENDBRANCH   4   7
ENDBRANCH   3   4
BRANCH   3   9
HETATM    9  O11 UNL     1     -35.319  13.526  -4.347  1.00 20.00    -0.389 OA
HETATM   10  H31 UNL     1     -35.390  13.514  -3.384  1.00 20.00     0.210 HD
ENDBRANCH   3   9
BRANCH   2  11
HETATM   11  C8  UNL     1     -33.571  16.770  -3.368  1.00 20.00     0.003 C 
HETATM   12  C4  UNL     1     -33.402  17.203  -1.934  1.00 20.00     0.005 C 
ENDBRANCH   2  11
TORSDOF 4
ENDMDL
MODEL 3
REMARK VINA RESULT:      -3.6     12.431     13.873
REMARK  4 active torsions:
REMARK  status: ('A' for Active; 'I' for Inactive)
REMARK    1  A    between atoms: C2_2  and  C8_8 
REMARK    2  A    between atoms: C3_3  and  C10_10 
REMARK    3  A    between atoms: C3_3  and  O11_11 
REMARK    4  A    between atoms: C9_9  and  C10_10 
ROOT
HETATM    1  C1  UNL     1     -40.499  15.353   7.176  1.00 20.00     0.046 A 
HETATM    2  C2  UNL     1     -41.540  14.897   8.164  1.00 20.00     0.023 A 
HETATM    3  C3  UNL     1     -40.686  13.880   7.438  1.00 20.00     0.069 A 
ENDROOT
BRANCH   3   4
HETATM    4  C10 UNL     1     -41.254  12.966   6.336  1.00 20.00    -0.017 C 
HETATM    5  C6  UNL     1     -42.536  12.301   6.863  1.00 20.00     0.018 C 
HETATM    6  C7  UNL     1     -41.600  13.834   5.114  1.00 20.00     0.018 C 
BRANCH   4   7
HETATM    7  C9  UNL     1     -40.177  11.907   5.983  1.00 20.00     0.007 C 
HETATM    8  C5  UNL     1     -39.519  12.059   4.617  1.00 20.00     0.006 C 
ENDBRANCH   4   7
ENDBRANCH   3   4
BRANCH   3   9
HETATM    9  O11 UNL     1     -39.664  13.250   8.234  1.00 20.00    -0.389 OA
HETATM   10  H31 UNL     1     -39.662  13.720   9.078  1.00 20.00     0.210 HD
ENDBRANCH   3   9
BRANCH   2  11
HETATM   11  C8  UNL     1     -42.989  15.079   7.869  1.00 20.00     0.003 C 
HETATM   12  C4  UNL     1     -43.315  16.452   7.338  1.00 20.00     0.005 C 
ENDBRANCH   2  11
TORSDOF 4
ENDMDL
MODEL 4
REMARK VINA RESULT:      -3.5      1.699      3.611
REMARK  4 active torsions:
REMARK  status: ('A' for Active; 'I' for Inactive)
REMARK    1  A    between atoms: C2_2  and  C8_8 
REMARK    2  A    between atoms: C3_3  and  C10_10 
REMARK    3  A    between atoms: C3_3  and  O11_11 
REMARK    4  A    between atoms: C9_9  and  C10_10 
ROOT
HETATM    1  C1  UNL     1     -35.246  15.626  -7.909  1.00 20.00     0.046 A 
HETATM    2  C2  UNL     1     -34.306  16.772  -7.638  1.00 20.00     0.023 A 
HETATM    3  C3  UNL     1     -34.348  15.586  -6.699  1.00 20.00     0.069 A 
ENDROOT
BRANCH   3   4
HETATM    4  C10 UNL     1     -34.953  15.678  -5.285  1.00 20.00    -0.017 C 
HETATM    5  C6  UNL     1     -36.434  16.073  -5.412  1.00 20.00     0.018 C 
HETATM    6  C7  UNL     1     -34.854  14.294  -4.622  1.00 20.00     0.018 C 
BRANCH   4   7
HETATM    7  C9  UNL     1     -34.156  16.740  -4.485  1.00 20.00     0.007 C 
HETATM    8  C5  UNL     1     -33.409  16.227  -3.260  1.00 20.00     0.006 C 
ENDBRANCH   4   7
ENDBRANCH   3   4
BRANCH   3   9
HETATM    9  O11 UNL     1     -33.223  14.691  -6.783  1.00 20.00    -0.389 OA
HETATM   10  H31 UNL     1     -32.534  15.180  -7.251  1.00 20.00     0.210 HD
ENDBRANCH   3   9
BRANCH   2  11
HETATM   11  C8  UNL     1     -34.841  18.110  -7.259  1.00 20.00     0.003 C 
HETATM   12  C4  UNL     1     -33.798  19.197  -7.307  1.00 20.00     0.005 C 
ENDBRANCH   2  11
TORSDOF 4
ENDMDL
MODEL 5
REMARK VINA RESULT:      -3.5      1.808      2.883
REMARK  4 active torsions:
REMARK  status: ('A' for Active; 'I' for Inactive)
REMARK    1  A    between atoms: C2_2  and  C8_8 
REMARK    2  A    between atoms: C3_3  and  C10_10 
REMARK    3  A    between atoms: C3_3  and  O11_11 
REMARK    4  A    between atoms: C9_9  and  C10_10 
ROOT
HETATM    1  C1  UNL     1     -35.339  17.646  -4.415  1.00 20.00     0.046 A 
HETATM    2  C2  UNL     1     -33.919  17.512  -3.929  1.00 20.00     0.023 A 
HETATM    3  C3  UNL     1     -34.296  17.030  -5.314  1.00 20.00     0.069 A 
ENDROOT
BRANCH   3   4
HETATM    4  C10 UNL     1     -34.373  15.533  -5.671  1.00 20.00    -0.017 C 
HETATM    5  C6  UNL     1     -34.004  15.365  -7.154  1.00 20.00     0.018 C 
HETATM    6  C7  UNL     1     -33.354  14.773  -4.806  1.00 20.00     0.018 C 
BRANCH   4   7
HETATM    7  C9  UNL     1     -35.818  15.043  -5.394  1.00 20.00     0.007 C 
HETATM    8  C5  UNL     1     -35.939  13.732  -4.627  1.00 20.00     0.006 C 
ENDBRANCH   4   7
ENDBRANCH   3   4
BRANCH   3   9
HETATM    9  O11 UNL     1     -33.839  17.856  -6.401  1.00 20.00    -0.389 OA
HETATM   10  H31 UNL     1     -32.970  18.182  -6.134  1.00 20.00     0.210 HD
ENDBRANCH   3   9
BRANCH   2  11
HETATM   11  C8  UNL     1     -33.590  16.573  -2.819  1.00 20.00     0.003 C 
HETATM   12  C4  UNL     1     -33.611  17.232  -1.464  1.00 20.00     0.005 C 
ENDBRANCH   2  11
TORSDOF 4
ENDMDL
MODEL 6
REMARK VINA RESULT:      -3.4      1.101      2.228
REMARK  4 active torsions:
REMARK  status: ('A' for Active; 'I' for Inactive)
REMARK    1  A    between atoms: C2_2  and  C8_8 
REMARK    2  A    between atoms: C3_3  and  C10_10 
REMARK    3  A    between atoms: C3_3  and  O11_11 
REMARK    4  A    between atoms: C9_9  and  C10_10 
ROOT
HETATM    1  C1  UNL     1     -33.650  14.791  -5.277  1.00 20.00     0.046 A 
HETATM    2  C2  UNL     1     -33.962  15.387  -3.930  1.00 20.00     0.023 A 
HETATM    3  C3  UNL     1     -35.035  15.316  -4.994  1.00 20.00     0.069 A 
ENDROOT
BRANCH   3   4
HETATM    4  C10 UNL     1     -35.549  16.569  -5.728  1.00 20.00    -0.017 C 
HETATM    5  C6  UNL     1     -34.412  17.127  -6.600  1.00 20.00     0.018 C 
HETATM    6  C7  UNL     1     -36.724  16.158  -6.631  1.00 20.00     0.018 C 
BRANCH   4   7
HETATM    7  C9  UNL     1     -35.998  17.604  -4.663  1.00 20.00     0.007 C 
HETATM    8  C5  UNL     1     -37.502  17.768  -4.490  1.00 20.00     0.006 C 
ENDBRANCH   4   7
ENDBRANCH   3   4
BRANCH   3   9
HETATM    9  O11 UNL     1     -36.052  14.319  -4.781  1.00 20.00    -0.389 OA
HETATM   10  H31 UNL     1     -36.675  14.421  -5.512  1.00 20.00     0.210 HD
ENDBRANCH   3   9
BRANCH   2  11
HETATM   11  C8  UNL     1     -33.334  16.672  -3.512  1.00 20.00     0.003 C 
HETATM   12  C4  UNL     1     -33.428  16.921  -2.029  1.00 20.00     0.005 C 
ENDBRANCH   2  11
TORSDOF 4
ENDMDL
MODEL 7
REMARK VINA RESULT:      -3.4     13.006     14.723
REMARK  4 active torsions:
REMARK  status: ('A' for Active; 'I' for Inactive)
REMARK    1  A    between atoms: C2_2  and  C8_8 
REMARK    2  A    between atoms: C3_3  and  C10_10 
REMARK    3  A    between atoms: C3_3  and  O11_11 
REMARK    4  A    between atoms: C9_9  and  C10_10 
ROOT
HETATM    1  C1  UNL     1     -43.228  12.988   6.531  1.00 20.00     0.046 A 
HETATM    2  C2  UNL     1     -41.797  12.528   6.629  1.00 20.00     0.023 A 
HETATM    3  C3  UNL     1     -42.363  13.472   7.668  1.00 20.00     0.069 A 
ENDROOT
BRANCH   3   4
HETATM    4  C10 UNL     1     -41.949  14.953   7.746  1.00 20.00    -0.017 C 
HETATM    5  C6  UNL     1     -42.239  15.615   6.388  1.00 20.00     0.018 C 
HETATM    6  C7  UNL     1     -42.793  15.639   8.833  1.00 20.00     0.018 C 
BRANCH   4   7
HETATM    7  C9  UNL     1     -40.438  15.016   8.088  1.00 20.00     0.007 C 
HETATM    8  C5  UNL     1     -40.098  15.215   9.560  1.00 20.00     0.006 C 
ENDBRANCH   4   7
ENDBRANCH   3   4
BRANCH   3   9
HETATM    9  O11 UNL     1     -42.633  12.884   8.955  1.00 20.00    -0.389 OA
HETATM   10  H31 UNL     1     -42.147  12.049   8.969  1.00 20.00     0.210 HD
ENDBRANCH   3   9
BRANCH   2  11
HETATM   11  C8  UNL     1     -40.795  12.964   5.615  1.00 20.00     0.003 C 
HETATM   12  C4  UNL     1     -39.519  12.164   5.663  1.00 20.00     0.005 C 
ENDBRANCH   2  11
TORSDOF 4
ENDMDL
MODEL 8
REMARK VINA RESULT:      -3.4     12.937     14.698
REMARK  4 active torsions:
REMARK  status: ('A' for Active; 'I' for Inactive)
REMARK    1  A    between atoms: C2_2  and  C8_8 
REMARK    2  A    between atoms: C3_3  and  C10_10 
REMARK    3  A    between atoms: C3_3  and  O11_11 
REMARK    4  A    between atoms: C9_9  and  C10_10 
ROOT
HETATM    1  C1  UNL     1     -42.944  13.394   6.349  1.00 20.00     0.046 A 
HETATM    2  C2  UNL     1     -41.638  12.665   6.532  1.00 20.00     0.023 A 
HETATM    3  C3  UNL     1     -42.289  13.365   7.706  1.00 20.00     0.069 A 
ENDROOT
BRANCH   3   4
HETATM    4  C10 UNL     1     -41.715  14.660   8.312  1.00 20.00    -0.017 C 
HETATM    5  C6  UNL     1     -42.599  15.079   9.499  1.00 20.00     0.018 C 
HETATM    6  C7  UNL     1     -40.292  14.372   8.819  1.00 20.00     0.018 C 
BRANCH   4   7
HETATM    7  C9  UNL     1     -41.706  15.749   7.208  1.00 20.00     0.007 C 
HETATM    8  C5  UNL     1     -40.730  16.899   7.418  1.00 20.00     0.006 C 
ENDBRANCH   4   7
ENDBRANCH   3   4
BRANCH   3   9
HETATM    9  O11 UNL     1     -42.901  12.499   8.680  1.00 20.00    -0.389 OA
HETATM   10  H31 UNL     1     -42.962  13.019   9.491  1.00 20.00     0.210 HD
ENDBRANCH   3   9
BRANCH   2  11
HETATM   11  C8  UNL     1     -40.395  13.175   5.888  1.00 20.00     0.003 C 
HETATM   12  C4  UNL     1     -39.303  12.139   5.811  1.00 20.00     0.005 C 
ENDBRANCH   2  11
TORSDOF 4
ENDMDL
MODEL 9
REMARK VINA RESULT:      -3.3     12.958     14.248
REMARK  4 active torsions:
REMARK  status: ('A' for Active; 'I' for Inactive)
REMARK    1  A    between atoms: C2_2  and  C8_8 
REMARK    2  A    between atoms: C3_3  and  C10_10 
REMARK    3  A    between atoms: C3_3  and  O11_11 
REMARK    4  A    between atoms: C9_9  and  C10_10 
ROOT
HETATM    1  C1  UNL     1     -40.468  15.410   7.562  1.00 20.00     0.046 A 
HETATM    2  C2  UNL     1     -41.351  14.780   8.607  1.00 20.00     0.023 A 
HETATM    3  C3  UNL     1     -40.660  13.914   7.575  1.00 20.00     0.069 A 
ENDROOT
BRANCH   3   4
HETATM    4  C10 UNL     1     -41.429  13.225   6.432  1.00 20.00    -0.017 C 
HETATM    5  C6  UNL     1     -40.473  12.263   5.709  1.00 20.00     0.018 C 
HETATM    6  C7  UNL     1     -42.590  12.421   7.041  1.00 20.00     0.018 C 
BRANCH   4   7
HETATM    7  C9  UNL     1     -41.953  14.324   5.471  1.00 20.00     0.007 C 
HETATM    8  C5  UNL     1     -43.417  14.208   5.065  1.00 20.00     0.006 C 
ENDBRANCH   4   7
ENDBRANCH   3   4
BRANCH   3   9
HETATM    9  O11 UNL     1     -39.546  13.143   8.062  1.00 20.00    -0.389 OA
HETATM   10  H31 UNL     1     -38.787  13.415   7.530  1.00 20.00     0.210 HD
ENDBRANCH   3   9
BRANCH   2  11
HETATM   11  C8  UNL     1     -42.821  15.019   8.593  1.00 20.00     0.003 C 
HETATM   12  C4  UNL     1     -43.182  16.466   8.372  1.00 20.00     0.005 C 
ENDBRANCH   2  11
TORSDOF 4
ENDMDL
