MODEL 1
REMARK VINA RESULT:      -3.4      0.000      0.000
REMARK  2 active torsions:
REMARK  status: ('A' for Active; 'I' for Inactive)
REMARK    1  A    between atoms: C4_4  and  C8_8 
REMARK    2  A    between atoms: C5_5  and  C9_9 
ROOT
HETATM    1  C1  UNL     1     -43.417  13.543   7.309  1.00 20.00     0.027 C 
HETATM    2  C2  UNL     1     -42.956  14.479   6.195  1.00 20.00     0.010 C 
HETATM    3  C3  UNL     1     -42.922  12.124   7.066  1.00 20.00     0.168 C 
HETATM    4  C4  UNL     1     -41.448  14.351   5.926  1.00 20.00     0.029 C 
HETATM    5  C5  UNL     1     -41.097  12.860   5.738  1.00 20.00     0.130 C 
HETATM    6  O10 UNL     1     -41.507  12.098   6.879  1.00 20.00    -0.385 OA
ENDROOT
BRANCH   5   7
HETATM    7  C9  UNL     1     -39.608  12.610   5.523  1.00 20.00     0.007 C 
HETATM    8  C6  UNL     1     -38.974  12.019   6.781  1.00 20.00     0.012 C 
HETATM    9  C7  UNL     1     -39.384  11.685   4.327  1.00 20.00     0.012 C 
ENDBRANCH   5   7
BRANCH   4  10
HETATM   10  C8  UNL     1     -40.646  15.022   7.049  1.00 20.00     0.121 C 
HETATM   11 CL11 UNL     1     -41.340  16.605   7.423  1.00 20.00    -0.130 Cl
ENDBRANCH   4  10
TORSDOF 2
ENDMDL
MODEL 2
REMARK VINA RESULT:      -3.3     11.407     12.772
REMARK  2 active torsions:
REMARK  status: ('A' for Active; 'I' for Inactive)
REMARK    1  A    between atoms: C4_4  and  C8_8 
REMARK    2  A    between atoms: C5_5  and  C9_9 
ROOT
HETATM    1  C1  UNL     1     -34.268  16.554  -4.406  1.00 20.00     0.027 C 
HETATM    2  C2  UNL     1     -34.021  18.052  -4.562  1.00 20.00     0.010 C 
HETATM    3  C3  UNL     1     -33.308  15.949  -3.391  1.00 20.00     0.168 C 
HETATM    4  C4  UNL     1     -33.970  18.769  -3.204  1.00 20.00     0.029 C 
HETATM    5  C5  UNL     1     -32.988  18.021  -2.278  1.00 20.00     0.130 C 
HETATM    6  O10 UNL     1     -33.367  16.646  -2.147  1.00 20.00    -0.385 OA
ENDROOT
BRANCH   5   7
HETATM    7  C9  UNL     1     -32.903  18.615  -0.876  1.00 20.00     0.007 C 
HETATM    8  C6  UNL     1     -33.738  17.796   0.108  1.00 20.00     0.012 C 
HETATM    9  C7  UNL     1     -31.450  18.690  -0.409  1.00 20.00     0.012 C 
ENDBRANCH   5   7
BRANCH   4  10
HETATM   10  C8  UNL     1     -35.380  18.894  -2.611  1.00 20.00     0.121 C 
HETATM   11 CL11 UNL     1     -36.543  19.263  -3.892  1.00 20.00    -0.130 Cl
ENDBRANCH   4  10
TORSDOF 2
ENDMDL
MODEL 3
REMARK VINA RESULT:      -3.3     11.784     13.088
REMARK  2 active torsions:
REMARK  status: ('A' for Active; 'I' for Inactive)
REMARK    1  A    between atoms: C4_4  and  C8_8 
REMARK    2  A    between atoms: C5_5  and  C9_9 
ROOT
HETATM    1  C1  UNL     1     -33.752  18.081  -0.519  1.00 20.00     0.027 C 
HETATM    2  C2  UNL     1     -32.621  17.883  -1.526  1.00 20.00     0.010 C 
HETATM    3  C3  UNL     1     -34.837  18.983  -1.092  1.00 20.00     0.168 C 
HETATM    4  C4  UNL     1     -33.151  17.470  -2.909  1.00 20.00     0.029 C 
HETATM    5  C5  UNL     1     -34.263  18.452  -3.334  1.00 20.00     0.130 C 
HETATM    6  O10 UNL     1     -35.302  18.494  -2.349  1.00 20.00    -0.385 OA
ENDROOT
BRANCH   5   7
HETATM    7  C9  UNL     1     -34.904  18.101  -4.672  1.00 20.00     0.007 C 
HETATM    8  C6  UNL     1     -36.424  18.238  -4.594  1.00 20.00     0.012 C 
HETATM    9  C7  UNL     1     -34.345  18.985  -5.786  1.00 20.00     0.012 C 
ENDBRANCH   5   7
BRANCH   4  10
HETATM   10  C8  UNL     1     -33.615  16.008  -2.890  1.00 20.00     0.121 C 
HETATM   11 CL11 UNL     1     -32.822  15.107  -4.190  1.00 20.00    -0.130 Cl
ENDBRANCH   4  10
TORSDOF 2
ENDMDL
MODEL 4
REMARK VINA RESULT:      -3.3     12.073     13.427
REMARK  2 active torsions:
REMARK  status: ('A' for Active; 'I' for Inactive)
REMARK    1  A    between atoms: C4_4  and  C8_8 
REMARK    2  A    between atoms: C5_5  and  C9_9 
ROOT
HETATM    1  C1  UNL     1     -34.530  14.823  -5.644  1.00 20.00     0.027 C 
HETATM    2  C2  UNL     1     -34.382  16.227  -6.226  1.00 20.00     0.010 C 
HETATM    3  C3  UNL     1     -33.654  14.653  -4.410  1.00 20.00     0.168 C 
HETATM    4  C4  UNL     1     -34.550  17.313  -5.152  1.00 20.00     0.029 C 
HETATM    5  C5  UNL     1     -33.631  16.983  -3.957  1.00 20.00     0.130 C 
HETATM    6  O10 UNL     1     -33.916  15.675  -3.449  1.00 20.00    -0.385 OA
ENDROOT
BRANCH   5   7
HETATM    7  C9  UNL     1     -33.760  17.969  -2.801  1.00 20.00     0.007 C 
HETATM    8  C6  UNL     1     -33.530  17.265  -1.464  1.00 20.00     0.012 C 
HETATM    9  C7  UNL     1     -32.781  19.129  -2.970  1.00 20.00     0.012 C 
ENDBRANCH   5   7
BRANCH   4  10
HETATM   10  C8  UNL     1     -36.026  17.452  -4.756  1.00 20.00     0.121 C 
HETATM   11 CL11 UNL     1     -36.526  19.144  -4.877  1.00 20.00    -0.130 Cl
ENDBRANCH   4  10
TORSDOF 2
ENDMDL
MODEL 5
REMARK VINA RESULT:      -3.1      1.815      2.247
REMARK  2 active torsions:
REMARK  status: ('A' for Active; 'I' for Inactive)
REMARK    1  A    between atoms: C4_4  and  C8_8 
REMARK    2  A    between atoms: C5_5  and  C9_9 
ROOT
HETATM    1  C1  UNL     1     -43.177  13.331   9.660  1.00 20.00     0.027 C 
HETATM    2  C2  UNL     1     -42.837  14.728   9.144  1.00 20.00     0.010 C 
HETATM    3  C3  UNL     1     -43.411  12.368   8.504  1.00 20.00     0.168 C 
HETATM    4  C4  UNL     1     -41.722  14.692   8.087  1.00 20.00     0.029 C 
HETATM    5  C5  UNL     1     -42.085  13.649   7.009  1.00 20.00     0.130 C 
HETATM    6  O10 UNL     1     -42.304  12.365   7.605  1.00 20.00    -0.385 OA
ENDROOT
BRANCH   5   7
HETATM    7  C9  UNL     1     -41.014  13.487   5.936  1.00 20.00     0.007 C 
HETATM    8  C6  UNL     1     -40.468  12.060   5.930  1.00 20.00     0.012 C 
HETATM    9  C7  UNL     1     -41.570  13.852   4.560  1.00 20.00     0.012 C 
ENDBRANCH   5   7
BRANCH   4  10
HETATM   10  C8  UNL     1     -40.364  14.425   8.750  1.00 20.00     0.121 C 
HETATM   11 CL11 UNL     1     -40.225  15.367  10.241  1.00 20.00    -0.130 Cl
ENDBRANCH   4  10
TORSDOF 2
ENDMDL
MODEL 6
REMARK VINA RESULT:      -3.1      2.419      3.839
REMARK  2 active torsions:
REMARK  status: ('A' for Active; 'I' for Inactive)
REMARK    1  A    between atoms: C4_4  and  C8_8 
REMARK    2  A    between atoms: C5_5  and  C9_9 
ROOT
HETATM    1  C1  UNL     1     -43.254  13.686   5.574  1.00 20.00     0.027 C 
HETATM    2  C2  UNL     1     -42.617  12.820   6.658  1.00 20.00     0.010 C 
HETATM    3  C3  UNL     1     -43.417  15.122   6.053  1.00 20.00     0.168 C 
HETATM    4  C4  UNL     1     -41.346  13.465   7.234  1.00 20.00     0.029 C 
HETATM    5  C5  UNL     1     -41.660  14.921   7.637  1.00 20.00     0.130 C 
HETATM    6  O10 UNL     1     -42.178  15.653   6.520  1.00 20.00    -0.385 OA
ENDROOT
BRANCH   5   7
HETATM    7  C9  UNL     1     -40.449  15.679   8.169  1.00 20.00     0.007 C 
HETATM    8  C6  UNL     1     -40.714  17.184   8.173  1.00 20.00     0.012 C 
HETATM    9  C7  UNL     1     -40.085  15.197   9.572  1.00 20.00     0.012 C 
ENDBRANCH   5   7
BRANCH   4  10
HETATM   10  C8  UNL     1     -40.189  13.355   6.232  1.00 20.00     0.121 C 
HETATM   11 CL11 UNL     1     -39.908  11.658   5.819  1.00 20.00    -0.130 Cl
ENDBRANCH   4  10
TORSDOF 2
ENDMDL
MODEL 7
REMARK VINA RESULT:      -3.1     12.477     13.380
REMARK  2 active torsions:
REMARK  status: ('A' for Active; 'I' for Inactive)
REMARK    1  A    between atoms: C4_4  and  C8_8 
REMARK    2  A    between atoms: C5_5  and  C9_9 
ROOT
HETATM    1  C1  UNL     1     -35.671  18.681  -3.395  1.00 20.00     0.027 C 
HETATM    2  C2  UNL     1     -34.183  18.651  -3.737  1.00 20.00     0.010 C 
HETATM    3  C3  UNL     1     -36.503  18.123  -4.542  1.00 20.00     0.168 C 
HETATM    4  C4  UNL     1     -33.742  17.272  -4.253  1.00 20.00     0.029 C 
HETATM    5  C5  UNL     1     -34.698  16.828  -5.380  1.00 20.00     0.130 C 
HETATM    6  O10 UNL     1     -36.054  16.822  -4.918  1.00 20.00    -0.385 OA
ENDROOT
BRANCH   5   7
HETATM    7  C9  UNL     1     -34.388  15.440  -5.928  1.00 20.00     0.007 C 
HETATM    8  C6  UNL     1     -35.567  14.495  -5.700  1.00 20.00     0.012 C 
HETATM    9  C7  UNL     1     -34.042  15.513  -7.415  1.00 20.00     0.012 C 
ENDBRANCH   5   7
BRANCH   4  10
HETATM   10  C8  UNL     1     -33.668  16.266  -3.096  1.00 20.00     0.121 C 
HETATM   11 CL11 UNL     1     -33.291  17.108  -1.587  1.00 20.00    -0.130 Cl
ENDBRANCH   4  10
TORSDOF 2
ENDMDL
MODEL 8
REMARK VINA RESULT:      -3.1      2.316      3.578
REMARK  2 active torsions:
REMARK  status: ('A' for Active; 'I' for Inactive)
REMARK    1  A    between atoms: C4_4  and  C8_8 
REMARK    2  A    between atoms: C5_5  and  C9_9 
ROOT
HETATM    1  C1  UNL     1     -40.799  16.679   8.931  1.00 20.00     0.027 C 
HETATM    2  C2  UNL     1     -40.186  15.352   9.372  1.00 20.00     0.010 C 
HETATM    3  C3  UNL     1     -40.721  16.837   7.419  1.00 20.00     0.168 C 
HETATM    4  C4  UNL     1     -40.740  14.168   8.562  1.00 20.00     0.029 C 
HETATM    5  C5  UNL     1     -40.626  14.493   7.058  1.00 20.00     0.130 C 
HETATM    6  O10 UNL     1     -41.304  15.717   6.754  1.00 20.00    -0.385 OA
ENDROOT
BRANCH   5   7
HETATM    7  C9  UNL     1     -41.204  13.406   6.157  1.00 20.00     0.007 C 
HETATM    8  C6  UNL     1     -41.877  14.023   4.932  1.00 20.00     0.012 C 
HETATM    9  C7  UNL     1     -40.114  12.424   5.730  1.00 20.00     0.012 C 
ENDBRANCH   5   7
BRANCH   4  10
HETATM   10  C8  UNL     1     -42.174  13.844   9.001  1.00 20.00     0.121 C 
HETATM   11 CL11 UNL     1     -42.244  13.685  10.762  1.00 20.00    -0.130 Cl
ENDBRANCH   4  10
TORSDOF 2
ENDMDL
MODEL 9
REMARK VINA RESULT:      -3.1     10.241     10.900
REMARK  2 active torsions:
REMARK  status: ('A' for Active; 'I' for Inactive)
REMARK    1  A    between atoms: C4_4  and  C8_8 
REMARK    2  A    between atoms: C5_5  and  C9_9 
ROOT
HETATM    1  C1  UNL     1     -31.928   9.231   4.217  1.00 20.00     0.027 C 
HETATM    2  C2  UNL     1     -32.841   8.777   3.080  1.00 20.00     0.010 C 
HETATM    3  C3  UNL     1     -32.575   8.967   5.570  1.00 20.00     0.168 C 
HETATM    4  C4  UNL     1     -33.350   7.343   3.291  1.00 20.00     0.029 C 
HETATM    5  C5  UNL     1     -33.940   7.224   4.712  1.00 20.00     0.130 C 
HETATM    6  O10 UNL     1     -32.969   7.601   5.694  1.00 20.00    -0.385 OA
ENDROOT
BRANCH   5   7
HETATM    7  C9  UNL     1     -34.426   5.820   5.053  1.00 20.00     0.007 C 
HETATM    8  C6  UNL     1     -34.487   5.624   6.567  1.00 20.00     0.012 C 
HETATM    9  C7  UNL     1     -35.793   5.554   4.424  1.00 20.00     0.012 C 
ENDBRANCH   5   7
BRANCH   4  10
HETATM   10  C8  UNL     1     -32.230   6.331   3.019  1.00 20.00     0.121 C 
HETATM   11 CL11 UNL     1     -32.890   4.906   2.203  1.00 20.00    -0.130 Cl
ENDBRANCH   4  10
TORSDOF 2
ENDMDL
