MODEL 1
REMARK VINA RESULT:      -4.9      0.000      0.000
REMARK  3 active torsions:
REMARK  status: ('A' for Active; 'I' for Inactive)
REMARK    1  A    between atoms: C2_2  and  C6_6 
REMARK    2  A    between atoms: C3_3  and  O8_8 
REMARK    3  A    between atoms: C6_6  and  C7_7 
ROOT
HETATM    1  C1  UNL     1     -34.696   5.804   6.512  1.00 20.00     0.045 A 
HETATM    2  C2  UNL     1     -33.662   6.460   5.634  1.00 20.00     0.022 A 
HETATM    3  C3  UNL     1     -34.694   5.535   5.027  1.00 20.00     0.058 A 
HETATM    4  C4  UNL     1     -35.815   6.038   4.177  1.00 20.00     0.046 C 
ENDROOT
BRANCH   2   5
HETATM    5  C6  UNL     1     -33.685   7.934   5.418  1.00 20.00     0.007 C 
BRANCH   5   6
HETATM    6  C7  UNL     1     -32.457   8.436   4.638  1.00 20.00    -0.004 C 
HETATM    7  C5  UNL     1     -32.207   7.639   3.369  1.00 20.00     0.005 C 
ENDBRANCH   5   6
ENDBRANCH   2   5
BRANCH   3   8
HETATM    8  O8  UNL     1     -34.205   4.243   4.623  1.00 20.00    -0.390 OA
HETATM    9  H22 UNL     1     -34.939   3.818   4.161  1.00 20.00     0.210 HD
ENDBRANCH   3   8
TORSDOF 3
ENDMDL
MODEL 2
REMARK VINA RESULT:      -4.4      1.244      1.727
REMARK  3 active torsions:
REMARK  status: ('A' for Active; 'I' for Inactive)
REMARK    1  A    between atoms: C2_2  and  C6_6 
REMARK    2  A    between atoms: C3_3  and  O8_8 
REMARK    3  A    between atoms: C6_6  and  C7_7 
ROOT
HETATM    1  C1  UNL     1     -33.667   5.639   3.957  1.00 20.00     0.045 A 
HETATM    2  C2  UNL     1     -34.018   7.011   4.472  1.00 20.00     0.022 A 
HETATM    3  C3  UNL     1     -34.809   5.805   4.930  1.00 20.00     0.058 A 
HETATM    4  C4  UNL     1     -34.696   5.255   6.313  1.00 20.00     0.046 C 
ENDROOT
BRANCH   2   5
HETATM    5  C6  UNL     1     -33.080   7.738   5.372  1.00 20.00     0.007 C 
BRANCH   5   6
HETATM    6  C7  UNL     1     -32.266   8.815   4.632  1.00 20.00    -0.004 C 
HETATM    7  C5  UNL     1     -32.523   8.811   3.134  1.00 20.00     0.005 C 
ENDBRANCH   5   6
ENDBRANCH   2   5
BRANCH   3   8
HETATM    8  O8  UNL     1     -36.131   5.685   4.372  1.00 20.00    -0.390 OA
HETATM    9  H22 UNL     1     -36.014   5.713   3.413  1.00 20.00     0.210 HD
ENDBRANCH   3   8
TORSDOF 3
ENDMDL
MODEL 3
REMARK VINA RESULT:      -4.2      2.282      3.831
REMARK  3 active torsions:
REMARK  status: ('A' for Active; 'I' for Inactive)
REMARK    1  A    between atoms: C2_2  and  C6_6 
REMARK    2  A    between atoms: C3_3  and  O8_8 
REMARK    3  A    between atoms: C6_6  and  C7_7 
ROOT
HETATM    1  C1  UNL     1     -32.301   8.458   4.835  1.00 20.00     0.045 A 
HETATM    2  C2  UNL     1     -33.723   8.188   4.417  1.00 20.00     0.022 A 
HETATM    3  C3  UNL     1     -32.623   8.226   3.379  1.00 20.00     0.058 A 
HETATM    4  C4  UNL     1     -32.130   6.995   2.694  1.00 20.00     0.046 C 
ENDROOT
BRANCH   2   5
HETATM    5  C6  UNL     1     -34.398   6.923   4.819  1.00 20.00     0.007 C 
BRANCH   5   6
HETATM    6  C7  UNL     1     -34.194   6.593   6.308  1.00 20.00    -0.004 C 
HETATM    7  C5  UNL     1     -34.435   5.124   6.618  1.00 20.00     0.005 C 
ENDBRANCH   5   6
ENDBRANCH   2   5
BRANCH   3   8
HETATM    8  O8  UNL     1     -32.605   9.395   2.539  1.00 20.00    -0.390 OA
HETATM    9  H22 UNL     1     -32.773  10.142   3.126  1.00 20.00     0.210 HD
ENDBRANCH   3   8
TORSDOF 3
ENDMDL
MODEL 4
REMARK VINA RESULT:      -3.9      1.201      1.915
REMARK  3 active torsions:
REMARK  status: ('A' for Active; 'I' for Inactive)
REMARK    1  A    between atoms: C2_2  and  C6_6 
REMARK    2  A    between atoms: C3_3  and  O8_8 
REMARK    3  A    between atoms: C6_6  and  C7_7 
ROOT
HETATM    1  C1  UNL     1     -35.423   6.175   4.424  1.00 20.00     0.045 A 
HETATM    2  C2  UNL     1     -34.026   6.689   4.656  1.00 20.00     0.022 A 
HETATM    3  C3  UNL     1     -34.427   5.325   5.174  1.00 20.00     0.058 A 
HETATM    4  C4  UNL     1     -33.919   4.060   4.565  1.00 20.00     0.046 C 
ENDROOT
BRANCH   2   5
HETATM    5  C6  UNL     1     -33.090   6.864   3.510  1.00 20.00     0.007 C 
BRANCH   5   6
HETATM    6  C7  UNL     1     -32.147   8.066   3.697  1.00 20.00    -0.004 C 
HETATM    7  C5  UNL     1     -32.445   8.849   4.965  1.00 20.00     0.005 C 
ENDBRANCH   5   6
ENDBRANCH   2   5
BRANCH   3   8
HETATM    8  O8  UNL     1     -34.622   5.237   6.597  1.00 20.00    -0.390 OA
HETATM    9  H22 UNL     1     -35.369   4.637   6.722  1.00 20.00     0.210 HD
ENDBRANCH   3   8
TORSDOF 3
ENDMDL
MODEL 5
REMARK VINA RESULT:      -3.7     12.433     13.237
REMARK  3 active torsions:
REMARK  status: ('A' for Active; 'I' for Inactive)
REMARK    1  A    between atoms: C2_2  and  C6_6 
REMARK    2  A    between atoms: C3_3  and  O8_8 
REMARK    3  A    between atoms: C6_6  and  C7_7 
ROOT
HETATM    1  C1  UNL     1     -34.104  14.359  -4.154  1.00 20.00     0.045 A 
HETATM    2  C2  UNL     1     -33.377  15.678  -4.218  1.00 20.00     0.022 A 
HETATM    3  C3  UNL     1     -34.133  15.169  -5.426  1.00 20.00     0.058 A 
HETATM    4  C4  UNL     1     -35.412  15.788  -5.886  1.00 20.00     0.046 C 
ENDROOT
BRANCH   2   5
HETATM    5  C6  UNL     1     -33.850  16.836  -3.411  1.00 20.00     0.007 C 
BRANCH   5   6
HETATM    6  C7  UNL     1     -33.052  17.012  -2.107  1.00 20.00    -0.004 C 
HETATM    7  C5  UNL     1     -33.855  17.713  -1.023  1.00 20.00     0.005 C 
ENDBRANCH   5   6
ENDBRANCH   2   5
BRANCH   3   8
HETATM    8  O8  UNL     1     -33.317  14.675  -6.504  1.00 20.00    -0.390 OA
HETATM    9  H22 UNL     1     -32.786  13.962  -6.125  1.00 20.00     0.210 HD
ENDBRANCH   3   8
TORSDOF 3
ENDMDL
MODEL 6
REMARK VINA RESULT:      -3.7      1.657      2.443
REMARK  3 active torsions:
REMARK  status: ('A' for Active; 'I' for Inactive)
REMARK    1  A    between atoms: C2_2  and  C6_6 
REMARK    2  A    between atoms: C3_3  and  O8_8 
REMARK    3  A    between atoms: C6_6  and  C7_7 
ROOT
HETATM    1  C1  UNL     1     -33.988   8.429   4.972  1.00 20.00     0.045 A 
HETATM    2  C2  UNL     1     -32.687   7.763   4.603  1.00 20.00     0.022 A 
HETATM    3  C3  UNL     1     -33.796   6.957   5.246  1.00 20.00     0.058 A 
HETATM    4  C4  UNL     1     -34.592   5.948   4.487  1.00 20.00     0.046 C 
ENDROOT
BRANCH   2   5
HETATM    5  C6  UNL     1     -32.308   7.597   3.172  1.00 20.00     0.007 C 
BRANCH   5   6
HETATM    6  C7  UNL     1     -32.561   8.869   2.343  1.00 20.00    -0.004 C 
HETATM    7  C5  UNL     1     -32.362   8.643   0.853  1.00 20.00     0.005 C 
ENDBRANCH   5   6
ENDBRANCH   2   5
BRANCH   3   8
HETATM    8  O8  UNL     1     -33.580   6.598   6.623  1.00 20.00    -0.390 OA
HETATM    9  H22 UNL     1     -34.357   6.914   7.101  1.00 20.00     0.210 HD
ENDBRANCH   3   8
TORSDOF 3
ENDMDL
MODEL 7
REMARK VINA RESULT:      -3.7      2.144      3.579
REMARK  3 active torsions:
REMARK  status: ('A' for Active; 'I' for Inactive)
REMARK    1  A    between atoms: C2_2  and  C6_6 
REMARK    2  A    between atoms: C3_3  and  O8_8 
REMARK    3  A    between atoms: C6_6  and  C7_7 
ROOT
HETATM    1  C1  UNL     1     -32.917   7.616   5.663  1.00 20.00     0.045 A 
HETATM    2  C2  UNL     1     -34.166   7.804   4.840  1.00 20.00     0.022 A 
HETATM    3  C3  UNL     1     -32.810   8.110   4.241  1.00 20.00     0.058 A 
HETATM    4  C4  UNL     1     -32.187   7.245   3.197  1.00 20.00     0.046 C 
ENDROOT
BRANCH   2   5
HETATM    5  C6  UNL     1     -34.976   6.627   4.423  1.00 20.00     0.007 C 
BRANCH   5   6
HETATM    6  C7  UNL     1     -34.720   5.391   5.304  1.00 20.00    -0.004 C 
HETATM    7  C5  UNL     1     -34.042   4.263   4.543  1.00 20.00     0.005 C 
ENDBRANCH   5   6
ENDBRANCH   2   5
BRANCH   3   8
HETATM    8  O8  UNL     1     -32.504   9.508   4.085  1.00 20.00    -0.390 OA
HETATM    9  H22 UNL     1     -33.280   9.984   4.409  1.00 20.00     0.210 HD
ENDBRANCH   3   8
TORSDOF 3
ENDMDL
MODEL 8
REMARK VINA RESULT:      -3.6      2.005      3.746
REMARK  3 active torsions:
REMARK  status: ('A' for Active; 'I' for Inactive)
REMARK    1  A    between atoms: C2_2  and  C6_6 
REMARK    2  A    between atoms: C3_3  and  O8_8 
REMARK    3  A    between atoms: C6_6  and  C7_7 
ROOT
HETATM    1  C1  UNL     1     -32.424   7.525   2.911  1.00 20.00     0.045 A 
HETATM    2  C2  UNL     1     -32.841   6.500   3.934  1.00 20.00     0.022 A 
HETATM    3  C3  UNL     1     -32.821   7.968   4.298  1.00 20.00     0.058 A 
HETATM    4  C4  UNL     1     -34.072   8.758   4.499  1.00 20.00     0.046 C 
ENDROOT
BRANCH   2   5
HETATM    5  C6  UNL     1     -34.109   5.737   3.761  1.00 20.00     0.007 C 
BRANCH   5   6
HETATM    6  C7  UNL     1     -34.377   4.766   4.925  1.00 20.00    -0.004 C 
HETATM    7  C5  UNL     1     -34.616   5.486   6.242  1.00 20.00     0.005 C 
ENDBRANCH   5   6
ENDBRANCH   2   5
BRANCH   3   8
HETATM    8  O8  UNL     1     -31.742   8.378   5.158  1.00 20.00    -0.390 OA
HETATM    9  H22 UNL     1     -32.129   9.002   5.785  1.00 20.00     0.210 HD
ENDBRANCH   3   8
TORSDOF 3
ENDMDL
MODEL 9
REMARK VINA RESULT:      -3.6     12.806     13.576
REMARK  3 active torsions:
REMARK  status: ('A' for Active; 'I' for Inactive)
REMARK    1  A    between atoms: C2_2  and  C6_6 
REMARK    2  A    between atoms: C3_3  and  O8_8 
REMARK    3  A    between atoms: C6_6  and  C7_7 
ROOT
HETATM    1  C1  UNL     1     -32.574  19.263  -1.854  1.00 20.00     0.045 A 
HETATM    2  C2  UNL     1     -32.371  17.771  -1.909  1.00 20.00     0.022 A 
HETATM    3  C3  UNL     1     -32.016  18.538  -0.654  1.00 20.00     0.058 A 
HETATM    4  C4  UNL     1     -32.824  18.437   0.598  1.00 20.00     0.046 C 
ENDROOT
BRANCH   2   5
HETATM    5  C6  UNL     1     -33.543  16.855  -1.980  1.00 20.00     0.007 C 
BRANCH   5   6
HETATM    6  C7  UNL     1     -33.531  15.977  -3.244  1.00 20.00    -0.004 C 
HETATM    7  C5  UNL     1     -34.194  16.656  -4.431  1.00 20.00     0.005 C 
ENDBRANCH   5   6
ENDBRANCH   2   5
BRANCH   3   8
HETATM    8  O8  UNL     1     -30.608  18.713  -0.414  1.00 20.00    -0.390 OA
HETATM    9  H22 UNL     1     -30.543  19.308   0.344  1.00 20.00     0.210 HD
ENDBRANCH   3   8
TORSDOF 3
ENDMDL
