MODEL 1
REMARK VINA RESULT:      -4.0      0.000      0.000
REMARK  2 active torsions:
REMARK  status: ('A' for Active; 'I' for Inactive)
REMARK    1  A    between atoms: C1_1  and  C7_7 
REMARK    2  A    between atoms: C2_2  and  C8_8 
ROOT
HETATM    1  C3  UNL     1     -33.788  15.071  -3.974  1.00 20.00     0.035 C 
HETATM    2  C4  UNL     1     -34.443  17.466  -4.329  1.00 20.00     0.035 C 
HETATM    3  C5  UNL     1     -34.088  14.842  -5.450  1.00 20.00     0.168 C 
HETATM    4  C6  UNL     1     -34.706  17.106  -5.787  1.00 20.00     0.168 C 
HETATM    5  C7  UNL     1     -33.404  16.525  -3.730  1.00 20.00     0.012 C 
HETATM    6  O9  UNL     1     -35.102  15.739  -5.907  1.00 20.00    -0.391 OA
ENDROOT
BRANCH   5   7
HETATM    7  C1  UNL     1     -33.358  16.761  -2.233  1.00 20.00    -0.025 C 
HETATM    8  C2  UNL     1     -33.183  17.965  -1.672  1.00 20.00    -0.020 C 
BRANCH   8   9
HETATM    9  C8  UNL     1     -33.125  18.186  -0.199  1.00 20.00     0.112 C 
HETATM   10 BR10 UNL     1     -31.301  18.659   0.282  1.00 20.00    -0.092 Br
ENDBRANCH   8   9
ENDBRANCH   5   7
TORSDOF 2
ENDMDL
MODEL 2
REMARK VINA RESULT:      -4.0      3.765      5.697
REMARK  2 active torsions:
REMARK  status: ('A' for Active; 'I' for Inactive)
REMARK    1  A    between atoms: C1_1  and  C7_7 
REMARK    2  A    between atoms: C2_2  and  C8_8 
ROOT
HETATM    1  C3  UNL     1     -34.006  18.165   0.318  1.00 20.00     0.035 C 
HETATM    2  C4  UNL     1     -31.727  18.171  -0.728  1.00 20.00     0.035 C 
HETATM    3  C5  UNL     1     -33.498  19.244   1.267  1.00 20.00     0.168 C 
HETATM    4  C6  UNL     1     -31.344  19.251   0.277  1.00 20.00     0.168 C 
HETATM    5  C7  UNL     1     -33.228  18.202  -0.991  1.00 20.00     0.012 C 
HETATM    6  O9  UNL     1     -32.093  19.106   1.485  1.00 20.00    -0.391 OA
ENDROOT
BRANCH   5   7
HETATM    7  C1  UNL     1     -33.594  16.969  -1.795  1.00 20.00    -0.025 C 
HETATM    8  C2  UNL     1     -33.105  16.701  -3.015  1.00 20.00    -0.020 C 
BRANCH   8   9
HETATM    9  C8  UNL     1     -33.480  15.494  -3.805  1.00 20.00     0.112 C 
HETATM   10 BR10 UNL     1     -34.610  16.054  -5.285  1.00 20.00    -0.092 Br
ENDBRANCH   8   9
ENDBRANCH   5   7
TORSDOF 2
ENDMDL
MODEL 3
REMARK VINA RESULT:      -3.9     11.750     12.784
REMARK  2 active torsions:
REMARK  status: ('A' for Active; 'I' for Inactive)
REMARK    1  A    between atoms: C1_1  and  C7_7 
REMARK    2  A    between atoms: C2_2  and  C8_8 
ROOT
HETATM    1  C3  UNL     1     -33.663   7.715   5.433  1.00 20.00     0.035 C 
HETATM    2  C4  UNL     1     -33.852   5.780   3.849  1.00 20.00     0.035 C 
HETATM    3  C5  UNL     1     -34.265   6.810   6.502  1.00 20.00     0.168 C 
HETATM    4  C6  UNL     1     -34.443   4.981   5.005  1.00 20.00     0.168 C 
HETATM    5  C7  UNL     1     -32.944   6.883   4.379  1.00 20.00     0.012 C 
HETATM    6  O9  UNL     1     -35.133   5.840   5.914  1.00 20.00    -0.391 OA
ENDROOT
BRANCH   5   7
HETATM    7  C1  UNL     1     -32.581   7.794   3.222  1.00 20.00    -0.025 C 
HETATM    8  C2  UNL     1     -32.234   7.353   2.005  1.00 20.00    -0.020 C 
BRANCH   8   9
HETATM    9  C8  UNL     1     -31.865   8.255   0.877  1.00 20.00     0.112 C 
HETATM   10 BR10 UNL     1     -32.991   9.837   0.959  1.00 20.00    -0.092 Br
ENDBRANCH   8   9
ENDBRANCH   5   7
TORSDOF 2
ENDMDL
MODEL 4
REMARK VINA RESULT:      -3.7      0.907      1.798
REMARK  2 active torsions:
REMARK  status: ('A' for Active; 'I' for Inactive)
REMARK    1  A    between atoms: C1_1  and  C7_7 
REMARK    2  A    between atoms: C2_2  and  C8_8 
ROOT
HETATM    1  C3  UNL     1     -34.425  17.640  -4.579  1.00 20.00     0.035 C 
HETATM    2  C4  UNL     1     -33.063  15.820  -3.520  1.00 20.00     0.035 C 
HETATM    3  C5  UNL     1     -35.143  16.550  -5.365  1.00 20.00     0.168 C 
HETATM    4  C6  UNL     1     -33.857  14.830  -4.364  1.00 20.00     0.168 C 
HETATM    5  C7  UNL     1     -33.884  17.080  -3.269  1.00 20.00     0.012 C 
HETATM    6  O9  UNL     1     -34.281  15.433  -5.586  1.00 20.00    -0.391 OA
ENDROOT
BRANCH   5   7
HETATM    7  C1  UNL     1     -32.976  18.122  -2.646  1.00 20.00    -0.025 C 
HETATM    8  C2  UNL     1     -32.696  18.181  -1.336  1.00 20.00    -0.020 C 
BRANCH   8   9
HETATM    9  C8  UNL     1     -31.814  19.217  -0.729  1.00 20.00     0.112 C 
HETATM   10 BR10 UNL     1     -31.053  18.495   0.909  1.00 20.00    -0.092 Br
ENDBRANCH   8   9
ENDBRANCH   5   7
TORSDOF 2
ENDMDL
MODEL 5
REMARK VINA RESULT:      -3.6      1.247      1.640
REMARK  2 active torsions:
REMARK  status: ('A' for Active; 'I' for Inactive)
REMARK    1  A    between atoms: C1_1  and  C7_7 
REMARK    2  A    between atoms: C2_2  and  C8_8 
ROOT
HETATM    1  C3  UNL     1     -33.540  16.219  -2.894  1.00 20.00     0.035 C 
HETATM    2  C4  UNL     1     -34.807  18.383  -2.918  1.00 20.00     0.035 C 
HETATM    3  C5  UNL     1     -33.887  16.079  -4.371  1.00 20.00     0.168 C 
HETATM    4  C6  UNL     1     -35.084  18.125  -4.395  1.00 20.00     0.168 C 
HETATM    5  C7  UNL     1     -33.519  17.689  -2.491  1.00 20.00     0.012 C 
HETATM    6  O9  UNL     1     -35.128  16.723  -4.663  1.00 20.00    -0.391 OA
ENDROOT
BRANCH   5   7
HETATM    7  C1  UNL     1     -33.417  17.766  -0.980  1.00 20.00    -0.025 C 
HETATM    8  C2  UNL     1     -32.494  18.489  -0.331  1.00 20.00    -0.020 C 
BRANCH   8   9
HETATM    9  C8  UNL     1     -32.391  18.549   1.155  1.00 20.00     0.112 C 
HETATM   10 BR10 UNL     1     -30.560  19.002   1.628  1.00 20.00    -0.092 Br
ENDBRANCH   8   9
ENDBRANCH   5   7
TORSDOF 2
ENDMDL
MODEL 6
REMARK VINA RESULT:      -3.5     24.121     24.955
REMARK  2 active torsions:
REMARK  status: ('A' for Active; 'I' for Inactive)
REMARK    1  A    between atoms: C1_1  and  C7_7 
REMARK    2  A    between atoms: C2_2  and  C8_8 
ROOT
HETATM    1  C3  UNL     1     -26.345  -1.128  11.528  1.00 20.00     0.035 C 
HETATM    2  C4  UNL     1     -27.705  -2.577   9.997  1.00 20.00     0.035 C 
HETATM    3  C5  UNL     1     -27.661  -0.578  12.064  1.00 20.00     0.168 C 
HETATM    4  C6  UNL     1     -28.947  -1.947  10.618  1.00 20.00     0.168 C 
HETATM    5  C7  UNL     1     -26.543  -2.537  10.983  1.00 20.00     0.012 C 
HETATM    6  O9  UNL     1     -28.673  -0.616  11.057  1.00 20.00    -0.391 OA
ENDROOT
BRANCH   5   7
HETATM    7  C1  UNL     1     -25.281  -2.943  10.245  1.00 20.00    -0.025 C 
HETATM    8  C2  UNL     1     -24.042  -2.723  10.708  1.00 20.00    -0.020 C 
BRANCH   8   9
HETATM    9  C8  UNL     1     -22.807  -3.112   9.970  1.00 20.00     0.112 C 
HETATM   10 BR10 UNL     1     -23.232  -3.228   8.076  1.00 20.00    -0.092 Br
ENDBRANCH   8   9
ENDBRANCH   5   7
TORSDOF 2
ENDMDL
MODEL 7
REMARK VINA RESULT:      -3.4      3.466      5.074
REMARK  2 active torsions:
REMARK  status: ('A' for Active; 'I' for Inactive)
REMARK    1  A    between atoms: C1_1  and  C7_7 
REMARK    2  A    between atoms: C2_2  and  C8_8 
ROOT
HETATM    1  C3  UNL     1     -34.925  18.410  -2.101  1.00 20.00     0.035 C 
HETATM    2  C4  UNL     1     -32.636  17.767  -1.305  1.00 20.00     0.035 C 
HETATM    3  C5  UNL     1     -35.048  19.261  -0.842  1.00 20.00     0.168 C 
HETATM    4  C6  UNL     1     -32.884  18.654  -0.091  1.00 20.00     0.168 C 
HETATM    5  C7  UNL     1     -33.461  18.251  -2.492  1.00 20.00     0.012 C 
HETATM    6  O9  UNL     1     -34.276  18.705   0.223  1.00 20.00    -0.391 OA
ENDROOT
BRANCH   5   7
HETATM    7  C1  UNL     1     -33.374  17.207  -3.588  1.00 20.00    -0.025 C 
HETATM    8  C2  UNL     1     -33.380  15.885  -3.362  1.00 20.00    -0.020 C 
BRANCH   8   9
HETATM    9  C8  UNL     1     -33.279  14.865  -4.444  1.00 20.00     0.112 C 
HETATM   10 BR10 UNL     1     -34.566  15.311  -5.833  1.00 20.00    -0.092 Br
ENDBRANCH   8   9
ENDBRANCH   5   7
TORSDOF 2
ENDMDL
MODEL 8
REMARK VINA RESULT:      -3.3      5.224      7.796
REMARK  2 active torsions:
REMARK  status: ('A' for Active; 'I' for Inactive)
REMARK    1  A    between atoms: C1_1  and  C7_7 
REMARK    2  A    between atoms: C2_2  and  C8_8 
ROOT
HETATM    1  C3  UNL     1     -29.819  18.655   2.050  1.00 20.00     0.035 C 
HETATM    2  C4  UNL     1     -31.798  19.263   3.467  1.00 20.00     0.035 C 
HETATM    3  C5  UNL     1     -29.051  18.422   3.345  1.00 20.00     0.168 C 
HETATM    4  C6  UNL     1     -30.920  18.996   4.684  1.00 20.00     0.168 C 
HETATM    5  C7  UNL     1     -31.312  18.446   2.275  1.00 20.00     0.012 C 
HETATM    6  O9  UNL     1     -29.549  19.262   4.388  1.00 20.00    -0.391 OA
ENDROOT
BRANCH   5   7
HETATM    7  C1  UNL     1     -32.050  18.925   1.039  1.00 20.00    -0.025 C 
HETATM    8  C2  UNL     1     -32.539  18.105   0.098  1.00 20.00    -0.020 C 
BRANCH   8   9
HETATM    9  C8  UNL     1     -33.251  18.584  -1.121  1.00 20.00     0.112 C 
HETATM   10 BR10 UNL     1     -33.333  17.122  -2.401  1.00 20.00    -0.092 Br
ENDBRANCH   8   9
ENDBRANCH   5   7
TORSDOF 2
ENDMDL
MODEL 9
REMARK VINA RESULT:      -3.2     12.385     13.079
REMARK  2 active torsions:
REMARK  status: ('A' for Active; 'I' for Inactive)
REMARK    1  A    between atoms: C1_1  and  C7_7 
REMARK    2  A    between atoms: C2_2  and  C8_8 
ROOT
HETATM    1  C3  UNL     1     -40.463  15.385   7.705  1.00 20.00     0.035 C 
HETATM    2  C4  UNL     1     -42.234  15.446   5.931  1.00 20.00     0.035 C 
HETATM    3  C5  UNL     1     -40.748  16.864   7.943  1.00 20.00     0.168 C 
HETATM    4  C6  UNL     1     -42.422  16.921   6.266  1.00 20.00     0.168 C 
HETATM    5  C7  UNL     1     -41.697  14.692   7.142  1.00 20.00     0.012 C 
HETATM    6  O9  UNL     1     -41.203  17.491   6.743  1.00 20.00    -0.391 OA
ENDROOT
BRANCH   5   7
HETATM    7  C1  UNL     1     -41.297  13.300   6.695  1.00 20.00    -0.025 C 
HETATM    8  C2  UNL     1     -40.053  12.963   6.324  1.00 20.00    -0.020 C 
BRANCH   8   9
HETATM    9  C8  UNL     1     -39.671  11.596   5.872  1.00 20.00     0.112 C 
HETATM   10 BR10 UNL     1     -39.025  11.710   4.041  1.00 20.00    -0.092 Br
ENDBRANCH   8   9
ENDBRANCH   5   7
TORSDOF 2
ENDMDL
