MODEL 1
REMARK VINA RESULT:      -3.7      0.000      0.000
REMARK  1 active torsions:
REMARK  status: ('A' for Active; 'I' for Inactive)
REMARK    1  A    between atoms: C3_3  and  C8_8 
ROOT
HETATM    1  C1  UNL     1     -32.010   7.011   2.964  1.00 20.00     0.284 C 
HETATM    2  C2  UNL     1     -33.168   7.474   5.453  1.00 20.00     0.110 C 
HETATM    3  C3  UNL     1     -34.018   6.777   4.389  1.00 20.00     0.233 C 
HETATM    4  C4  UNL     1     -32.064   8.534   3.112  1.00 20.00     0.071 C 
HETATM    5  C5  UNL     1     -33.040   9.198   2.142  1.00 20.00     0.023 C 
HETATM    6  N9  UNL     1     -33.254   6.296   3.232  1.00 20.00     0.090 N 
HETATM    7  S10 UNL     1     -32.453   9.031   4.831  1.00 20.00    -0.161 SA
HETATM    8  H27 UNL     1     -33.851   6.350   2.392  1.00 20.00     0.316 HD
ENDROOT
BRANCH   3   9
HETATM    9  C8  UNL     1     -34.744   5.575   4.995  1.00 20.00     0.011 C 
HETATM   10  C6  UNL     1     -34.146   4.272   4.472  1.00 20.00     0.012 C 
HETATM   11  C7  UNL     1     -34.682   5.626   6.518  1.00 20.00     0.012 C 
ENDBRANCH   3   9
TORSDOF 1
ENDMDL
MODEL 2
REMARK VINA RESULT:      -3.7     12.073     13.153
REMARK  1 active torsions:
REMARK  status: ('A' for Active; 'I' for Inactive)
REMARK    1  A    between atoms: C3_3  and  C8_8 
ROOT
HETATM    1  C1  UNL     1     -33.869  14.978  -5.761  1.00 20.00     0.284 C 
HETATM    2  C2  UNL     1     -34.877  17.389  -4.802  1.00 20.00     0.110 C 
HETATM    3  C3  UNL     1     -34.085  16.510  -3.832  1.00 20.00     0.233 C 
HETATM    4  C4  UNL     1     -35.392  14.845  -5.846  1.00 20.00     0.071 C 
HETATM    5  C5  UNL     1     -35.962  13.815  -4.873  1.00 20.00     0.023 C 
HETATM    6  N9  UNL     1     -33.335  15.428  -4.479  1.00 20.00     0.090 N 
HETATM    7  S10 UNL     1     -36.222  16.460  -5.608  1.00 20.00    -0.161 SA
HETATM    8  H27 UNL     1     -33.295  14.619  -3.838  1.00 20.00     0.316 HD
ENDROOT
BRANCH   3   9
HETATM    9  C8  UNL     1     -33.085  17.358  -3.044  1.00 20.00     0.011 C 
HETATM   10  C6  UNL     1     -33.062  18.787  -3.577  1.00 20.00     0.012 C 
HETATM   11  C7  UNL     1     -33.427  17.340  -1.557  1.00 20.00     0.012 C 
ENDBRANCH   3   9
TORSDOF 1
ENDMDL
MODEL 3
REMARK VINA RESULT:      -3.6     12.389     13.138
REMARK  1 active torsions:
REMARK  status: ('A' for Active; 'I' for Inactive)
REMARK    1  A    between atoms: C3_3  and  C8_8 
ROOT
HETATM    1  C1  UNL     1     -33.693  16.260  -4.121  1.00 20.00     0.284 C 
HETATM    2  C2  UNL     1     -32.915  18.733  -3.108  1.00 20.00     0.110 C 
HETATM    3  C3  UNL     1     -33.719  17.807  -2.193  1.00 20.00     0.233 C 
HETATM    4  C4  UNL     1     -34.413  17.299  -4.985  1.00 20.00     0.071 C 
HETATM    5  C5  UNL     1     -35.927  17.300  -4.788  1.00 20.00     0.023 C 
HETATM    6  N9  UNL     1     -33.821  16.426  -2.677  1.00 20.00     0.090 N 
HETATM    7  S10 UNL     1     -33.744  18.981  -4.712  1.00 20.00    -0.161 SA
HETATM    8  H27 UNL     1     -34.729  16.034  -2.381  1.00 20.00     0.316 HD
ENDROOT
BRANCH   3   9
HETATM    9  C8  UNL     1     -33.092  17.763  -0.799  1.00 20.00     0.011 C 
HETATM   10  C6  UNL     1     -31.762  18.512  -0.789  1.00 20.00     0.012 C 
HETATM   11  C7  UNL     1     -34.049  18.347   0.236  1.00 20.00     0.012 C 
ENDBRANCH   3   9
TORSDOF 1
ENDMDL
MODEL 4
REMARK VINA RESULT:      -3.5     10.139     10.665
REMARK  1 active torsions:
REMARK  status: ('A' for Active; 'I' for Inactive)
REMARK    1  A    between atoms: C3_3  and  C8_8 
ROOT
HETATM    1  C1  UNL     1     -40.923  14.820   7.613  1.00 20.00     0.284 C 
HETATM    2  C2  UNL     1     -42.046  12.466   6.642  1.00 20.00     0.110 C 
HETATM    3  C3  UNL     1     -40.798  13.004   5.940  1.00 20.00     0.233 C 
HETATM    4  C4  UNL     1     -42.315  15.211   7.109  1.00 20.00     0.071 C 
HETATM    5  C5  UNL     1     -42.278  16.115   5.879  1.00 20.00     0.023 C 
HETATM    6  N9  UNL     1     -40.096  14.054   6.687  1.00 20.00     0.090 N 
HETATM    7  S10 UNL     1     -43.347  13.736   6.773  1.00 20.00    -0.161 SA
HETATM    8  H27 UNL     1     -39.663  14.709   6.015  1.00 20.00     0.316 HD
ENDROOT
BRANCH   3   9
HETATM    9  C8  UNL     1     -39.801  11.872   5.688  1.00 20.00     0.011 C 
HETATM   10  C6  UNL     1     -39.405  11.830   4.215  1.00 20.00     0.012 C 
HETATM   11  C7  UNL     1     -38.571  12.038   6.575  1.00 20.00     0.012 C 
ENDBRANCH   3   9
TORSDOF 1
ENDMDL
MODEL 5
REMARK VINA RESULT:      -3.3     12.302     13.658
REMARK  1 active torsions:
REMARK  status: ('A' for Active; 'I' for Inactive)
REMARK    1  A    between atoms: C3_3  and  C8_8 
ROOT
HETATM    1  C1  UNL     1     -36.124  15.442  -6.043  1.00 20.00     0.284 C 
HETATM    2  C2  UNL     1     -34.570  17.713  -5.618  1.00 20.00     0.110 C 
HETATM    3  C3  UNL     1     -34.732  16.731  -4.457  1.00 20.00     0.233 C 
HETATM    4  C4  UNL     1     -37.085  16.626  -6.186  1.00 20.00     0.071 C 
HETATM    5  C5  UNL     1     -38.122  16.697  -5.068  1.00 20.00     0.023 C 
HETATM    6  N9  UNL     1     -35.293  15.431  -4.844  1.00 20.00     0.090 N 
HETATM    7  S10 UNL     1     -36.182  18.214  -6.306  1.00 20.00    -0.161 SA
HETATM    8  H27 UNL     1     -35.854  15.063  -4.059  1.00 20.00     0.316 HD
ENDROOT
BRANCH   3   9
HETATM    9  C8  UNL     1     -33.381  16.470  -3.790  1.00 20.00     0.011 C 
HETATM   10  C6  UNL     1     -33.474  16.705  -2.285  1.00 20.00     0.012 C 
HETATM   11  C7  UNL     1     -32.904  15.051  -4.087  1.00 20.00     0.012 C 
ENDBRANCH   3   9
TORSDOF 1
ENDMDL
MODEL 6
REMARK VINA RESULT:      -3.3     11.910     12.750
REMARK  1 active torsions:
REMARK  status: ('A' for Active; 'I' for Inactive)
REMARK    1  A    between atoms: C3_3  and  C8_8 
ROOT
HETATM    1  C1  UNL     1     -34.103  17.666  -1.335  1.00 20.00     0.284 C 
HETATM    2  C2  UNL     1     -33.849  17.769  -4.105  1.00 20.00     0.110 C 
HETATM    3  C3  UNL     1     -33.388  16.497  -3.393  1.00 20.00     0.233 C 
HETATM    4  C4  UNL     1     -33.106  18.795  -1.610  1.00 20.00     0.071 C 
HETATM    5  C5  UNL     1     -31.689  18.473  -1.140  1.00 20.00     0.023 C 
HETATM    6  N9  UNL     1     -33.834  16.394  -1.998  1.00 20.00     0.090 N 
HETATM    7  S10 UNL     1     -33.089  19.259  -3.382  1.00 20.00    -0.161 SA
HETATM    8  H27 UNL     1     -33.117  15.886  -1.455  1.00 20.00     0.316 HD
ENDROOT
BRANCH   3   9
HETATM    9  C8  UNL     1     -33.900  15.260  -4.132  1.00 20.00     0.011 C 
HETATM   10  C6  UNL     1     -34.697  15.669  -5.367  1.00 20.00     0.012 C 
HETATM   11  C7  UNL     1     -32.737  14.349  -4.517  1.00 20.00     0.012 C 
ENDBRANCH   3   9
TORSDOF 1
ENDMDL
MODEL 7
REMARK VINA RESULT:      -3.3     12.275     13.409
REMARK  1 active torsions:
REMARK  status: ('A' for Active; 'I' for Inactive)
REMARK    1  A    between atoms: C3_3  and  C8_8 
ROOT
HETATM    1  C1  UNL     1     -33.478  18.490  -4.524  1.00 20.00     0.284 C 
HETATM    2  C2  UNL     1     -33.329  15.859  -3.627  1.00 20.00     0.110 C 
HETATM    3  C3  UNL     1     -34.411  16.204  -4.652  1.00 20.00     0.233 C 
HETATM    4  C4  UNL     1     -33.793  18.551  -3.026  1.00 20.00     0.071 C 
HETATM    5  C5  UNL     1     -35.240  18.941  -2.731  1.00 20.00     0.023 C 
HETATM    6  N9  UNL     1     -34.231  17.509  -5.299  1.00 20.00     0.090 N 
HETATM    7  S10 UNL     1     -33.384  16.976  -2.188  1.00 20.00    -0.161 SA
HETATM    8  H27 UNL     1     -35.160  17.905  -5.516  1.00 20.00     0.316 HD
ENDROOT
BRANCH   3   9
HETATM    9  C8  UNL     1     -34.454  15.145  -5.755  1.00 20.00     0.011 C 
HETATM   10  C6  UNL     1     -35.805  14.436  -5.761  1.00 20.00     0.012 C 
HETATM   11  C7  UNL     1     -34.168  15.778  -7.113  1.00 20.00     0.012 C 
ENDBRANCH   3   9
TORSDOF 1
ENDMDL
MODEL 8
REMARK VINA RESULT:      -3.3     12.300     13.749
REMARK  1 active torsions:
REMARK  status: ('A' for Active; 'I' for Inactive)
REMARK    1  A    between atoms: C3_3  and  C8_8 
ROOT
HETATM    1  C1  UNL     1     -36.994  16.487  -5.489  1.00 20.00     0.284 C 
HETATM    2  C2  UNL     1     -34.692  15.063  -6.138  1.00 20.00     0.110 C 
HETATM    3  C3  UNL     1     -34.592  16.115  -5.032  1.00 20.00     0.233 C 
HETATM    4  C4  UNL     1     -36.675  16.866  -6.938  1.00 20.00     0.071 C 
HETATM    5  C5  UNL     1     -36.243  18.322  -7.099  1.00 20.00     0.023 C 
HETATM    6  N9  UNL     1     -35.890  16.593  -4.540  1.00 20.00     0.090 N 
HETATM    7  S10 UNL     1     -35.413  15.754  -7.662  1.00 20.00    -0.161 SA
HETATM    8  H27 UNL     1     -35.795  17.581  -4.256  1.00 20.00     0.316 HD
ENDROOT
BRANCH   3   9
HETATM    9  C8  UNL     1     -33.823  15.555  -3.834  1.00 20.00     0.011 C 
HETATM   10  C6  UNL     1     -32.663  14.684  -4.306  1.00 20.00     0.012 C 
HETATM   11  C7  UNL     1     -33.322  16.689  -2.945  1.00 20.00     0.012 C 
ENDBRANCH   3   9
TORSDOF 1
ENDMDL
MODEL 9
REMARK VINA RESULT:      -3.2     12.163     13.411
REMARK  1 active torsions:
REMARK  status: ('A' for Active; 'I' for Inactive)
REMARK    1  A    between atoms: C3_3  and  C8_8 
ROOT
HETATM    1  C1  UNL     1     -35.595  16.393  -5.141  1.00 20.00     0.284 C 
HETATM    2  C2  UNL     1     -33.556  15.967  -3.294  1.00 20.00     0.110 C 
HETATM    3  C3  UNL     1     -33.560  17.291  -4.061  1.00 20.00     0.233 C 
HETATM    4  C4  UNL     1     -34.802  15.198  -5.678  1.00 20.00     0.071 C 
HETATM    5  C5  UNL     1     -34.046  15.508  -6.968  1.00 20.00     0.023 C 
HETATM    6  N9  UNL     1     -34.813  17.569  -4.772  1.00 20.00     0.090 N 
HETATM    7  S10 UNL     1     -33.648  14.536  -4.419  1.00 20.00    -0.161 SA
HETATM    8  H27 UNL     1     -34.599  18.103  -5.629  1.00 20.00     0.316 HD
ENDROOT
BRANCH   3   9
HETATM    9  C8  UNL     1     -33.303  18.458  -3.106  1.00 20.00     0.011 C 
HETATM   10  C6  UNL     1     -34.582  19.262  -2.890  1.00 20.00     0.012 C 
HETATM   11  C7  UNL     1     -32.753  17.948  -1.777  1.00 20.00     0.012 C 
ENDBRANCH   3   9
TORSDOF 1
ENDMDL
