MODEL 1
REMARK VINA RESULT:      -4.7      0.000      0.000
REMARK  2 active torsions:
REMARK  status: ('A' for Active; 'I' for Inactive)
REMARK    1  A    between atoms: C5_5  and  C7_7 
REMARK    2  A    between atoms: C7_7  and  C8_8 
ROOT
HETATM    1  C1  UNL     1     -33.437   5.467   3.288  1.00 20.00     0.066 C 
HETATM    2  C2  UNL     1     -34.624   4.896   5.386  1.00 20.00     0.048 C 
HETATM    3  C3  UNL     1     -34.929   5.700   6.630  1.00 20.00     0.169 C 
HETATM    4  C4  UNL     1     -34.243   5.979   4.398  1.00 20.00     0.123 C 
HETATM    5  C5  UNL     1     -33.477   6.947   5.296  1.00 20.00     0.139 C 
HETATM    6  N9  UNL     1     -32.798   5.062   2.407  1.00 20.00    -0.197 NA
HETATM    7  O10 UNL     1     -34.064   6.842   6.606  1.00 20.00    -0.384 OA
ENDROOT
BRANCH   5   8
HETATM    8  C7  UNL     1     -33.548   8.392   4.830  1.00 20.00     0.033 C 
BRANCH   8   9
HETATM    9  C8  UNL     1     -32.288   8.793   4.069  1.00 20.00    -0.002 C 
HETATM   10  C6  UNL     1     -32.562   8.938   2.581  1.00 20.00     0.005 C 
ENDBRANCH   8   9
ENDBRANCH   5   8
TORSDOF 2
ENDMDL
MODEL 2
REMARK VINA RESULT:      -4.2      1.802      2.588
REMARK  2 active torsions:
REMARK  status: ('A' for Active; 'I' for Inactive)
REMARK    1  A    between atoms: C5_5  and  C7_7 
REMARK    2  A    between atoms: C7_7  and  C8_8 
ROOT
HETATM    1  C1  UNL     1     -34.090   5.529   4.422  1.00 20.00     0.066 C 
HETATM    2  C2  UNL     1     -33.708   7.578   5.762  1.00 20.00     0.048 C 
HETATM    3  C3  UNL     1     -32.933   8.845   5.480  1.00 20.00     0.169 C 
HETATM    4  C4  UNL     1     -33.831   6.970   4.380  1.00 20.00     0.123 C 
HETATM    5  C5  UNL     1     -32.470   7.315   3.780  1.00 20.00     0.139 C 
HETATM    6  N9  UNL     1     -34.296   4.388   4.454  1.00 20.00    -0.197 NA
HETATM    7  O10 UNL     1     -32.063   8.559   4.377  1.00 20.00    -0.384 OA
ENDROOT
BRANCH   5   8
HETATM    8  C7  UNL     1     -32.497   7.470   2.269  1.00 20.00     0.033 C 
BRANCH   8   9
HETATM    9  C8  UNL     1     -32.600   8.937   1.863  1.00 20.00    -0.002 C 
HETATM   10  C6  UNL     1     -32.694   9.088   0.353  1.00 20.00     0.005 C 
ENDBRANCH   8   9
ENDBRANCH   5   8
TORSDOF 2
ENDMDL
MODEL 3
REMARK VINA RESULT:      -4.1      1.190      3.318
REMARK  2 active torsions:
REMARK  status: ('A' for Active; 'I' for Inactive)
REMARK    1  A    between atoms: C5_5  and  C7_7 
REMARK    2  A    between atoms: C7_7  and  C8_8 
ROOT
HETATM    1  C1  UNL     1     -32.743   5.924   3.034  1.00 20.00     0.066 C 
HETATM    2  C2  UNL     1     -32.271   8.351   3.202  1.00 20.00     0.048 C 
HETATM    3  C3  UNL     1     -32.536   9.363   4.294  1.00 20.00     0.169 C 
HETATM    4  C4  UNL     1     -32.454   7.039   3.938  1.00 20.00     0.123 C 
HETATM    5  C5  UNL     1     -33.619   7.376   4.864  1.00 20.00     0.139 C 
HETATM    6  N9  UNL     1     -32.972   5.040   2.319  1.00 20.00    -0.197 NA
HETATM    7  O10 UNL     1     -33.506   8.778   5.171  1.00 20.00    -0.384 OA
ENDROOT
BRANCH   5   8
HETATM    8  C7  UNL     1     -33.616   6.578   6.157  1.00 20.00     0.033 C 
BRANCH   8   9
HETATM    9  C8  UNL     1     -34.672   5.478   6.132  1.00 20.00    -0.002 C 
HETATM   10  C6  UNL     1     -35.496   5.529   4.855  1.00 20.00     0.005 C 
ENDBRANCH   8   9
ENDBRANCH   5   8
TORSDOF 2
ENDMDL
MODEL 4
REMARK VINA RESULT:      -4.0     12.418     13.297
REMARK  2 active torsions:
REMARK  status: ('A' for Active; 'I' for Inactive)
REMARK    1  A    between atoms: C5_5  and  C7_7 
REMARK    2  A    between atoms: C7_7  and  C8_8 
ROOT
HETATM    1  C1  UNL     1     -31.827  18.382  -0.670  1.00 20.00     0.066 C 
HETATM    2  C2  UNL     1     -34.139  19.261  -0.818  1.00 20.00     0.048 C 
HETATM    3  C3  UNL     1     -35.304  18.905  -1.714  1.00 20.00     0.169 C 
HETATM    4  C4  UNL     1     -33.216  18.077  -1.017  1.00 20.00     0.123 C 
HETATM    5  C5  UNL     1     -33.412  17.791  -2.504  1.00 20.00     0.139 C 
HETATM    6  N9  UNL     1     -30.726  18.624  -0.395  1.00 20.00    -0.197 NA
HETATM    7  O10 UNL     1     -34.765  18.168  -2.818  1.00 20.00    -0.384 OA
ENDROOT
BRANCH   5   8
HETATM    8  C7  UNL     1     -33.199  16.333  -2.874  1.00 20.00     0.033 C 
BRANCH   8   9
HETATM    9  C8  UNL     1     -33.940  15.973  -4.158  1.00 20.00    -0.002 C 
HETATM   10  C6  UNL     1     -34.052  14.466  -4.329  1.00 20.00     0.005 C 
ENDBRANCH   8   9
ENDBRANCH   5   8
TORSDOF 2
ENDMDL
MODEL 5
REMARK VINA RESULT:      -3.9      9.911     10.645
REMARK  2 active torsions:
REMARK  status: ('A' for Active; 'I' for Inactive)
REMARK    1  A    between atoms: C5_5  and  C7_7 
REMARK    2  A    between atoms: C7_7  and  C8_8 
ROOT
HETATM    1  C1  UNL     1     -42.079  14.416   4.405  1.00 20.00     0.066 C 
HETATM    2  C2  UNL     1     -43.158  14.485   6.634  1.00 20.00     0.048 C 
HETATM    3  C3  UNL     1     -42.826  13.805   7.944  1.00 20.00     0.169 C 
HETATM    4  C4  UNL     1     -41.875  14.301   5.850  1.00 20.00     0.123 C 
HETATM    5  C5  UNL     1     -41.458  12.898   6.285  1.00 20.00     0.139 C 
HETATM    6  N9  UNL     1     -42.240  14.507   3.259  1.00 20.00    -0.197 NA
HETATM    7  O10 UNL     1     -41.930  12.731   7.635  1.00 20.00    -0.384 OA
ENDROOT
BRANCH   5   8
HETATM    8  C7  UNL     1     -39.956  12.674   6.249  1.00 20.00     0.033 C 
BRANCH   8   9
HETATM    9  C8  UNL     1     -39.602  11.411   5.471  1.00 20.00    -0.002 C 
HETATM   10  C6  UNL     1     -38.939  11.745   4.144  1.00 20.00     0.005 C 
ENDBRANCH   8   9
ENDBRANCH   5   8
TORSDOF 2
ENDMDL
MODEL 6
REMARK VINA RESULT:      -3.8     12.301     13.332
REMARK  2 active torsions:
REMARK  status: ('A' for Active; 'I' for Inactive)
REMARK    1  A    between atoms: C5_5  and  C7_7 
REMARK    2  A    between atoms: C7_7  and  C8_8 
ROOT
HETATM    1  C1  UNL     1     -35.216  14.092  -4.791  1.00 20.00     0.066 C 
HETATM    2  C2  UNL     1     -35.163  15.913  -6.470  1.00 20.00     0.048 C 
HETATM    3  C3  UNL     1     -34.550  17.296  -6.447  1.00 20.00     0.169 C 
HETATM    4  C4  UNL     1     -34.470  15.244  -5.300  1.00 20.00     0.123 C 
HETATM    5  C5  UNL     1     -34.392  16.395  -4.300  1.00 20.00     0.139 C 
HETATM    6  N9  UNL     1     -35.807  13.178  -4.387  1.00 20.00    -0.197 NA
HETATM    7  O10 UNL     1     -34.275  17.603  -5.075  1.00 20.00    -0.384 OA
ENDROOT
BRANCH   5   8
HETATM    8  C7  UNL     1     -33.211  16.293  -3.350  1.00 20.00     0.033 C 
BRANCH   8   9
HETATM    9  C8  UNL     1     -33.554  16.859  -1.975  1.00 20.00    -0.002 C 
HETATM   10  C6  UNL     1     -32.585  17.959  -1.572  1.00 20.00     0.005 C 
ENDBRANCH   8   9
ENDBRANCH   5   8
TORSDOF 2
ENDMDL
MODEL 7
REMARK VINA RESULT:      -3.8     12.331     13.157
REMARK  2 active torsions:
REMARK  status: ('A' for Active; 'I' for Inactive)
REMARK    1  A    between atoms: C5_5  and  C7_7 
REMARK    2  A    between atoms: C7_7  and  C8_8 
ROOT
HETATM    1  C1  UNL     1     -34.636  16.629  -6.467  1.00 20.00     0.066 C 
HETATM    2  C2  UNL     1     -35.998  14.721  -5.664  1.00 20.00     0.048 C 
HETATM    3  C3  UNL     1     -35.793  13.730  -4.539  1.00 20.00     0.169 C 
HETATM    4  C4  UNL     1     -35.001  15.806  -5.312  1.00 20.00     0.123 C 
HETATM    5  C5  UNL     1     -33.836  14.979  -4.775  1.00 20.00     0.139 C 
HETATM    6  N9  UNL     1     -34.346  17.281  -7.381  1.00 20.00    -0.197 NA
HETATM    7  O10 UNL     1     -34.410  13.806  -4.170  1.00 20.00    -0.384 OA
ENDROOT
BRANCH   5   8
HETATM    8  C7  UNL     1     -32.995  15.713  -3.744  1.00 20.00     0.033 C 
BRANCH   8   9
HETATM    9  C8  UNL     1     -33.861  16.585  -2.841  1.00 20.00    -0.002 C 
HETATM   10  C6  UNL     1     -33.013  17.387  -1.866  1.00 20.00     0.005 C 
ENDBRANCH   8   9
ENDBRANCH   5   8
TORSDOF 2
ENDMDL
MODEL 8
REMARK VINA RESULT:      -3.7      9.623     10.452
REMARK  2 active torsions:
REMARK  status: ('A' for Active; 'I' for Inactive)
REMARK    1  A    between atoms: C5_5  and  C7_7 
REMARK    2  A    between atoms: C7_7  and  C8_8 
ROOT
HETATM    1  C1  UNL     1     -42.110  14.294   4.602  1.00 20.00     0.066 C 
HETATM    2  C2  UNL     1     -41.473  15.221   6.810  1.00 20.00     0.048 C 
HETATM    3  C3  UNL     1     -40.820  14.595   8.022  1.00 20.00     0.169 C 
HETATM    4  C4  UNL     1     -41.187  14.193   5.734  1.00 20.00     0.123 C 
HETATM    5  C5  UNL     1     -41.340  12.891   6.516  1.00 20.00     0.139 C 
HETATM    6  N9  UNL     1     -42.841  14.373   3.704  1.00 20.00    -0.197 NA
HETATM    7  O10 UNL     1     -40.938  13.176   7.869  1.00 20.00    -0.384 OA
ENDROOT
BRANCH   5   8
HETATM    8  C7  UNL     1     -40.493  11.753   5.971  1.00 20.00     0.033 C 
BRANCH   8   9
HETATM    9  C8  UNL     1     -39.170  12.266   5.411  1.00 20.00    -0.002 C 
HETATM   10  C6  UNL     1     -38.905  11.710   4.020  1.00 20.00     0.005 C 
ENDBRANCH   8   9
ENDBRANCH   5   8
TORSDOF 2
ENDMDL
MODEL 9
REMARK VINA RESULT:      -3.7      9.944     10.840
REMARK  2 active torsions:
REMARK  status: ('A' for Active; 'I' for Inactive)
REMARK    1  A    between atoms: C5_5  and  C7_7 
REMARK    2  A    between atoms: C7_7  and  C8_8 
ROOT
HETATM    1  C1  UNL     1     -40.767  14.573   8.212  1.00 20.00     0.066 C 
HETATM    2  C2  UNL     1     -42.403  15.251   6.479  1.00 20.00     0.048 C 
HETATM    3  C3  UNL     1     -42.713  14.698   5.105  1.00 20.00     0.169 C 
HETATM    4  C4  UNL     1     -41.603  14.123   7.097  1.00 20.00     0.123 C 
HETATM    5  C5  UNL     1     -40.791  13.639   5.899  1.00 20.00     0.139 C 
HETATM    6  N9  UNL     1     -40.104  14.929   9.096  1.00 20.00    -0.197 NA
HETATM    7  O10 UNL     1     -41.604  13.871   4.733  1.00 20.00    -0.384 OA
ENDROOT
BRANCH   5   8
HETATM    8  C7  UNL     1     -40.425  12.166   5.969  1.00 20.00     0.033 C 
BRANCH   8   9
HETATM    9  C8  UNL     1     -38.994  11.927   5.499  1.00 20.00    -0.002 C 
HETATM   10  C6  UNL     1     -38.939  11.654   4.004  1.00 20.00     0.005 C 
ENDBRANCH   8   9
ENDBRANCH   5   8
TORSDOF 2
ENDMDL
