MODEL 1
REMARK VINA RESULT:      -4.6      0.000      0.000
REMARK  3 active torsions:
REMARK  status: ('A' for Active; 'I' for Inactive)
REMARK    1  A    between atoms: C1_1  and  C6_6 
REMARK    2  A    between atoms: C2_2  and  C3_3 
REMARK    3  A    between atoms: C3_3  and  C8_8 
ROOT
HETATM    1  C1  UNL     1     -33.778   6.038   4.067  1.00 20.00    -0.012 C 
HETATM    2  C3  UNL     1     -33.153   7.167   3.690  1.00 20.00    -0.024 C 
ENDROOT
BRANCH   2   3
HETATM    3  C2  UNL     1     -32.148   7.033   2.600  1.00 20.00     0.265 C 
HETATM    4  O9  UNL     1     -32.092   7.797   1.643  1.00 20.00    -0.302 OA
ENDBRANCH   2   3
BRANCH   2   5
HETATM    5  C8  UNL     1     -33.363   8.525   4.301  1.00 20.00     0.037 C 
HETATM    6  C7  UNL     1     -32.105   9.046   4.983  1.00 20.00     0.010 C 
ENDBRANCH   2   5
BRANCH   1   7
HETATM    7  C6  UNL     1     -34.802   5.901   5.122  1.00 20.00     0.009 A 
HETATM    8  C4  UNL     1     -34.557   4.921   6.223  1.00 20.00     0.009 A 
HETATM    9  C5  UNL     1     -34.474   6.394   6.494  1.00 20.00     0.009 A 
ENDBRANCH   1   7
TORSDOF 3
ENDMDL
MODEL 2
REMARK VINA RESULT:      -4.6      1.633      2.330
REMARK  3 active torsions:
REMARK  status: ('A' for Active; 'I' for Inactive)
REMARK    1  A    between atoms: C1_1  and  C6_6 
REMARK    2  A    between atoms: C2_2  and  C3_3 
REMARK    3  A    between atoms: C3_3  and  C8_8 
ROOT
HETATM    1  C1  UNL     1     -33.929   7.236   4.953  1.00 20.00    -0.012 C 
HETATM    2  C3  UNL     1     -32.933   7.551   4.107  1.00 20.00    -0.024 C 
ENDROOT
BRANCH   2   3
HETATM    3  C2  UNL     1     -32.157   8.781   4.428  1.00 20.00     0.265 C 
HETATM    4  O9  UNL     1     -32.285   9.397   5.479  1.00 20.00    -0.302 OA
ENDBRANCH   2   3
BRANCH   2   5
HETATM    5  C8  UNL     1     -32.574   6.789   2.861  1.00 20.00     0.037 C 
HETATM    6  C7  UNL     1     -32.149   7.712   1.727  1.00 20.00     0.010 C 
ENDBRANCH   2   5
BRANCH   1   7
HETATM    7  C6  UNL     1     -34.845   6.082   4.855  1.00 20.00     0.009 A 
HETATM    8  C4  UNL     1     -34.251   4.715   4.744  1.00 20.00     0.009 A 
HETATM    9  C5  UNL     1     -34.925   5.143   6.015  1.00 20.00     0.009 A 
ENDBRANCH   1   7
TORSDOF 3
ENDMDL
MODEL 3
REMARK VINA RESULT:      -4.3      2.107      3.905
REMARK  3 active torsions:
REMARK  status: ('A' for Active; 'I' for Inactive)
REMARK    1  A    between atoms: C1_1  and  C6_6 
REMARK    2  A    between atoms: C2_2  and  C3_3 
REMARK    3  A    between atoms: C3_3  and  C8_8 
ROOT
HETATM    1  C1  UNL     1     -32.984   6.496   3.208  1.00 20.00    -0.012 C 
HETATM    2  C3  UNL     1     -33.709   6.405   4.337  1.00 20.00    -0.024 C 
ENDROOT
BRANCH   2   3
HETATM    3  C2  UNL     1     -34.573   5.201   4.472  1.00 20.00     0.265 C 
HETATM    4  O9  UNL     1     -34.132   4.057   4.469  1.00 20.00    -0.302 OA
ENDBRANCH   2   3
BRANCH   2   5
HETATM    5  C8  UNL     1     -33.740   7.430   5.438  1.00 20.00     0.037 C 
HETATM    6  C7  UNL     1     -34.306   6.863   6.732  1.00 20.00     0.010 C 
ENDBRANCH   2   5
BRANCH   1   7
HETATM    7  C6  UNL     1     -32.062   7.587   2.830  1.00 20.00     0.009 A 
HETATM    8  C4  UNL     1     -32.097   8.087   1.423  1.00 20.00     0.009 A 
HETATM    9  C5  UNL     1     -32.643   8.932   2.536  1.00 20.00     0.009 A 
ENDBRANCH   1   7
TORSDOF 3
ENDMDL
MODEL 4
REMARK VINA RESULT:      -4.2      1.331      3.233
REMARK  3 active torsions:
REMARK  status: ('A' for Active; 'I' for Inactive)
REMARK    1  A    between atoms: C1_1  and  C6_6 
REMARK    2  A    between atoms: C2_2  and  C3_3 
REMARK    3  A    between atoms: C3_3  and  C8_8 
ROOT
HETATM    1  C1  UNL     1     -33.163   6.978   3.728  1.00 20.00    -0.012 C 
HETATM    2  C3  UNL     1     -33.889   5.869   3.958  1.00 20.00    -0.024 C 
ENDROOT
BRANCH   2   3
HETATM    3  C2  UNL     1     -33.467   4.641   3.231  1.00 20.00     0.265 C 
HETATM    4  O9  UNL     1     -32.704   4.659   2.272  1.00 20.00    -0.302 OA
ENDBRANCH   2   3
BRANCH   2   5
HETATM    5  C8  UNL     1     -35.096   5.788   4.851  1.00 20.00     0.037 C 
HETATM    6  C7  UNL     1     -34.738   5.327   6.257  1.00 20.00     0.010 C 
ENDBRANCH   2   5
BRANCH   1   7
HETATM    7  C6  UNL     1     -33.378   8.317   4.313  1.00 20.00     0.009 A 
HETATM    8  C4  UNL     1     -33.156   8.492   5.780  1.00 20.00     0.009 A 
HETATM    9  C5  UNL     1     -32.186   9.077   4.797  1.00 20.00     0.009 A 
ENDBRANCH   1   7
TORSDOF 3
ENDMDL
MODEL 5
REMARK VINA RESULT:      -4.1      2.323      4.082
REMARK  3 active torsions:
REMARK  status: ('A' for Active; 'I' for Inactive)
REMARK    1  A    between atoms: C1_1  and  C6_6 
REMARK    2  A    between atoms: C2_2  and  C3_3 
REMARK    3  A    between atoms: C3_3  and  C8_8 
ROOT
HETATM    1  C1  UNL     1     -33.786   7.301   5.212  1.00 20.00    -0.012 C 
HETATM    2  C3  UNL     1     -34.247   6.115   4.779  1.00 20.00    -0.024 C 
ENDROOT
BRANCH   2   3
HETATM    3  C2  UNL     1     -34.704   5.162   5.827  1.00 20.00     0.265 C 
HETATM    4  O9  UNL     1     -34.089   4.967   6.869  1.00 20.00    -0.302 OA
ENDBRANCH   2   3
BRANCH   2   5
HETATM    5  C8  UNL     1     -34.301   5.672   3.343  1.00 20.00     0.037 C 
HETATM    6  C7  UNL     1     -32.989   5.049   2.887  1.00 20.00     0.010 C 
ENDBRANCH   2   5
BRANCH   1   7
HETATM    7  C6  UNL     1     -33.269   8.409   4.383  1.00 20.00     0.009 A 
HETATM    8  C4  UNL     1     -32.146   9.233   4.923  1.00 20.00     0.009 A 
HETATM    9  C5  UNL     1     -31.901   8.274   3.796  1.00 20.00     0.009 A 
ENDBRANCH   1   7
TORSDOF 3
ENDMDL
MODEL 6
REMARK VINA RESULT:      -4.1     11.965     12.590
REMARK  3 active torsions:
REMARK  status: ('A' for Active; 'I' for Inactive)
REMARK    1  A    between atoms: C1_1  and  C6_6 
REMARK    2  A    between atoms: C2_2  and  C3_3 
REMARK    3  A    between atoms: C3_3  and  C8_8 
ROOT
HETATM    1  C1  UNL     1     -32.662  17.450  -2.096  1.00 20.00    -0.012 C 
HETATM    2  C3  UNL     1     -32.780  18.099  -0.924  1.00 20.00    -0.024 C 
ENDROOT
BRANCH   2   3
HETATM    3  C2  UNL     1     -31.670  19.024  -0.567  1.00 20.00     0.265 C 
HETATM    4  O9  UNL     1     -30.525  18.644  -0.350  1.00 20.00    -0.302 OA
ENDBRANCH   2   3
BRANCH   2   5
HETATM    5  C8  UNL     1     -33.912  17.935   0.052  1.00 20.00     0.037 C 
HETATM    6  C7  UNL     1     -33.966  19.072   1.063  1.00 20.00     0.010 C 
ENDBRANCH   2   5
BRANCH   1   7
HETATM    7  C6  UNL     1     -33.613  16.478  -2.672  1.00 20.00     0.009 A 
HETATM    8  C4  UNL     1     -34.120  16.721  -4.057  1.00 20.00     0.009 A 
HETATM    9  C5  UNL     1     -33.145  15.612  -3.796  1.00 20.00     0.009 A 
ENDBRANCH   1   7
TORSDOF 3
ENDMDL
MODEL 7
REMARK VINA RESULT:      -4.0      1.191      2.255
REMARK  3 active torsions:
REMARK  status: ('A' for Active; 'I' for Inactive)
REMARK    1  A    between atoms: C1_1  and  C6_6 
REMARK    2  A    between atoms: C2_2  and  C3_3 
REMARK    3  A    between atoms: C3_3  and  C8_8 
ROOT
HETATM    1  C1  UNL     1     -33.391   7.932   4.762  1.00 20.00    -0.012 C 
HETATM    2  C3  UNL     1     -32.743   8.016   3.587  1.00 20.00    -0.024 C 
ENDROOT
BRANCH   2   3
HETATM    3  C2  UNL     1     -32.803   9.331   2.893  1.00 20.00     0.265 C 
HETATM    4  O9  UNL     1     -32.846   9.443   1.673  1.00 20.00    -0.302 OA
ENDBRANCH   2   3
BRANCH   2   5
HETATM    5  C8  UNL     1     -32.007   6.889   2.915  1.00 20.00     0.037 C 
HETATM    6  C7  UNL     1     -32.932   5.736   2.553  1.00 20.00     0.010 C 
ENDBRANCH   2   5
BRANCH   1   7
HETATM    7  C6  UNL     1     -33.491   6.746   5.638  1.00 20.00     0.009 A 
HETATM    8  C4  UNL     1     -34.471   6.780   6.765  1.00 20.00     0.009 A 
HETATM    9  C5  UNL     1     -34.733   5.918   5.566  1.00 20.00     0.009 A 
ENDBRANCH   1   7
TORSDOF 3
ENDMDL
MODEL 8
REMARK VINA RESULT:      -4.0     11.682     12.549
REMARK  3 active torsions:
REMARK  status: ('A' for Active; 'I' for Inactive)
REMARK    1  A    between atoms: C1_1  and  C6_6 
REMARK    2  A    between atoms: C2_2  and  C3_3 
REMARK    3  A    between atoms: C3_3  and  C8_8 
ROOT
HETATM    1  C1  UNL     1     -33.352  16.475  -2.605  1.00 20.00    -0.012 C 
HETATM    2  C3  UNL     1     -33.729  16.183  -3.862  1.00 20.00    -0.024 C 
ENDROOT
BRANCH   2   3
HETATM    3  C2  UNL     1     -33.548  14.769  -4.293  1.00 20.00     0.265 C 
HETATM    4  O9  UNL     1     -34.345  13.879  -4.021  1.00 20.00    -0.302 OA
ENDBRANCH   2   3
BRANCH   2   5
HETATM    5  C8  UNL     1     -34.275  17.167  -4.860  1.00 20.00     0.037 C 
HETATM    6  C7  UNL     1     -35.780  17.024  -5.040  1.00 20.00     0.010 C 
ENDBRANCH   2   5
BRANCH   1   7
HETATM    7  C6  UNL     1     -33.420  17.794  -1.943  1.00 20.00     0.009 A 
HETATM    8  C4  UNL     1     -33.708  17.836  -0.477  1.00 20.00     0.009 A 
HETATM    9  C5  UNL     1     -32.334  18.159  -0.983  1.00 20.00     0.009 A 
ENDBRANCH   1   7
TORSDOF 3
ENDMDL
MODEL 9
REMARK VINA RESULT:      -3.9     11.735     12.760
REMARK  3 active torsions:
REMARK  status: ('A' for Active; 'I' for Inactive)
REMARK    1  A    between atoms: C1_1  and  C6_6 
REMARK    2  A    between atoms: C2_2  and  C3_3 
REMARK    3  A    between atoms: C3_3  and  C8_8 
ROOT
HETATM    1  C1  UNL     1     -34.217  15.229  -3.781  1.00 20.00    -0.012 C 
HETATM    2  C3  UNL     1     -34.608  14.820  -5.001  1.00 20.00    -0.024 C 
ENDROOT
BRANCH   2   3
HETATM    3  C2  UNL     1     -35.761  13.878  -5.044  1.00 20.00     0.265 C 
HETATM    4  O9  UNL     1     -35.873  12.922  -4.286  1.00 20.00    -0.302 OA
ENDBRANCH   2   3
BRANCH   2   5
HETATM    5  C8  UNL     1     -33.956  15.205  -6.300  1.00 20.00     0.037 C 
HETATM    6  C7  UNL     1     -34.612  16.426  -6.930  1.00 20.00     0.010 C 
ENDBRANCH   2   5
BRANCH   1   7
HETATM    7  C6  UNL     1     -33.104  16.147  -3.468  1.00 20.00     0.009 A 
HETATM    8  C4  UNL     1     -33.355  17.618  -3.549  1.00 20.00     0.009 A 
HETATM    9  C5  UNL     1     -33.185  16.955  -2.214  1.00 20.00     0.009 A 
ENDBRANCH   1   7
TORSDOF 3
ENDMDL
