MODEL 1
REMARK VINA RESULT:      -4.1      0.000      0.000
REMARK  4 active torsions:
REMARK  status: ('A' for Active; 'I' for Inactive)
REMARK    1  A    between atoms: C1_1  and  C9_9 
REMARK    2  A    between atoms: C2_2  and  C6_6 
REMARK    3  A    between atoms: C7_7  and  C9_9 
REMARK    4  A    between atoms: C8_8  and  C9_9 
ROOT
HETATM    1  C1  UNL     1     -32.878   6.159   3.152  1.00 20.00    -0.019 C 
HETATM    2  C2  UNL     1     -33.801   5.519   3.895  1.00 20.00    -0.073 C 
HETATM    3  C3  UNL     1     -33.805   4.013   3.965  1.00 20.00     0.044 C 
ENDROOT
BRANCH   1   4
HETATM    4  C9  UNL     1     -32.727   7.653   2.945  1.00 20.00     0.007 C 
BRANCH   4   5
HETATM    5  C7  UNL     1     -32.130   7.950   1.553  1.00 20.00     0.004 C 
HETATM    6  C4  UNL     1     -32.679   9.223   0.919  1.00 20.00     0.006 C 
ENDBRANCH   4   5
BRANCH   4   7
HETATM    7  C8  UNL     1     -31.824   8.267   4.035  1.00 20.00     0.004 C 
HETATM    8  C5  UNL     1     -32.603   8.956   5.149  1.00 20.00     0.006 C 
ENDBRANCH   4   7
ENDBRANCH   1   4
BRANCH   2   9
HETATM    9  C6  UNL     1     -34.853   6.200   4.726  1.00 20.00     0.148 C 
HETATM   10 CL10 UNL     1     -34.462   6.068   6.454  1.00 20.00    -0.126 Cl
ENDBRANCH   2   9
TORSDOF 4
ENDMDL
MODEL 2
REMARK VINA RESULT:      -4.1      2.231      4.651
REMARK  4 active torsions:
REMARK  status: ('A' for Active; 'I' for Inactive)
REMARK    1  A    between atoms: C1_1  and  C9_9 
REMARK    2  A    between atoms: C2_2  and  C6_6 
REMARK    3  A    between atoms: C7_7  and  C9_9 
REMARK    4  A    between atoms: C8_8  and  C9_9 
ROOT
HETATM    1  C1  UNL     1     -33.469   7.276   4.663  1.00 20.00    -0.019 C 
HETATM    2  C2  UNL     1     -32.663   8.180   4.073  1.00 20.00    -0.073 C 
HETATM    3  C3  UNL     1     -32.072   9.309   4.879  1.00 20.00     0.044 C 
ENDROOT
BRANCH   1   4
HETATM    4  C9  UNL     1     -34.164   6.095   4.019  1.00 20.00     0.007 C 
BRANCH   4   5
HETATM    5  C7  UNL     1     -35.176   5.461   4.999  1.00 20.00     0.004 C 
HETATM    6  C4  UNL     1     -34.700   5.469   6.447  1.00 20.00     0.006 C 
ENDBRANCH   4   5
BRANCH   4   7
HETATM    7  C8  UNL     1     -33.138   5.031   3.578  1.00 20.00     0.004 C 
HETATM    8  C5  UNL     1     -33.056   4.859   2.066  1.00 20.00     0.006 C 
ENDBRANCH   4   7
ENDBRANCH   1   4
BRANCH   2   9
HETATM    9  C6  UNL     1     -32.252   8.144   2.627  1.00 20.00     0.148 C 
HETATM   10 CL10 UNL     1     -32.911   9.547   1.759  1.00 20.00    -0.126 Cl
ENDBRANCH   2   9
TORSDOF 4
ENDMDL
MODEL 3
REMARK VINA RESULT:      -3.7     11.459     12.548
REMARK  4 active torsions:
REMARK  status: ('A' for Active; 'I' for Inactive)
REMARK    1  A    between atoms: C1_1  and  C9_9 
REMARK    2  A    between atoms: C2_2  and  C6_6 
REMARK    3  A    between atoms: C7_7  and  C9_9 
REMARK    4  A    between atoms: C8_8  and  C9_9 
ROOT
HETATM    1  C1  UNL     1     -33.687  16.928  -2.066  1.00 20.00    -0.019 C 
HETATM    2  C2  UNL     1     -33.244  17.811  -1.150  1.00 20.00    -0.073 C 
HETATM    3  C3  UNL     1     -33.842  17.831   0.233  1.00 20.00     0.044 C 
ENDROOT
BRANCH   1   4
HETATM    4  C9  UNL     1     -33.226  16.771  -3.501  1.00 20.00     0.007 C 
BRANCH   4   5
HETATM    5  C7  UNL     1     -34.208  17.469  -4.466  1.00 20.00     0.004 C 
HETATM    6  C4  UNL     1     -33.794  18.891  -4.825  1.00 20.00     0.006 C 
ENDBRANCH   4   5
BRANCH   4   7
HETATM    7  C8  UNL     1     -33.108  15.279  -3.877  1.00 20.00     0.004 C 
HETATM    8  C5  UNL     1     -34.309  14.754  -4.654  1.00 20.00     0.006 C 
ENDBRANCH   4   7
ENDBRANCH   1   4
BRANCH   2   9
HETATM    9  C6  UNL     1     -32.136  18.800  -1.382  1.00 20.00     0.148 C 
HETATM   10 CL10 UNL     1     -30.986  18.773  -0.028  1.00 20.00    -0.126 Cl
ENDBRANCH   2   9
TORSDOF 4
ENDMDL
MODEL 4
REMARK VINA RESULT:      -3.7     11.880     12.612
REMARK  4 active torsions:
REMARK  status: ('A' for Active; 'I' for Inactive)
REMARK    1  A    between atoms: C1_1  and  C9_9 
REMARK    2  A    between atoms: C2_2  and  C6_6 
REMARK    3  A    between atoms: C7_7  and  C9_9 
REMARK    4  A    between atoms: C8_8  and  C9_9 
ROOT
HETATM    1  C1  UNL     1     -33.229  17.008  -1.792  1.00 20.00    -0.019 C 
HETATM    2  C2  UNL     1     -33.435  16.941  -3.122  1.00 20.00    -0.073 C 
HETATM    3  C3  UNL     1     -33.627  15.605  -3.792  1.00 20.00     0.044 C 
ENDROOT
BRANCH   1   4
HETATM    4  C9  UNL     1     -33.000  18.247  -0.951  1.00 20.00     0.007 C 
BRANCH   4   5
HETATM    5  C7  UNL     1     -31.498  18.421  -0.640  1.00 20.00     0.004 C 
HETATM    6  C4  UNL     1     -31.208  18.638   0.840  1.00 20.00     0.006 C 
ENDBRANCH   4   5
BRANCH   4   7
HETATM    7  C8  UNL     1     -33.793  18.165   0.370  1.00 20.00     0.004 C 
HETATM    8  C5  UNL     1     -34.843  19.261   0.514  1.00 20.00     0.006 C 
ENDBRANCH   4   7
ENDBRANCH   1   4
BRANCH   2   9
HETATM    9  C6  UNL     1     -33.530  18.132  -4.034  1.00 20.00     0.148 C 
HETATM   10 CL10 UNL     1     -35.086  18.961  -3.814  1.00 20.00    -0.126 Cl
ENDBRANCH   2   9
TORSDOF 4
ENDMDL
MODEL 5
REMARK VINA RESULT:      -3.7      1.384      2.764
REMARK  4 active torsions:
REMARK  status: ('A' for Active; 'I' for Inactive)
REMARK    1  A    between atoms: C1_1  and  C9_9 
REMARK    2  A    between atoms: C2_2  and  C6_6 
REMARK    3  A    between atoms: C7_7  and  C9_9 
REMARK    4  A    between atoms: C8_8  and  C9_9 
ROOT
HETATM    1  C1  UNL     1     -33.185   7.972   4.502  1.00 20.00    -0.019 C 
HETATM    2  C2  UNL     1     -33.987   7.272   5.327  1.00 20.00    -0.073 C 
HETATM    3  C3  UNL     1     -33.946   7.517   6.813  1.00 20.00     0.044 C 
ENDROOT
BRANCH   1   4
HETATM    4  C9  UNL     1     -33.072   7.854   2.996  1.00 20.00     0.007 C 
BRANCH   4   5
HETATM    5  C7  UNL     1     -32.094   6.723   2.613  1.00 20.00     0.004 C 
HETATM    6  C4  UNL     1     -32.781   5.381   2.387  1.00 20.00     0.006 C 
ENDBRANCH   4   5
BRANCH   4   7
HETATM    7  C8  UNL     1     -32.591   9.183   2.378  1.00 20.00     0.004 C 
HETATM    8  C5  UNL     1     -32.666   9.205   0.856  1.00 20.00     0.006 C 
ENDBRANCH   4   7
ENDBRANCH   1   4
BRANCH   2   9
HETATM    9  C6  UNL     1     -34.990   6.246   4.876  1.00 20.00     0.148 C 
HETATM   10 CL10 UNL     1     -34.495   4.621   5.397  1.00 20.00    -0.126 Cl
ENDBRANCH   2   9
TORSDOF 4
ENDMDL
MODEL 6
REMARK VINA RESULT:      -3.5     10.042     11.532
REMARK  4 active torsions:
REMARK  status: ('A' for Active; 'I' for Inactive)
REMARK    1  A    between atoms: C1_1  and  C9_9 
REMARK    2  A    between atoms: C2_2  and  C6_6 
REMARK    3  A    between atoms: C7_7  and  C9_9 
REMARK    4  A    between atoms: C8_8  and  C9_9 
ROOT
HETATM    1  C1  UNL     1     -40.258  13.844   7.831  1.00 20.00    -0.019 C 
HETATM    2  C2  UNL     1     -40.353  15.083   8.352  1.00 20.00    -0.073 C 
HETATM    3  C3  UNL     1     -40.270  15.286   9.843  1.00 20.00     0.044 C 
ENDROOT
BRANCH   1   4
HETATM    4  C9  UNL     1     -40.336  13.443   6.373  1.00 20.00     0.007 C 
BRANCH   4   5
HETATM    5  C7  UNL     1     -41.803  13.217   5.950  1.00 20.00     0.004 C 
HETATM    6  C4  UNL     1     -42.610  12.421   6.969  1.00 20.00     0.006 C 
ENDBRANCH   4   5
BRANCH   4   7
HETATM    7  C8  UNL     1     -39.522  12.158   6.115  1.00 20.00     0.004 C 
HETATM    8  C5  UNL     1     -39.354  11.834   4.636  1.00 20.00     0.006 C 
ENDBRANCH   4   7
ENDBRANCH   1   4
BRANCH   2   9
HETATM    9  C6  UNL     1     -40.506  16.341   7.543  1.00 20.00     0.148 C 
HETATM   10 CL10 UNL     1     -42.215  16.615   7.138  1.00 20.00    -0.126 Cl
ENDBRANCH   2   9
TORSDOF 4
ENDMDL
MODEL 7
REMARK VINA RESULT:      -3.5     11.174     12.433
REMARK  4 active torsions:
REMARK  status: ('A' for Active; 'I' for Inactive)
REMARK    1  A    between atoms: C1_1  and  C9_9 
REMARK    2  A    between atoms: C2_2  and  C6_6 
REMARK    3  A    between atoms: C7_7  and  C9_9 
REMARK    4  A    between atoms: C8_8  and  C9_9 
ROOT
HETATM    1  C1  UNL     1     -32.617  17.470  -2.185  1.00 20.00    -0.019 C 
HETATM    2  C2  UNL     1     -32.667  18.013  -0.953  1.00 20.00    -0.073 C 
HETATM    3  C3  UNL     1     -31.457  18.705  -0.381  1.00 20.00     0.044 C 
ENDROOT
BRANCH   1   4
HETATM    4  C9  UNL     1     -33.716  16.724  -2.914  1.00 20.00     0.007 C 
BRANCH   4   5
HETATM    5  C7  UNL     1     -33.122  15.584  -3.769  1.00 20.00     0.004 C 
HETATM    6  C4  UNL     1     -34.142  14.517  -4.146  1.00 20.00     0.006 C 
ENDBRANCH   4   5
BRANCH   4   7
HETATM    7  C8  UNL     1     -34.518  17.682  -3.819  1.00 20.00     0.004 C 
HETATM    8  C5  UNL     1     -33.663  18.771  -4.456  1.00 20.00     0.006 C 
ENDBRANCH   4   7
ENDBRANCH   1   4
BRANCH   2   9
HETATM    9  C6  UNL     1     -33.885  18.022  -0.071  1.00 20.00     0.148 C 
HETATM   10 CL10 UNL     1     -33.625  19.075   1.336  1.00 20.00    -0.126 Cl
ENDBRANCH   2   9
TORSDOF 4
ENDMDL
MODEL 8
REMARK VINA RESULT:      -3.5     11.548     12.642
REMARK  4 active torsions:
REMARK  status: ('A' for Active; 'I' for Inactive)
REMARK    1  A    between atoms: C1_1  and  C9_9 
REMARK    2  A    between atoms: C2_2  and  C6_6 
REMARK    3  A    between atoms: C7_7  and  C9_9 
REMARK    4  A    between atoms: C8_8  and  C9_9 
ROOT
HETATM    1  C1  UNL     1     -33.240  16.632  -2.458  1.00 20.00    -0.019 C 
HETATM    2  C2  UNL     1     -33.697  16.223  -3.658  1.00 20.00    -0.073 C 
HETATM    3  C3  UNL     1     -33.668  14.761  -4.022  1.00 20.00     0.044 C 
ENDROOT
BRANCH   1   4
HETATM    4  C9  UNL     1     -33.172  18.049  -1.926  1.00 20.00     0.007 C 
BRANCH   4   5
HETATM    5  C7  UNL     1     -31.901  18.246  -1.072  1.00 20.00     0.004 C 
HETATM    6  C4  UNL     1     -32.197  18.614   0.377  1.00 20.00     0.006 C 
ENDBRANCH   4   5
BRANCH   4   7
HETATM    7  C8  UNL     1     -34.418  18.374  -1.077  1.00 20.00     0.004 C 
HETATM    8  C5  UNL     1     -35.438  19.240  -1.806  1.00 20.00     0.006 C 
ENDBRANCH   4   7
ENDBRANCH   1   4
BRANCH   2   9
HETATM    9  C6  UNL     1     -34.291  17.129  -4.701  1.00 20.00     0.148 C 
HETATM   10 CL10 UNL     1     -34.390  16.295  -6.266  1.00 20.00    -0.126 Cl
ENDBRANCH   2   9
TORSDOF 4
ENDMDL
MODEL 9
REMARK VINA RESULT:      -3.4      2.375      3.874
REMARK  4 active torsions:
REMARK  status: ('A' for Active; 'I' for Inactive)
REMARK    1  A    between atoms: C1_1  and  C9_9 
REMARK    2  A    between atoms: C2_2  and  C6_6 
REMARK    3  A    between atoms: C7_7  and  C9_9 
REMARK    4  A    between atoms: C8_8  and  C9_9 
ROOT
HETATM    1  C1  UNL     1     -33.556   6.096   4.172  1.00 20.00    -0.019 C 
HETATM    2  C2  UNL     1     -32.864   6.044   3.017  1.00 20.00    -0.073 C 
HETATM    3  C3  UNL     1     -33.199   5.003   1.980  1.00 20.00     0.044 C 
ENDROOT
BRANCH   1   4
HETATM    4  C9  UNL     1     -33.354   7.051   5.331  1.00 20.00     0.007 C 
BRANCH   4   5
HETATM    5  C7  UNL     1     -34.324   6.715   6.485  1.00 20.00     0.004 C 
HETATM    6  C4  UNL     1     -34.780   5.261   6.488  1.00 20.00     0.006 C 
ENDBRANCH   4   5
BRANCH   4   7
HETATM    7  C8  UNL     1     -33.573   8.510   4.882  1.00 20.00     0.004 C 
HETATM    8  C5  UNL     1     -32.305   9.354   4.925  1.00 20.00     0.006 C 
ENDBRANCH   4   7
ENDBRANCH   1   4
BRANCH   2   9
HETATM    9  C6  UNL     1     -31.763   6.994   2.637  1.00 20.00     0.148 C 
HETATM   10 CL10 UNL     1     -32.322   8.124   1.384  1.00 20.00    -0.126 Cl
ENDBRANCH   2   9
TORSDOF 4
ENDMDL
