MODEL 1
REMARK VINA RESULT:      -4.8      0.000      0.000
REMARK  3 active torsions:
REMARK  status: ('A' for Active; 'I' for Inactive)
REMARK    1  A    between atoms: C1_1  and  C8_8 
REMARK    2  A    between atoms: C2_2  and  C3_3 
REMARK    3  A    between atoms: C3_3  and  C9_9 
ROOT
HETATM    1  C1  UNL     1     -33.724   7.140   4.953  1.00 20.00    -0.012 C 
HETATM    2  C3  UNL     1     -32.794   7.604   4.096  1.00 20.00    -0.020 C 
ENDROOT
BRANCH   2   3
HETATM    3  C2  UNL     1     -32.322   8.987   4.406  1.00 20.00     0.265 C 
HETATM    4  O10 UNL     1     -32.265   9.455   5.537  1.00 20.00    -0.302 OA
ENDBRANCH   2   3
BRANCH   2   5
HETATM    5  C9  UNL     1     -32.217   6.870   2.901  1.00 20.00     0.013 C 
HETATM    6  C6  UNL     1     -32.906   5.523   2.660  1.00 20.00     0.015 C 
HETATM    7  C7  UNL     1     -32.222   7.728   1.634  1.00 20.00     0.015 C 
ENDBRANCH   2   5
BRANCH   1   8
HETATM    8  C8  UNL     1     -34.419   5.797   4.936  1.00 20.00     0.001 C 
HETATM    9  C4  UNL     1     -34.508   5.238   6.357  1.00 20.00     0.013 C 
HETATM   10  C5  UNL     1     -35.816   5.941   4.328  1.00 20.00     0.013 C 
ENDBRANCH   1   8
TORSDOF 3
ENDMDL
MODEL 2
REMARK VINA RESULT:      -4.6      9.375     10.622
REMARK  3 active torsions:
REMARK  status: ('A' for Active; 'I' for Inactive)
REMARK    1  A    between atoms: C1_1  and  C8_8 
REMARK    2  A    between atoms: C2_2  and  C3_3 
REMARK    3  A    between atoms: C3_3  and  C9_9 
ROOT
HETATM    1  C1  UNL     1     -40.683  12.167   5.885  1.00 20.00    -0.012 C 
HETATM    2  C3  UNL     1     -41.444  13.011   6.607  1.00 20.00    -0.020 C 
ENDROOT
BRANCH   2   3
HETATM    3  C2  UNL     1     -42.746  12.424   7.048  1.00 20.00     0.265 C 
HETATM    4  O10 UNL     1     -42.987  12.077   8.198  1.00 20.00    -0.302 OA
ENDBRANCH   2   3
BRANCH   2   5
HETATM    5  C9  UNL     1     -41.104  14.438   6.989  1.00 20.00     0.013 C 
HETATM    6  C6  UNL     1     -42.326  15.359   6.935  1.00 20.00     0.015 C 
HETATM    7  C7  UNL     1     -40.404  14.524   8.348  1.00 20.00     0.015 C 
ENDBRANCH   2   5
BRANCH   1   8
HETATM    8  C8  UNL     1     -39.322  12.427   5.279  1.00 20.00     0.001 C 
HETATM    9  C4  UNL     1     -38.228  12.113   6.300  1.00 20.00     0.013 C 
HETATM   10  C5  UNL     1     -39.141  11.577   4.020  1.00 20.00     0.013 C 
ENDBRANCH   1   8
TORSDOF 3
ENDMDL
MODEL 3
REMARK VINA RESULT:      -4.6     11.771     12.952
REMARK  3 active torsions:
REMARK  status: ('A' for Active; 'I' for Inactive)
REMARK    1  A    between atoms: C1_1  and  C8_8 
REMARK    2  A    between atoms: C2_2  and  C3_3 
REMARK    3  A    between atoms: C3_3  and  C9_9 
ROOT
HETATM    1  C1  UNL     1     -33.128  17.046  -1.867  1.00 20.00    -0.012 C 
HETATM    2  C3  UNL     1     -33.671  16.988  -3.098  1.00 20.00    -0.020 C 
ENDROOT
BRANCH   2   3
HETATM    3  C2  UNL     1     -33.613  15.631  -3.722  1.00 20.00     0.265 C 
HETATM    4  O10 UNL     1     -32.584  15.111  -4.138  1.00 20.00    -0.302 OA
ENDBRANCH   2   3
BRANCH   2   5
HETATM    5  C9  UNL     1     -34.304  18.133  -3.865  1.00 20.00     0.013 C 
HETATM    6  C6  UNL     1     -33.257  19.056  -4.496  1.00 20.00     0.015 C 
HETATM    7  C7  UNL     1     -35.314  17.647  -4.907  1.00 20.00     0.015 C 
ENDBRANCH   2   5
BRANCH   1   8
HETATM    8  C8  UNL     1     -33.010  18.248  -0.957  1.00 20.00     0.001 C 
HETATM    9  C4  UNL     1     -33.845  18.030   0.306  1.00 20.00     0.013 C 
HETATM   10  C5  UNL     1     -31.542  18.486  -0.596  1.00 20.00     0.013 C 
ENDBRANCH   1   8
TORSDOF 3
ENDMDL
MODEL 4
REMARK VINA RESULT:      -4.5     11.613     12.876
REMARK  3 active torsions:
REMARK  status: ('A' for Active; 'I' for Inactive)
REMARK    1  A    between atoms: C1_1  and  C8_8 
REMARK    2  A    between atoms: C2_2  and  C3_3 
REMARK    3  A    between atoms: C3_3  and  C9_9 
ROOT
HETATM    1  C1  UNL     1     -33.501  16.601  -2.627  1.00 20.00    -0.012 C 
HETATM    2  C3  UNL     1     -33.836  16.280  -3.892  1.00 20.00    -0.020 C 
ENDROOT
BRANCH   2   3
HETATM    3  C2  UNL     1     -33.502  14.872  -4.267  1.00 20.00     0.265 C 
HETATM    4  O10 UNL     1     -34.211  13.907  -4.008  1.00 20.00    -0.302 OA
ENDBRANCH   2   3
BRANCH   2   5
HETATM    5  C9  UNL     1     -34.492  17.187  -4.914  1.00 20.00     0.013 C 
HETATM    6  C6  UNL     1     -34.456  16.591  -6.324  1.00 20.00     0.015 C 
HETATM    7  C7  UNL     1     -35.916  17.580  -4.514  1.00 20.00     0.015 C 
ENDBRANCH   2   5
BRANCH   1   8
HETATM    8  C8  UNL     1     -33.686  17.926  -1.923  1.00 20.00     0.001 C 
HETATM    9  C4  UNL     1     -33.758  17.707  -0.411  1.00 20.00     0.013 C 
HETATM   10  C5  UNL     1     -32.533  18.868  -2.274  1.00 20.00     0.013 C 
ENDBRANCH   1   8
TORSDOF 3
ENDMDL
MODEL 5
REMARK VINA RESULT:      -4.5      9.413     10.783
REMARK  3 active torsions:
REMARK  status: ('A' for Active; 'I' for Inactive)
REMARK    1  A    between atoms: C1_1  and  C8_8 
REMARK    2  A    between atoms: C2_2  and  C3_3 
REMARK    3  A    between atoms: C3_3  and  C9_9 
ROOT
HETATM    1  C1  UNL     1     -40.677  13.035   4.947  1.00 20.00    -0.012 C 
HETATM    2  C3  UNL     1     -41.646  13.484   5.768  1.00 20.00    -0.020 C 
ENDROOT
BRANCH   2   3
HETATM    3  C2  UNL     1     -42.360  14.694   5.257  1.00 20.00     0.265 C 
HETATM    4  O10 UNL     1     -42.543  14.930   4.069  1.00 20.00    -0.302 OA
ENDBRANCH   2   3
BRANCH   2   5
HETATM    5  C9  UNL     1     -42.050  12.889   7.102  1.00 20.00     0.013 C 
HETATM    6  C6  UNL     1     -41.996  13.919   8.235  1.00 20.00     0.015 C 
HETATM    7  C7  UNL     1     -43.417  12.203   7.043  1.00 20.00     0.015 C 
ENDBRANCH   2   5
BRANCH   1   8
HETATM    8  C8  UNL     1     -39.761  11.849   5.149  1.00 20.00     0.001 C 
HETATM    9  C4  UNL     1     -38.940  11.603   3.882  1.00 20.00     0.013 C 
HETATM   10  C5  UNL     1     -38.839  12.101   6.344  1.00 20.00     0.013 C 
ENDBRANCH   1   8
TORSDOF 3
ENDMDL
MODEL 6
REMARK VINA RESULT:      -4.4      2.148      4.119
REMARK  3 active torsions:
REMARK  status: ('A' for Active; 'I' for Inactive)
REMARK    1  A    between atoms: C1_1  and  C8_8 
REMARK    2  A    between atoms: C2_2  and  C3_3 
REMARK    3  A    between atoms: C3_3  and  C9_9 
ROOT
HETATM    1  C1  UNL     1     -32.805   7.317   3.406  1.00 20.00    -0.012 C 
HETATM    2  C3  UNL     1     -33.463   6.289   3.974  1.00 20.00    -0.020 C 
ENDROOT
BRANCH   2   3
HETATM    3  C2  UNL     1     -33.084   4.951   3.426  1.00 20.00     0.265 C 
HETATM    4  O10 UNL     1     -32.793   4.748   2.253  1.00 20.00    -0.302 OA
ENDBRANCH   2   3
BRANCH   2   5
HETATM    5  C9  UNL     1     -34.507   6.376   5.070  1.00 20.00     0.013 C 
HETATM    6  C6  UNL     1     -35.289   5.068   5.229  1.00 20.00     0.015 C 
HETATM    7  C7  UNL     1     -33.913   6.832   6.404  1.00 20.00     0.015 C 
ENDBRANCH   2   5
BRANCH   1   8
HETATM    8  C8  UNL     1     -32.942   8.793   3.709  1.00 20.00     0.001 C 
HETATM    9  C4  UNL     1     -31.933   9.200   4.784  1.00 20.00     0.013 C 
HETATM   10  C5  UNL     1     -32.726   9.609   2.433  1.00 20.00     0.013 C 
ENDBRANCH   1   8
TORSDOF 3
ENDMDL
MODEL 7
REMARK VINA RESULT:      -4.2     10.358     11.447
REMARK  3 active torsions:
REMARK  status: ('A' for Active; 'I' for Inactive)
REMARK    1  A    between atoms: C1_1  and  C8_8 
REMARK    2  A    between atoms: C2_2  and  C3_3 
REMARK    3  A    between atoms: C3_3  and  C9_9 
ROOT
HETATM    1  C1  UNL     1     -41.541  14.189   8.253  1.00 20.00    -0.012 C 
HETATM    2  C3  UNL     1     -41.730  13.427   7.158  1.00 20.00    -0.020 C 
ENDROOT
BRANCH   2   3
HETATM    3  C2  UNL     1     -42.990  12.625   7.189  1.00 20.00     0.265 C 
HETATM    4  O10 UNL     1     -43.192  11.693   7.958  1.00 20.00    -0.302 OA
ENDBRANCH   2   3
BRANCH   2   5
HETATM    5  C9  UNL     1     -40.810  13.323   5.958  1.00 20.00     0.013 C 
HETATM    6  C6  UNL     1     -40.172  11.935   5.836  1.00 20.00     0.015 C 
HETATM    7  C7  UNL     1     -41.504  13.729   4.656  1.00 20.00     0.015 C 
ENDBRANCH   2   5
BRANCH   1   8
HETATM    8  C8  UNL     1     -40.383  15.112   8.557  1.00 20.00     0.001 C 
HETATM    9  C4  UNL     1     -40.648  16.495   7.962  1.00 20.00     0.013 C 
HETATM   10  C5  UNL     1     -40.178  15.210  10.070  1.00 20.00     0.013 C 
ENDBRANCH   1   8
TORSDOF 3
ENDMDL
MODEL 8
REMARK VINA RESULT:      -4.2     11.660     13.286
REMARK  3 active torsions:
REMARK  status: ('A' for Active; 'I' for Inactive)
REMARK    1  A    between atoms: C1_1  and  C8_8 
REMARK    2  A    between atoms: C2_2  and  C3_3 
REMARK    3  A    between atoms: C3_3  and  C9_9 
ROOT
HETATM    1  C1  UNL     1     -34.431  17.710  -3.796  1.00 20.00    -0.012 C 
HETATM    2  C3  UNL     1     -34.729  16.792  -4.736  1.00 20.00    -0.020 C 
ENDROOT
BRANCH   2   3
HETATM    3  C2  UNL     1     -36.008  17.061  -5.461  1.00 20.00     0.265 C 
HETATM    4  O10 UNL     1     -37.106  16.673  -5.082  1.00 20.00    -0.302 OA
ENDBRANCH   2   3
BRANCH   2   5
HETATM    5  C9  UNL     1     -33.912  15.567  -5.098  1.00 20.00     0.013 C 
HETATM    6  C6  UNL     1     -34.188  14.389  -4.159  1.00 20.00     0.015 C 
HETATM    7  C7  UNL     1     -34.090  15.162  -6.563  1.00 20.00     0.015 C 
ENDBRANCH   2   5
BRANCH   1   8
HETATM    8  C8  UNL     1     -33.230  17.747  -2.878  1.00 20.00     0.001 C 
HETATM    9  C4  UNL     1     -32.724  19.183  -2.739  1.00 20.00     0.013 C 
HETATM   10  C5  UNL     1     -33.604  17.175  -1.509  1.00 20.00     0.013 C 
ENDBRANCH   1   8
TORSDOF 3
ENDMDL
MODEL 9
REMARK VINA RESULT:      -4.1     10.253     11.521
REMARK  3 active torsions:
REMARK  status: ('A' for Active; 'I' for Inactive)
REMARK    1  A    between atoms: C1_1  and  C8_8 
REMARK    2  A    between atoms: C2_2  and  C3_3 
REMARK    3  A    between atoms: C3_3  and  C9_9 
ROOT
HETATM    1  C1  UNL     1     -40.466  14.253   7.536  1.00 20.00    -0.012 C 
HETATM    2  C3  UNL     1     -41.257  13.387   6.874  1.00 20.00    -0.020 C 
ENDROOT
BRANCH   2   3
HETATM    3  C2  UNL     1     -40.509  12.416   6.019  1.00 20.00     0.265 C 
HETATM    4  O10 UNL     1     -39.632  11.668   6.437  1.00 20.00    -0.302 OA
ENDBRANCH   2   3
BRANCH   2   5
HETATM    5  C9  UNL     1     -42.771  13.321   6.924  1.00 20.00     0.013 C 
HETATM    6  C6  UNL     1     -43.417  13.890   5.658  1.00 20.00     0.015 C 
HETATM    7  C7  UNL     1     -43.282  11.910   7.221  1.00 20.00     0.015 C 
ENDBRANCH   2   5
BRANCH   1   8
HETATM    8  C8  UNL     1     -40.881  15.363   8.475  1.00 20.00     0.001 C 
HETATM    9  C4  UNL     1     -40.097  15.259   9.784  1.00 20.00     0.013 C 
HETATM   10  C5  UNL     1     -40.643  16.721   7.813  1.00 20.00     0.013 C 
ENDBRANCH   1   8
TORSDOF 3
ENDMDL
