MODEL 1
REMARK VINA RESULT:      -4.2      0.000      0.000
REMARK  2 active torsions:
REMARK  status: ('A' for Active; 'I' for Inactive)
REMARK    1  A    between atoms: C6_6  and  C8_8 
REMARK    2  A    between atoms: C7_7  and  C9_9 
ROOT
HETATM    1  C1  UNL     1     -35.086   4.885   5.706  1.00 20.00     0.027 C 
HETATM    2  C4  UNL     1     -34.177   4.824   4.485  1.00 20.00     0.010 C 
HETATM    3  C5  UNL     1     -34.531   5.861   6.731  1.00 20.00     0.168 C 
HETATM    4  C7  UNL     1     -33.889   6.230   3.936  1.00 20.00     0.029 C 
HETATM    5  C8  UNL     1     -33.410   7.156   5.076  1.00 20.00     0.130 C 
HETATM    6  O10 UNL     1     -34.364   7.150   6.146  1.00 20.00    -0.385 OA
ENDROOT
BRANCH   5   7
HETATM    7  C6  UNL     1     -33.248   8.584   4.633  1.00 20.00     0.015 A 
HETATM    8  C2  UNL     1     -31.977   9.331   4.929  1.00 20.00     0.007 A 
HETATM    9  C3  UNL     1     -32.301   8.928   3.517  1.00 20.00     0.007 A 
ENDBRANCH   5   7
BRANCH   4  10
HETATM   10  C9  UNL     1     -32.887   6.138   2.784  1.00 20.00     0.121 C 
HETATM   11 CL11 UNL     1     -32.762   4.462   2.222  1.00 20.00    -0.130 Cl
ENDBRANCH   4  10
TORSDOF 2
ENDMDL
MODEL 2
REMARK VINA RESULT:      -4.2     10.276     11.203
REMARK  2 active torsions:
REMARK  status: ('A' for Active; 'I' for Inactive)
REMARK    1  A    between atoms: C6_6  and  C8_8 
REMARK    2  A    between atoms: C7_7  and  C9_9 
ROOT
HETATM    1  C1  UNL     1     -43.321  15.135   4.641  1.00 20.00     0.027 C 
HETATM    2  C4  UNL     1     -42.920  15.061   6.108  1.00 20.00     0.010 C 
HETATM    3  C5  UNL     1     -42.120  14.862   3.750  1.00 20.00     0.168 C 
HETATM    4  C7  UNL     1     -42.183  13.748   6.417  1.00 20.00     0.029 C 
HETATM    5  C8  UNL     1     -41.037  13.533   5.403  1.00 20.00     0.130 C 
HETATM    6  O10 UNL     1     -41.549  13.595   4.065  1.00 20.00    -0.385 OA
ENDROOT
BRANCH   5   7
HETATM    7  C6  UNL     1     -40.367  12.196   5.560  1.00 20.00     0.015 A 
HETATM    8  C2  UNL     1     -39.245  11.797   4.643  1.00 20.00     0.007 A 
HETATM    9  C3  UNL     1     -38.961  12.111   6.085  1.00 20.00     0.007 A 
ENDBRANCH   5   7
BRANCH   4  10
HETATM   10  C9  UNL     1     -41.698  13.758   7.867  1.00 20.00     0.121 C 
HETATM   11 CL11 UNL     1     -40.369  14.914   8.055  1.00 20.00    -0.130 Cl
ENDBRANCH   4  10
TORSDOF 2
ENDMDL
MODEL 3
REMARK VINA RESULT:      -3.9     12.131     13.658
REMARK  2 active torsions:
REMARK  status: ('A' for Active; 'I' for Inactive)
REMARK    1  A    between atoms: C6_6  and  C8_8 
REMARK    2  A    between atoms: C7_7  and  C9_9 
ROOT
HETATM    1  C1  UNL     1     -34.817  16.952  -6.958  1.00 20.00     0.027 C 
HETATM    2  C4  UNL     1     -34.962  15.644  -6.191  1.00 20.00     0.010 C 
HETATM    3  C5  UNL     1     -34.940  18.136  -6.012  1.00 20.00     0.168 C 
HETATM    4  C7  UNL     1     -34.009  15.599  -4.986  1.00 20.00     0.029 C 
HETATM    5  C8  UNL     1     -34.161  16.883  -4.142  1.00 20.00     0.130 C 
HETATM    6  O10 UNL     1     -33.972  18.039  -4.970  1.00 20.00    -0.385 OA
ENDROOT
BRANCH   5   7
HETATM    7  C6  UNL     1     -33.154  16.968  -3.028  1.00 20.00     0.015 A 
HETATM    8  C2  UNL     1     -33.016  18.231  -2.224  1.00 20.00     0.007 A 
HETATM    9  C3  UNL     1     -33.612  17.002  -1.596  1.00 20.00     0.007 A 
ENDBRANCH   5   7
BRANCH   4  10
HETATM   10  C9  UNL     1     -34.261  14.324  -4.178  1.00 20.00     0.121 C 
HETATM   11 CL11 UNL     1     -35.856  13.662  -4.572  1.00 20.00    -0.130 Cl
ENDBRANCH   4  10
TORSDOF 2
ENDMDL
MODEL 4
REMARK VINA RESULT:      -3.9      9.958     10.718
REMARK  2 active torsions:
REMARK  status: ('A' for Active; 'I' for Inactive)
REMARK    1  A    between atoms: C6_6  and  C8_8 
REMARK    2  A    between atoms: C7_7  and  C9_9 
ROOT
HETATM    1  C1  UNL     1     -39.873  11.738   5.344  1.00 20.00     0.027 C 
HETATM    2  C4  UNL     1     -40.714  12.910   4.858  1.00 20.00     0.010 C 
HETATM    3  C5  UNL     1     -38.931  12.184   6.450  1.00 20.00     0.168 C 
HETATM    4  C7  UNL     1     -41.403  13.624   6.033  1.00 20.00     0.029 C 
HETATM    5  C8  UNL     1     -40.367  13.958   7.129  1.00 20.00     0.130 C 
HETATM    6  O10 UNL     1     -39.667  12.769   7.521  1.00 20.00    -0.385 OA
ENDROOT
BRANCH   5   7
HETATM    7  C6  UNL     1     -41.000  14.528   8.369  1.00 20.00     0.015 A 
HETATM    8  C2  UNL     1     -40.141  15.063   9.482  1.00 20.00     0.007 A 
HETATM    9  C3  UNL     1     -40.947  16.007   8.634  1.00 20.00     0.007 A 
ENDBRANCH   5   7
BRANCH   4  10
HETATM   10  C9  UNL     1     -42.145  14.860   5.521  1.00 20.00     0.121 C 
HETATM   11 CL11 UNL     1     -42.324  14.774   3.761  1.00 20.00    -0.130 Cl
ENDBRANCH   4  10
TORSDOF 2
ENDMDL
MODEL 5
REMARK VINA RESULT:      -3.9     10.194     11.103
REMARK  2 active torsions:
REMARK  status: ('A' for Active; 'I' for Inactive)
REMARK    1  A    between atoms: C6_6  and  C8_8 
REMARK    2  A    between atoms: C7_7  and  C9_9 
ROOT
HETATM    1  C1  UNL     1     -40.698  15.840   8.224  1.00 20.00     0.027 C 
HETATM    2  C4  UNL     1     -41.843  15.725   7.226  1.00 20.00     0.010 C 
HETATM    3  C5  UNL     1     -40.410  14.488   8.856  1.00 20.00     0.168 C 
HETATM    4  C7  UNL     1     -41.591  14.591   6.219  1.00 20.00     0.029 C 
HETATM    5  C8  UNL     1     -41.229  13.289   6.968  1.00 20.00     0.130 C 
HETATM    6  O10 UNL     1     -40.121  13.522   7.849  1.00 20.00    -0.385 OA
ENDROOT
BRANCH   5   7
HETATM    7  C6  UNL     1     -40.830  12.178   6.037  1.00 20.00     0.015 A 
HETATM    8  C2  UNL     1     -39.932  12.457   4.864  1.00 20.00     0.007 A 
HETATM    9  C3  UNL     1     -39.416  11.665   6.034  1.00 20.00     0.007 A 
ENDBRANCH   5   7
BRANCH   4  10
HETATM   10  C9  UNL     1     -42.809  14.432   5.307  1.00 20.00     0.121 C 
HETATM   11 CL11 UNL     1     -42.380  14.861   3.643  1.00 20.00    -0.130 Cl
ENDBRANCH   4  10
TORSDOF 2
ENDMDL
MODEL 6
REMARK VINA RESULT:      -3.8      2.277      3.023
REMARK  2 active torsions:
REMARK  status: ('A' for Active; 'I' for Inactive)
REMARK    1  A    between atoms: C6_6  and  C8_8 
REMARK    2  A    between atoms: C7_7  and  C9_9 
ROOT
HETATM    1  C1  UNL     1     -34.455   5.022   5.965  1.00 20.00     0.027 C 
HETATM    2  C4  UNL     1     -34.495   6.515   6.265  1.00 20.00     0.010 C 
HETATM    3  C5  UNL     1     -34.467   4.783   4.464  1.00 20.00     0.168 C 
HETATM    4  C7  UNL     1     -33.401   7.267   5.490  1.00 20.00     0.029 C 
HETATM    5  C8  UNL     1     -33.456   6.888   3.994  1.00 20.00     0.130 C 
HETATM    6  O10 UNL     1     -33.378   5.463   3.846  1.00 20.00    -0.385 OA
ENDROOT
BRANCH   5   7
HETATM    7  C6  UNL     1     -32.320   7.478   3.204  1.00 20.00     0.015 A 
HETATM    8  C2  UNL     1     -32.273   7.322   1.710  1.00 20.00     0.007 A 
HETATM    9  C3  UNL     1     -32.554   8.668   2.316  1.00 20.00     0.007 A 
ENDBRANCH   5   7
BRANCH   4  10
HETATM   10  C9  UNL     1     -33.544   8.771   5.727  1.00 20.00     0.121 C 
HETATM   11 CL11 UNL     1     -31.986   9.576   5.471  1.00 20.00    -0.130 Cl
ENDBRANCH   4  10
TORSDOF 2
ENDMDL
MODEL 7
REMARK VINA RESULT:      -3.8      0.875      3.366
REMARK  2 active torsions:
REMARK  status: ('A' for Active; 'I' for Inactive)
REMARK    1  A    between atoms: C6_6  and  C8_8 
REMARK    2  A    between atoms: C7_7  and  C9_9 
ROOT
HETATM    1  C1  UNL     1     -31.887   8.723   4.510  1.00 20.00     0.027 C 
HETATM    2  C4  UNL     1     -32.199   7.877   3.283  1.00 20.00     0.010 C 
HETATM    3  C5  UNL     1     -33.151   8.970   5.318  1.00 20.00     0.168 C 
HETATM    4  C7  UNL     1     -32.970   6.604   3.666  1.00 20.00     0.029 C 
HETATM    5  C8  UNL     1     -34.184   6.966   4.550  1.00 20.00     0.130 C 
HETATM    6  O10 UNL     1     -33.755   7.732   5.684  1.00 20.00    -0.385 OA
ENDROOT
BRANCH   5   7
HETATM    7  C6  UNL     1     -34.898   5.753   5.079  1.00 20.00     0.015 A 
HETATM    8  C2  UNL     1     -34.116   4.577   5.594  1.00 20.00     0.007 A 
HETATM    9  C3  UNL     1     -34.881   5.447   6.551  1.00 20.00     0.007 A 
ENDBRANCH   5   7
BRANCH   4  10
HETATM   10  C9  UNL     1     -33.363   5.839   2.401  1.00 20.00     0.121 C 
HETATM   11 CL11 UNL     1     -32.591   4.245   2.392  1.00 20.00    -0.130 Cl
ENDBRANCH   4  10
TORSDOF 2
ENDMDL
MODEL 8
REMARK VINA RESULT:      -3.8      2.269      4.131
REMARK  2 active torsions:
REMARK  status: ('A' for Active; 'I' for Inactive)
REMARK    1  A    between atoms: C6_6  and  C8_8 
REMARK    2  A    between atoms: C7_7  and  C9_9 
ROOT
HETATM    1  C1  UNL     1     -32.397   6.793   1.956  1.00 20.00     0.027 C 
HETATM    2  C4  UNL     1     -32.213   7.740   3.134  1.00 20.00     0.010 C 
HETATM    3  C5  UNL     1     -32.656   5.379   2.450  1.00 20.00     0.168 C 
HETATM    4  C7  UNL     1     -33.376   7.616   4.133  1.00 20.00     0.029 C 
HETATM    5  C8  UNL     1     -33.601   6.133   4.502  1.00 20.00     0.130 C 
HETATM    6  O10 UNL     1     -33.791   5.356   3.312  1.00 20.00    -0.385 OA
ENDROOT
BRANCH   5   7
HETATM    7  C6  UNL     1     -34.817   5.929   5.364  1.00 20.00     0.015 A 
HETATM    8  C2  UNL     1     -34.802   4.905   6.465  1.00 20.00     0.007 A 
HETATM    9  C3  UNL     1     -34.808   6.371   6.801  1.00 20.00     0.007 A 
ENDBRANCH   5   7
BRANCH   4  10
HETATM   10  C9  UNL     1     -33.102   8.497   5.354  1.00 20.00     0.121 C 
HETATM   11 CL11 UNL     1     -31.806   9.649   4.992  1.00 20.00    -0.130 Cl
ENDBRANCH   4  10
TORSDOF 2
ENDMDL
MODEL 9
REMARK VINA RESULT:      -3.7     12.726     13.754
REMARK  2 active torsions:
REMARK  status: ('A' for Active; 'I' for Inactive)
REMARK    1  A    between atoms: C6_6  and  C8_8 
REMARK    2  A    between atoms: C7_7  and  C9_9 
ROOT
HETATM    1  C1  UNL     1     -34.585  14.903  -5.325  1.00 20.00     0.027 C 
HETATM    2  C4  UNL     1     -34.831  16.348  -5.741  1.00 20.00     0.010 C 
HETATM    3  C5  UNL     1     -33.391  14.818  -4.388  1.00 20.00     0.168 C 
HETATM    4  C7  UNL     1     -34.915  17.272  -4.515  1.00 20.00     0.029 C 
HETATM    5  C8  UNL     1     -33.695  17.044  -3.596  1.00 20.00     0.130 C 
HETATM    6  O10 UNL     1     -33.593  15.655  -3.252  1.00 20.00    -0.385 OA
ENDROOT
BRANCH   5   7
HETATM    7  C6  UNL     1     -33.789  17.813  -2.307  1.00 20.00     0.015 A 
HETATM    8  C2  UNL     1     -32.632  17.827  -1.346  1.00 20.00     0.007 A 
HETATM    9  C3  UNL     1     -32.985  19.069  -2.115  1.00 20.00     0.007 A 
ENDBRANCH   5   7
BRANCH   4  10
HETATM   10  C9  UNL     1     -35.049  18.725  -4.974  1.00 20.00     0.121 C 
HETATM   11 CL11 UNL     1     -33.544  19.260  -5.741  1.00 20.00    -0.130 Cl
ENDBRANCH   4  10
TORSDOF 2
ENDMDL
