MODEL 1
REMARK VINA RESULT:      -4.2      0.000      0.000
REMARK  2 active torsions:
REMARK  status: ('A' for Active; 'I' for Inactive)
REMARK    1  A    between atoms: C3_3  and  C8_8 
REMARK    2  A    between atoms: C4_4  and  C9_9 
ROOT
HETATM    1  C1  UNL     1     -32.491   8.721   4.320  1.00 20.00     0.034 C 
HETATM    2  C2  UNL     1     -33.187   8.886   5.655  1.00 20.00     0.168 C 
HETATM    3  C3  UNL     1     -33.153   7.470   3.779  1.00 20.00     0.031 C 
HETATM    4  C4  UNL     1     -33.277   6.634   5.050  1.00 20.00     0.134 C 
HETATM    5  O10 UNL     1     -33.533   7.571   6.113  1.00 20.00    -0.385 OA
ENDROOT
BRANCH   4   6
HETATM    6  C9  UNL     1     -34.394   5.608   5.003  1.00 20.00    -0.025 C 
HETATM    7  C5  UNL     1     -35.616   6.190   4.266  1.00 20.00     0.017 C 
HETATM    8  C6  UNL     1     -34.814   5.219   6.435  1.00 20.00     0.017 C 
HETATM    9  C7  UNL     1     -33.920   4.343   4.261  1.00 20.00     0.017 C 
ENDBRANCH   4   6
BRANCH   3  10
HETATM   10  C8  UNL     1     -32.368   6.797   2.667  1.00 20.00     0.121 C 
HETATM   11 CL11 UNL     1     -32.057   7.944   1.348  1.00 20.00    -0.130 Cl
ENDBRANCH   3  10
TORSDOF 2
ENDMDL
MODEL 2
REMARK VINA RESULT:      -4.2      0.004      1.309
REMARK  2 active torsions:
REMARK  status: ('A' for Active; 'I' for Inactive)
REMARK    1  A    between atoms: C3_3  and  C8_8 
REMARK    2  A    between atoms: C4_4  and  C9_9 
ROOT
HETATM    1  C1  UNL     1     -32.489   8.722   4.319  1.00 20.00     0.034 C 
HETATM    2  C2  UNL     1     -33.182   8.887   5.656  1.00 20.00     0.168 C 
HETATM    3  C3  UNL     1     -33.153   7.472   3.778  1.00 20.00     0.031 C 
HETATM    4  C4  UNL     1     -33.275   6.635   5.048  1.00 20.00     0.134 C 
HETATM    5  O10 UNL     1     -33.528   7.571   6.113  1.00 20.00    -0.385 OA
ENDROOT
BRANCH   4   6
HETATM    6  C9  UNL     1     -34.393   5.610   5.003  1.00 20.00    -0.025 C 
HETATM    7  C5  UNL     1     -34.814   5.223   6.434  1.00 20.00     0.017 C 
HETATM    8  C6  UNL     1     -33.919   4.343   4.263  1.00 20.00     0.017 C 
HETATM    9  C7  UNL     1     -35.614   6.192   4.263  1.00 20.00     0.017 C 
ENDBRANCH   4   6
BRANCH   3  10
HETATM   10  C8  UNL     1     -32.371   6.799   2.664  1.00 20.00     0.121 C 
HETATM   11 CL11 UNL     1     -32.057   7.949   1.348  1.00 20.00    -0.130 Cl
ENDBRANCH   3  10
TORSDOF 2
ENDMDL
MODEL 3
REMARK VINA RESULT:      -3.8     15.373     16.173
REMARK  2 active torsions:
REMARK  status: ('A' for Active; 'I' for Inactive)
REMARK    1  A    between atoms: C3_3  and  C8_8 
REMARK    2  A    between atoms: C4_4  and  C9_9 
ROOT
HETATM    1  C1  UNL     1     -23.130  18.980   8.173  1.00 20.00     0.034 C 
HETATM    2  C2  UNL     1     -21.894  18.315   8.744  1.00 20.00     0.168 C 
HETATM    3  C3  UNL     1     -24.030  19.055   9.389  1.00 20.00     0.031 C 
HETATM    4  C4  UNL     1     -23.728  17.716  10.057  1.00 20.00     0.134 C 
HETATM    5  O10 UNL     1     -22.333  17.459   9.810  1.00 20.00    -0.385 OA
ENDROOT
BRANCH   4   6
HETATM    6  C9  UNL     1     -23.984  17.706  11.554  1.00 20.00    -0.025 C 
HETATM    7  C5  UNL     1     -24.300  16.274  12.026  1.00 20.00     0.017 C 
HETATM    8  C6  UNL     1     -25.180  18.618  11.891  1.00 20.00     0.017 C 
HETATM    9  C7  UNL     1     -22.739  18.217  12.307  1.00 20.00     0.017 C 
ENDBRANCH   4   6
BRANCH   3  10
HETATM   10  C8  UNL     1     -25.496  19.263   9.050  1.00 20.00     0.121 C 
HETATM   11 CL11 UNL     1     -25.730  19.262   7.291  1.00 20.00    -0.130 Cl
ENDBRANCH   3  10
TORSDOF 2
ENDMDL
MODEL 4
REMARK VINA RESULT:      -3.5     10.278     11.352
REMARK  2 active torsions:
REMARK  status: ('A' for Active; 'I' for Inactive)
REMARK    1  A    between atoms: C3_3  and  C8_8 
REMARK    2  A    between atoms: C4_4  and  C9_9 
ROOT
HETATM    1  C1  UNL     1     -40.880  15.688   8.948  1.00 20.00     0.034 C 
HETATM    2  C2  UNL     1     -40.316  14.374   9.447  1.00 20.00     0.168 C 
HETATM    3  C3  UNL     1     -41.569  15.263   7.668  1.00 20.00     0.031 C 
HETATM    4  C4  UNL     1     -40.579  14.233   7.133  1.00 20.00     0.134 C 
HETATM    5  O10 UNL     1     -40.033  13.573   8.291  1.00 20.00    -0.385 OA
ENDROOT
BRANCH   4   6
HETATM    6  C9  UNL     1     -41.205  13.200   6.213  1.00 20.00    -0.025 C 
HETATM    7  C5  UNL     1     -40.225  12.032   5.985  1.00 20.00     0.017 C 
HETATM    8  C6  UNL     1     -41.543  13.840   4.852  1.00 20.00     0.017 C 
HETATM    9  C7  UNL     1     -42.500  12.648   6.840  1.00 20.00     0.017 C 
ENDBRANCH   4   6
BRANCH   3  10
HETATM   10  C8  UNL     1     -41.848  16.410   6.714  1.00 20.00     0.121 C 
HETATM   11 CL11 UNL     1     -40.714  17.745   7.005  1.00 20.00    -0.130 Cl
ENDBRANCH   3  10
TORSDOF 2
ENDMDL
MODEL 5
REMARK VINA RESULT:      -3.5     12.129     13.383
REMARK  2 active torsions:
REMARK  status: ('A' for Active; 'I' for Inactive)
REMARK    1  A    between atoms: C3_3  and  C8_8 
REMARK    2  A    between atoms: C4_4  and  C9_9 
ROOT
HETATM    1  C1  UNL     1     -33.621  18.681  -3.717  1.00 20.00     0.034 C 
HETATM    2  C2  UNL     1     -33.885  18.732  -5.207  1.00 20.00     0.168 C 
HETATM    3  C3  UNL     1     -33.368  17.203  -3.499  1.00 20.00     0.031 C 
HETATM    4  C4  UNL     1     -34.400  16.590  -4.440  1.00 20.00     0.134 C 
HETATM    5  O10 UNL     1     -34.477  17.477  -5.572  1.00 20.00    -0.385 OA
ENDROOT
BRANCH   4   6
HETATM    6  C9  UNL     1     -34.042  15.194  -4.917  1.00 20.00    -0.025 C 
HETATM    7  C5  UNL     1     -32.647  14.798  -4.395  1.00 20.00     0.017 C 
HETATM    8  C6  UNL     1     -34.029  15.150  -6.458  1.00 20.00     0.017 C 
HETATM    9  C7  UNL     1     -35.077  14.175  -4.398  1.00 20.00     0.017 C 
ENDBRANCH   4   6
BRANCH   3  10
HETATM   10  C8  UNL     1     -33.510  16.767  -2.051  1.00 20.00     0.121 C 
HETATM   11 CL11 UNL     1     -32.747  17.951  -0.971  1.00 20.00    -0.130 Cl
ENDBRANCH   3  10
TORSDOF 2
ENDMDL
MODEL 6
REMARK VINA RESULT:      -3.5     12.159     13.350
REMARK  2 active torsions:
REMARK  status: ('A' for Active; 'I' for Inactive)
REMARK    1  A    between atoms: C3_3  and  C8_8 
REMARK    2  A    between atoms: C4_4  and  C9_9 
ROOT
HETATM    1  C1  UNL     1     -33.612  18.701  -3.780  1.00 20.00     0.034 C 
HETATM    2  C2  UNL     1     -33.868  18.726  -5.273  1.00 20.00     0.168 C 
HETATM    3  C3  UNL     1     -33.379  17.225  -3.532  1.00 20.00     0.031 C 
HETATM    4  C4  UNL     1     -34.415  16.606  -4.466  1.00 20.00     0.134 C 
HETATM    5  O10 UNL     1     -34.474  17.472  -5.616  1.00 20.00    -0.385 OA
ENDROOT
BRANCH   4   6
HETATM    6  C9  UNL     1     -34.072  15.197  -4.915  1.00 20.00    -0.025 C 
HETATM    7  C5  UNL     1     -34.027  15.128  -6.454  1.00 20.00     0.017 C 
HETATM    8  C6  UNL     1     -35.136  14.206  -4.402  1.00 20.00     0.017 C 
HETATM    9  C7  UNL     1     -32.696  14.783  -4.356  1.00 20.00     0.017 C 
ENDBRANCH   4   6
BRANCH   3  10
HETATM   10  C8  UNL     1     -33.535  16.819  -2.077  1.00 20.00     0.121 C 
HETATM   11 CL11 UNL     1     -32.631  17.928  -1.026  1.00 20.00    -0.130 Cl
ENDBRANCH   3  10
TORSDOF 2
ENDMDL
MODEL 7
REMARK VINA RESULT:      -3.4      9.958     11.130
REMARK  2 active torsions:
REMARK  status: ('A' for Active; 'I' for Inactive)
REMARK    1  A    between atoms: C3_3  and  C8_8 
REMARK    2  A    between atoms: C4_4  and  C9_9 
ROOT
HETATM    1  C1  UNL     1     -40.434  12.601   5.177  1.00 20.00     0.034 C 
HETATM    2  C2  UNL     1     -39.355  12.326   6.204  1.00 20.00     0.168 C 
HETATM    3  C3  UNL     1     -41.102  13.832   5.753  1.00 20.00     0.031 C 
HETATM    4  C4  UNL     1     -41.080  13.504   7.243  1.00 20.00     0.134 C 
HETATM    5  O10 UNL     1     -39.854  12.783   7.469  1.00 20.00    -0.385 OA
ENDROOT
BRANCH   4   6
HETATM    6  C9  UNL     1     -41.118  14.727   8.142  1.00 20.00    -0.025 C 
HETATM    7  C5  UNL     1     -40.398  15.906   7.459  1.00 20.00     0.017 C 
HETATM    8  C6  UNL     1     -40.416  14.422   9.480  1.00 20.00     0.017 C 
HETATM    9  C7  UNL     1     -42.578  15.131   8.426  1.00 20.00     0.017 C 
ENDBRANCH   4   6
BRANCH   3  10
HETATM   10  C8  UNL     1     -42.490  14.091   5.194  1.00 20.00     0.121 C 
HETATM   11 CL11 UNL     1     -42.605  15.748   4.567  1.00 20.00    -0.130 Cl
ENDBRANCH   3  10
TORSDOF 2
ENDMDL
MODEL 8
REMARK VINA RESULT:      -3.3     12.677     14.160
REMARK  2 active torsions:
REMARK  status: ('A' for Active; 'I' for Inactive)
REMARK    1  A    between atoms: C3_3  and  C8_8 
REMARK    2  A    between atoms: C4_4  and  C9_9 
ROOT
HETATM    1  C1  UNL     1     -34.502  14.496  -4.566  1.00 20.00     0.034 C 
HETATM    2  C2  UNL     1     -35.525  14.594  -5.679  1.00 20.00     0.168 C 
HETATM    3  C3  UNL     1     -34.382  15.941  -4.128  1.00 20.00     0.031 C 
HETATM    4  C4  UNL     1     -34.460  16.659  -5.472  1.00 20.00     0.134 C 
HETATM    5  O10 UNL     1     -35.370  15.888  -6.278  1.00 20.00    -0.385 OA
ENDROOT
BRANCH   4   6
HETATM    6  C9  UNL     1     -34.961  18.089  -5.375  1.00 20.00    -0.025 C 
HETATM    7  C5  UNL     1     -35.661  18.493  -6.687  1.00 20.00     0.017 C 
HETATM    8  C6  UNL     1     -33.780  19.047  -5.124  1.00 20.00     0.017 C 
HETATM    9  C7  UNL     1     -35.965  18.220  -4.213  1.00 20.00     0.017 C 
ENDBRANCH   4   6
BRANCH   3  10
HETATM   10  C8  UNL     1     -33.120  16.236  -3.337  1.00 20.00     0.121 C 
HETATM   11 CL11 UNL     1     -33.530  16.940  -1.759  1.00 20.00    -0.130 Cl
ENDBRANCH   3  10
TORSDOF 2
ENDMDL
MODEL 9
REMARK VINA RESULT:      -3.3     12.391     13.868
REMARK  2 active torsions:
REMARK  status: ('A' for Active; 'I' for Inactive)
REMARK    1  A    between atoms: C3_3  and  C8_8 
REMARK    2  A    between atoms: C4_4  and  C9_9 
ROOT
HETATM    1  C1  UNL     1     -33.483  16.879  -1.935  1.00 20.00     0.034 C 
HETATM    2  C2  UNL     1     -34.312  18.117  -1.660  1.00 20.00     0.168 C 
HETATM    3  C3  UNL     1     -33.323  16.942  -3.440  1.00 20.00     0.031 C 
HETATM    4  C4  UNL     1     -34.704  17.439  -3.858  1.00 20.00     0.134 C 
HETATM    5  O10 UNL     1     -35.130  18.339  -2.818  1.00 20.00    -0.385 OA
ENDROOT
BRANCH   4   6
HETATM    6  C9  UNL     1     -34.717  18.167  -5.191  1.00 20.00    -0.025 C 
HETATM    7  C5  UNL     1     -33.474  19.069  -5.312  1.00 20.00     0.017 C 
HETATM    8  C6  UNL     1     -35.981  19.042  -5.302  1.00 20.00     0.017 C 
HETATM    9  C7  UNL     1     -34.711  17.150  -6.349  1.00 20.00     0.017 C 
ENDBRANCH   4   6
BRANCH   3  10
HETATM   10  C8  UNL     1     -32.924  15.618  -4.067  1.00 20.00     0.121 C 
HETATM   11 CL11 UNL     1     -34.266  14.460  -3.975  1.00 20.00    -0.130 Cl
ENDBRANCH   3  10
TORSDOF 2
ENDMDL
