MODEL 1
REMARK VINA RESULT:      -4.2      0.000      0.000
REMARK  2 active torsions:
REMARK  status: ('A' for Active; 'I' for Inactive)
REMARK    1  A    between atoms: C3_3  and  C7_7 
REMARK    2  A    between atoms: C4_4  and  C9_9 
ROOT
HETATM    1  C1  UNL     1     -34.961  15.794  -5.886  1.00 20.00    -0.003 C 
HETATM    2  C2  UNL     1     -35.396  16.826  -5.151  1.00 20.00     0.131 C 
HETATM    3  C5  UNL     1     -33.834  14.924  -5.428  1.00 20.00     0.032 C 
HETATM    4  C6  UNL     1     -33.532  15.170  -3.951  1.00 20.00     0.040 C 
HETATM    5  C7  UNL     1     -33.591  16.665  -3.652  1.00 20.00     0.151 C 
HETATM    6  O10 UNL     1     -34.864  17.244  -3.959  1.00 20.00    -0.354 OA
ENDROOT
BRANCH   5   7
HETATM    7  C3  UNL     1     -33.417  16.919  -2.191  1.00 20.00     0.009 C 
HETATM    8  C4  UNL     1     -32.965  18.043  -1.601  1.00 20.00    -0.071 C 
HETATM    9  C8  UNL     1     -32.566  19.232  -2.437  1.00 20.00     0.044 C 
BRANCH   8  10
HETATM   10  C9  UNL     1     -32.778  18.210  -0.118  1.00 20.00     0.148 C 
HETATM   11 CL11 UNL     1     -31.062  18.456   0.268  1.00 20.00    -0.126 Cl
ENDBRANCH   8  10
ENDBRANCH   5   7
TORSDOF 2
ENDMDL
MODEL 2
REMARK VINA RESULT:      -4.2      2.584      5.305
REMARK  2 active torsions:
REMARK  status: ('A' for Active; 'I' for Inactive)
REMARK    1  A    between atoms: C3_3  and  C7_7 
REMARK    2  A    between atoms: C4_4  and  C9_9 
ROOT
HETATM    1  C1  UNL     1     -31.776  19.211   1.228  1.00 20.00    -0.003 C 
HETATM    2  C2  UNL     1     -31.088  18.699   0.199  1.00 20.00     0.131 C 
HETATM    3  C5  UNL     1     -33.264  19.093   1.314  1.00 20.00     0.032 C 
HETATM    4  C6  UNL     1     -33.780  18.070   0.304  1.00 20.00     0.040 C 
HETATM    5  C7  UNL     1     -33.043  18.234  -1.022  1.00 20.00     0.151 C 
HETATM    6  O10 UNL     1     -31.626  18.072  -0.894  1.00 20.00    -0.354 OA
ENDROOT
BRANCH   5   7
HETATM    7  C3  UNL     1     -33.447  17.168  -1.987  1.00 20.00     0.009 C 
HETATM    8  C4  UNL     1     -33.568  17.274  -3.325  1.00 20.00    -0.071 C 
HETATM    9  C8  UNL     1     -33.281  18.584  -4.012  1.00 20.00     0.044 C 
BRANCH   8  10
HETATM   10  C9  UNL     1     -34.020  16.161  -4.229  1.00 20.00     0.148 C 
HETATM   11 CL11 UNL     1     -32.839  14.834  -4.221  1.00 20.00    -0.126 Cl
ENDBRANCH   8  10
ENDBRANCH   5   7
TORSDOF 2
ENDMDL
MODEL 3
REMARK VINA RESULT:      -4.1     11.751     12.780
REMARK  2 active torsions:
REMARK  status: ('A' for Active; 'I' for Inactive)
REMARK    1  A    between atoms: C3_3  and  C7_7 
REMARK    2  A    between atoms: C4_4  and  C9_9 
ROOT
HETATM    1  C1  UNL     1     -34.869   5.644   6.279  1.00 20.00    -0.003 C 
HETATM    2  C2  UNL     1     -34.776   4.885   5.180  1.00 20.00     0.131 C 
HETATM    3  C5  UNL     1     -34.184   6.970   6.378  1.00 20.00     0.032 C 
HETATM    4  C6  UNL     1     -33.704   7.430   5.003  1.00 20.00     0.040 C 
HETATM    5  C7  UNL     1     -33.106   6.250   4.242  1.00 20.00     0.151 C 
HETATM    6  O10 UNL     1     -34.035   5.176   4.064  1.00 20.00    -0.354 OA
ENDROOT
BRANCH   5   7
HETATM    7  C3  UNL     1     -32.739   6.650   2.851  1.00 20.00     0.009 C 
HETATM    8  C4  UNL     1     -32.343   7.865   2.423  1.00 20.00    -0.071 C 
HETATM    9  C8  UNL     1     -32.230   9.012   3.393  1.00 20.00     0.044 C 
BRANCH   8  10
HETATM   10  C9  UNL     1     -32.027   8.202   0.992  1.00 20.00     0.148 C 
HETATM   11 CL11 UNL     1     -32.805   9.730   0.527  1.00 20.00    -0.126 Cl
ENDBRANCH   8  10
ENDBRANCH   5   7
TORSDOF 2
ENDMDL
MODEL 4
REMARK VINA RESULT:      -4.1      2.776      5.216
REMARK  2 active torsions:
REMARK  status: ('A' for Active; 'I' for Inactive)
REMARK    1  A    between atoms: C3_3  and  C7_7 
REMARK    2  A    between atoms: C4_4  and  C9_9 
ROOT
HETATM    1  C1  UNL     1     -32.436  18.584   0.866  1.00 20.00    -0.003 C 
HETATM    2  C2  UNL     1     -33.715  18.268   0.622  1.00 20.00     0.131 C 
HETATM    3  C5  UNL     1     -31.411  18.605  -0.222  1.00 20.00     0.032 C 
HETATM    4  C6  UNL     1     -32.083  18.563  -1.593  1.00 20.00     0.040 C 
HETATM    5  C7  UNL     1     -33.240  17.568  -1.572  1.00 20.00     0.151 C 
HETATM    6  O10 UNL     1     -34.230  17.888  -0.589  1.00 20.00    -0.354 OA
ENDROOT
BRANCH   5   7
HETATM    7  C3  UNL     1     -33.986  17.597  -2.866  1.00 20.00     0.009 C 
HETATM    8  C4  UNL     1     -33.913  16.709  -3.876  1.00 20.00    -0.071 C 
HETATM    9  C8  UNL     1     -32.998  15.516  -3.774  1.00 20.00     0.044 C 
BRANCH   8  10
HETATM   10  C9  UNL     1     -34.669  16.828  -5.170  1.00 20.00     0.148 C 
HETATM   11 CL11 UNL     1     -34.444  15.369  -6.159  1.00 20.00    -0.126 Cl
ENDBRANCH   8  10
ENDBRANCH   5   7
TORSDOF 2
ENDMDL
MODEL 5
REMARK VINA RESULT:      -3.7      2.917      5.064
REMARK  2 active torsions:
REMARK  status: ('A' for Active; 'I' for Inactive)
REMARK    1  A    between atoms: C3_3  and  C7_7 
REMARK    2  A    between atoms: C4_4  and  C9_9 
ROOT
HETATM    1  C1  UNL     1     -32.782  18.832  -1.692  1.00 20.00    -0.003 C 
HETATM    2  C2  UNL     1     -32.761  19.192  -2.982  1.00 20.00     0.131 C 
HETATM    3  C5  UNL     1     -33.335  17.514  -1.254  1.00 20.00     0.032 C 
HETATM    4  C6  UNL     1     -33.521  16.584  -2.452  1.00 20.00     0.040 C 
HETATM    5  C7  UNL     1     -34.095  17.367  -3.630  1.00 20.00     0.151 C 
HETATM    6  O10 UNL     1     -33.264  18.462  -4.028  1.00 20.00    -0.354 OA
ENDROOT
BRANCH   5   7
HETATM    7  C3  UNL     1     -34.174  16.506  -4.848  1.00 20.00     0.009 C 
HETATM    8  C4  UNL     1     -35.259  16.252  -5.605  1.00 20.00    -0.071 C 
HETATM    9  C8  UNL     1     -36.590  16.866  -5.255  1.00 20.00     0.044 C 
BRANCH   8  10
HETATM   10  C9  UNL     1     -35.268  15.338  -6.799  1.00 20.00     0.148 C 
HETATM   11 CL11 UNL     1     -33.698  15.384  -7.628  1.00 20.00    -0.126 Cl
ENDBRANCH   8  10
ENDBRANCH   5   7
TORSDOF 2
ENDMDL
MODEL 6
REMARK VINA RESULT:      -3.6     12.365     14.083
REMARK  2 active torsions:
REMARK  status: ('A' for Active; 'I' for Inactive)
REMARK    1  A    between atoms: C3_3  and  C7_7 
REMARK    2  A    between atoms: C4_4  and  C9_9 
ROOT
HETATM    1  C1  UNL     1     -41.406  14.988  10.662  1.00 20.00    -0.003 C 
HETATM    2  C2  UNL     1     -42.085  14.023  10.027  1.00 20.00     0.131 C 
HETATM    3  C5  UNL     1     -40.292  15.731   9.997  1.00 20.00     0.032 C 
HETATM    4  C6  UNL     1     -40.299  15.475   8.491  1.00 20.00     0.040 C 
HETATM    5  C7  UNL     1     -40.583  14.001   8.218  1.00 20.00     0.151 C 
HETATM    6  O10 UNL     1     -41.834  13.566   8.760  1.00 20.00    -0.354 OA
ENDROOT
BRANCH   5   7
HETATM    7  C3  UNL     1     -40.712  13.750   6.751  1.00 20.00     0.009 C 
HETATM    8  C4  UNL     1     -40.014  12.874   6.003  1.00 20.00    -0.071 C 
HETATM    9  C8  UNL     1     -38.959  12.005   6.638  1.00 20.00     0.044 C 
BRANCH   8  10
HETATM   10  C9  UNL     1     -40.174  12.707   4.517  1.00 20.00     0.148 C 
HETATM   11 CL11 UNL     1     -38.920  11.625   3.875  1.00 20.00    -0.126 Cl
ENDBRANCH   8  10
ENDBRANCH   5   7
TORSDOF 2
ENDMDL
MODEL 7
REMARK VINA RESULT:      -3.5     12.159     13.909
REMARK  2 active torsions:
REMARK  status: ('A' for Active; 'I' for Inactive)
REMARK    1  A    between atoms: C3_3  and  C7_7 
REMARK    2  A    between atoms: C4_4  and  C9_9 
ROOT
HETATM    1  C1  UNL     1     -41.095  16.903   9.743  1.00 20.00    -0.003 C 
HETATM    2  C2  UNL     1     -41.055  17.128   8.424  1.00 20.00     0.131 C 
HETATM    3  C5  UNL     1     -40.872  15.539  10.314  1.00 20.00     0.032 C 
HETATM    4  C6  UNL     1     -40.286  14.604   9.257  1.00 20.00     0.040 C 
HETATM    5  C7  UNL     1     -40.984  14.832   7.919  1.00 20.00     0.151 C 
HETATM    6  O10 UNL     1     -40.864  16.180   7.452  1.00 20.00    -0.354 OA
ENDROOT
BRANCH   5   7
HETATM    7  C3  UNL     1     -40.347  14.015   6.844  1.00 20.00     0.009 C 
HETATM    8  C4  UNL     1     -40.838  12.906   6.255  1.00 20.00    -0.071 C 
HETATM    9  C8  UNL     1     -42.179  12.358   6.668  1.00 20.00     0.044 C 
BRANCH   8  10
HETATM   10  C9  UNL     1     -40.116  12.112   5.203  1.00 20.00     0.148 C 
HETATM   11 CL11 UNL     1     -38.366  12.121   5.509  1.00 20.00    -0.126 Cl
ENDBRANCH   8  10
ENDBRANCH   5   7
TORSDOF 2
ENDMDL
MODEL 8
REMARK VINA RESULT:      -3.4     24.426     25.307
REMARK  2 active torsions:
REMARK  status: ('A' for Active; 'I' for Inactive)
REMARK    1  A    between atoms: C3_3  and  C7_7 
REMARK    2  A    between atoms: C4_4  and  C9_9 
ROOT
HETATM    1  C1  UNL     1     -29.447  -2.800  10.944  1.00 20.00    -0.003 C 
HETATM    2  C2  UNL     1     -28.763  -3.950  10.883  1.00 20.00     0.131 C 
HETATM    3  C5  UNL     1     -28.787  -1.480  10.700  1.00 20.00     0.032 C 
HETATM    4  C6  UNL     1     -27.409  -1.677  10.072  1.00 20.00     0.040 C 
HETATM    5  C7  UNL     1     -26.693  -2.842  10.749  1.00 20.00     0.151 C 
HETATM    6  O10 UNL     1     -27.418  -4.072  10.651  1.00 20.00    -0.354 OA
ENDROOT
BRANCH   5   7
HETATM    7  C3  UNL     1     -25.393  -3.128  10.073  1.00 20.00     0.009 C 
HETATM    8  C4  UNL     1     -24.163  -2.736  10.457  1.00 20.00    -0.071 C 
HETATM    9  C8  UNL     1     -23.985  -1.908  11.704  1.00 20.00     0.044 C 
BRANCH   8  10
HETATM   10  C9  UNL     1     -22.899  -3.032   9.698  1.00 20.00     0.148 C 
HETATM   11 CL11 UNL     1     -23.220  -3.075   7.951  1.00 20.00    -0.126 Cl
ENDBRANCH   8  10
ENDBRANCH   5   7
TORSDOF 2
ENDMDL
MODEL 9
REMARK VINA RESULT:      -3.4     12.721     13.888
REMARK  2 active torsions:
REMARK  status: ('A' for Active; 'I' for Inactive)
REMARK    1  A    between atoms: C3_3  and  C7_7 
REMARK    2  A    between atoms: C4_4  and  C9_9 
ROOT
HETATM    1  C1  UNL     1     -40.381  12.498   5.185  1.00 20.00    -0.003 C 
HETATM    2  C2  UNL     1     -39.576  12.232   6.222  1.00 20.00     0.131 C 
HETATM    3  C5  UNL     1     -41.388  13.602   5.235  1.00 20.00     0.032 C 
HETATM    4  C6  UNL     1     -41.118  14.521   6.425  1.00 20.00     0.040 C 
HETATM    5  C7  UNL     1     -40.749  13.687   7.649  1.00 20.00     0.151 C 
HETATM    6  O10 UNL     1     -39.595  12.868   7.436  1.00 20.00    -0.354 OA
ENDROOT
BRANCH   5   7
HETATM    7  C3  UNL     1     -40.366  14.569   8.792  1.00 20.00     0.009 C 
HETATM    8  C4  UNL     1     -40.992  14.693   9.979  1.00 20.00    -0.071 C 
HETATM    9  C8  UNL     1     -42.231  13.888  10.272  1.00 20.00     0.044 C 
BRANCH   8  10
HETATM   10  C9  UNL     1     -40.566  15.636  11.070  1.00 20.00     0.148 C 
HETATM   11 CL11 UNL     1     -39.671  14.763  12.332  1.00 20.00    -0.126 Cl
ENDBRANCH   8  10
ENDBRANCH   5   7
TORSDOF 2
ENDMDL
