MODEL 1
REMARK VINA RESULT:      -4.0      0.000      0.000
REMARK  4 active torsions:
REMARK  status: ('A' for Active; 'I' for Inactive)
REMARK    1  A    between atoms: C2_2  and  C8_8 
REMARK    2  A    between atoms: C3_3  and  C9_9 
REMARK    3  A    between atoms: C3_3  and  O11_11 
REMARK    4  A    between atoms: C9_9  and  C10_10 
ROOT
HETATM    1  C1  UNL     1     -41.643  12.498   6.522  1.00 20.00     0.045 A 
HETATM    2  C2  UNL     1     -40.509  12.739   5.559  1.00 20.00     0.022 A 
HETATM    3  C3  UNL     1     -40.552  13.476   6.876  1.00 20.00     0.063 A 
ENDROOT
BRANCH   3   4
HETATM    4  C9  UNL     1     -40.851  14.971   6.902  1.00 20.00     0.046 C 
BRANCH   4   5
HETATM    5  C10 UNL     1     -41.388  15.528   8.245  1.00 20.00    -0.049 C 
HETATM    6  C5  UNL     1     -41.929  16.950   7.994  1.00 20.00     0.014 C 
HETATM    7  C6  UNL     1     -40.270  15.611   9.298  1.00 20.00     0.014 C 
HETATM    8  C7  UNL     1     -42.532  14.659   8.790  1.00 20.00     0.014 C 
ENDBRANCH   4   5
ENDBRANCH   3   4
BRANCH   3   9
HETATM    9  O11 UNL     1     -39.638  13.052   7.902  1.00 20.00    -0.389 OA
HETATM   10  H31 UNL     1     -40.043  13.310   8.740  1.00 20.00     0.210 HD
ENDBRANCH   3   9
BRANCH   2  11
HETATM   11  C8  UNL     1     -39.509  11.666   5.299  1.00 20.00     0.003 C 
HETATM   12  C4  UNL     1     -38.956  11.703   3.898  1.00 20.00     0.005 C 
ENDBRANCH   2  11
TORSDOF 4
ENDMDL
MODEL 2
REMARK VINA RESULT:      -3.9      0.115      1.292
REMARK  4 active torsions:
REMARK  status: ('A' for Active; 'I' for Inactive)
REMARK    1  A    between atoms: C2_2  and  C8_8 
REMARK    2  A    between atoms: C3_3  and  C9_9 
REMARK    3  A    between atoms: C3_3  and  O11_11 
REMARK    4  A    between atoms: C9_9  and  C10_10 
ROOT
HETATM    1  C1  UNL     1     -41.584  12.497   6.499  1.00 20.00     0.045 A 
HETATM    2  C2  UNL     1     -40.434  12.807   5.576  1.00 20.00     0.022 A 
HETATM    3  C3  UNL     1     -40.547  13.511   6.907  1.00 20.00     0.063 A 
ENDROOT
BRANCH   3   4
HETATM    4  C9  UNL     1     -40.908  14.991   6.958  1.00 20.00     0.046 C 
BRANCH   4   5
HETATM    5  C10 UNL     1     -41.457  15.505   8.312  1.00 20.00    -0.049 C 
HETATM    6  C5  UNL     1     -40.283  15.588   9.308  1.00 20.00     0.014 C 
HETATM    7  C6  UNL     1     -42.514  14.546   8.884  1.00 20.00     0.014 C 
HETATM    8  C7  UNL     1     -42.073  16.907   8.166  1.00 20.00     0.014 C 
ENDBRANCH   4   5
ENDBRANCH   3   4
BRANCH   3   9
HETATM    9  O11 UNL     1     -39.646  13.100   7.951  1.00 20.00    -0.389 OA
HETATM   10  H31 UNL     1     -38.761  13.138   7.565  1.00 20.00     0.210 HD
ENDBRANCH   3   9
BRANCH   2  11
HETATM   11  C8  UNL     1     -39.382  11.782   5.323  1.00 20.00     0.003 C 
HETATM   12  C4  UNL     1     -38.994  11.683   3.870  1.00 20.00     0.005 C 
ENDBRANCH   2  11
TORSDOF 4
ENDMDL
MODEL 3
REMARK VINA RESULT:      -3.8     12.421     13.767
REMARK  4 active torsions:
REMARK  status: ('A' for Active; 'I' for Inactive)
REMARK    1  A    between atoms: C2_2  and  C8_8 
REMARK    2  A    between atoms: C3_3  and  C9_9 
REMARK    3  A    between atoms: C3_3  and  O11_11 
REMARK    4  A    between atoms: C9_9  and  C10_10 
ROOT
HETATM    1  C1  UNL     1     -34.437  17.697  -2.394  1.00 20.00     0.045 A 
HETATM    2  C2  UNL     1     -33.018  17.493  -1.930  1.00 20.00     0.022 A 
HETATM    3  C3  UNL     1     -33.403  17.165  -3.353  1.00 20.00     0.063 A 
ENDROOT
BRANCH   3   4
HETATM    4  C9  UNL     1     -33.466  15.712  -3.809  1.00 20.00     0.046 C 
BRANCH   4   5
HETATM    5  C10 UNL     1     -34.498  15.399  -4.922  1.00 20.00    -0.049 C 
HETATM    6  C5  UNL     1     -35.240  14.103  -4.538  1.00 20.00     0.014 C 
HETATM    7  C6  UNL     1     -33.804  15.180  -6.277  1.00 20.00     0.014 C 
HETATM    8  C7  UNL     1     -35.530  16.531  -5.058  1.00 20.00     0.014 C 
ENDBRANCH   4   5
ENDBRANCH   3   4
BRANCH   3   9
HETATM    9  O11 UNL     1     -32.973  18.076  -4.380  1.00 20.00    -0.389 OA
HETATM   10  H31 UNL     1     -33.011  18.956  -3.984  1.00 20.00     0.210 HD
ENDBRANCH   3   9
BRANCH   2  11
HETATM   11  C8  UNL     1     -32.161  18.668  -1.605  1.00 20.00     0.003 C 
HETATM   12  C4  UNL     1     -31.362  18.482  -0.341  1.00 20.00     0.005 C 
ENDBRANCH   2  11
TORSDOF 4
ENDMDL
MODEL 4
REMARK VINA RESULT:      -3.8     11.315     12.933
REMARK  4 active torsions:
REMARK  status: ('A' for Active; 'I' for Inactive)
REMARK    1  A    between atoms: C2_2  and  C8_8 
REMARK    2  A    between atoms: C3_3  and  C9_9 
REMARK    3  A    between atoms: C3_3  and  O11_11 
REMARK    4  A    between atoms: C9_9  and  C10_10 
ROOT
HETATM    1  C1  UNL     1     -33.068  15.158  -4.251  1.00 20.00     0.045 A 
HETATM    2  C2  UNL     1     -34.495  15.645  -4.255  1.00 20.00     0.022 A 
HETATM    3  C3  UNL     1     -33.408  16.491  -3.635  1.00 20.00     0.063 A 
ENDROOT
BRANCH   3   4
HETATM    4  C9  UNL     1     -33.349  16.665  -2.121  1.00 20.00     0.046 C 
BRANCH   4   5
HETATM    5  C10 UNL     1     -33.708  18.076  -1.590  1.00 20.00    -0.049 C 
HETATM    6  C5  UNL     1     -33.919  17.977  -0.066  1.00 20.00     0.014 C 
HETATM    7  C6  UNL     1     -35.006  18.596  -2.229  1.00 20.00     0.014 C 
HETATM    8  C7  UNL     1     -32.573  19.077  -1.862  1.00 20.00     0.014 C 
ENDBRANCH   4   5
ENDBRANCH   3   4
BRANCH   3   9
HETATM    9  O11 UNL     1     -32.974  17.650  -4.367  1.00 20.00    -0.389 OA
HETATM   10  H31 UNL     1     -32.181  17.966  -3.914  1.00 20.00     0.210 HD
ENDBRANCH   3   9
BRANCH   2  11
HETATM   11  C8  UNL     1     -35.149  16.033  -5.535  1.00 20.00     0.003 C 
HETATM   12  C4  UNL     1     -35.634  14.849  -6.331  1.00 20.00     0.005 C 
ENDBRANCH   2  11
TORSDOF 4
ENDMDL
MODEL 5
REMARK VINA RESULT:      -3.8     12.391     14.196
REMARK  4 active torsions:
REMARK  status: ('A' for Active; 'I' for Inactive)
REMARK    1  A    between atoms: C2_2  and  C8_8 
REMARK    2  A    between atoms: C3_3  and  C9_9 
REMARK    3  A    between atoms: C3_3  and  O11_11 
REMARK    4  A    between atoms: C9_9  and  C10_10 
ROOT
HETATM    1  C1  UNL     1     -32.410  14.795  -4.227  1.00 20.00     0.045 A 
HETATM    2  C2  UNL     1     -33.264  15.999  -3.923  1.00 20.00     0.022 A 
HETATM    3  C3  UNL     1     -33.842  14.838  -4.696  1.00 20.00     0.063 A 
ENDROOT
BRANCH   3   4
HETATM    4  C9  UNL     1     -34.151  14.992  -6.181  1.00 20.00     0.046 C 
BRANCH   4   5
HETATM    5  C10 UNL     1     -35.327  15.938  -6.531  1.00 20.00    -0.049 C 
HETATM    6  C5  UNL     1     -35.907  15.503  -7.892  1.00 20.00     0.014 C 
HETATM    7  C6  UNL     1     -34.851  17.396  -6.648  1.00 20.00     0.014 C 
HETATM    8  C7  UNL     1     -36.442  15.853  -5.476  1.00 20.00     0.014 C 
ENDBRANCH   4   5
ENDBRANCH   3   4
BRANCH   3   9
HETATM    9  O11 UNL     1     -34.756  13.971  -4.003  1.00 20.00    -0.389 OA
HETATM   10  H31 UNL     1     -34.442  13.072  -4.166  1.00 20.00     0.210 HD
ENDBRANCH   3   9
BRANCH   2  11
HETATM   11  C8  UNL     1     -33.679  16.285  -2.521  1.00 20.00     0.003 C 
HETATM   12  C4  UNL     1     -33.000  17.500  -1.942  1.00 20.00     0.005 C 
ENDBRANCH   2  11
TORSDOF 4
ENDMDL
MODEL 6
REMARK VINA RESULT:      -3.7      1.258      1.863
REMARK  4 active torsions:
REMARK  status: ('A' for Active; 'I' for Inactive)
REMARK    1  A    between atoms: C2_2  and  C8_8 
REMARK    2  A    between atoms: C3_3  and  C9_9 
REMARK    3  A    between atoms: C3_3  and  O11_11 
REMARK    4  A    between atoms: C9_9  and  C10_10 
ROOT
HETATM    1  C1  UNL     1     -41.228  13.634   5.329  1.00 20.00     0.045 A 
HETATM    2  C2  UNL     1     -39.992  12.905   5.788  1.00 20.00     0.022 A 
HETATM    3  C3  UNL     1     -41.142  13.120   6.743  1.00 20.00     0.063 A 
ENDROOT
BRANCH   3   4
HETATM    4  C9  UNL     1     -40.996  14.101   7.901  1.00 20.00     0.046 C 
BRANCH   4   5
HETATM    5  C10 UNL     1     -42.051  15.235   7.961  1.00 20.00    -0.049 C 
HETATM    6  C5  UNL     1     -42.219  15.658   9.434  1.00 20.00     0.014 C 
HETATM    7  C6  UNL     1     -43.414  14.754   7.434  1.00 20.00     0.014 C 
HETATM    8  C7  UNL     1     -41.598  16.460   7.150  1.00 20.00     0.014 C 
ENDBRANCH   4   5
ENDBRANCH   3   4
BRANCH   3   9
HETATM    9  O11 UNL     1     -41.969  11.984   7.049  1.00 20.00    -0.389 OA
HETATM   10  H31 UNL     1     -42.876  12.315   7.062  1.00 20.00     0.210 HD
ENDBRANCH   3   9
BRANCH   2  11
HETATM   11  C8  UNL     1     -39.675  11.555   5.242  1.00 20.00     0.003 C 
HETATM   12  C4  UNL     1     -38.961  11.609   3.916  1.00 20.00     0.005 C 
ENDBRANCH   2  11
TORSDOF 4
ENDMDL
MODEL 7
REMARK VINA RESULT:      -3.7     12.128     13.772
REMARK  4 active torsions:
REMARK  status: ('A' for Active; 'I' for Inactive)
REMARK    1  A    between atoms: C2_2  and  C8_8 
REMARK    2  A    between atoms: C3_3  and  C9_9 
REMARK    3  A    between atoms: C3_3  and  O11_11 
REMARK    4  A    between atoms: C9_9  and  C10_10 
ROOT
HETATM    1  C1  UNL     1     -34.893  18.667  -3.142  1.00 20.00     0.045 A 
HETATM    2  C2  UNL     1     -34.240  17.441  -2.559  1.00 20.00     0.022 A 
HETATM    3  C3  UNL     1     -34.341  17.605  -4.057  1.00 20.00     0.063 A 
ENDROOT
BRANCH   3   4
HETATM    4  C9  UNL     1     -35.291  16.722  -4.857  1.00 20.00     0.046 C 
BRANCH   4   5
HETATM    5  C10 UNL     1     -34.741  15.330  -5.260  1.00 20.00    -0.049 C 
HETATM    6  C5  UNL     1     -35.924  14.343  -5.319  1.00 20.00     0.014 C 
HETATM    7  C6  UNL     1     -33.726  14.814  -4.227  1.00 20.00     0.014 C 
HETATM    8  C7  UNL     1     -34.074  15.376  -6.645  1.00 20.00     0.014 C 
ENDBRANCH   4   5
ENDBRANCH   3   4
BRANCH   3   9
HETATM    9  O11 UNL     1     -33.139  17.951  -4.766  1.00 20.00    -0.389 OA
HETATM   10  H31 UNL     1     -33.216  18.892  -4.972  1.00 20.00     0.210 HD
ENDBRANCH   3   9
BRANCH   2  11
HETATM   11  C8  UNL     1     -32.936  17.555  -1.849  1.00 20.00     0.003 C 
HETATM   12  C4  UNL     1     -33.064  18.160  -0.475  1.00 20.00     0.005 C 
ENDBRANCH   2  11
TORSDOF 4
ENDMDL
MODEL 8
REMARK VINA RESULT:      -3.7      1.365      1.472
REMARK  4 active torsions:
REMARK  status: ('A' for Active; 'I' for Inactive)
REMARK    1  A    between atoms: C2_2  and  C8_8 
REMARK    2  A    between atoms: C3_3  and  C9_9 
REMARK    3  A    between atoms: C3_3  and  O11_11 
REMARK    4  A    between atoms: C9_9  and  C10_10 
ROOT
HETATM    1  C1  UNL     1     -41.509  13.421   5.155  1.00 20.00     0.045 A 
HETATM    2  C2  UNL     1     -40.290  13.373   6.040  1.00 20.00     0.022 A 
HETATM    3  C3  UNL     1     -41.671  13.357   6.652  1.00 20.00     0.063 A 
ENDROOT
BRANCH   3   4
HETATM    4  C9  UNL     1     -42.180  14.575   7.415  1.00 20.00     0.046 C 
BRANCH   4   5
HETATM    5  C10 UNL     1     -41.789  14.645   8.913  1.00 20.00    -0.049 C 
HETATM    6  C5  UNL     1     -42.077  16.072   9.420  1.00 20.00     0.014 C 
HETATM    7  C6  UNL     1     -40.292  14.350   9.111  1.00 20.00     0.014 C 
HETATM    8  C7  UNL     1     -42.614  13.653   9.750  1.00 20.00     0.014 C 
ENDBRANCH   4   5
ENDBRANCH   3   4
BRANCH   3   9
HETATM    9  O11 UNL     1     -42.146  12.106   7.179  1.00 20.00    -0.389 OA
HETATM   10  H31 UNL     1     -42.707  12.333   7.932  1.00 20.00     0.210 HD
ENDBRANCH   3   9
BRANCH   2  11
HETATM   11  C8  UNL     1     -39.420  12.165   6.048  1.00 20.00     0.003 C 
HETATM   12  C4  UNL     1     -39.004  11.729   4.667  1.00 20.00     0.005 C 
ENDBRANCH   2  11
TORSDOF 4
ENDMDL
MODEL 9
REMARK VINA RESULT:      -3.5     12.272     13.948
REMARK  4 active torsions:
REMARK  status: ('A' for Active; 'I' for Inactive)
REMARK    1  A    between atoms: C2_2  and  C8_8 
REMARK    2  A    between atoms: C3_3  and  C9_9 
REMARK    3  A    between atoms: C3_3  and  O11_11 
REMARK    4  A    between atoms: C9_9  and  C10_10 
ROOT
HETATM    1  C1  UNL     1     -33.650  16.104  -2.940  1.00 20.00     0.045 A 
HETATM    2  C2  UNL     1     -33.038  17.457  -2.685  1.00 20.00     0.022 A 
HETATM    3  C3  UNL     1     -34.248  17.330  -3.580  1.00 20.00     0.063 A 
ENDROOT
BRANCH   3   4
HETATM    4  C9  UNL     1     -34.109  17.548  -5.082  1.00 20.00     0.046 C 
BRANCH   4   5
HETATM    5  C10 UNL     1     -34.786  16.484  -5.983  1.00 20.00    -0.049 C 
HETATM    6  C5  UNL     1     -34.745  16.989  -7.439  1.00 20.00     0.014 C 
HETATM    7  C6  UNL     1     -36.256  16.271  -5.582  1.00 20.00     0.014 C 
HETATM    8  C7  UNL     1     -34.042  15.140  -5.912  1.00 20.00     0.014 C 
ENDBRANCH   4   5
ENDBRANCH   3   4
BRANCH   3   9
HETATM    9  O11 UNL     1     -35.512  17.763  -3.048  1.00 20.00    -0.389 OA
HETATM   10  H31 UNL     1     -35.396  17.799  -2.090  1.00 20.00     0.210 HD
ENDBRANCH   3   9
BRANCH   2  11
HETATM   11  C8  UNL     1     -33.130  18.076  -1.333  1.00 20.00     0.003 C 
HETATM   12  C4  UNL     1     -31.793  18.513  -0.793  1.00 20.00     0.005 C 
ENDBRANCH   2  11
TORSDOF 4
ENDMDL
