MODEL 1
REMARK VINA RESULT:      -4.2      0.000      0.000
REMARK  2 active torsions:
REMARK  status: ('A' for Active; 'I' for Inactive)
REMARK    1  A    between atoms: C1_1  and  C6_6 
REMARK    2  A    between atoms: C2_2  and  C7_7 
ROOT
HETATM    1  C3  UNL     1     -34.288   6.728   6.256  1.00 20.00     0.037 C 
HETATM    2  C4  UNL     1     -34.595   5.254   6.410  1.00 20.00     0.168 C 
HETATM    3  C5  UNL     1     -34.067   5.650   4.176  1.00 20.00     0.176 C 
HETATM    4  C6  UNL     1     -33.413   6.735   5.020  1.00 20.00     0.034 C 
HETATM    5  O8  UNL     1     -34.668   4.714   5.085  1.00 20.00    -0.390 OA
ENDROOT
BRANCH   4   6
HETATM    6  C1  UNL     1     -33.336   8.061   4.346  1.00 20.00    -0.023 C 
HETATM    7  C2  UNL     1     -32.757   8.260   3.153  1.00 20.00    -0.015 C 
BRANCH   7   8
HETATM    8  C7  UNL     1     -32.692   9.590   2.477  1.00 20.00     0.141 C 
HETATM    9 CL9  UNL     1     -32.680   9.374   0.714  1.00 20.00    -0.126 Cl
ENDBRANCH   7   8
ENDBRANCH   4   6
TORSDOF 2
ENDMDL
MODEL 2
REMARK VINA RESULT:      -3.9     11.975     12.620
REMARK  2 active torsions:
REMARK  status: ('A' for Active; 'I' for Inactive)
REMARK    1  A    between atoms: C1_1  and  C6_6 
REMARK    2  A    between atoms: C2_2  and  C7_7 
ROOT
HETATM    1  C3  UNL     1     -33.780  14.882  -4.014  1.00 20.00     0.037 C 
HETATM    2  C4  UNL     1     -34.266  14.930  -5.446  1.00 20.00     0.168 C 
HETATM    3  C5  UNL     1     -34.478  17.066  -4.542  1.00 20.00     0.176 C 
HETATM    4  C6  UNL     1     -33.396  16.327  -3.768  1.00 20.00     0.034 C 
HETATM    5  O8  UNL     1     -34.882  16.211  -5.622  1.00 20.00    -0.390 OA
ENDROOT
BRANCH   4   6
HETATM    6  C1  UNL     1     -33.327  16.692  -2.326  1.00 20.00    -0.023 C 
HETATM    7  C2  UNL     1     -32.853  17.862  -1.874  1.00 20.00    -0.015 C 
BRANCH   7   8
HETATM    8  C7  UNL     1     -32.796  18.228  -0.427  1.00 20.00     0.141 C 
HETATM    9 CL9  UNL     1     -31.106  18.422   0.084  1.00 20.00    -0.126 Cl
ENDBRANCH   7   8
ENDBRANCH   4   6
TORSDOF 2
ENDMDL
MODEL 3
REMARK VINA RESULT:      -3.7     11.921     12.341
REMARK  2 active torsions:
REMARK  status: ('A' for Active; 'I' for Inactive)
REMARK    1  A    between atoms: C1_1  and  C6_6 
REMARK    2  A    between atoms: C2_2  and  C7_7 
ROOT
HETATM    1  C3  UNL     1     -31.822  18.717  -0.775  1.00 20.00     0.037 C 
HETATM    2  C4  UNL     1     -31.729  19.217   0.650  1.00 20.00     0.168 C 
HETATM    3  C5  UNL     1     -33.910  18.485   0.286  1.00 20.00     0.176 C 
HETATM    4  C6  UNL     1     -32.995  17.761  -0.692  1.00 20.00     0.034 C 
HETATM    5  O8  UNL     1     -33.070  19.262   1.153  1.00 20.00    -0.390 OA
ENDROOT
BRANCH   4   6
HETATM    6  C1  UNL     1     -33.627  17.470  -2.009  1.00 20.00    -0.023 C 
HETATM    7  C2  UNL     1     -33.296  16.426  -2.781  1.00 20.00    -0.015 C 
BRANCH   7   8
HETATM    8  C7  UNL     1     -33.941  16.133  -4.097  1.00 20.00     0.141 C 
HETATM    9 CL9  UNL     1     -34.138  14.379  -4.298  1.00 20.00    -0.126 Cl
ENDBRANCH   7   8
ENDBRANCH   4   6
TORSDOF 2
ENDMDL
MODEL 4
REMARK VINA RESULT:      -3.7      3.341      4.830
REMARK  2 active torsions:
REMARK  status: ('A' for Active; 'I' for Inactive)
REMARK    1  A    between atoms: C1_1  and  C6_6 
REMARK    2  A    between atoms: C2_2  and  C7_7 
ROOT
HETATM    1  C3  UNL     1     -32.210   7.377   2.405  1.00 20.00     0.037 C 
HETATM    2  C4  UNL     1     -32.144   8.198   1.136  1.00 20.00     0.168 C 
HETATM    3  C5  UNL     1     -32.908   9.581   2.848  1.00 20.00     0.176 C 
HETATM    4  C6  UNL     1     -32.105   8.448   3.472  1.00 20.00     0.034 C 
HETATM    5  O8  UNL     1     -32.793   9.443   1.423  1.00 20.00    -0.390 OA
ENDROOT
BRANCH   4   6
HETATM    6  C1  UNL     1     -32.606   8.016   4.807  1.00 20.00    -0.023 C 
HETATM    7  C2  UNL     1     -33.757   7.355   4.994  1.00 20.00    -0.015 C 
BRANCH   7   8
HETATM    8  C7  UNL     1     -34.250   6.916   6.335  1.00 20.00     0.141 C 
HETATM    9 CL9  UNL     1     -34.639   5.183   6.300  1.00 20.00    -0.126 Cl
ENDBRANCH   7   8
ENDBRANCH   4   6
TORSDOF 2
ENDMDL
MODEL 5
REMARK VINA RESULT:      -3.7     11.974     12.349
REMARK  2 active torsions:
REMARK  status: ('A' for Active; 'I' for Inactive)
REMARK    1  A    between atoms: C1_1  and  C6_6 
REMARK    2  A    between atoms: C2_2  and  C7_7 
ROOT
HETATM    1  C3  UNL     1     -33.697  18.153   0.493  1.00 20.00     0.037 C 
HETATM    2  C4  UNL     1     -32.802  19.185   1.143  1.00 20.00     0.168 C 
HETATM    3  C5  UNL     1     -31.735  18.417  -0.779  1.00 20.00     0.176 C 
HETATM    4  C6  UNL     1     -33.233  18.204  -0.949  1.00 20.00     0.034 C 
HETATM    5  O8  UNL     1     -31.547  19.125   0.455  1.00 20.00    -0.390 OA
ENDROOT
BRANCH   4   6
HETATM    6  C1  UNL     1     -33.586  16.991  -1.737  1.00 20.00    -0.023 C 
HETATM    7  C2  UNL     1     -33.166  16.766  -2.990  1.00 20.00    -0.015 C 
BRANCH   7   8
HETATM    8  C7  UNL     1     -33.515  15.542  -3.772  1.00 20.00     0.141 C 
HETATM    9 CL9  UNL     1     -34.463  15.988  -5.206  1.00 20.00    -0.126 Cl
ENDBRANCH   7   8
ENDBRANCH   4   6
TORSDOF 2
ENDMDL
MODEL 6
REMARK VINA RESULT:      -3.6     12.173     12.693
REMARK  2 active torsions:
REMARK  status: ('A' for Active; 'I' for Inactive)
REMARK    1  A    between atoms: C1_1  and  C6_6 
REMARK    2  A    between atoms: C2_2  and  C7_7 
ROOT
HETATM    1  C3  UNL     1     -31.249  18.429  -0.347  1.00 20.00     0.037 C 
HETATM    2  C4  UNL     1     -32.366  18.328  -1.363  1.00 20.00     0.168 C 
HETATM    3  C5  UNL     1     -33.318  18.269   0.762  1.00 20.00     0.176 C 
HETATM    4  C6  UNL     1     -31.977  18.982   0.860  1.00 20.00     0.034 C 
HETATM    5  O8  UNL     1     -33.553  18.004  -0.630  1.00 20.00    -0.390 OA
ENDROOT
BRANCH   4   6
HETATM    6  C1  UNL     1     -31.264  18.754   2.148  1.00 20.00    -0.023 C 
HETATM    7  C2  UNL     1     -29.941  18.900   2.306  1.00 20.00    -0.015 C 
BRANCH   7   8
HETATM    8  C7  UNL     1     -29.233  18.679   3.602  1.00 20.00     0.141 C 
HETATM    9 CL9  UNL     1     -27.553  19.244   3.480  1.00 20.00    -0.126 Cl
ENDBRANCH   7   8
ENDBRANCH   4   6
TORSDOF 2
ENDMDL
MODEL 7
REMARK VINA RESULT:      -3.5      9.437      9.883
REMARK  2 active torsions:
REMARK  status: ('A' for Active; 'I' for Inactive)
REMARK    1  A    between atoms: C1_1  and  C6_6 
REMARK    2  A    between atoms: C2_2  and  C7_7 
ROOT
HETATM    1  C3  UNL     1     -42.630  12.348   7.008  1.00 20.00     0.037 C 
HETATM    2  C4  UNL     1     -43.227  12.922   8.274  1.00 20.00     0.168 C 
HETATM    3  C5  UNL     1     -41.094  13.819   8.015  1.00 20.00     0.176 C 
HETATM    4  C6  UNL     1     -41.606  13.404   6.643  1.00 20.00     0.034 C 
HETATM    5  O8  UNL     1     -42.168  13.615   8.946  1.00 20.00    -0.390 OA
ENDROOT
BRANCH   4   6
HETATM    6  C1  UNL     1     -40.542  12.915   5.723  1.00 20.00    -0.023 C 
HETATM    7  C2  UNL     1     -39.375  12.400   6.137  1.00 20.00    -0.015 C 
BRANCH   7   8
HETATM    8  C7  UNL     1     -38.315  11.901   5.210  1.00 20.00     0.141 C 
HETATM    9 CL9  UNL     1     -38.988  11.683   3.581  1.00 20.00    -0.126 Cl
ENDBRANCH   7   8
ENDBRANCH   4   6
TORSDOF 2
ENDMDL
MODEL 8
REMARK VINA RESULT:      -3.4     12.155     12.785
REMARK  2 active torsions:
REMARK  status: ('A' for Active; 'I' for Inactive)
REMARK    1  A    between atoms: C1_1  and  C6_6 
REMARK    2  A    between atoms: C2_2  and  C7_7 
ROOT
HETATM    1  C3  UNL     1     -34.398  18.653  -2.645  1.00 20.00     0.037 C 
HETATM    2  C4  UNL     1     -34.775  17.879  -3.890  1.00 20.00     0.168 C 
HETATM    3  C5  UNL     1     -33.227  16.613  -2.695  1.00 20.00     0.176 C 
HETATM    4  C6  UNL     1     -33.931  17.547  -1.721  1.00 20.00     0.034 C 
HETATM    5  O8  UNL     1     -33.866  16.775  -3.971  1.00 20.00    -0.390 OA
ENDROOT
BRANCH   4   6
HETATM    6  C1  UNL     1     -33.066  18.022  -0.606  1.00 20.00    -0.023 C 
HETATM    7  C2  UNL     1     -31.840  18.537  -0.779  1.00 20.00    -0.015 C 
BRANCH   7   8
HETATM    8  C7  UNL     1     -30.981  19.021   0.343  1.00 20.00     0.141 C 
HETATM    9 CL9  UNL     1     -31.550  18.340   1.881  1.00 20.00    -0.126 Cl
ENDBRANCH   7   8
ENDBRANCH   4   6
TORSDOF 2
ENDMDL
MODEL 9
REMARK VINA RESULT:      -3.4     12.332     12.798
REMARK  2 active torsions:
REMARK  status: ('A' for Active; 'I' for Inactive)
REMARK    1  A    between atoms: C1_1  and  C6_6 
REMARK    2  A    between atoms: C2_2  and  C7_7 
ROOT
HETATM    1  C3  UNL     1     -33.774  17.882  -0.368  1.00 20.00     0.037 C 
HETATM    2  C4  UNL     1     -33.967  17.903  -1.868  1.00 20.00     0.168 C 
HETATM    3  C5  UNL     1     -32.146  19.263  -1.358  1.00 20.00     0.176 C 
HETATM    4  C6  UNL     1     -32.308  18.244  -0.239  1.00 20.00     0.034 C 
HETATM    5  O8  UNL     1     -33.104  18.928  -2.374  1.00 20.00    -0.390 OA
ENDROOT
BRANCH   4   6
HETATM    6  C1  UNL     1     -31.933  18.761   1.107  1.00 20.00    -0.023 C 
HETATM    7  C2  UNL     1     -30.821  18.399   1.763  1.00 20.00    -0.015 C 
BRANCH   7   8
HETATM    8  C7  UNL     1     -30.445  18.928   3.108  1.00 20.00     0.141 C 
HETATM    9 CL9  UNL     1     -28.742  18.559   3.450  1.00 20.00    -0.126 Cl
ENDBRANCH   7   8
ENDBRANCH   4   6
TORSDOF 2
ENDMDL
