MODEL 1
REMARK VINA RESULT:      -4.2      0.000      0.000
REMARK  1 active torsions:
REMARK  status: ('A' for Active; 'I' for Inactive)
REMARK    1  A    between atoms: C7_7  and  N12_12 
ROOT
HETATM    1  C1  UNL     1     -36.036  15.707  -6.967  1.00 20.00     0.134 C 
HETATM    2  C2  UNL     1     -35.978  17.177  -6.627  1.00 20.00     0.106 C 
HETATM    3  C4  UNL     1     -34.557  17.605  -6.315  1.00 20.00     0.243 C 
HETATM    4  C5  UNL     1     -35.341  14.741  -6.022  1.00 20.00     0.082 C 
HETATM    5  C8  UNL     1     -33.953  15.272  -5.616  1.00 20.00     0.195 C 
HETATM    6  C9  UNL     1     -36.297  14.360  -4.896  1.00 20.00     0.020 C 
HETATM    7  C11 UNL     1     -33.228  14.435  -4.566  1.00 20.00     0.041 C 
HETATM    8  N12 UNL     1     -33.964  16.738  -5.230  1.00 20.00    -0.061 N 
HETATM    9  O13 UNL     1     -36.707  15.300  -7.916  1.00 20.00    -0.297 OA
HETATM   10  H33 UNL     1     -32.952  17.022  -5.194  1.00 20.00     0.280 HD
ENDROOT
BRANCH   8  11
HETATM   11  C7  UNL     1     -34.491  17.098  -3.861  1.00 20.00     0.193 A 
HETATM   12  C3  UNL     1     -34.524  18.555  -3.487  1.00 20.00     0.040 A 
HETATM   13  C6  UNL     1     -33.510  17.639  -2.856  1.00 20.00     0.014 A 
HETATM   14  C10 UNL     1     -33.630  17.267  -1.419  1.00 20.00     0.012 C 
ENDBRANCH   8  11
TORSDOF 1
ENDMDL
MODEL 2
REMARK VINA RESULT:      -4.0      2.655      4.890
REMARK  1 active torsions:
REMARK  status: ('A' for Active; 'I' for Inactive)
REMARK    1  A    between atoms: C7_7  and  N12_12 
ROOT
HETATM    1  C1  UNL     1     -34.084  18.468  -1.841  1.00 20.00     0.134 C 
HETATM    2  C2  UNL     1     -33.678  17.013  -1.804  1.00 20.00     0.106 C 
HETATM    3  C4  UNL     1     -32.808  16.663  -2.996  1.00 20.00     0.243 C 
HETATM    4  C5  UNL     1     -34.655  19.002  -3.144  1.00 20.00     0.082 C 
HETATM    5  C8  UNL     1     -33.826  18.515  -4.348  1.00 20.00     0.195 C 
HETATM    6  C9  UNL     1     -36.157  18.742  -3.181  1.00 20.00     0.020 C 
HETATM    7  C11 UNL     1     -34.395  18.893  -5.712  1.00 20.00     0.041 C 
HETATM    8  N12 UNL     1     -33.496  17.037  -4.287  1.00 20.00    -0.061 N 
HETATM    9  O13 UNL     1     -34.048  19.163  -0.826  1.00 20.00    -0.297 OA
HETATM   10  H33 UNL     1     -32.762  16.887  -5.026  1.00 20.00     0.280 HD
ENDROOT
BRANCH   8  11
HETATM   11  C7  UNL     1     -34.588  16.060  -4.655  1.00 20.00     0.193 A 
HETATM   12  C3  UNL     1     -34.273  14.592  -4.558  1.00 20.00     0.040 A 
HETATM   13  C6  UNL     1     -34.402  15.246  -5.908  1.00 20.00     0.014 A 
HETATM   14  C10 UNL     1     -35.569  14.938  -6.779  1.00 20.00     0.012 C 
ENDBRANCH   8  11
TORSDOF 1
ENDMDL
MODEL 3
REMARK VINA RESULT:      -3.9      1.411      2.813
REMARK  1 active torsions:
REMARK  status: ('A' for Active; 'I' for Inactive)
REMARK    1  A    between atoms: C7_7  and  N12_12 
ROOT
HETATM    1  C1  UNL     1     -34.351  15.560  -6.815  1.00 20.00     0.134 C 
HETATM    2  C2  UNL     1     -33.550  15.037  -5.645  1.00 20.00     0.106 C 
HETATM    3  C4  UNL     1     -34.393  15.004  -4.385  1.00 20.00     0.243 C 
HETATM    4  C5  UNL     1     -35.128  16.850  -6.610  1.00 20.00     0.082 C 
HETATM    5  C8  UNL     1     -35.863  16.840  -5.257  1.00 20.00     0.195 C 
HETATM    6  C9  UNL     1     -34.218  18.039  -6.900  1.00 20.00     0.020 C 
HETATM    7  C11 UNL     1     -36.568  18.146  -4.901  1.00 20.00     0.041 C 
HETATM    8  N12 UNL     1     -34.996  16.361  -4.110  1.00 20.00    -0.061 N 
HETATM    9  O13 UNL     1     -34.292  15.017  -7.918  1.00 20.00    -0.297 OA
HETATM   10  H33 UNL     1     -35.661  16.193  -3.311  1.00 20.00     0.280 HD
ENDROOT
BRANCH   8  11
HETATM   11  C7  UNL     1     -33.985  17.330  -3.543  1.00 20.00     0.193 A 
HETATM   12  C3  UNL     1     -33.118  16.851  -2.410  1.00 20.00     0.040 A 
HETATM   13  C6  UNL     1     -34.218  17.844  -2.147  1.00 20.00     0.014 A 
HETATM   14  C10 UNL     1     -33.887  19.255  -1.806  1.00 20.00     0.012 C 
ENDBRANCH   8  11
TORSDOF 1
ENDMDL
MODEL 4
REMARK VINA RESULT:      -3.5     24.668     26.404
REMARK  1 active torsions:
REMARK  status: ('A' for Active; 'I' for Inactive)
REMARK    1  A    between atoms: C7_7  and  N12_12 
ROOT
HETATM    1  C1  UNL     1     -29.327  -2.489  11.229  1.00 20.00     0.134 C 
HETATM    2  C2  UNL     1     -28.743  -3.867  11.022  1.00 20.00     0.106 C 
HETATM    3  C4  UNL     1     -27.636  -4.142  12.022  1.00 20.00     0.243 C 
HETATM    4  C5  UNL     1     -28.354  -1.326  11.342  1.00 20.00     0.082 C 
HETATM    5  C8  UNL     1     -27.169  -1.688  12.258  1.00 20.00     0.195 C 
HETATM    6  C9  UNL     1     -28.022  -0.808   9.946  1.00 20.00     0.020 C 
HETATM    7  C11 UNL     1     -26.071  -0.631  12.332  1.00 20.00     0.041 C 
HETATM    8  N12 UNL     1     -26.587  -3.057  11.968  1.00 20.00    -0.061 N 
HETATM    9  O13 UNL     1     -30.543  -2.304  11.204  1.00 20.00    -0.297 OA
HETATM   10  H33 UNL     1     -25.954  -3.267  12.783  1.00 20.00     0.280 HD
ENDROOT
BRANCH   8  11
HETATM   11  C7  UNL     1     -25.685  -3.195  10.763  1.00 20.00     0.193 A 
HETATM   12  C3  UNL     1     -25.121  -4.558  10.467  1.00 20.00     0.040 A 
HETATM   13  C6  UNL     1     -24.227  -3.476  11.012  1.00 20.00     0.014 A 
HETATM   14  C10 UNL     1     -23.189  -2.856  10.144  1.00 20.00     0.012 C 
ENDBRANCH   8  11
TORSDOF 1
ENDMDL
MODEL 5
REMARK VINA RESULT:      -3.4     12.886     14.583
REMARK  1 active torsions:
REMARK  status: ('A' for Active; 'I' for Inactive)
REMARK    1  A    between atoms: C7_7  and  N12_12 
ROOT
HETATM    1  C1  UNL     1     -42.183  14.323   8.951  1.00 20.00     0.134 C 
HETATM    2  C2  UNL     1     -40.694  14.130   8.788  1.00 20.00     0.106 C 
HETATM    3  C4  UNL     1     -40.216  14.698   7.466  1.00 20.00     0.243 C 
HETATM    4  C5  UNL     1     -43.074  13.906   7.792  1.00 20.00     0.082 C 
HETATM    5  C8  UNL     1     -42.487  14.381   6.449  1.00 20.00     0.195 C 
HETATM    6  C9  UNL     1     -43.408  12.423   7.921  1.00 20.00     0.020 C 
HETATM    7  C11 UNL     1     -43.243  13.899   5.214  1.00 20.00     0.041 C 
HETATM    8  N12 UNL     1     -41.002  14.111   6.318  1.00 20.00    -0.061 N 
HETATM    9  O13 UNL     1     -42.661  14.707  10.018  1.00 20.00    -0.297 OA
HETATM   10  H33 UNL     1     -40.692  14.668   5.480  1.00 20.00     0.280 HD
ENDROOT
BRANCH   8  11
HETATM   11  C7  UNL     1     -40.572  12.699   5.995  1.00 20.00     0.193 A 
HETATM   12  C3  UNL     1     -39.289  12.204   6.604  1.00 20.00     0.040 A 
HETATM   13  C6  UNL     1     -39.350  12.522   5.134  1.00 20.00     0.014 A 
HETATM   14  C10 UNL     1     -39.296  11.425   4.129  1.00 20.00     0.012 C 
ENDBRANCH   8  11
TORSDOF 1
ENDMDL
MODEL 6
REMARK VINA RESULT:      -3.4      1.747      2.297
REMARK  1 active torsions:
REMARK  status: ('A' for Active; 'I' for Inactive)
REMARK    1  A    between atoms: C7_7  and  N12_12 
ROOT
HETATM    1  C1  UNL     1     -34.102  15.605  -6.825  1.00 20.00     0.134 C 
HETATM    2  C2  UNL     1     -34.877  16.843  -7.207  1.00 20.00     0.106 C 
HETATM    3  C4  UNL     1     -34.427  18.037  -6.387  1.00 20.00     0.243 C 
HETATM    4  C5  UNL     1     -33.992  15.276  -5.345  1.00 20.00     0.082 C 
HETATM    5  C8  UNL     1     -33.669  16.539  -4.524  1.00 20.00     0.195 C 
HETATM    6  C9  UNL     1     -35.208  14.459  -4.918  1.00 20.00     0.020 C 
HETATM    7  C11 UNL     1     -33.666  16.336  -3.011  1.00 20.00     0.041 C 
HETATM    8  N12 UNL     1     -34.516  17.735  -4.910  1.00 20.00    -0.061 N 
HETATM    9  O13 UNL     1     -33.665  14.839  -7.684  1.00 20.00    -0.297 OA
HETATM   10  H33 UNL     1     -34.055  18.561  -4.448  1.00 20.00     0.280 HD
ENDROOT
BRANCH   8  11
HETATM   11  C7  UNL     1     -35.938  17.781  -4.402  1.00 20.00     0.193 A 
HETATM   12  C3  UNL     1     -36.885  18.743  -5.066  1.00 20.00     0.040 A 
HETATM   13  C6  UNL     1     -36.379  19.023  -3.675  1.00 20.00     0.014 A 
HETATM   14  C10 UNL     1     -37.299  18.919  -2.510  1.00 20.00     0.012 C 
ENDBRANCH   8  11
TORSDOF 1
ENDMDL
MODEL 7
REMARK VINA RESULT:      -3.3     12.994     14.486
REMARK  1 active torsions:
REMARK  status: ('A' for Active; 'I' for Inactive)
REMARK    1  A    between atoms: C7_7  and  N12_12 
ROOT
HETATM    1  C1  UNL     1     -42.820  16.901   7.298  1.00 20.00     0.134 C 
HETATM    2  C2  UNL     1     -43.155  15.971   6.156  1.00 20.00     0.106 C 
HETATM    3  C4  UNL     1     -43.224  14.533   6.632  1.00 20.00     0.243 C 
HETATM    4  C5  UNL     1     -41.636  16.531   8.177  1.00 20.00     0.082 C 
HETATM    5  C8  UNL     1     -41.661  15.032   8.530  1.00 20.00     0.195 C 
HETATM    6  C9  UNL     1     -40.356  17.080   7.556  1.00 20.00     0.020 C 
HETATM    7  C11 UNL     1     -40.443  14.536   9.303  1.00 20.00     0.041 C 
HETATM    8  N12 UNL     1     -41.946  14.143   7.336  1.00 20.00    -0.061 N 
HETATM    9  O13 UNL     1     -43.417  17.967   7.446  1.00 20.00    -0.297 OA
HETATM   10  H33 UNL     1     -42.152  13.193   7.742  1.00 20.00     0.280 HD
ENDROOT
BRANCH   8  11
HETATM   11  C7  UNL     1     -40.816  13.886   6.367  1.00 20.00     0.193 A 
HETATM   12  C3  UNL     1     -41.157  13.241   5.052  1.00 20.00     0.040 A 
HETATM   13  C6  UNL     1     -40.430  12.454   6.109  1.00 20.00     0.014 A 
HETATM   14  C10 UNL     1     -39.000  12.088   5.918  1.00 20.00     0.012 C 
ENDBRANCH   8  11
TORSDOF 1
ENDMDL
MODEL 8
REMARK VINA RESULT:      -3.3      2.315      3.939
REMARK  1 active torsions:
REMARK  status: ('A' for Active; 'I' for Inactive)
REMARK    1  A    between atoms: C7_7  and  N12_12 
ROOT
HETATM    1  C1  UNL     1     -33.971  14.760  -4.564  1.00 20.00     0.134 C 
HETATM    2  C2  UNL     1     -35.385  14.292  -4.817  1.00 20.00     0.106 C 
HETATM    3  C4  UNL     1     -35.968  14.969  -6.042  1.00 20.00     0.243 C 
HETATM    4  C5  UNL     1     -33.719  16.259  -4.566  1.00 20.00     0.082 C 
HETATM    5  C8  UNL     1     -34.439  16.937  -5.747  1.00 20.00     0.195 C 
HETATM    6  C9  UNL     1     -33.989  16.817  -3.172  1.00 20.00     0.020 C 
HETATM    7  C11 UNL     1     -34.353  18.460  -5.760  1.00 20.00     0.041 C 
HETATM    8  N12 UNL     1     -35.872  16.471  -5.918  1.00 20.00    -0.061 N 
HETATM    9  O13 UNL     1     -33.081  13.962  -4.268  1.00 20.00    -0.297 OA
HETATM   10  H33 UNL     1     -36.168  16.829  -6.863  1.00 20.00     0.280 HD
ENDROOT
BRANCH   8  11
HETATM   11  C7  UNL     1     -36.909  17.034  -4.975  1.00 20.00     0.193 A 
HETATM   12  C3  UNL     1     -38.316  16.514  -5.095  1.00 20.00     0.040 A 
HETATM   13  C6  UNL     1     -37.986  17.907  -5.563  1.00 20.00     0.014 A 
HETATM   14  C10 UNL     1     -38.486  19.088  -4.807  1.00 20.00     0.012 C 
ENDBRANCH   8  11
TORSDOF 1
ENDMDL
MODEL 9
REMARK VINA RESULT:      -3.0      1.219      1.414
REMARK  1 active torsions:
REMARK  status: ('A' for Active; 'I' for Inactive)
REMARK    1  A    between atoms: C7_7  and  N12_12 
ROOT
HETATM    1  C1  UNL     1     -37.378  16.923  -6.838  1.00 20.00     0.134 C 
HETATM    2  C2  UNL     1     -37.104  18.269  -6.209  1.00 20.00     0.106 C 
HETATM    3  C4  UNL     1     -35.636  18.631  -6.324  1.00 20.00     0.243 C 
HETATM    4  C5  UNL     1     -36.471  15.769  -6.444  1.00 20.00     0.082 C 
HETATM    5  C8  UNL     1     -34.994  16.208  -6.438  1.00 20.00     0.195 C 
HETATM    6  C9  UNL     1     -37.008  15.114  -5.175  1.00 20.00     0.020 C 
HETATM    7  C11 UNL     1     -34.015  15.154  -5.930  1.00 20.00     0.041 C 
HETATM    8  N12 UNL     1     -34.769  17.537  -5.745  1.00 20.00    -0.061 N 
HETATM    9  O13 UNL     1     -38.360  16.747  -7.559  1.00 20.00    -0.297 OA
HETATM   10  H33 UNL     1     -33.789  17.820  -6.001  1.00 20.00     0.280 HD
ENDROOT
BRANCH   8  11
HETATM   11  C7  UNL     1     -34.769  17.550  -4.235  1.00 20.00     0.193 A 
HETATM   12  C3  UNL     1     -34.453  18.850  -3.547  1.00 20.00     0.040 A 
HETATM   13  C6  UNL     1     -33.447  17.731  -3.539  1.00 20.00     0.014 A 
HETATM   14  C10 UNL     1     -33.159  16.994  -2.278  1.00 20.00     0.012 C 
ENDBRANCH   8  11
TORSDOF 1
ENDMDL
