MODEL 1
REMARK VINA RESULT:      -4.0      0.000      0.000
REMARK  2 active torsions:
REMARK  status: ('A' for Active; 'I' for Inactive)
REMARK    1  A    between atoms: C3_3  and  C10_10 
REMARK    2  A    between atoms: C9_9  and  C10_10 
ROOT
HETATM    1  C1  UNL     1     -33.297  15.552  -3.799  1.00 20.00     0.006 C 
HETATM    2  C2  UNL     1     -34.189  14.547  -4.540  1.00 20.00     0.016 C 
HETATM    3  C3  UNL     1     -33.831  16.953  -4.144  1.00 20.00    -0.006 C 
HETATM    4  C4  UNL     1     -35.209  16.694  -4.775  1.00 20.00     0.000 C 
HETATM    5  C5  UNL     1     -35.023  15.368  -5.514  1.00 20.00     0.062 C 
HETATM    6  C6  UNL     1     -35.748  17.856  -5.598  1.00 20.00     0.011 C 
HETATM    7 BR11 UNL     1     -34.062  15.538  -7.205  1.00 20.00    -0.091 Br
ENDROOT
BRANCH   3   8
HETATM    8  C10 UNL     1     -33.879  17.873  -2.933  1.00 20.00    -0.014 C 
HETATM    9  C8  UNL     1     -32.889  19.030  -3.112  1.00 20.00     0.010 C 
BRANCH   8  10
HETATM   10  C9  UNL     1     -33.573  17.137  -1.614  1.00 20.00     0.000 C 
HETATM   11  C7  UNL     1     -33.603  18.045  -0.392  1.00 20.00     0.005 C 
ENDBRANCH   8  10
ENDBRANCH   3   8
TORSDOF 2
ENDMDL
MODEL 2
REMARK VINA RESULT:      -3.9      1.638      3.113
REMARK  2 active torsions:
REMARK  status: ('A' for Active; 'I' for Inactive)
REMARK    1  A    between atoms: C3_3  and  C10_10 
REMARK    2  A    between atoms: C9_9  and  C10_10 
ROOT
HETATM    1  C1  UNL     1     -34.297  19.221  -2.788  1.00 20.00     0.006 C 
HETATM    2  C2  UNL     1     -34.113  19.263  -4.311  1.00 20.00     0.016 C 
HETATM    3  C3  UNL     1     -34.042  17.767  -2.354  1.00 20.00    -0.006 C 
HETATM    4  C4  UNL     1     -33.378  17.112  -3.577  1.00 20.00     0.000 C 
HETATM    5  C5  UNL     1     -34.043  17.810  -4.763  1.00 20.00     0.062 C 
HETATM    6  C6  UNL     1     -33.429  15.590  -3.574  1.00 20.00     0.011 C 
HETATM    7 BR11 UNL     1     -35.845  17.165  -5.148  1.00 20.00    -0.091 Br
ENDROOT
BRANCH   3   8
HETATM    8  C10 UNL     1     -33.205  17.677  -1.086  1.00 20.00    -0.014 C 
HETATM    9  C8  UNL     1     -34.029  18.137   0.122  1.00 20.00     0.010 C 
BRANCH   8  10
HETATM   10  C9  UNL     1     -31.909  18.508  -1.168  1.00 20.00     0.000 C 
HETATM   11  C7  UNL     1     -31.194  18.650   0.168  1.00 20.00     0.005 C 
ENDBRANCH   8  10
ENDBRANCH   3   8
TORSDOF 2
ENDMDL
MODEL 3
REMARK VINA RESULT:      -3.7     12.012     13.339
REMARK  2 active torsions:
REMARK  status: ('A' for Active; 'I' for Inactive)
REMARK    1  A    between atoms: C3_3  and  C10_10 
REMARK    2  A    between atoms: C9_9  and  C10_10 
ROOT
HETATM    1  C1  UNL     1     -33.707   8.541   5.123  1.00 20.00     0.006 C 
HETATM    2  C2  UNL     1     -32.292   8.931   4.676  1.00 20.00     0.016 C 
HETATM    3  C3  UNL     1     -34.096   7.293   4.312  1.00 20.00    -0.006 C 
HETATM    4  C4  UNL     1     -32.773   6.807   3.696  1.00 20.00     0.000 C 
HETATM    5  C5  UNL     1     -32.003   8.100   3.433  1.00 20.00     0.062 C 
HETATM    6  C6  UNL     1     -32.944   5.868   2.509  1.00 20.00     0.011 C 
HETATM    7 BR11 UNL     1     -32.611   9.070   1.850  1.00 20.00    -0.091 Br
ENDROOT
BRANCH   3   8
HETATM    8  C10 UNL     1     -34.795   6.240   5.161  1.00 20.00    -0.014 C 
HETATM    9  C8  UNL     1     -34.228   6.254   6.586  1.00 20.00     0.010 C 
BRANCH   8  10
HETATM   10  C9  UNL     1     -34.667   4.821   4.573  1.00 20.00     0.000 C 
HETATM   11  C7  UNL     1     -33.636   3.959   5.288  1.00 20.00     0.005 C 
ENDBRANCH   8  10
ENDBRANCH   3   8
TORSDOF 2
ENDMDL
MODEL 4
REMARK VINA RESULT:      -3.6     12.590     14.276
REMARK  2 active torsions:
REMARK  status: ('A' for Active; 'I' for Inactive)
REMARK    1  A    between atoms: C3_3  and  C10_10 
REMARK    2  A    between atoms: C9_9  and  C10_10 
ROOT
HETATM    1  C1  UNL     1     -40.640  15.078   7.813  1.00 20.00     0.006 C 
HETATM    2  C2  UNL     1     -41.925  15.658   8.418  1.00 20.00     0.016 C 
HETATM    3  C3  UNL     1     -40.986  13.665   7.315  1.00 20.00    -0.006 C 
HETATM    4  C4  UNL     1     -42.524  13.618   7.328  1.00 20.00     0.000 C 
HETATM    5  C5  UNL     1     -42.899  14.492   8.526  1.00 20.00     0.062 C 
HETATM    6  C6  UNL     1     -43.106  12.212   7.309  1.00 20.00     0.011 C 
HETATM    7 BR11 UNL     1     -42.661  13.607  10.251  1.00 20.00    -0.091 Br
ENDROOT
BRANCH   3   8
HETATM    8  C10 UNL     1     -40.380  13.362   5.952  1.00 20.00    -0.014 C 
HETATM    9  C8  UNL     1     -41.390  13.684   4.845  1.00 20.00     0.010 C 
BRANCH   8  10
HETATM   10  C9  UNL     1     -39.923  11.896   5.817  1.00 20.00     0.000 C 
HETATM   11  C7  UNL     1     -39.250  11.591   4.486  1.00 20.00     0.005 C 
ENDBRANCH   8  10
ENDBRANCH   3   8
TORSDOF 2
ENDMDL
MODEL 5
REMARK VINA RESULT:      -3.4     11.897     13.722
REMARK  2 active torsions:
REMARK  status: ('A' for Active; 'I' for Inactive)
REMARK    1  A    between atoms: C3_3  and  C10_10 
REMARK    2  A    between atoms: C9_9  and  C10_10 
ROOT
HETATM    1  C1  UNL     1     -42.426  15.275   5.446  1.00 20.00     0.006 C 
HETATM    2  C2  UNL     1     -43.031  16.290   6.423  1.00 20.00     0.016 C 
HETATM    3  C3  UNL     1     -41.329  14.521   6.216  1.00 20.00    -0.006 C 
HETATM    4  C4  UNL     1     -41.583  14.876   7.691  1.00 20.00     0.000 C 
HETATM    5  C5  UNL     1     -42.102  16.313   7.630  1.00 20.00     0.062 C 
HETATM    6  C6  UNL     1     -40.392  14.627   8.607  1.00 20.00     0.011 C 
HETATM    7 BR11 UNL     1     -40.703  17.645   7.345  1.00 20.00    -0.091 Br
ENDROOT
BRANCH   3   8
HETATM    8  C10 UNL     1     -41.347  13.024   5.940  1.00 20.00    -0.014 C 
HETATM    9  C8  UNL     1     -42.366  12.333   6.853  1.00 20.00     0.010 C 
BRANCH   8  10
HETATM   10  C9  UNL     1     -39.965  12.368   6.127  1.00 20.00     0.000 C 
HETATM   11  C7  UNL     1     -39.355  11.856   4.830  1.00 20.00     0.005 C 
ENDBRANCH   8  10
ENDBRANCH   3   8
TORSDOF 2
ENDMDL
MODEL 6
REMARK VINA RESULT:      -3.3     12.390     14.209
REMARK  2 active torsions:
REMARK  status: ('A' for Active; 'I' for Inactive)
REMARK    1  A    between atoms: C3_3  and  C10_10 
REMARK    2  A    between atoms: C9_9  and  C10_10 
ROOT
HETATM    1  C1  UNL     1     -40.971  14.151   8.662  1.00 20.00     0.006 C 
HETATM    2  C2  UNL     1     -40.203  15.470   8.808  1.00 20.00     0.016 C 
HETATM    3  C3  UNL     1     -41.962  14.343   7.502  1.00 20.00    -0.006 C 
HETATM    4  C4  UNL     1     -41.487  15.627   6.800  1.00 20.00     0.000 C 
HETATM    5  C5  UNL     1     -40.944  16.483   7.944  1.00 20.00     0.062 C 
HETATM    6  C6  UNL     1     -42.537  16.277   5.909  1.00 20.00     0.011 C 
HETATM    7 BR11 UNL     1     -42.335  17.346   9.010  1.00 20.00    -0.091 Br
ENDROOT
BRANCH   3   8
HETATM    8  C10 UNL     1     -42.025  13.133   6.581  1.00 20.00    -0.014 C 
HETATM    9  C8  UNL     1     -43.037  12.115   7.119  1.00 20.00     0.010 C 
BRANCH   8  10
HETATM   10  C9  UNL     1     -40.655  12.449   6.405  1.00 20.00     0.000 C 
HETATM   11  C7  UNL     1     -40.130  12.501   4.977  1.00 20.00     0.005 C 
ENDBRANCH   8  10
ENDBRANCH   3   8
TORSDOF 2
ENDMDL
MODEL 7
REMARK VINA RESULT:      -3.2     24.557     25.729
REMARK  2 active torsions:
REMARK  status: ('A' for Active; 'I' for Inactive)
REMARK    1  A    between atoms: C3_3  and  C10_10 
REMARK    2  A    between atoms: C9_9  and  C10_10 
ROOT
HETATM    1  C1  UNL     1     -26.805  -0.847  11.161  1.00 20.00     0.006 C 
HETATM    2  C2  UNL     1     -27.917  -0.903  10.106  1.00 20.00     0.016 C 
HETATM    3  C3  UNL     1     -26.492  -2.302  11.549  1.00 20.00    -0.006 C 
HETATM    4  C4  UNL     1     -27.174  -3.146  10.459  1.00 20.00     0.000 C 
HETATM    5  C5  UNL     1     -28.425  -2.339  10.110  1.00 20.00     0.062 C 
HETATM    6  C6  UNL     1     -27.395  -4.603  10.843  1.00 20.00     0.011 C 
HETATM    7 BR11 UNL     1     -29.863  -2.512  11.420  1.00 20.00    -0.091 Br
ENDROOT
BRANCH   3   8
HETATM    8  C10 UNL     1     -24.998  -2.564  11.675  1.00 20.00    -0.014 C 
HETATM    9  C8  UNL     1     -24.308  -1.362  12.332  1.00 20.00     0.010 C 
BRANCH   8  10
HETATM   10  C9  UNL     1     -24.329  -2.859  10.318  1.00 20.00     0.000 C 
HETATM   11  C7  UNL     1     -22.913  -3.402  10.445  1.00 20.00     0.005 C 
ENDBRANCH   8  10
ENDBRANCH   3   8
TORSDOF 2
ENDMDL
MODEL 8
REMARK VINA RESULT:      -3.2      2.317      4.306
REMARK  2 active torsions:
REMARK  status: ('A' for Active; 'I' for Inactive)
REMARK    1  A    between atoms: C3_3  and  C10_10 
REMARK    2  A    between atoms: C9_9  and  C10_10 
ROOT
HETATM    1  C1  UNL     1     -34.298  15.226  -4.351  1.00 20.00     0.006 C 
HETATM    2  C2  UNL     1     -32.948  15.656  -3.763  1.00 20.00     0.016 C 
HETATM    3  C3  UNL     1     -35.076  16.516  -4.660  1.00 20.00    -0.006 C 
HETATM    4  C4  UNL     1     -34.020  17.631  -4.572  1.00 20.00     0.000 C 
HETATM    5  C5  UNL     1     -33.075  17.146  -3.473  1.00 20.00     0.062 C 
HETATM    6  C6  UNL     1     -34.600  19.028  -4.396  1.00 20.00     0.011 C 
HETATM    7 BR11 UNL     1     -33.776  17.396  -1.667  1.00 20.00    -0.091 Br
ENDROOT
BRANCH   3   8
HETATM    8  C10 UNL     1     -35.790  16.459  -6.003  1.00 20.00    -0.014 C 
HETATM    9  C8  UNL     1     -37.294  16.254  -5.789  1.00 20.00     0.010 C 
BRANCH   8  10
HETATM   10  C9  UNL     1     -35.246  15.346  -6.919  1.00 20.00     0.000 C 
HETATM   11  C7  UNL     1     -34.206  15.835  -7.917  1.00 20.00     0.005 C 
ENDBRANCH   8  10
ENDBRANCH   3   8
TORSDOF 2
ENDMDL
MODEL 9
REMARK VINA RESULT:      -3.2      1.578      2.483
REMARK  2 active torsions:
REMARK  status: ('A' for Active; 'I' for Inactive)
REMARK    1  A    between atoms: C3_3  and  C10_10 
REMARK    2  A    between atoms: C9_9  and  C10_10 
ROOT
HETATM    1  C1  UNL     1     -35.265  15.364  -5.423  1.00 20.00     0.006 C 
HETATM    2  C2  UNL     1     -36.720  15.846  -5.460  1.00 20.00     0.016 C 
HETATM    3  C3  UNL     1     -34.404  16.587  -5.065  1.00 20.00    -0.006 C 
HETATM    4  C4  UNL     1     -35.414  17.634  -4.564  1.00 20.00     0.000 C 
HETATM    5  C5  UNL     1     -36.658  17.367  -5.412  1.00 20.00     0.062 C 
HETATM    6  C6  UNL     1     -34.887  19.062  -4.569  1.00 20.00     0.011 C 
HETATM    7 BR11 UNL     1     -36.536  18.067  -7.231  1.00 20.00    -0.091 Br
ENDROOT
BRANCH   3   8
HETATM    8  C10 UNL     1     -33.316  16.259  -4.053  1.00 20.00    -0.014 C 
HETATM    9  C8  UNL     1     -32.848  14.810  -4.236  1.00 20.00     0.010 C 
BRANCH   8  10
HETATM   10  C9  UNL     1     -33.776  16.468  -2.597  1.00 20.00     0.000 C 
HETATM   11  C7  UNL     1     -32.912  17.454  -1.824  1.00 20.00     0.005 C 
ENDBRANCH   8  10
ENDBRANCH   3   8
TORSDOF 2
ENDMDL
