MODEL 1
REMARK VINA RESULT:      -4.6      0.000      0.000
REMARK  5 active torsions:
REMARK  status: ('A' for Active; 'I' for Inactive)
REMARK    1  A    between atoms: C1_1  and  C7_7 
REMARK    2  A    between atoms: C1_1  and  C10_10 
REMARK    3  A    between atoms: C4_4  and  C8_8 
REMARK    4  A    between atoms: C8_8  and  C9_9 
REMARK    5  A    between atoms: C9_9  and  C10_10 
ROOT
HETATM    1  C6  UNL     1     -32.521   6.410   2.961  1.00 20.00     0.018 C 
HETATM    2  C10 UNL     1     -32.439   7.820   3.537  1.00 20.00     0.051 C 
ENDROOT
BRANCH   2   3
HETATM    3  C1  UNL     1     -32.507   8.819   2.383  1.00 20.00     0.130 C 
HETATM    4  O11 UNL     1     -32.895   9.975   2.551  1.00 20.00    -0.298 OA
BRANCH   3   5
HETATM    5  C7  UNL     1     -32.104   8.288   1.016  1.00 20.00     0.074 C 
HETATM    6  C5  UNL     1     -32.818   8.998  -0.120  1.00 20.00     0.013 C 
ENDBRANCH   3   5
ENDBRANCH   2   3
BRANCH   2   7
HETATM    7  C9  UNL     1     -33.559   8.059   4.562  1.00 20.00     0.012 C 
BRANCH   7   8
HETATM    8  C8  UNL     1     -33.336   7.281   5.862  1.00 20.00     0.005 C 
BRANCH   8   9
HETATM    9  C4  UNL     1     -34.506   6.404   6.190  1.00 20.00    -0.014 A 
HETATM   10  C2  UNL     1     -35.220   5.655   5.099  1.00 20.00     0.005 A 
HETATM   11  C3  UNL     1     -34.381   4.909   6.098  1.00 20.00     0.005 A 
ENDBRANCH   8   9
ENDBRANCH   7   8
ENDBRANCH   2   7
TORSDOF 5
ENDMDL
MODEL 2
REMARK VINA RESULT:      -4.6      1.472      2.116
REMARK  5 active torsions:
REMARK  status: ('A' for Active; 'I' for Inactive)
REMARK    1  A    between atoms: C1_1  and  C7_7 
REMARK    2  A    between atoms: C1_1  and  C10_10 
REMARK    3  A    between atoms: C4_4  and  C8_8 
REMARK    4  A    between atoms: C8_8  and  C9_9 
REMARK    5  A    between atoms: C9_9  and  C10_10 
ROOT
HETATM    1  C6  UNL     1     -31.803   8.803   4.844  1.00 20.00     0.018 C 
HETATM    2  C10 UNL     1     -32.930   8.504   3.859  1.00 20.00     0.051 C 
ENDROOT
BRANCH   2   3
HETATM    3  C1  UNL     1     -32.398   7.547   2.794  1.00 20.00     0.130 C 
HETATM    4  O11 UNL     1     -32.111   7.935   1.662  1.00 20.00    -0.298 OA
BRANCH   3   5
HETATM    5  C7  UNL     1     -32.279   6.088   3.206  1.00 20.00     0.074 C 
HETATM    6  C5  UNL     1     -33.041   5.156   2.282  1.00 20.00     0.013 C 
ENDBRANCH   3   5
ENDBRANCH   2   3
BRANCH   2   7
HETATM    7  C9  UNL     1     -34.153   7.925   4.586  1.00 20.00     0.012 C 
BRANCH   7   8
HETATM    8  C8  UNL     1     -33.824   7.462   6.008  1.00 20.00     0.005 C 
BRANCH   8   9
HETATM    9  C4  UNL     1     -34.631   6.263   6.401  1.00 20.00    -0.014 A 
HETATM   10  C2  UNL     1     -35.161   5.329   5.348  1.00 20.00     0.005 A 
HETATM   11  C3  UNL     1     -34.052   4.882   6.260  1.00 20.00     0.005 A 
ENDBRANCH   8   9
ENDBRANCH   7   8
ENDBRANCH   2   7
TORSDOF 5
ENDMDL
MODEL 3
REMARK VINA RESULT:      -4.5     10.909     11.972
REMARK  5 active torsions:
REMARK  status: ('A' for Active; 'I' for Inactive)
REMARK    1  A    between atoms: C1_1  and  C7_7 
REMARK    2  A    between atoms: C1_1  and  C10_10 
REMARK    3  A    between atoms: C4_4  and  C8_8 
REMARK    4  A    between atoms: C8_8  and  C9_9 
REMARK    5  A    between atoms: C9_9  and  C10_10 
ROOT
HETATM    1  C6  UNL     1     -33.930  17.872   0.146  1.00 20.00     0.018 C 
HETATM    2  C10 UNL     1     -32.899  18.658  -0.660  1.00 20.00     0.051 C 
ENDROOT
BRANCH   2   3
HETATM    3  C1  UNL     1     -31.577  18.644   0.106  1.00 20.00     0.130 C 
HETATM    4  O11 UNL     1     -30.493  18.645  -0.478  1.00 20.00    -0.298 OA
BRANCH   3   5
HETATM    5  C7  UNL     1     -31.682  18.594   1.621  1.00 20.00     0.074 C 
HETATM    6  C5  UNL     1     -30.326  18.524   2.299  1.00 20.00     0.013 C 
ENDBRANCH   3   5
ENDBRANCH   2   3
BRANCH   2   7
HETATM    7  C9  UNL     1     -32.745  18.072  -2.071  1.00 20.00     0.012 C 
BRANCH   7   8
HETATM    8  C8  UNL     1     -33.473  16.734  -2.232  1.00 20.00     0.005 C 
BRANCH   8   9
HETATM    9  C4  UNL     1     -33.197  16.110  -3.565  1.00 20.00    -0.014 A 
HETATM   10  C2  UNL     1     -33.842  14.804  -3.938  1.00 20.00     0.005 A 
HETATM   11  C3  UNL     1     -34.267  16.073  -4.620  1.00 20.00     0.005 A 
ENDBRANCH   8   9
ENDBRANCH   7   8
ENDBRANCH   2   7
TORSDOF 5
ENDMDL
MODEL 4
REMARK VINA RESULT:      -4.3      1.871      4.506
REMARK  5 active torsions:
REMARK  status: ('A' for Active; 'I' for Inactive)
REMARK    1  A    between atoms: C1_1  and  C7_7 
REMARK    2  A    between atoms: C1_1  and  C10_10 
REMARK    3  A    between atoms: C4_4  and  C8_8 
REMARK    4  A    between atoms: C8_8  and  C9_9 
REMARK    5  A    between atoms: C9_9  and  C10_10 
ROOT
HETATM    1  C6  UNL     1     -34.116   6.907   6.693  1.00 20.00     0.018 C 
HETATM    2  C10 UNL     1     -33.624   6.854   5.249  1.00 20.00     0.051 C 
ENDROOT
BRANCH   2   3
HETATM    3  C1  UNL     1     -34.505   5.873   4.476  1.00 20.00     0.130 C 
HETATM    4  O11 UNL     1     -35.717   6.052   4.354  1.00 20.00    -0.298 OA
BRANCH   3   5
HETATM    5  C7  UNL     1     -33.802   4.653   3.903  1.00 20.00     0.074 C 
HETATM    6  C5  UNL     1     -33.008   4.972   2.649  1.00 20.00     0.013 C 
ENDBRANCH   3   5
ENDBRANCH   2   3
BRANCH   2   7
HETATM    7  C9  UNL     1     -33.637   8.252   4.614  1.00 20.00     0.012 C 
BRANCH   7   8
HETATM    8  C8  UNL     1     -32.485   8.456   3.625  1.00 20.00     0.005 C 
BRANCH   8   9
HETATM    9  C4  UNL     1     -32.967   8.452   2.206  1.00 20.00    -0.014 A 
HETATM   10  C2  UNL     1     -32.824   9.684   1.356  1.00 20.00     0.005 A 
HETATM   11  C3  UNL     1     -31.980   8.473   1.072  1.00 20.00     0.005 A 
ENDBRANCH   8   9
ENDBRANCH   7   8
ENDBRANCH   2   7
TORSDOF 5
ENDMDL
MODEL 5
REMARK VINA RESULT:      -4.2      2.163      5.015
REMARK  5 active torsions:
REMARK  status: ('A' for Active; 'I' for Inactive)
REMARK    1  A    between atoms: C1_1  and  C7_7 
REMARK    2  A    between atoms: C1_1  and  C10_10 
REMARK    3  A    between atoms: C4_4  and  C8_8 
REMARK    4  A    between atoms: C8_8  and  C9_9 
REMARK    5  A    between atoms: C9_9  and  C10_10 
ROOT
HETATM    1  C6  UNL     1     -32.894   4.862   2.228  1.00 20.00     0.018 C 
HETATM    2  C10 UNL     1     -33.546   5.901   3.136  1.00 20.00     0.051 C 
ENDROOT
BRANCH   2   3
HETATM    3  C1  UNL     1     -34.183   5.175   4.320  1.00 20.00     0.130 C 
HETATM    4  O11 UNL     1     -34.010   3.971   4.507  1.00 20.00    -0.298 OA
BRANCH   3   5
HETATM    5  C7  UNL     1     -35.067   6.018   5.224  1.00 20.00     0.074 C 
HETATM    6  C5  UNL     1     -34.379   6.400   6.522  1.00 20.00     0.013 C 
ENDBRANCH   3   5
ENDBRANCH   2   3
BRANCH   2   7
HETATM    7  C9  UNL     1     -32.519   6.948   3.596  1.00 20.00     0.012 C 
BRANCH   7   8
HETATM    8  C8  UNL     1     -33.002   8.382   3.363  1.00 20.00     0.005 C 
BRANCH   8   9
HETATM    9  C4  UNL     1     -32.254   9.043   2.246  1.00 20.00    -0.014 A 
HETATM   10  C2  UNL     1     -32.275   8.449   0.864  1.00 20.00     0.005 A 
HETATM   11  C3  UNL     1     -33.001   9.736   1.140  1.00 20.00     0.005 A 
ENDBRANCH   8   9
ENDBRANCH   7   8
ENDBRANCH   2   7
TORSDOF 5
ENDMDL
MODEL 6
REMARK VINA RESULT:      -4.1      9.734     10.936
REMARK  5 active torsions:
REMARK  status: ('A' for Active; 'I' for Inactive)
REMARK    1  A    between atoms: C1_1  and  C7_7 
REMARK    2  A    between atoms: C1_1  and  C10_10 
REMARK    3  A    between atoms: C4_4  and  C8_8 
REMARK    4  A    between atoms: C8_8  and  C9_9 
REMARK    5  A    between atoms: C9_9  and  C10_10 
ROOT
HETATM    1  C6  UNL     1     -43.163  13.738   8.701  1.00 20.00     0.018 C 
HETATM    2  C10 UNL     1     -42.131  14.010   7.610  1.00 20.00     0.051 C 
ENDROOT
BRANCH   2   3
HETATM    3  C1  UNL     1     -40.810  14.390   8.279  1.00 20.00     0.130 C 
HETATM    4  O11 UNL     1     -40.163  13.576   8.938  1.00 20.00    -0.298 OA
BRANCH   3   5
HETATM    5  C7  UNL     1     -40.367  15.834   8.110  1.00 20.00     0.074 C 
HETATM    6  C5  UNL     1     -41.239  16.603   7.133  1.00 20.00     0.013 C 
ENDBRANCH   3   5
ENDBRANCH   2   3
BRANCH   2   7
HETATM    7  C9  UNL     1     -41.972  12.790   6.690  1.00 20.00     0.012 C 
BRANCH   7   8
HETATM    8  C8  UNL     1     -40.913  13.009   5.606  1.00 20.00     0.005 C 
BRANCH   8   9
HETATM    9  C4  UNL     1     -39.947  11.865   5.535  1.00 20.00    -0.014 A 
HETATM   10  C2  UNL     1     -39.119  11.649   4.300  1.00 20.00     0.005 A 
HETATM   11  C3  UNL     1     -38.466  12.122   5.568  1.00 20.00     0.005 A 
ENDBRANCH   8   9
ENDBRANCH   7   8
ENDBRANCH   2   7
TORSDOF 5
ENDMDL
MODEL 7
REMARK VINA RESULT:      -4.0     11.423     12.588
REMARK  5 active torsions:
REMARK  status: ('A' for Active; 'I' for Inactive)
REMARK    1  A    between atoms: C1_1  and  C7_7 
REMARK    2  A    between atoms: C1_1  and  C10_10 
REMARK    3  A    between atoms: C4_4  and  C8_8 
REMARK    4  A    between atoms: C8_8  and  C9_9 
REMARK    5  A    between atoms: C9_9  and  C10_10 
ROOT
HETATM    1  C6  UNL     1     -33.559  15.297  -7.231  1.00 20.00     0.018 C 
HETATM    2  C10 UNL     1     -34.414  15.486  -5.981  1.00 20.00     0.051 C 
ENDROOT
BRANCH   2   3
HETATM    3  C1  UNL     1     -35.851  15.086  -6.314  1.00 20.00     0.130 C 
HETATM    4  O11 UNL     1     -36.105  14.278  -7.207  1.00 20.00    -0.298 OA
BRANCH   3   5
HETATM    5  C7  UNL     1     -36.940  15.769  -5.503  1.00 20.00     0.074 C 
HETATM    6  C5  UNL     1     -36.672  17.249  -5.294  1.00 20.00     0.013 C 
ENDBRANCH   3   5
ENDBRANCH   2   3
BRANCH   2   7
HETATM    7  C9  UNL     1     -33.854  14.670  -4.806  1.00 20.00     0.012 C 
BRANCH   7   8
HETATM    8  C8  UNL     1     -32.957  15.506  -3.888  1.00 20.00     0.005 C 
BRANCH   8   9
HETATM    9  C4  UNL     1     -33.731  16.580  -3.186  1.00 20.00    -0.014 A 
HETATM   10  C2  UNL     1     -33.287  17.074  -1.837  1.00 20.00     0.005 A 
HETATM   11  C3  UNL     1     -33.152  17.960  -3.044  1.00 20.00     0.005 A 
ENDBRANCH   8   9
ENDBRANCH   7   8
ENDBRANCH   2   7
TORSDOF 5
ENDMDL
MODEL 8
REMARK VINA RESULT:      -4.0     10.864     12.078
REMARK  5 active torsions:
REMARK  status: ('A' for Active; 'I' for Inactive)
REMARK    1  A    between atoms: C1_1  and  C7_7 
REMARK    2  A    between atoms: C1_1  and  C10_10 
REMARK    3  A    between atoms: C4_4  and  C8_8 
REMARK    4  A    between atoms: C8_8  and  C9_9 
REMARK    5  A    between atoms: C9_9  and  C10_10 
ROOT
HETATM    1  C6  UNL     1     -32.815  19.151  -2.664  1.00 20.00     0.018 C 
HETATM    2  C10 UNL     1     -32.731  18.081  -1.580  1.00 20.00     0.051 C 
ENDROOT
BRANCH   2   3
HETATM    3  C1  UNL     1     -33.362  18.636  -0.304  1.00 20.00     0.130 C 
HETATM    4  O11 UNL     1     -34.548  18.961  -0.258  1.00 20.00    -0.298 OA
BRANCH   3   5
HETATM    5  C7  UNL     1     -32.431  18.796   0.887  1.00 20.00     0.074 C 
HETATM    6  C5  UNL     1     -30.983  18.498   0.541  1.00 20.00     0.013 C 
ENDBRANCH   3   5
ENDBRANCH   2   3
BRANCH   2   7
HETATM    7  C9  UNL     1     -33.417  16.784  -2.036  1.00 20.00     0.012 C 
BRANCH   7   8
HETATM    8  C8  UNL     1     -33.575  16.710  -3.557  1.00 20.00     0.005 C 
BRANCH   8   9
HETATM    9  C4  UNL     1     -33.288  15.335  -4.078  1.00 20.00    -0.014 A 
HETATM   10  C2  UNL     1     -34.388  14.315  -4.169  1.00 20.00     0.005 A 
HETATM   11  C3  UNL     1     -33.810  14.910  -5.422  1.00 20.00     0.005 A 
ENDBRANCH   8   9
ENDBRANCH   7   8
ENDBRANCH   2   7
TORSDOF 5
ENDMDL
MODEL 9
REMARK VINA RESULT:      -3.9      1.640      5.109
REMARK  5 active torsions:
REMARK  status: ('A' for Active; 'I' for Inactive)
REMARK    1  A    between atoms: C1_1  and  C7_7 
REMARK    2  A    between atoms: C1_1  and  C10_10 
REMARK    3  A    between atoms: C4_4  and  C8_8 
REMARK    4  A    between atoms: C8_8  and  C9_9 
REMARK    5  A    between atoms: C9_9  and  C10_10 
ROOT
HETATM    1  C6  UNL     1     -33.674   8.409   5.091  1.00 20.00     0.018 C 
HETATM    2  C10 UNL     1     -32.815   7.339   4.422  1.00 20.00     0.051 C 
ENDROOT
BRANCH   2   3
HETATM    3  C1  UNL     1     -33.704   6.140   4.097  1.00 20.00     0.130 C 
HETATM    4  O11 UNL     1     -33.453   5.386   3.157  1.00 20.00    -0.298 OA
BRANCH   3   5
HETATM    5  C7  UNL     1     -34.930   5.958   4.978  1.00 20.00     0.074 C 
HETATM    6  C5  UNL     1     -34.609   5.264   6.289  1.00 20.00     0.013 C 
ENDBRANCH   3   5
ENDBRANCH   2   3
BRANCH   2   7
HETATM    7  C9  UNL     1     -32.127   7.895   3.166  1.00 20.00     0.012 C 
BRANCH   7   8
HETATM    8  C8  UNL     1     -32.944   9.002   2.493  1.00 20.00     0.005 C 
BRANCH   8   9
HETATM    9  C4  UNL     1     -32.398   9.349   1.142  1.00 20.00    -0.014 A 
HETATM   10  C2  UNL     1     -31.959   8.262   0.200  1.00 20.00     0.005 A 
HETATM   11  C3  UNL     1     -33.200   9.058  -0.096  1.00 20.00     0.005 A 
ENDBRANCH   8   9
ENDBRANCH   7   8
ENDBRANCH   2   7
TORSDOF 5
ENDMDL
