MODEL 1
REMARK VINA RESULT:      -3.7      0.000      0.000
REMARK  2 active torsions:
REMARK  status: ('A' for Active; 'I' for Inactive)
REMARK    1  A    between atoms: C4_4  and  C5_5 
REMARK    2  A    between atoms: C5_5  and  C6_6 
ROOT
HETATM    1  C1  UNL     1     -33.564   6.327   3.973  1.00 20.00     0.038 A 
HETATM    2  C2  UNL     1     -33.477   7.585   5.926  1.00 20.00     0.074 A 
HETATM    3  C3  UNL     1     -33.956   6.435   5.339  1.00 20.00     0.041 A 
HETATM    4  C4  UNL     1     -32.800   7.400   3.568  1.00 20.00    -0.015 A 
HETATM    5  S7  UNL     1     -32.558   8.529   4.832  1.00 20.00    -0.105 SA
HETATM    6 CL8  UNL     1     -34.911   5.256   6.127  1.00 20.00    -0.084 Cl
ENDROOT
BRANCH   4   7
HETATM    7  C5  UNL     1     -32.207   7.656   2.238  1.00 20.00     0.061 C 
BRANCH   7   8
HETATM    8  C6  UNL     1     -32.563   9.023   1.631  1.00 20.00     0.119 C 
HETATM    9 CL9  UNL     1     -32.869   8.904  -0.119  1.00 20.00    -0.130 Cl
ENDBRANCH   7   8
ENDBRANCH   4   7
TORSDOF 2
ENDMDL
MODEL 2
REMARK VINA RESULT:      -3.7      1.457      1.757
REMARK  2 active torsions:
REMARK  status: ('A' for Active; 'I' for Inactive)
REMARK    1  A    between atoms: C4_4  and  C5_5 
REMARK    2  A    between atoms: C5_5  and  C6_6 
ROOT
HETATM    1  C1  UNL     1     -33.532   7.201   4.854  1.00 20.00     0.038 A 
HETATM    2  C2  UNL     1     -34.020   5.027   4.192  1.00 20.00     0.074 A 
HETATM    3  C3  UNL     1     -34.181   5.974   5.179  1.00 20.00     0.041 A 
HETATM    4  C4  UNL     1     -32.901   7.144   3.631  1.00 20.00    -0.015 A 
HETATM    5  S7  UNL     1     -33.091   5.617   2.880  1.00 20.00    -0.105 SA
HETATM    6 CL8  UNL     1     -35.049   5.739   6.632  1.00 20.00    -0.084 Cl
ENDROOT
BRANCH   4   7
HETATM    7  C5  UNL     1     -32.125   8.201   2.946  1.00 20.00     0.061 C 
BRANCH   7   8
HETATM    8  C6  UNL     1     -32.111   8.093   1.413  1.00 20.00     0.119 C 
HETATM    9 CL9  UNL     1     -32.761   9.563   0.646  1.00 20.00    -0.130 Cl
ENDBRANCH   7   8
ENDBRANCH   4   7
TORSDOF 2
ENDMDL
MODEL 3
REMARK VINA RESULT:      -3.6     11.322     11.801
REMARK  2 active torsions:
REMARK  status: ('A' for Active; 'I' for Inactive)
REMARK    1  A    between atoms: C4_4  and  C5_5 
REMARK    2  A    between atoms: C5_5  and  C6_6 
ROOT
HETATM    1  C1  UNL     1     -30.970  18.501   0.133  1.00 20.00     0.038 A 
HETATM    2  C2  UNL     1     -32.284  19.091   1.957  1.00 20.00     0.074 A 
HETATM    3  C3  UNL     1     -31.001  18.868   1.510  1.00 20.00     0.041 A 
HETATM    4  C4  UNL     1     -32.231  18.459  -0.420  1.00 20.00    -0.015 A 
HETATM    5  S7  UNL     1     -33.445  18.860   0.719  1.00 20.00    -0.105 SA
HETATM    6 CL8  UNL     1     -29.591  19.005   2.466  1.00 20.00    -0.084 Cl
ENDROOT
BRANCH   4   7
HETATM    7  C5  UNL     1     -32.617  18.123  -1.808  1.00 20.00     0.061 C 
BRANCH   7   8
HETATM    8  C6  UNL     1     -33.551  16.910  -1.937  1.00 20.00     0.119 C 
HETATM    9 CL9  UNL     1     -33.187  15.954  -3.394  1.00 20.00    -0.130 Cl
ENDBRANCH   7   8
ENDBRANCH   4   7
TORSDOF 2
ENDMDL
MODEL 4
REMARK VINA RESULT:      -3.5     11.423     12.297
REMARK  2 active torsions:
REMARK  status: ('A' for Active; 'I' for Inactive)
REMARK    1  A    between atoms: C4_4  and  C5_5 
REMARK    2  A    between atoms: C5_5  and  C6_6 
ROOT
HETATM    1  C1  UNL     1     -33.299  16.652  -2.142  1.00 20.00     0.038 A 
HETATM    2  C2  UNL     1     -33.672  17.654  -4.206  1.00 20.00     0.074 A 
HETATM    3  C3  UNL     1     -33.643  16.465  -3.512  1.00 20.00     0.041 A 
HETATM    4  C4  UNL     1     -33.079  17.978  -1.841  1.00 20.00    -0.015 A 
HETATM    5  S7  UNL     1     -33.286  18.990  -3.207  1.00 20.00    -0.105 SA
HETATM    6 CL8  UNL     1     -33.975  14.929  -4.185  1.00 20.00    -0.084 Cl
ENDROOT
BRANCH   4   7
HETATM    7  C5  UNL     1     -32.705  18.577  -0.541  1.00 20.00     0.061 C 
BRANCH   7   8
HETATM    8  C6  UNL     1     -31.197  18.569  -0.244  1.00 20.00     0.119 C 
HETATM    9 CL9  UNL     1     -30.868  18.220   1.471  1.00 20.00    -0.130 Cl
ENDBRANCH   7   8
ENDBRANCH   4   7
TORSDOF 2
ENDMDL
MODEL 5
REMARK VINA RESULT:      -3.4     11.587     12.083
REMARK  2 active torsions:
REMARK  status: ('A' for Active; 'I' for Inactive)
REMARK    1  A    between atoms: C4_4  and  C5_5 
REMARK    2  A    between atoms: C5_5  and  C6_6 
ROOT
HETATM    1  C1  UNL     1     -33.338  16.597  -2.294  1.00 20.00     0.038 A 
HETATM    2  C2  UNL     1     -34.378  18.584  -2.906  1.00 20.00     0.074 A 
HETATM    3  C3  UNL     1     -33.742  17.904  -1.891  1.00 20.00     0.041 A 
HETATM    4  C4  UNL     1     -33.680  16.330  -3.601  1.00 20.00    -0.015 A 
HETATM    5  S7  UNL     1     -34.485  17.650  -4.337  1.00 20.00    -0.105 SA
HETATM    6 CL8  UNL     1     -33.456  18.523  -0.324  1.00 20.00    -0.084 Cl
ENDROOT
BRANCH   4   7
HETATM    7  C5  UNL     1     -33.439  15.097  -4.382  1.00 20.00     0.061 C 
BRANCH   7   8
HETATM    8  C6  UNL     1     -34.136  15.059  -5.751  1.00 20.00     0.119 C 
HETATM    9 CL9  UNL     1     -35.772  14.366  -5.634  1.00 20.00    -0.130 Cl
ENDBRANCH   7   8
ENDBRANCH   4   7
TORSDOF 2
ENDMDL
MODEL 6
REMARK VINA RESULT:      -3.3     11.728     12.261
REMARK  2 active torsions:
REMARK  status: ('A' for Active; 'I' for Inactive)
REMARK    1  A    between atoms: C4_4  and  C5_5 
REMARK    2  A    between atoms: C5_5  and  C6_6 
ROOT
HETATM    1  C1  UNL     1     -31.372  18.367  -0.236  1.00 20.00     0.038 A 
HETATM    2  C2  UNL     1     -33.609  18.534   0.373  1.00 20.00     0.074 A 
HETATM    3  C3  UNL     1     -32.729  18.154  -0.616  1.00 20.00     0.041 A 
HETATM    4  C4  UNL     1     -31.267  18.901   1.029  1.00 20.00    -0.015 A 
HETATM    5  S7  UNL     1     -32.799  19.143   1.753  1.00 20.00    -0.105 SA
HETATM    6 CL8  UNL     1     -33.178  17.503  -2.131  1.00 20.00    -0.084 Cl
ENDROOT
BRANCH   4   7
HETATM    7  C5  UNL     1     -30.043  19.263   1.776  1.00 20.00     0.061 C 
BRANCH   7   8
HETATM    8  C6  UNL     1     -29.981  18.712   3.210  1.00 20.00     0.119 C 
HETATM    9 CL9  UNL     1     -28.323  18.752   3.857  1.00 20.00    -0.130 Cl
ENDBRANCH   7   8
ENDBRANCH   4   7
TORSDOF 2
ENDMDL
MODEL 7
REMARK VINA RESULT:      -3.3     11.684     12.338
REMARK  2 active torsions:
REMARK  status: ('A' for Active; 'I' for Inactive)
REMARK    1  A    between atoms: C4_4  and  C5_5 
REMARK    2  A    between atoms: C5_5  and  C6_6 
ROOT
HETATM    1  C1  UNL     1     -33.318  16.199  -3.013  1.00 20.00     0.038 A 
HETATM    2  C2  UNL     1     -34.493  18.200  -3.150  1.00 20.00     0.074 A 
HETATM    3  C3  UNL     1     -33.653  17.430  -2.377  1.00 20.00     0.041 A 
HETATM    4  C4  UNL     1     -33.915  16.076  -4.248  1.00 20.00    -0.015 A 
HETATM    5  S7  UNL     1     -34.875  17.440  -4.636  1.00 20.00    -0.105 SA
HETATM    6 CL8  UNL     1     -33.063  17.870  -0.834  1.00 20.00    -0.084 Cl
ENDROOT
BRANCH   4   7
HETATM    7  C5  UNL     1     -33.817  14.956  -5.209  1.00 20.00     0.061 C 
BRANCH   7   8
HETATM    8  C6  UNL     1     -34.740  15.079  -6.432  1.00 20.00     0.119 C 
HETATM    9 CL9  UNL     1     -33.850  15.632  -7.872  1.00 20.00    -0.130 Cl
ENDBRANCH   7   8
ENDBRANCH   4   7
TORSDOF 2
ENDMDL
MODEL 8
REMARK VINA RESULT:      -3.3     11.609     12.841
REMARK  2 active torsions:
REMARK  status: ('A' for Active; 'I' for Inactive)
REMARK    1  A    between atoms: C4_4  and  C5_5 
REMARK    2  A    between atoms: C5_5  and  C6_6 
ROOT
HETATM    1  C1  UNL     1     -34.418  17.146  -4.620  1.00 20.00     0.038 A 
HETATM    2  C2  UNL     1     -34.141  15.167  -5.808  1.00 20.00     0.074 A 
HETATM    3  C3  UNL     1     -34.646  16.448  -5.842  1.00 20.00     0.041 A 
HETATM    4  C4  UNL     1     -33.746  16.372  -3.700  1.00 20.00    -0.015 A 
HETATM    5  S7  UNL     1     -33.394  14.811  -4.308  1.00 20.00    -0.105 SA
HETATM    6 CL8  UNL     1     -35.455  17.147  -7.174  1.00 20.00    -0.084 Cl
ENDROOT
BRANCH   4   7
HETATM    7  C5  UNL     1     -33.327  16.731  -2.327  1.00 20.00     0.061 C 
BRANCH   7   8
HETATM    8  C6  UNL     1     -32.895  18.196  -2.153  1.00 20.00     0.119 C 
HETATM    9 CL9  UNL     1     -31.743  18.384  -0.808  1.00 20.00    -0.130 Cl
ENDBRANCH   7   8
ENDBRANCH   4   7
TORSDOF 2
ENDMDL
MODEL 9
REMARK VINA RESULT:      -3.3     11.644     12.423
REMARK  2 active torsions:
REMARK  status: ('A' for Active; 'I' for Inactive)
REMARK    1  A    between atoms: C4_4  and  C5_5 
REMARK    2  A    between atoms: C5_5  and  C6_6 
ROOT
HETATM    1  C1  UNL     1     -33.284  16.160  -3.529  1.00 20.00     0.038 A 
HETATM    2  C2  UNL     1     -35.009  17.191  -4.699  1.00 20.00     0.074 A 
HETATM    3  C3  UNL     1     -34.157  16.109  -4.655  1.00 20.00     0.041 A 
HETATM    4  C4  UNL     1     -33.504  17.279  -2.756  1.00 20.00    -0.015 A 
HETATM    5  S7  UNL     1     -34.755  18.261  -3.387  1.00 20.00    -0.105 SA
HETATM    6 CL8  UNL     1     -34.124  14.840  -5.798  1.00 20.00    -0.084 Cl
ENDROOT
BRANCH   4   7
HETATM    7  C5  UNL     1     -32.810  17.690  -1.515  1.00 20.00     0.061 C 
BRANCH   7   8
HETATM    8  C6  UNL     1     -33.740  17.966  -0.323  1.00 20.00     0.119 C 
HETATM    9 CL9  UNL     1     -32.836  18.568   1.088  1.00 20.00    -0.130 Cl
ENDBRANCH   7   8
ENDBRANCH   4   7
TORSDOF 2
ENDMDL
