MODEL 1
REMARK VINA RESULT:      -5.9      0.000      0.000
REMARK  3 active torsions:
REMARK  status: ('A' for Active; 'I' for Inactive)
REMARK    1  A    between atoms: C4_4  and  C6_6 
REMARK    2  A    between atoms: C5_5  and  O8_8 
REMARK    3  A    between atoms: C6_6  and  C7_7 
ROOT
HETATM    1  C1  UNL     1     -34.628   5.071   6.387  1.00 20.00     0.003 C 
HETATM    2  C2  UNL     1     -34.416   6.585   6.371  1.00 20.00     0.007 C 
HETATM    3  C3  UNL     1     -34.336   4.581   4.968  1.00 20.00     0.032 C 
HETATM    4  C4  UNL     1     -33.615   6.855   5.100  1.00 20.00     0.023 C 
HETATM    5  C5  UNL     1     -34.206   5.843   4.122  1.00 20.00     0.122 C 
ENDROOT
BRANCH   4   6
HETATM    6  C6  UNL     1     -33.725   8.293   4.617  1.00 20.00     0.124 C 
BRANCH   6   7
HETATM    7  C7  UNL     1     -32.440   8.763   3.996  1.00 20.00     0.388 C 
HETATM    8  F9  UNL     1     -31.955   9.861   4.613  1.00 20.00    -0.171 F 
HETATM    9  F10 UNL     1     -32.654   9.083   2.700  1.00 20.00    -0.171 F 
HETATM   10  F11 UNL     1     -31.486   7.808   4.028  1.00 20.00    -0.171 F 
ENDBRANCH   6   7
ENDBRANCH   4   6
BRANCH   5  11
HETATM   11  O8  UNL     1     -33.350   5.639   3.015  1.00 20.00    -0.395 OA
HETATM   12  H22 UNL     1     -33.506   6.370   2.393  1.00 20.00     0.210 HD
ENDBRANCH   5  11
TORSDOF 3
ENDMDL
MODEL 2
REMARK VINA RESULT:      -5.4      1.247      1.686
REMARK  3 active torsions:
REMARK  status: ('A' for Active; 'I' for Inactive)
REMARK    1  A    between atoms: C4_4  and  C6_6 
REMARK    2  A    between atoms: C5_5  and  O8_8 
REMARK    3  A    between atoms: C6_6  and  C7_7 
ROOT
HETATM    1  C1  UNL     1     -34.353   6.872   6.630  1.00 20.00     0.003 C 
HETATM    2  C2  UNL     1     -33.798   7.515   5.358  1.00 20.00     0.007 C 
HETATM    3  C3  UNL     1     -34.654   5.415   6.278  1.00 20.00     0.032 C 
HETATM    4  C4  UNL     1     -33.402   6.341   4.466  1.00 20.00     0.023 C 
HETATM    5  C5  UNL     1     -34.498   5.322   4.764  1.00 20.00     0.122 C 
ENDROOT
BRANCH   4   6
HETATM    6  C6  UNL     1     -33.309   6.712   2.994  1.00 20.00     0.124 C 
BRANCH   6   7
HETATM    7  C7  UNL     1     -32.264   7.765   2.759  1.00 20.00     0.388 C 
HETATM    8  F9  UNL     1     -32.760   9.011   2.917  1.00 20.00    -0.171 F 
HETATM    9  F10 UNL     1     -31.800   7.668   1.492  1.00 20.00    -0.171 F 
HETATM   10  F11 UNL     1     -31.210   7.625   3.591  1.00 20.00    -0.171 F 
ENDBRANCH   6   7
ENDBRANCH   4   6
BRANCH   5  11
HETATM   11  O8  UNL     1     -34.113   4.022   4.361  1.00 20.00    -0.395 OA
HETATM   12  H22 UNL     1     -34.925   3.491   4.290  1.00 20.00     0.210 HD
ENDBRANCH   5  11
TORSDOF 3
ENDMDL
MODEL 3
REMARK VINA RESULT:      -5.3      2.755      4.049
REMARK  3 active torsions:
REMARK  status: ('A' for Active; 'I' for Inactive)
REMARK    1  A    between atoms: C4_4  and  C6_6 
REMARK    2  A    between atoms: C5_5  and  O8_8 
REMARK    3  A    between atoms: C6_6  and  C7_7 
ROOT
HETATM    1  C1  UNL     1     -32.437   9.125   3.225  1.00 20.00     0.003 C 
HETATM    2  C2  UNL     1     -32.976   8.696   4.591  1.00 20.00     0.007 C 
HETATM    3  C3  UNL     1     -32.283   7.844   2.404  1.00 20.00     0.032 C 
HETATM    4  C4  UNL     1     -33.510   7.283   4.375  1.00 20.00     0.023 C 
HETATM    5  C5  UNL     1     -32.501   6.701   3.388  1.00 20.00     0.122 C 
ENDROOT
BRANCH   4   6
HETATM    6  C6  UNL     1     -33.622   6.481   5.664  1.00 20.00     0.124 C 
BRANCH   6   7
HETATM    7  C7  UNL     1     -34.718   5.458   5.579  1.00 20.00     0.388 C 
HETATM    8  F9  UNL     1     -35.700   5.841   4.735  1.00 20.00    -0.171 F 
HETATM    9  F10 UNL     1     -35.273   5.286   6.800  1.00 20.00    -0.171 F 
HETATM   10  F11 UNL     1     -34.257   4.258   5.168  1.00 20.00    -0.171 F 
ENDBRANCH   6   7
ENDBRANCH   4   6
BRANCH   5  11
HETATM   11  O8  UNL     1     -33.018   5.553   2.744  1.00 20.00    -0.395 OA
HETATM   12  H22 UNL     1     -32.915   5.690   1.787  1.00 20.00     0.210 HD
ENDBRANCH   5  11
TORSDOF 3
ENDMDL
MODEL 4
REMARK VINA RESULT:      -5.0      2.588      3.872
REMARK  3 active torsions:
REMARK  status: ('A' for Active; 'I' for Inactive)
REMARK    1  A    between atoms: C4_4  and  C6_6 
REMARK    2  A    between atoms: C5_5  and  O8_8 
REMARK    3  A    between atoms: C6_6  and  C7_7 
ROOT
HETATM    1  C1  UNL     1     -32.401   8.668   4.453  1.00 20.00     0.003 C 
HETATM    2  C2  UNL     1     -33.679   8.156   5.121  1.00 20.00     0.007 C 
HETATM    3  C3  UNL     1     -31.986   7.596   3.444  1.00 20.00     0.032 C 
HETATM    4  C4  UNL     1     -34.184   7.047   4.201  1.00 20.00     0.023 C 
HETATM    5  C5  UNL     1     -32.885   6.399   3.729  1.00 20.00     0.122 C 
ENDROOT
BRANCH   4   6
HETATM    6  C6  UNL     1     -35.124   6.075   4.897  1.00 20.00     0.124 C 
BRANCH   6   7
HETATM    7  C7  UNL     1     -34.455   5.404   6.063  1.00 20.00     0.388 C 
HETATM    8  F9  UNL     1     -33.835   4.261   5.698  1.00 20.00    -0.171 F 
HETATM    9  F10 UNL     1     -35.381   5.087   6.995  1.00 20.00    -0.171 F 
HETATM   10  F11 UNL     1     -33.542   6.207   6.650  1.00 20.00    -0.171 F 
ENDBRANCH   6   7
ENDBRANCH   4   6
BRANCH   5  11
HETATM   11  O8  UNL     1     -33.095   5.619   2.568  1.00 20.00    -0.395 OA
HETATM   12  H22 UNL     1     -33.406   4.746   2.861  1.00 20.00     0.210 HD
ENDBRANCH   5  11
TORSDOF 3
ENDMDL
MODEL 5
REMARK VINA RESULT:      -4.8      2.970      4.195
REMARK  3 active torsions:
REMARK  status: ('A' for Active; 'I' for Inactive)
REMARK    1  A    between atoms: C4_4  and  C6_6 
REMARK    2  A    between atoms: C5_5  and  O8_8 
REMARK    3  A    between atoms: C6_6  and  C7_7 
ROOT
HETATM    1  C1  UNL     1     -32.088   6.901   2.286  1.00 20.00     0.003 C 
HETATM    2  C2  UNL     1     -33.119   5.963   2.916  1.00 20.00     0.007 C 
HETATM    3  C3  UNL     1     -32.091   8.174   3.134  1.00 20.00     0.032 C 
HETATM    4  C4  UNL     1     -33.362   6.529   4.312  1.00 20.00     0.023 C 
HETATM    5  C5  UNL     1     -33.285   8.034   4.071  1.00 20.00     0.122 C 
ENDROOT
BRANCH   4   6
HETATM    6  C6  UNL     1     -34.684   6.083   4.918  1.00 20.00     0.124 C 
BRANCH   6   7
HETATM    7  C7  UNL     1     -34.555   5.839   6.395  1.00 20.00     0.388 C 
HETATM    8  F9  UNL     1     -35.489   4.974   6.845  1.00 20.00    -0.171 F 
HETATM    9  F10 UNL     1     -34.720   7.003   7.062  1.00 20.00    -0.171 F 
HETATM   10  F11 UNL     1     -33.340   5.350   6.721  1.00 20.00    -0.171 F 
ENDBRANCH   6   7
ENDBRANCH   4   6
BRANCH   5  11
HETATM   11  O8  UNL     1     -33.080   8.738   5.281  1.00 20.00    -0.395 OA
HETATM   12  H22 UNL     1     -33.095   8.082   6.000  1.00 20.00     0.210 HD
ENDBRANCH   5  11
TORSDOF 3
ENDMDL
MODEL 6
REMARK VINA RESULT:      -4.7      1.616      2.415
REMARK  3 active torsions:
REMARK  status: ('A' for Active; 'I' for Inactive)
REMARK    1  A    between atoms: C4_4  and  C6_6 
REMARK    2  A    between atoms: C5_5  and  O8_8 
REMARK    3  A    between atoms: C6_6  and  C7_7 
ROOT
HETATM    1  C1  UNL     1     -35.139   5.380   5.951  1.00 20.00     0.003 C 
HETATM    2  C2  UNL     1     -34.570   5.216   4.541  1.00 20.00     0.007 C 
HETATM    3  C3  UNL     1     -34.352   6.518   6.602  1.00 20.00     0.032 C 
HETATM    4  C4  UNL     1     -33.796   6.505   4.279  1.00 20.00     0.023 C 
HETATM    5  C5  UNL     1     -33.199   6.811   5.650  1.00 20.00     0.122 C 
ENDROOT
BRANCH   4   6
HETATM    6  C6  UNL     1     -32.750   6.363   3.184  1.00 20.00     0.124 C 
BRANCH   6   7
HETATM    7  C7  UNL     1     -32.228   7.703   2.748  1.00 20.00     0.388 C 
HETATM    8  F9  UNL     1     -31.954   7.731   1.427  1.00 20.00    -0.171 F 
HETATM    9  F10 UNL     1     -31.080   7.978   3.409  1.00 20.00    -0.171 F 
HETATM   10  F11 UNL     1     -33.101   8.696   3.017  1.00 20.00    -0.171 F 
ENDBRANCH   6   7
ENDBRANCH   4   6
BRANCH   5  11
HETATM   11  O8  UNL     1     -32.782   8.159   5.738  1.00 20.00    -0.395 OA
HETATM   12  H22 UNL     1     -31.835   8.153   5.961  1.00 20.00     0.210 HD
ENDBRANCH   5  11
TORSDOF 3
ENDMDL
MODEL 7
REMARK VINA RESULT:      -4.6      2.587      3.880
REMARK  3 active torsions:
REMARK  status: ('A' for Active; 'I' for Inactive)
REMARK    1  A    between atoms: C4_4  and  C6_6 
REMARK    2  A    between atoms: C5_5  and  O8_8 
REMARK    3  A    between atoms: C6_6  and  C7_7 
ROOT
HETATM    1  C1  UNL     1     -32.657   9.049   2.207  1.00 20.00     0.003 C 
HETATM    2  C2  UNL     1     -32.897   9.115   3.716  1.00 20.00     0.007 C 
HETATM    3  C3  UNL     1     -32.500   7.568   1.862  1.00 20.00     0.032 C 
HETATM    4  C4  UNL     1     -33.291   7.695   4.113  1.00 20.00     0.023 C 
HETATM    5  C5  UNL     1     -32.408   6.846   3.201  1.00 20.00     0.122 C 
ENDROOT
BRANCH   4   6
HETATM    6  C6  UNL     1     -33.082   7.406   5.592  1.00 20.00     0.124 C 
BRANCH   6   7
HETATM    7  C7  UNL     1     -34.202   6.573   6.150  1.00 20.00     0.388 C 
HETATM    8  F9  UNL     1     -35.195   6.400   5.253  1.00 20.00    -0.171 F 
HETATM    9  F10 UNL     1     -34.730   7.192   7.231  1.00 20.00    -0.171 F 
HETATM   10  F11 UNL     1     -33.775   5.355   6.545  1.00 20.00    -0.171 F 
ENDBRANCH   6   7
ENDBRANCH   4   6
BRANCH   5  11
HETATM   11  O8  UNL     1     -32.892   5.520   3.111  1.00 20.00    -0.395 OA
HETATM   12  H22 UNL     1     -33.107   5.230   4.014  1.00 20.00     0.210 HD
ENDBRANCH   5  11
TORSDOF 3
ENDMDL
MODEL 8
REMARK VINA RESULT:      -4.6      1.422      2.277
REMARK  3 active torsions:
REMARK  status: ('A' for Active; 'I' for Inactive)
REMARK    1  A    between atoms: C4_4  and  C6_6 
REMARK    2  A    between atoms: C5_5  and  O8_8 
REMARK    3  A    between atoms: C6_6  and  C7_7 
ROOT
HETATM    1  C1  UNL     1     -33.243   4.907   2.947  1.00 20.00     0.003 C 
HETATM    2  C2  UNL     1     -32.908   6.360   3.288  1.00 20.00     0.007 C 
HETATM    3  C3  UNL     1     -34.115   4.388   4.091  1.00 20.00     0.032 C 
HETATM    4  C4  UNL     1     -33.919   6.753   4.361  1.00 20.00     0.023 C 
HETATM    5  C5  UNL     1     -34.056   5.465   5.168  1.00 20.00     0.122 C 
ENDROOT
BRANCH   4   6
HETATM    6  C6  UNL     1     -33.473   7.943   5.198  1.00 20.00     0.124 C 
BRANCH   6   7
HETATM    7  C7  UNL     1     -32.392   8.724   4.507  1.00 20.00     0.388 C 
HETATM    8  F9  UNL     1     -31.280   7.983   4.316  1.00 20.00    -0.171 F 
HETATM    9  F10 UNL     1     -32.048   9.790   5.266  1.00 20.00    -0.171 F 
HETATM   10  F11 UNL     1     -32.796   9.191   3.307  1.00 20.00    -0.171 F 
ENDBRANCH   6   7
ENDBRANCH   4   6
BRANCH   5  11
HETATM   11  O8  UNL     1     -35.230   5.475   5.956  1.00 20.00    -0.395 OA
HETATM   12  H22 UNL     1     -34.995   5.867   6.815  1.00 20.00     0.210 HD
ENDBRANCH   5  11
TORSDOF 3
ENDMDL
MODEL 9
REMARK VINA RESULT:      -4.5      9.135      9.920
REMARK  3 active torsions:
REMARK  status: ('A' for Active; 'I' for Inactive)
REMARK    1  A    between atoms: C4_4  and  C6_6 
REMARK    2  A    between atoms: C5_5  and  O8_8 
REMARK    3  A    between atoms: C6_6  and  C7_7 
ROOT
HETATM    1  C1  UNL     1     -41.350  14.906   8.357  1.00 20.00     0.003 C 
HETATM    2  C2  UNL     1     -40.510  14.695   7.097  1.00 20.00     0.007 C 
HETATM    3  C3  UNL     1     -42.354  13.754   8.402  1.00 20.00     0.032 C 
HETATM    4  C4  UNL     1     -40.757  13.242   6.700  1.00 20.00     0.023 C 
HETATM    5  C5  UNL     1     -42.230  13.055   7.053  1.00 20.00     0.122 C 
ENDROOT
BRANCH   4   6
HETATM    6  C6  UNL     1     -40.448  12.959   5.238  1.00 20.00     0.124 C 
BRANCH   6   7
HETATM    7  C7  UNL     1     -39.410  11.881   5.096  1.00 20.00     0.388 C 
HETATM    8  F9  UNL     1     -39.381  11.373   3.846  1.00 20.00    -0.171 F 
HETATM    9  F10 UNL     1     -39.693  10.866   5.944  1.00 20.00    -0.171 F 
HETATM   10  F11 UNL     1     -38.173  12.330   5.396  1.00 20.00    -0.171 F 
ENDBRANCH   6   7
ENDBRANCH   4   6
BRANCH   5  11
HETATM   11  O8  UNL     1     -42.564  11.683   7.147  1.00 20.00    -0.395 OA
HETATM   12  H22 UNL     1     -42.985  11.549   8.013  1.00 20.00     0.210 HD
ENDBRANCH   5  11
TORSDOF 3
ENDMDL
