MODEL 1
REMARK VINA RESULT:      -4.7      0.000      0.000
REMARK  3 active torsions:
REMARK  status: ('A' for Active; 'I' for Inactive)
REMARK    1  A    between atoms: C2_2  and  C11_11 
REMARK    2  A    between atoms: C3_3  and  C9_9 
REMARK    3  A    between atoms: C9_9  and  C11_11 
ROOT
HETATM    1  C1  UNL     1     -33.302  16.554  -2.578  1.00 20.00    -0.111 C 
HETATM    2  C2  UNL     1     -33.709  15.739  -3.360  1.00 20.00    -0.106 C 
HETATM    3  C10 UNL     1     -32.806  17.546  -1.625  1.00 20.00     0.112 C 
ENDROOT
BRANCH   2   4
HETATM    4  C11 UNL     1     -34.210  14.757  -4.322  1.00 20.00     0.114 C 
BRANCH   4   5
HETATM    5  C9  UNL     1     -34.791  15.451  -5.555  1.00 20.00     0.058 C 
HETATM    6  C7  UNL     1     -35.310  16.849  -5.206  1.00 20.00     0.021 C 
HETATM    7  C5  UNL     1     -35.788  17.626  -6.432  1.00 20.00     0.001 C 
HETATM    8  C4  UNL     1     -34.727  17.666  -7.525  1.00 20.00     0.000 C 
HETATM    9  C6  UNL     1     -34.273  16.265  -7.915  1.00 20.00     0.001 C 
HETATM   10  C8  UNL     1     -33.779  15.472  -6.704  1.00 20.00     0.021 C 
BRANCH   5  11
HETATM   11  C3  UNL     1     -35.965  14.546  -5.924  1.00 20.00     0.182 C 
HETATM   12  O12 UNL     1     -35.971  14.130  -7.116  1.00 20.00    -0.647 OA
HETATM   13  O13 UNL     1     -36.782  14.330  -4.986  1.00 20.00    -0.647 OA
ENDBRANCH   5  11
ENDBRANCH   4   5
ENDBRANCH   2   4
TORSDOF 3
ENDMDL
MODEL 2
REMARK VINA RESULT:      -4.5      1.194      1.828
REMARK  3 active torsions:
REMARK  status: ('A' for Active; 'I' for Inactive)
REMARK    1  A    between atoms: C2_2  and  C11_11 
REMARK    2  A    between atoms: C3_3  and  C9_9 
REMARK    3  A    between atoms: C9_9  and  C11_11 
ROOT
HETATM    1  C1  UNL     1     -33.472  16.603  -2.746  1.00 20.00    -0.111 C 
HETATM    2  C2  UNL     1     -33.700  15.956  -3.731  1.00 20.00    -0.106 C 
HETATM    3  C10 UNL     1     -33.195  17.392  -1.547  1.00 20.00     0.112 C 
ENDROOT
BRANCH   2   4
HETATM    4  C11 UNL     1     -33.992  15.165  -4.928  1.00 20.00     0.114 C 
BRANCH   4   5
HETATM    5  C9  UNL     1     -34.982  15.895  -5.834  1.00 20.00     0.058 C 
HETATM    6  C7  UNL     1     -36.393  15.870  -5.240  1.00 20.00     0.021 C 
HETATM    7  C5  UNL     1     -37.393  16.694  -6.052  1.00 20.00     0.001 C 
HETATM    8  C4  UNL     1     -36.895  18.116  -6.285  1.00 20.00     0.000 C 
HETATM    9  C6  UNL     1     -35.522  18.127  -6.945  1.00 20.00     0.001 C 
HETATM   10  C8  UNL     1     -34.502  17.316  -6.143  1.00 20.00     0.021 C 
BRANCH   5  11
HETATM   11  C3  UNL     1     -34.948  15.057  -7.110  1.00 20.00     0.182 C 
HETATM   12  O12 UNL     1     -35.975  14.353  -7.321  1.00 20.00    -0.647 OA
HETATM   13  O13 UNL     1     -33.893  15.176  -7.793  1.00 20.00    -0.647 OA
ENDBRANCH   5  11
ENDBRANCH   4   5
ENDBRANCH   2   4
TORSDOF 3
ENDMDL
MODEL 3
REMARK VINA RESULT:      -4.2     12.390     14.365
REMARK  3 active torsions:
REMARK  status: ('A' for Active; 'I' for Inactive)
REMARK    1  A    between atoms: C2_2  and  C11_11 
REMARK    2  A    between atoms: C3_3  and  C9_9 
REMARK    3  A    between atoms: C9_9  and  C11_11 
ROOT
HETATM    1  C1  UNL     1     -42.466   3.552  -2.960  1.00 20.00    -0.111 C 
HETATM    2  C2  UNL     1     -42.883   3.906  -1.891  1.00 20.00    -0.106 C 
HETATM    3  C10 UNL     1     -41.958   3.121  -4.261  1.00 20.00     0.112 C 
ENDROOT
BRANCH   2   4
HETATM    4  C11 UNL     1     -43.401   4.326  -0.588  1.00 20.00     0.114 C 
BRANCH   4   5
HETATM    5  C9  UNL     1     -42.646   5.551  -0.072  1.00 20.00     0.058 C 
HETATM    6  C7  UNL     1     -41.211   5.577  -0.604  1.00 20.00     0.021 C 
HETATM    7  C5  UNL     1     -40.457   6.849  -0.212  1.00 20.00     0.001 C 
HETATM    8  C4  UNL     1     -41.232   8.105  -0.593  1.00 20.00     0.000 C 
HETATM    9  C6  UNL     1     -42.634   8.100   0.005  1.00 20.00     0.001 C 
HETATM   10  C8  UNL     1     -43.410   6.840  -0.384  1.00 20.00     0.021 C 
BRANCH   5  11
HETATM   11  C3  UNL     1     -42.629   5.320   1.438  1.00 20.00     0.182 C 
HETATM   12  O12 UNL     1     -43.389   6.072   2.108  1.00 20.00    -0.647 OA
HETATM   13  O13 UNL     1     -41.852   4.402   1.823  1.00 20.00    -0.647 OA
ENDBRANCH   5  11
ENDBRANCH   4   5
ENDBRANCH   2   4
TORSDOF 3
ENDMDL
MODEL 4
REMARK VINA RESULT:      -4.1     13.058     14.750
REMARK  3 active torsions:
REMARK  status: ('A' for Active; 'I' for Inactive)
REMARK    1  A    between atoms: C2_2  and  C11_11 
REMARK    2  A    between atoms: C3_3  and  C9_9 
REMARK    3  A    between atoms: C9_9  and  C11_11 
ROOT
HETATM    1  C1  UNL     1     -39.817  12.042   5.280  1.00 20.00    -0.111 C 
HETATM    2  C2  UNL     1     -40.783  12.291   5.948  1.00 20.00    -0.106 C 
HETATM    3  C10 UNL     1     -38.641  11.739   4.465  1.00 20.00     0.112 C 
ENDROOT
BRANCH   2   4
HETATM    4  C11 UNL     1     -41.961  12.579   6.767  1.00 20.00     0.114 C 
BRANCH   4   5
HETATM    5  C9  UNL     1     -41.876  13.983   7.367  1.00 20.00     0.058 C 
HETATM    6  C7  UNL     1     -40.462  14.554   7.234  1.00 20.00     0.021 C 
HETATM    7  C5  UNL     1     -40.361  16.003   7.710  1.00 20.00     0.001 C 
HETATM    8  C4  UNL     1     -41.402  16.892   7.039  1.00 20.00     0.000 C 
HETATM    9  C6  UNL     1     -42.812  16.352   7.242  1.00 20.00     0.001 C 
HETATM   10  C8  UNL     1     -42.939  14.905   6.762  1.00 20.00     0.021 C 
BRANCH   5  11
HETATM   11  C3  UNL     1     -42.193  13.736   8.840  1.00 20.00     0.182 C 
HETATM   12  O12 UNL     1     -41.197  13.745   9.615  1.00 20.00    -0.647 OA
HETATM   13  O13 UNL     1     -43.417  13.554   9.094  1.00 20.00    -0.647 OA
ENDBRANCH   5  11
ENDBRANCH   4   5
ENDBRANCH   2   4
TORSDOF 3
ENDMDL
MODEL 5
REMARK VINA RESULT:      -4.0      2.246      3.959
REMARK  3 active torsions:
REMARK  status: ('A' for Active; 'I' for Inactive)
REMARK    1  A    between atoms: C2_2  and  C11_11 
REMARK    2  A    between atoms: C3_3  and  C9_9 
REMARK    3  A    between atoms: C9_9  and  C11_11 
ROOT
HETATM    1  C1  UNL     1     -38.563  16.399  -4.650  1.00 20.00    -0.111 C 
HETATM    2  C2  UNL     1     -37.696  16.249  -5.466  1.00 20.00    -0.106 C 
HETATM    3  C10 UNL     1     -39.620  16.580  -3.655  1.00 20.00     0.112 C 
ENDROOT
BRANCH   2   4
HETATM    4  C11 UNL     1     -36.648  16.059  -6.470  1.00 20.00     0.114 C 
BRANCH   4   5
HETATM    5  C9  UNL     1     -35.267  16.026  -5.816  1.00 20.00     0.058 C 
HETATM    6  C7  UNL     1     -35.057  17.245  -4.913  1.00 20.00     0.021 C 
HETATM    7  C5  UNL     1     -33.738  17.191  -4.142  1.00 20.00     0.001 C 
HETATM    8  C4  UNL     1     -33.582  15.880  -3.380  1.00 20.00     0.000 C 
HETATM    9  C6  UNL     1     -33.720  14.676  -4.303  1.00 20.00     0.001 C 
HETATM   10  C8  UNL     1     -35.039  14.704  -5.077  1.00 20.00     0.021 C 
BRANCH   5  11
HETATM   11  C3  UNL     1     -34.327  16.109  -7.016  1.00 20.00     0.182 C 
HETATM   12  O12 UNL     1     -34.161  17.266  -7.493  1.00 20.00    -0.647 OA
HETATM   13  O13 UNL     1     -33.834  15.005  -7.379  1.00 20.00    -0.647 OA
ENDBRANCH   5  11
ENDBRANCH   4   5
ENDBRANCH   2   4
TORSDOF 3
ENDMDL
MODEL 6
REMARK VINA RESULT:      -3.6      1.628      2.877
REMARK  3 active torsions:
REMARK  status: ('A' for Active; 'I' for Inactive)
REMARK    1  A    between atoms: C2_2  and  C11_11 
REMARK    2  A    between atoms: C3_3  and  C9_9 
REMARK    3  A    between atoms: C9_9  and  C11_11 
ROOT
HETATM    1  C1  UNL     1     -33.649  17.334  -2.133  1.00 20.00    -0.111 C 
HETATM    2  C2  UNL     1     -33.582  17.191  -3.323  1.00 20.00    -0.106 C 
HETATM    3  C10 UNL     1     -33.729  17.508  -0.683  1.00 20.00     0.112 C 
ENDROOT
BRANCH   2   4
HETATM    4  C11 UNL     1     -33.497  17.001  -4.772  1.00 20.00     0.114 C 
BRANCH   4   5
HETATM    5  C9  UNL     1     -34.663  16.153  -5.279  1.00 20.00     0.058 C 
HETATM    6  C7  UNL     1     -34.668  14.772  -4.616  1.00 20.00     0.021 C 
HETATM    7  C5  UNL     1     -35.888  13.934  -5.002  1.00 20.00     0.001 C 
HETATM    8  C4  UNL     1     -37.190  14.689  -4.761  1.00 20.00     0.000 C 
HETATM    9  C6  UNL     1     -37.202  16.029  -5.487  1.00 20.00     0.001 C 
HETATM   10  C8  UNL     1     -35.995  16.889  -5.107  1.00 20.00     0.021 C 
BRANCH   5  11
HETATM   11  C3  UNL     1     -34.348  16.007  -6.766  1.00 20.00     0.182 C 
HETATM   12  O12 UNL     1     -34.761  16.947  -7.500  1.00 20.00    -0.647 OA
HETATM   13  O13 UNL     1     -33.713  14.959  -7.071  1.00 20.00    -0.647 OA
ENDBRANCH   5  11
ENDBRANCH   4   5
ENDBRANCH   2   4
TORSDOF 3
ENDMDL
MODEL 7
REMARK VINA RESULT:      -3.6      1.705      2.556
REMARK  3 active torsions:
REMARK  status: ('A' for Active; 'I' for Inactive)
REMARK    1  A    between atoms: C2_2  and  C11_11 
REMARK    2  A    between atoms: C3_3  and  C9_9 
REMARK    3  A    between atoms: C9_9  and  C11_11 
ROOT
HETATM    1  C1  UNL     1     -33.878  16.678  -3.671  1.00 20.00    -0.111 C 
HETATM    2  C2  UNL     1     -34.217  16.684  -4.823  1.00 20.00    -0.106 C 
HETATM    3  C10 UNL     1     -33.464  16.670  -2.269  1.00 20.00     0.112 C 
ENDROOT
BRANCH   2   4
HETATM    4  C11 UNL     1     -34.630  16.676  -6.227  1.00 20.00     0.114 C 
BRANCH   4   5
HETATM    5  C9  UNL     1     -36.137  16.453  -6.349  1.00 20.00     0.058 C 
HETATM    6  C7  UNL     1     -36.881  17.048  -5.150  1.00 20.00     0.021 C 
HETATM    7  C5  UNL     1     -38.400  16.956  -5.290  1.00 20.00     0.001 C 
HETATM    8  C4  UNL     1     -38.882  17.544  -6.611  1.00 20.00     0.000 C 
HETATM    9  C6  UNL     1     -38.188  16.891  -7.800  1.00 20.00     0.001 C 
HETATM   10  C8  UNL     1     -36.666  16.981  -7.686  1.00 20.00     0.021 C 
BRANCH   5  11
HETATM   11  C3  UNL     1     -36.253  14.930  -6.320  1.00 20.00     0.182 C 
HETATM   12  O12 UNL     1     -36.666  14.441  -5.232  1.00 20.00    -0.647 OA
HETATM   13  O13 UNL     1     -35.919  14.354  -7.393  1.00 20.00    -0.647 OA
ENDBRANCH   5  11
ENDBRANCH   4   5
ENDBRANCH   2   4
TORSDOF 3
ENDMDL
MODEL 8
REMARK VINA RESULT:      -3.6     13.949     16.054
REMARK  3 active torsions:
REMARK  status: ('A' for Active; 'I' for Inactive)
REMARK    1  A    between atoms: C2_2  and  C11_11 
REMARK    2  A    between atoms: C3_3  and  C9_9 
REMARK    3  A    between atoms: C9_9  and  C11_11 
ROOT
HETATM    1  C1  UNL     1     -40.171  12.924   6.284  1.00 20.00    -0.111 C 
HETATM    2  C2  UNL     1     -40.623  13.977   6.641  1.00 20.00    -0.106 C 
HETATM    3  C10 UNL     1     -39.621  11.641   5.847  1.00 20.00     0.112 C 
ENDROOT
BRANCH   2   4
HETATM    4  C11 UNL     1     -41.187  15.254   7.079  1.00 20.00     0.114 C 
BRANCH   4   5
HETATM    5  C9  UNL     1     -41.422  15.256   8.590  1.00 20.00     0.058 C 
HETATM    6  C7  UNL     1     -42.427  14.173   8.992  1.00 20.00     0.021 C 
HETATM    7  C5  UNL     1     -42.599  14.057  10.506  1.00 20.00     0.001 C 
HETATM    8  C4  UNL     1     -41.261  13.887  11.216  1.00 20.00     0.000 C 
HETATM    9  C6  UNL     1     -40.295  15.013  10.865  1.00 20.00     0.001 C 
HETATM   10  C8  UNL     1     -40.100  15.140   9.353  1.00 20.00     0.021 C 
BRANCH   5  11
HETATM   11  C3  UNL     1     -42.032  16.635   8.832  1.00 20.00     0.182 C 
HETATM   12  O12 UNL     1     -43.292  16.686   8.777  1.00 20.00    -0.647 OA
HETATM   13  O13 UNL     1     -41.193  17.552   9.056  1.00 20.00    -0.647 OA
ENDBRANCH   5  11
ENDBRANCH   4   5
ENDBRANCH   2   4
TORSDOF 3
ENDMDL
MODEL 9
REMARK VINA RESULT:      -3.5     13.629     14.824
REMARK  3 active torsions:
REMARK  status: ('A' for Active; 'I' for Inactive)
REMARK    1  A    between atoms: C2_2  and  C11_11 
REMARK    2  A    between atoms: C3_3  and  C9_9 
REMARK    3  A    between atoms: C9_9  and  C11_11 
ROOT
HETATM    1  C1  UNL     1     -40.475  18.226   7.094  1.00 20.00    -0.111 C 
HETATM    2  C2  UNL     1     -40.933  17.374   7.805  1.00 20.00    -0.106 C 
HETATM    3  C10 UNL     1     -39.917  19.263   6.227  1.00 20.00     0.112 C 
ENDROOT
BRANCH   2   4
HETATM    4  C11 UNL     1     -41.505  16.343   8.672  1.00 20.00     0.114 C 
BRANCH   4   5
HETATM    5  C9  UNL     1     -41.634  15.015   7.926  1.00 20.00     0.058 C 
HETATM    6  C7  UNL     1     -42.650  15.121   6.786  1.00 20.00     0.021 C 
HETATM    7  C5  UNL     1     -42.721  13.852   5.936  1.00 20.00     0.001 C 
HETATM    8  C4  UNL     1     -41.344  13.428   5.438  1.00 20.00     0.000 C 
HETATM    9  C6  UNL     1     -40.362  13.254   6.590  1.00 20.00     0.001 C 
HETATM   10  C8  UNL     1     -40.267  14.517   7.448  1.00 20.00     0.021 C 
BRANCH   5  11
HETATM   11  C3  UNL     1     -42.170  14.076   9.005  1.00 20.00     0.182 C 
HETATM   12  O12 UNL     1     -43.417  13.884   8.982  1.00 20.00    -0.647 OA
HETATM   13  O13 UNL     1     -41.292  13.612   9.786  1.00 20.00    -0.647 OA
ENDBRANCH   5  11
ENDBRANCH   4   5
ENDBRANCH   2   4
TORSDOF 3
ENDMDL
