MODEL 1
REMARK VINA RESULT:      -4.3      0.000      0.000
REMARK  3 active torsions:
REMARK  status: ('A' for Active; 'I' for Inactive)
REMARK    1  A    between atoms: C2_2  and  C10_10 
REMARK    2  A    between atoms: C3_3  and  C8_8 
REMARK    3  A    between atoms: C8_8  and  C10_10 
ROOT
HETATM    1  C4  UNL     1     -34.776  15.776  -7.508  1.00 20.00     0.001 C 
HETATM    2  C5  UNL     1     -35.118  17.093  -6.834  1.00 20.00     0.001 C 
HETATM    3  C6  UNL     1     -34.028  15.019  -6.419  1.00 20.00     0.021 C 
HETATM    4  C7  UNL     1     -35.431  16.730  -5.381  1.00 20.00     0.021 C 
HETATM    5  C8  UNL     1     -34.816  15.337  -5.142  1.00 20.00     0.055 C 
ENDROOT
BRANCH   5   6
HETATM    6  C3  UNL     1     -35.913  14.318  -4.948  1.00 20.00     0.182 C 
HETATM    7  O11 UNL     1     -35.546  13.220  -4.446  1.00 20.00    -0.647 OA
HETATM    8  O12 UNL     1     -37.060  14.699  -5.313  1.00 20.00    -0.647 OA
ENDBRANCH   5   6
BRANCH   5   9
HETATM    9  C10 UNL     1     -33.933  15.293  -3.899  1.00 20.00     0.022 C 
HETATM   10  C9  UNL     1     -32.538  14.760  -4.242  1.00 20.00     0.015 C 
BRANCH   9  11
HETATM   11  C2  UNL     1     -33.821  16.664  -3.277  1.00 20.00    -0.031 C 
HETATM   12  C1  UNL     1     -33.378  16.890  -2.034  1.00 20.00     0.007 C 
ENDBRANCH   9  11
ENDBRANCH   5   9
TORSDOF 3
ENDMDL
MODEL 2
REMARK VINA RESULT:      -3.8     12.253     13.524
REMARK  3 active torsions:
REMARK  status: ('A' for Active; 'I' for Inactive)
REMARK    1  A    between atoms: C2_2  and  C10_10 
REMARK    2  A    between atoms: C3_3  and  C8_8 
REMARK    3  A    between atoms: C8_8  and  C10_10 
ROOT
HETATM    1  C4  UNL     1     -43.417  13.006   6.658  1.00 20.00     0.001 C 
HETATM    2  C5  UNL     1     -43.256  13.934   5.467  1.00 20.00     0.001 C 
HETATM    3  C6  UNL     1     -42.040  12.370   6.785  1.00 20.00     0.021 C 
HETATM    4  C7  UNL     1     -41.834  14.487   5.579  1.00 20.00     0.021 C 
HETATM    5  C8  UNL     1     -41.073  13.532   6.521  1.00 20.00     0.055 C 
ENDROOT
BRANCH   5   6
HETATM    6  C3  UNL     1     -40.750  14.237   7.816  1.00 20.00     0.182 C 
HETATM    7  O11 UNL     1     -41.079  13.616   8.864  1.00 20.00    -0.647 OA
HETATM    8  O12 UNL     1     -40.191  15.361   7.681  1.00 20.00    -0.647 OA
ENDBRANCH   5   6
BRANCH   5   9
HETATM    9  C10 UNL     1     -39.753  13.053   5.926  1.00 20.00     0.022 C 
HETATM   10  C9  UNL     1     -39.121  11.968   6.805  1.00 20.00     0.015 C 
BRANCH   9  11
HETATM   11  C2  UNL     1     -39.961  12.524   4.527  1.00 20.00    -0.031 C 
HETATM   12  C1  UNL     1     -39.152  11.640   3.931  1.00 20.00     0.007 C 
ENDBRANCH   9  11
ENDBRANCH   5   9
TORSDOF 3
ENDMDL
MODEL 3
REMARK VINA RESULT:      -3.8      1.875      2.897
REMARK  3 active torsions:
REMARK  status: ('A' for Active; 'I' for Inactive)
REMARK    1  A    between atoms: C2_2  and  C10_10 
REMARK    2  A    between atoms: C3_3  and  C8_8 
REMARK    3  A    between atoms: C8_8  and  C10_10 
ROOT
HETATM    1  C4  UNL     1     -36.739  14.671  -5.477  1.00 20.00     0.001 C 
HETATM    2  C5  UNL     1     -35.805  13.863  -4.594  1.00 20.00     0.001 C 
HETATM    3  C6  UNL     1     -36.237  16.096  -5.293  1.00 20.00     0.021 C 
HETATM    4  C7  UNL     1     -34.439  14.538  -4.733  1.00 20.00     0.021 C 
HETATM    5  C8  UNL     1     -34.710  15.951  -5.289  1.00 20.00     0.055 C 
ENDROOT
BRANCH   5   6
HETATM    6  C3  UNL     1     -34.178  16.059  -6.697  1.00 20.00     0.182 C 
HETATM    7  O11 UNL     1     -33.640  15.012  -7.152  1.00 20.00    -0.647 OA
HETATM    8  O12 UNL     1     -34.342  17.188  -7.239  1.00 20.00    -0.647 OA
ENDBRANCH   5   6
BRANCH   5   9
HETATM    9  C10 UNL     1     -34.034  17.043  -4.465  1.00 20.00     0.022 C 
HETATM   10  C9  UNL     1     -35.059  18.075  -3.984  1.00 20.00     0.015 C 
BRANCH   9  11
HETATM   11  C2  UNL     1     -33.312  16.446  -3.281  1.00 20.00    -0.031 C 
HETATM   12  C1  UNL     1     -33.431  16.894  -2.026  1.00 20.00     0.007 C 
ENDBRANCH   9  11
ENDBRANCH   5   9
TORSDOF 3
ENDMDL
MODEL 4
REMARK VINA RESULT:      -3.8     12.662     14.139
REMARK  3 active torsions:
REMARK  status: ('A' for Active; 'I' for Inactive)
REMARK    1  A    between atoms: C2_2  and  C10_10 
REMARK    2  A    between atoms: C3_3  and  C8_8 
REMARK    3  A    between atoms: C8_8  and  C10_10 
ROOT
HETATM    1  C4  UNL     1     -41.901  15.936   8.075  1.00 20.00     0.001 C 
HETATM    2  C5  UNL     1     -40.457  15.517   8.290  1.00 20.00     0.001 C 
HETATM    3  C6  UNL     1     -42.305  15.150   6.836  1.00 20.00     0.021 C 
HETATM    4  C7  UNL     1     -40.409  14.037   7.904  1.00 20.00     0.021 C 
HETATM    5  C8  UNL     1     -41.665  13.772   7.049  1.00 20.00     0.055 C 
ENDROOT
BRANCH   5   6
HETATM    6  C3  UNL     1     -42.616  12.873   7.800  1.00 20.00     0.182 C 
HETATM    7  O11 UNL     1     -42.491  12.885   9.056  1.00 20.00    -0.647 OA
HETATM    8  O12 UNL     1     -43.417  12.224   7.071  1.00 20.00    -0.647 OA
ENDBRANCH   5   6
BRANCH   5   9
HETATM    9  C10 UNL     1     -41.338  13.082   5.729  1.00 20.00     0.022 C 
HETATM   10  C9  UNL     1     -41.646  14.003   4.543  1.00 20.00     0.015 C 
BRANCH   9  11
HETATM   11  C2  UNL     1     -39.888  12.665   5.691  1.00 20.00    -0.031 C 
HETATM   12  C1  UNL     1     -39.377  11.804   4.802  1.00 20.00     0.007 C 
ENDBRANCH   9  11
ENDBRANCH   5   9
TORSDOF 3
ENDMDL
MODEL 5
REMARK VINA RESULT:      -3.7      2.071      3.647
REMARK  3 active torsions:
REMARK  status: ('A' for Active; 'I' for Inactive)
REMARK    1  A    between atoms: C2_2  and  C10_10 
REMARK    2  A    between atoms: C3_3  and  C8_8 
REMARK    3  A    between atoms: C8_8  and  C10_10 
ROOT
HETATM    1  C4  UNL     1     -32.892  15.545  -3.957  1.00 20.00     0.001 C 
HETATM    2  C5  UNL     1     -33.709  16.734  -3.481  1.00 20.00     0.001 C 
HETATM    3  C6  UNL     1     -33.922  14.690  -4.681  1.00 20.00     0.021 C 
HETATM    4  C7  UNL     1     -34.718  17.000  -4.600  1.00 20.00     0.021 C 
HETATM    5  C8  UNL     1     -34.776  15.711  -5.444  1.00 20.00     0.055 C 
ENDROOT
BRANCH   5   6
HETATM    6  C3  UNL     1     -34.182  15.962  -6.808  1.00 20.00     0.182 C 
HETATM    7  O11 UNL     1     -34.258  17.154  -7.218  1.00 20.00    -0.647 OA
HETATM    8  O12 UNL     1     -33.685  14.944  -7.365  1.00 20.00    -0.647 OA
ENDBRANCH   5   6
BRANCH   5   9
HETATM    9  C10 UNL     1     -36.204  15.216  -5.657  1.00 20.00     0.022 C 
HETATM   10  C9  UNL     1     -36.500  14.009  -4.761  1.00 20.00     0.015 C 
BRANCH   9  11
HETATM   11  C2  UNL     1     -37.196  16.319  -5.377  1.00 20.00    -0.031 C 
HETATM   12  C1  UNL     1     -38.458  16.111  -4.983  1.00 20.00     0.007 C 
ENDBRANCH   9  11
ENDBRANCH   5   9
TORSDOF 3
ENDMDL
MODEL 6
REMARK VINA RESULT:      -3.6     12.456     13.796
REMARK  3 active torsions:
REMARK  status: ('A' for Active; 'I' for Inactive)
REMARK    1  A    between atoms: C2_2  and  C10_10 
REMARK    2  A    between atoms: C3_3  and  C8_8 
REMARK    3  A    between atoms: C8_8  and  C10_10 
ROOT
HETATM    1  C4  UNL     1     -39.845  12.198   6.074  1.00 20.00     0.001 C 
HETATM    2  C5  UNL     1     -40.390  12.835   4.807  1.00 20.00     0.001 C 
HETATM    3  C6  UNL     1     -40.130  13.251   7.136  1.00 20.00     0.021 C 
HETATM    4  C7  UNL     1     -41.645  13.592   5.248  1.00 20.00     0.021 C 
HETATM    5  C8  UNL     1     -41.529  13.768   6.775  1.00 20.00     0.055 C 
ENDROOT
BRANCH   5   6
HETATM    6  C3  UNL     1     -42.580  12.936   7.469  1.00 20.00     0.182 C 
HETATM    7  O11 UNL     1     -42.487  12.892   8.727  1.00 20.00    -0.647 OA
HETATM    8  O12 UNL     1     -43.417  12.391   6.698  1.00 20.00    -0.647 OA
ENDBRANCH   5   6
BRANCH   5   9
HETATM    9  C10 UNL     1     -41.734  15.214   7.214  1.00 20.00     0.022 C 
HETATM   10  C9  UNL     1     -40.418  15.826   7.707  1.00 20.00     0.015 C 
BRANCH   9  11
HETATM   11  C2  UNL     1     -42.291  16.040   6.079  1.00 20.00    -0.031 C 
HETATM   12  C1  UNL     1     -42.171  17.370   5.990  1.00 20.00     0.007 C 
ENDBRANCH   9  11
ENDBRANCH   5   9
TORSDOF 3
ENDMDL
MODEL 7
REMARK VINA RESULT:      -3.5      2.009      3.444
REMARK  3 active torsions:
REMARK  status: ('A' for Active; 'I' for Inactive)
REMARK    1  A    between atoms: C2_2  and  C10_10 
REMARK    2  A    between atoms: C3_3  and  C8_8 
REMARK    3  A    between atoms: C8_8  and  C10_10 
ROOT
HETATM    1  C4  UNL     1     -35.542  13.690  -4.605  1.00 20.00     0.001 C 
HETATM    2  C5  UNL     1     -34.270  14.389  -4.157  1.00 20.00     0.001 C 
HETATM    3  C6  UNL     1     -36.360  14.822  -5.209  1.00 20.00     0.021 C 
HETATM    4  C7  UNL     1     -33.997  15.448  -5.227  1.00 20.00     0.021 C 
HETATM    5  C8  UNL     1     -35.326  15.652  -5.982  1.00 20.00     0.055 C 
ENDROOT
BRANCH   5   6
HETATM    6  C3  UNL     1     -35.200  15.133  -7.393  1.00 20.00     0.182 C 
HETATM    7  O11 UNL     1     -34.031  15.140  -7.867  1.00 20.00    -0.647 OA
HETATM    8  O12 UNL     1     -36.286  14.757  -7.918  1.00 20.00    -0.647 OA
ENDBRANCH   5   6
BRANCH   5   9
HETATM    9  C10 UNL     1     -35.726  17.121  -6.075  1.00 20.00     0.022 C 
HETATM   10  C9  UNL     1     -37.016  17.385  -5.290  1.00 20.00     0.015 C 
BRANCH   9  11
HETATM   11  C2  UNL     1     -34.619  18.008  -5.557  1.00 20.00    -0.031 C 
HETATM   12  C1  UNL     1     -34.100  19.036  -6.238  1.00 20.00     0.007 C 
ENDBRANCH   9  11
ENDBRANCH   5   9
TORSDOF 3
ENDMDL
MODEL 8
REMARK VINA RESULT:      -3.5      1.864      2.658
REMARK  3 active torsions:
REMARK  status: ('A' for Active; 'I' for Inactive)
REMARK    1  A    between atoms: C2_2  and  C10_10 
REMARK    2  A    between atoms: C3_3  and  C8_8 
REMARK    3  A    between atoms: C8_8  and  C10_10 
ROOT
HETATM    1  C4  UNL     1     -37.388  17.368  -7.474  1.00 20.00     0.001 C 
HETATM    2  C5  UNL     1     -37.856  17.054  -6.064  1.00 20.00     0.001 C 
HETATM    3  C6  UNL     1     -35.885  17.542  -7.306  1.00 20.00     0.021 C 
HETATM    4  C7  UNL     1     -36.745  16.195  -5.456  1.00 20.00     0.021 C 
HETATM    5  C8  UNL     1     -35.494  16.428  -6.326  1.00 20.00     0.055 C 
ENDROOT
BRANCH   5   6
HETATM    6  C3  UNL     1     -35.156  15.169  -7.087  1.00 20.00     0.182 C 
HETATM    7  O11 UNL     1     -34.078  15.208  -7.742  1.00 20.00    -0.647 OA
HETATM    8  O12 UNL     1     -35.999  14.236  -6.969  1.00 20.00    -0.647 OA
ENDBRANCH   5   6
BRANCH   5   9
HETATM    9  C10 UNL     1     -34.267  16.799  -5.499  1.00 20.00     0.022 C 
HETATM   10  C9  UNL     1     -34.355  18.250  -5.016  1.00 20.00     0.015 C 
BRANCH   9  11
HETATM   11  C2  UNL     1     -34.123  15.872  -4.316  1.00 20.00    -0.031 C 
HETATM   12  C1  UNL     1     -33.431  16.169  -3.210  1.00 20.00     0.007 C 
ENDBRANCH   9  11
ENDBRANCH   5   9
TORSDOF 3
ENDMDL
MODEL 9
REMARK VINA RESULT:      -3.4     13.103     14.565
REMARK  3 active torsions:
REMARK  status: ('A' for Active; 'I' for Inactive)
REMARK    1  A    between atoms: C2_2  and  C10_10 
REMARK    2  A    between atoms: C3_3  and  C8_8 
REMARK    3  A    between atoms: C8_8  and  C10_10 
ROOT
HETATM    1  C4  UNL     1     -43.417  15.976   8.258  1.00 20.00     0.001 C 
HETATM    2  C5  UNL     1     -43.301  16.176   6.757  1.00 20.00     0.001 C 
HETATM    3  C6  UNL     1     -42.986  14.528   8.445  1.00 20.00     0.021 C 
HETATM    4  C7  UNL     1     -42.070  15.369   6.340  1.00 20.00     0.021 C 
HETATM    5  C8  UNL     1     -41.800  14.371   7.484  1.00 20.00     0.055 C 
ENDROOT
BRANCH   5   6
HETATM    6  C3  UNL     1     -40.515  14.733   8.188  1.00 20.00     0.182 C 
HETATM    7  O11 UNL     1     -40.004  15.835   7.843  1.00 20.00    -0.647 OA
HETATM    8  O12 UNL     1     -40.117  13.885   9.034  1.00 20.00    -0.647 OA
ENDBRANCH   5   6
BRANCH   5   9
HETATM    9  C10 UNL     1     -41.653  12.936   6.986  1.00 20.00     0.022 C 
HETATM   10  C9  UNL     1     -43.010  12.224   6.973  1.00 20.00     0.015 C 
BRANCH   9  11
HETATM   11  C2  UNL     1     -41.047  12.913   5.603  1.00 20.00    -0.031 C 
HETATM   12  C1  UNL     1     -39.929  12.249   5.286  1.00 20.00     0.007 C 
ENDBRANCH   9  11
ENDBRANCH   5   9
TORSDOF 3
ENDMDL
