MODEL 1
REMARK VINA RESULT:      -5.6      0.000      0.000
REMARK  3 active torsions:
REMARK  status: ('A' for Active; 'I' for Inactive)
REMARK    1  A    between atoms: C8_8  and  C10_10 
REMARK    2  A    between atoms: C9_9  and  C11_11 
REMARK    3  A    between atoms: C10_10  and  C11_11 
ROOT
HETATM    1  C1  UNL     1     -33.666   5.949   3.936  1.00 20.00     0.131 C 
HETATM    2  C2  UNL     1     -34.797   5.174   4.576  1.00 20.00     0.079 C 
HETATM    3  C3  UNL     1     -34.668   5.195   6.092  1.00 20.00     0.007 C 
HETATM    4  C4  UNL     1     -34.529   6.618   6.627  1.00 20.00     0.001 C 
HETATM    5  C5  UNL     1     -33.335   7.327   5.992  1.00 20.00     0.012 C 
HETATM    6  C8  UNL     1     -33.440   7.363   4.465  1.00 20.00     0.055 C 
HETATM    7  O12 UNL     1     -33.037   5.484   2.985  1.00 20.00    -0.298 OA
ENDROOT
BRANCH   6   8
HETATM    8  C10 UNL     1     -32.198   8.003   3.852  1.00 20.00     0.012 C 
BRANCH   8   9
HETATM    9  C11 UNL     1     -32.564   9.201   2.980  1.00 20.00     0.005 C 
BRANCH   9  10
HETATM   10  C9  UNL     1     -32.985   8.761   1.587  1.00 20.00    -0.014 A 
HETATM   11  C6  UNL     1     -32.659   9.615   0.392  1.00 20.00     0.005 A 
HETATM   12  C7  UNL     1     -31.952   8.303   0.594  1.00 20.00     0.005 A 
ENDBRANCH   9  10
ENDBRANCH   8   9
ENDBRANCH   6   8
TORSDOF 3
ENDMDL
MODEL 2
REMARK VINA RESULT:      -5.4      1.432      2.142
REMARK  3 active torsions:
REMARK  status: ('A' for Active; 'I' for Inactive)
REMARK    1  A    between atoms: C8_8  and  C10_10 
REMARK    2  A    between atoms: C9_9  and  C11_11 
REMARK    3  A    between atoms: C10_10  and  C11_11 
ROOT
HETATM    1  C1  UNL     1     -33.714   7.446   5.444  1.00 20.00     0.131 C 
HETATM    2  C2  UNL     1     -34.333   6.423   6.372  1.00 20.00     0.079 C 
HETATM    3  C3  UNL     1     -35.061   5.350   5.575  1.00 20.00     0.007 C 
HETATM    4  C4  UNL     1     -34.163   4.734   4.506  1.00 20.00     0.001 C 
HETATM    5  C5  UNL     1     -33.619   5.806   3.563  1.00 20.00     0.012 C 
HETATM    6  C8  UNL     1     -32.845   6.890   4.319  1.00 20.00     0.055 C 
HETATM    7  O12 UNL     1     -33.841   8.652   5.656  1.00 20.00    -0.298 OA
ENDROOT
BRANCH   6   8
HETATM    8  C10 UNL     1     -32.384   7.988   3.367  1.00 20.00     0.012 C 
BRANCH   8   9
HETATM    9  C11 UNL     1     -32.221   7.459   1.945  1.00 20.00     0.005 C 
BRANCH   9  10
HETATM   10  C9  UNL     1     -32.013   8.592   0.954  1.00 20.00    -0.014 A 
HETATM   11  C6  UNL     1     -32.999   8.817  -0.159  1.00 20.00     0.005 A 
HETATM   12  C7  UNL     1     -32.915   9.795   0.980  1.00 20.00     0.005 A 
ENDBRANCH   9  10
ENDBRANCH   8   9
ENDBRANCH   6   8
TORSDOF 3
ENDMDL
MODEL 3
REMARK VINA RESULT:      -4.6     10.217     11.105
REMARK  3 active torsions:
REMARK  status: ('A' for Active; 'I' for Inactive)
REMARK    1  A    between atoms: C8_8  and  C10_10 
REMARK    2  A    between atoms: C9_9  and  C11_11 
REMARK    3  A    between atoms: C10_10  and  C11_11 
ROOT
HETATM    1  C1  UNL     1     -40.718  14.511   8.302  1.00 20.00     0.131 C 
HETATM    2  C2  UNL     1     -40.638  15.897   8.905  1.00 20.00     0.079 C 
HETATM    3  C3  UNL     1     -40.673  16.958   7.815  1.00 20.00     0.007 C 
HETATM    4  C4  UNL     1     -41.867  16.770   6.882  1.00 20.00     0.001 C 
HETATM    5  C5  UNL     1     -41.859  15.377   6.256  1.00 20.00     0.012 C 
HETATM    6  C8  UNL     1     -41.861  14.275   7.318  1.00 20.00     0.055 C 
HETATM    7  O12 UNL     1     -39.953  13.618   8.664  1.00 20.00    -0.298 OA
ENDROOT
BRANCH   6   8
HETATM    8  C10 UNL     1     -41.771  12.897   6.669  1.00 20.00     0.012 C 
BRANCH   8   9
HETATM    9  C11 UNL     1     -40.944  12.941   5.387  1.00 20.00     0.005 C 
BRANCH   9  10
HETATM   10  C9  UNL     1     -39.937  11.804   5.340  1.00 20.00    -0.014 A 
HETATM   11  C6  UNL     1     -39.002  11.667   4.170  1.00 20.00     0.005 A 
HETATM   12  C7  UNL     1     -38.470  12.084   5.513  1.00 20.00     0.005 A 
ENDBRANCH   9  10
ENDBRANCH   8   9
ENDBRANCH   6   8
TORSDOF 3
ENDMDL
MODEL 4
REMARK VINA RESULT:      -4.5     10.071     10.988
REMARK  3 active torsions:
REMARK  status: ('A' for Active; 'I' for Inactive)
REMARK    1  A    between atoms: C8_8  and  C10_10 
REMARK    2  A    between atoms: C9_9  and  C11_11 
REMARK    3  A    between atoms: C10_10  and  C11_11 
ROOT
HETATM    1  C1  UNL     1     -42.414  13.539   9.010  1.00 20.00     0.131 C 
HETATM    2  C2  UNL     1     -42.290  14.530  10.146  1.00 20.00     0.079 C 
HETATM    3  C3  UNL     1     -40.853  15.012  10.282  1.00 20.00     0.007 C 
HETATM    4  C4  UNL     1     -40.306  15.535   8.957  1.00 20.00     0.001 C 
HETATM    5  C5  UNL     1     -40.399  14.471   7.866  1.00 20.00     0.012 C 
HETATM    6  C8  UNL     1     -41.836  13.983   7.668  1.00 20.00     0.055 C 
HETATM    7  O12 UNL     1     -43.027  12.481   9.155  1.00 20.00    -0.298 OA
ENDROOT
BRANCH   6   8
HETATM    8  C10 UNL     1     -41.890  12.864   6.632  1.00 20.00     0.012 C 
BRANCH   8   9
HETATM    9  C11 UNL     1     -40.852  13.074   5.535  1.00 20.00     0.005 C 
BRANCH   9  10
HETATM   10  C9  UNL     1     -39.936  11.868   5.403  1.00 20.00    -0.014 A 
HETATM   11  C6  UNL     1     -39.108  11.676   4.162  1.00 20.00     0.005 A 
HETATM   12  C7  UNL     1     -38.443  12.041   5.461  1.00 20.00     0.005 A 
ENDBRANCH   9  10
ENDBRANCH   8   9
ENDBRANCH   6   8
TORSDOF 3
ENDMDL
MODEL 5
REMARK VINA RESULT:      -4.5     11.435     12.092
REMARK  3 active torsions:
REMARK  status: ('A' for Active; 'I' for Inactive)
REMARK    1  A    between atoms: C8_8  and  C10_10 
REMARK    2  A    between atoms: C9_9  and  C11_11 
REMARK    3  A    between atoms: C10_10  and  C11_11 
ROOT
HETATM    1  C1  UNL     1     -33.658  18.814   0.888  1.00 20.00     0.131 C 
HETATM    2  C2  UNL     1     -32.796  19.263   2.048  1.00 20.00     0.079 C 
HETATM    3  C3  UNL     1     -31.408  18.645   1.954  1.00 20.00     0.007 C 
HETATM    4  C4  UNL     1     -30.770  18.898   0.591  1.00 20.00     0.001 C 
HETATM    5  C5  UNL     1     -31.655  18.369  -0.535  1.00 20.00     0.012 C 
HETATM    6  C8  UNL     1     -33.053  18.991  -0.502  1.00 20.00     0.055 C 
HETATM    7  O12 UNL     1     -34.809  18.417   1.070  1.00 20.00    -0.298 OA
ENDROOT
BRANCH   6   8
HETATM    8  C10 UNL     1     -33.941  18.387  -1.585  1.00 20.00     0.012 C 
BRANCH   8   9
HETATM    9  C11 UNL     1     -33.524  16.955  -1.909  1.00 20.00     0.005 C 
BRANCH   9  10
HETATM   10  C9  UNL     1     -33.236  16.786  -3.392  1.00 20.00    -0.014 A 
HETATM   11  C6  UNL     1     -33.049  15.413  -3.977  1.00 20.00     0.005 A 
HETATM   12  C7  UNL     1     -34.283  16.209  -4.305  1.00 20.00     0.005 A 
ENDBRANCH   9  10
ENDBRANCH   8   9
ENDBRANCH   6   8
TORSDOF 3
ENDMDL
MODEL 6
REMARK VINA RESULT:      -4.4     11.165     12.641
REMARK  3 active torsions:
REMARK  status: ('A' for Active; 'I' for Inactive)
REMARK    1  A    between atoms: C8_8  and  C10_10 
REMARK    2  A    between atoms: C9_9  and  C11_11 
REMARK    3  A    between atoms: C10_10  and  C11_11 
ROOT
HETATM    1  C1  UNL     1     -34.002  15.028  -4.684  1.00 20.00     0.131 C 
HETATM    2  C2  UNL     1     -34.227  15.048  -6.180  1.00 20.00     0.079 C 
HETATM    3  C3  UNL     1     -35.143  16.200  -6.569  1.00 20.00     0.007 C 
HETATM    4  C4  UNL     1     -34.642  17.530  -6.013  1.00 20.00     0.001 C 
HETATM    5  C5  UNL     1     -34.495  17.469  -4.494  1.00 20.00     0.012 C 
HETATM    6  C8  UNL     1     -33.551  16.345  -4.058  1.00 20.00     0.055 C 
HETATM    7  O12 UNL     1     -34.095  13.982  -4.043  1.00 20.00    -0.298 OA
ENDROOT
BRANCH   6   8
HETATM    8  C10 UNL     1     -33.485  16.253  -2.537  1.00 20.00     0.012 C 
BRANCH   8   9
HETATM    9  C11 UNL     1     -33.030  17.572  -1.920  1.00 20.00     0.005 C 
BRANCH   9  10
HETATM   10  C9  UNL     1     -33.735  17.838  -0.600  1.00 20.00    -0.014 A 
HETATM   11  C6  UNL     1     -33.000  18.501   0.532  1.00 20.00     0.005 A 
HETATM   12  C7  UNL     1     -34.084  19.244  -0.199  1.00 20.00     0.005 A 
ENDBRANCH   9  10
ENDBRANCH   8   9
ENDBRANCH   6   8
TORSDOF 3
ENDMDL
MODEL 7
REMARK VINA RESULT:      -4.3     11.624     12.667
REMARK  3 active torsions:
REMARK  status: ('A' for Active; 'I' for Inactive)
REMARK    1  A    between atoms: C8_8  and  C10_10 
REMARK    2  A    between atoms: C9_9  and  C11_11 
REMARK    3  A    between atoms: C10_10  and  C11_11 
ROOT
HETATM    1  C1  UNL     1     -34.413  17.372  -4.517  1.00 20.00     0.131 C 
HETATM    2  C2  UNL     1     -35.226  16.548  -5.491  1.00 20.00     0.079 C 
HETATM    3  C3  UNL     1     -34.435  15.334  -5.956  1.00 20.00     0.007 C 
HETATM    4  C4  UNL     1     -33.899  14.526  -4.777  1.00 20.00     0.001 C 
HETATM    5  C5  UNL     1     -33.036  15.394  -3.864  1.00 20.00     0.012 C 
HETATM    6  C8  UNL     1     -33.804  16.611  -3.342  1.00 20.00     0.055 C 
HETATM    7  O12 UNL     1     -34.336  18.595  -4.632  1.00 20.00    -0.298 OA
ENDROOT
BRANCH   6   8
HETATM    8  C10 UNL     1     -32.898  17.504  -2.500  1.00 20.00     0.012 C 
BRANCH   8   9
HETATM    9  C11 UNL     1     -33.439  17.665  -1.083  1.00 20.00     0.005 C 
BRANCH   9  10
HETATM   10  C9  UNL     1     -32.692  18.751  -0.327  1.00 20.00    -0.014 A 
HETATM   11  C6  UNL     1     -32.195  18.499   1.070  1.00 20.00     0.005 A 
HETATM   12  C7  UNL     1     -31.217  18.614  -0.066  1.00 20.00     0.005 A 
ENDBRANCH   9  10
ENDBRANCH   8   9
ENDBRANCH   6   8
TORSDOF 3
ENDMDL
MODEL 8
REMARK VINA RESULT:      -4.2     10.422     11.248
REMARK  3 active torsions:
REMARK  status: ('A' for Active; 'I' for Inactive)
REMARK    1  A    between atoms: C8_8  and  C10_10 
REMARK    2  A    between atoms: C9_9  and  C11_11 
REMARK    3  A    between atoms: C10_10  and  C11_11 
ROOT
HETATM    1  C1  UNL     1     -41.563  15.884   7.109  1.00 20.00     0.131 C 
HETATM    2  C2  UNL     1     -41.039  17.039   7.934  1.00 20.00     0.079 C 
HETATM    3  C3  UNL     1     -40.927  16.642   9.400  1.00 20.00     0.007 C 
HETATM    4  C4  UNL     1     -40.124  15.356   9.576  1.00 20.00     0.001 C 
HETATM    5  C5  UNL     1     -40.737  14.213   8.770  1.00 20.00     0.012 C 
HETATM    6  C8  UNL     1     -40.835  14.554   7.280  1.00 20.00     0.055 C 
HETATM    7  O12 UNL     1     -42.464  16.051   6.287  1.00 20.00    -0.298 OA
ENDROOT
BRANCH   6   8
HETATM    8  C10 UNL     1     -41.523  13.431   6.511  1.00 20.00     0.012 C 
BRANCH   8   9
HETATM    9  C11 UNL     1     -40.827  13.162   5.180  1.00 20.00     0.005 C 
BRANCH   9  10
HETATM   10  C9  UNL     1     -39.948  11.925   5.257  1.00 20.00    -0.014 A 
HETATM   11  C6  UNL     1     -38.984  11.610   4.147  1.00 20.00     0.005 A 
HETATM   12  C7  UNL     1     -38.468  12.062   5.485  1.00 20.00     0.005 A 
ENDBRANCH   9  10
ENDBRANCH   8   9
ENDBRANCH   6   8
TORSDOF 3
ENDMDL
MODEL 9
REMARK VINA RESULT:      -4.1     13.320     14.798
REMARK  3 active torsions:
REMARK  status: ('A' for Active; 'I' for Inactive)
REMARK    1  A    between atoms: C8_8  and  C10_10 
REMARK    2  A    between atoms: C9_9  and  C11_11 
REMARK    3  A    between atoms: C10_10  and  C11_11 
ROOT
HETATM    1  C1  UNL     1     -25.336  -1.308  11.787  1.00 20.00     0.131 C 
HETATM    2  C2  UNL     1     -26.523  -0.370  11.826  1.00 20.00     0.079 C 
HETATM    3  C3  UNL     1     -27.380  -0.541  10.579  1.00 20.00     0.007 C 
HETATM    4  C4  UNL     1     -27.766  -2.001  10.356  1.00 20.00     0.001 C 
HETATM    5  C5  UNL     1     -26.527  -2.888  10.263  1.00 20.00     0.012 C 
HETATM    6  C8  UNL     1     -25.651  -2.777  11.514  1.00 20.00     0.055 C 
HETATM    7  O12 UNL     1     -24.203  -0.907  12.053  1.00 20.00    -0.298 OA
ENDROOT
BRANCH   6   8
HETATM    8  C10 UNL     1     -24.381  -3.608  11.362  1.00 20.00     0.012 C 
BRANCH   8   9
HETATM    9  C11 UNL     1     -24.220  -4.118   9.934  1.00 20.00     0.005 C 
BRANCH   9  10
HETATM   10  C9  UNL     1     -23.063  -3.429   9.229  1.00 20.00    -0.014 A 
HETATM   11  C6  UNL     1     -22.265  -4.163   8.186  1.00 20.00     0.005 A 
HETATM   12  C7  UNL     1     -23.182  -3.042   7.781  1.00 20.00     0.005 A 
ENDBRANCH   9  10
ENDBRANCH   8   9
ENDBRANCH   6   8
TORSDOF 3
ENDMDL
