MODEL 1
REMARK VINA RESULT:      -4.1      0.000      0.000
REMARK  4 active torsions:
REMARK  status: ('A' for Active; 'I' for Inactive)
REMARK    1  A    between atoms: C4_4  and  C5_5 
REMARK    2  A    between atoms: C5_5  and  C6_6 
REMARK    3  A    between atoms: C6_6  and  C7_7 
REMARK    4  A    between atoms: C7_7  and  O9_9 
ROOT
HETATM    1  C1  UNL     1     -33.286   5.570   3.180  1.00 20.00     0.066 C 
HETATM    2  C6  UNL     1     -33.940   6.431   4.190  1.00 20.00     0.121 C 
HETATM    3  N8  UNL     1     -32.775   4.894   2.387  1.00 20.00    -0.197 NA
ENDROOT
BRANCH   2   4
HETATM    4  C5  UNL     1     -33.045   7.644   4.519  1.00 20.00     0.021 C 
BRANCH   4   5
HETATM    5  C4  UNL     1     -32.084   8.001   3.378  1.00 20.00    -0.003 C 
HETATM    6  C2  UNL     1     -32.679   9.061   2.464  1.00 20.00     0.005 C 
ENDBRANCH   4   5
ENDBRANCH   2   4
BRANCH   2   7
HETATM    7  C7  UNL     1     -34.274   5.637   5.473  1.00 20.00     0.131 C 
HETATM    8  C3  UNL     1     -34.556   6.523   6.682  1.00 20.00     0.040 C 
BRANCH   7   9
HETATM    9  O9  UNL     1     -35.395   4.786   5.240  1.00 20.00    -0.395 OA
HETATM   10  H22 UNL     1     -35.958   5.244   4.597  1.00 20.00     0.210 HD
ENDBRANCH   7   9
ENDBRANCH   2   7
TORSDOF 4
ENDMDL
MODEL 2
REMARK VINA RESULT:      -4.1      1.990      3.537
REMARK  4 active torsions:
REMARK  status: ('A' for Active; 'I' for Inactive)
REMARK    1  A    between atoms: C4_4  and  C5_5 
REMARK    2  A    between atoms: C5_5  and  C6_6 
REMARK    3  A    between atoms: C6_6  and  C7_7 
REMARK    4  A    between atoms: C7_7  and  O9_9 
ROOT
HETATM    1  C1  UNL     1     -33.033   5.601   3.030  1.00 20.00     0.066 C 
HETATM    2  C6  UNL     1     -33.336   6.574   4.102  1.00 20.00     0.121 C 
HETATM    3  N8  UNL     1     -32.794   4.837   2.190  1.00 20.00    -0.197 NA
ENDROOT
BRANCH   2   4
HETATM    4  C5  UNL     1     -34.829   6.501   4.485  1.00 20.00     0.021 C 
BRANCH   4   5
HETATM    5  C4  UNL     1     -35.150   5.316   5.404  1.00 20.00    -0.003 C 
HETATM    6  C2  UNL     1     -34.243   5.299   6.624  1.00 20.00     0.005 C 
ENDBRANCH   4   5
ENDBRANCH   2   4
BRANCH   2   7
HETATM    7  C7  UNL     1     -32.952   8.011   3.681  1.00 20.00     0.131 C 
HETATM    8  C3  UNL     1     -32.263   8.807   4.785  1.00 20.00     0.040 C 
BRANCH   7   9
HETATM    9  O9  UNL     1     -32.109   7.971   2.531  1.00 20.00    -0.395 OA
HETATM   10  H22 UNL     1     -32.124   8.862   2.148  1.00 20.00     0.210 HD
ENDBRANCH   7   9
ENDBRANCH   2   7
TORSDOF 4
ENDMDL
MODEL 3
REMARK VINA RESULT:      -4.1     12.216     13.253
REMARK  4 active torsions:
REMARK  status: ('A' for Active; 'I' for Inactive)
REMARK    1  A    between atoms: C4_4  and  C5_5 
REMARK    2  A    between atoms: C5_5  and  C6_6 
REMARK    3  A    between atoms: C6_6  and  C7_7 
REMARK    4  A    between atoms: C7_7  and  O9_9 
ROOT
HETATM    1  C1  UNL     1     -35.270  13.968  -4.838  1.00 20.00     0.066 C 
HETATM    2  C6  UNL     1     -34.449  15.005  -5.500  1.00 20.00     0.121 C 
HETATM    3  N8  UNL     1     -35.912  13.153  -4.318  1.00 20.00    -0.197 NA
ENDROOT
BRANCH   2   4
HETATM    4  C5  UNL     1     -34.251  16.212  -4.559  1.00 20.00     0.021 C 
BRANCH   4   5
HETATM    5  C4  UNL     1     -33.251  15.929  -3.432  1.00 20.00    -0.003 C 
HETATM    6  C2  UNL     1     -33.437  16.894  -2.272  1.00 20.00     0.005 C 
ENDBRANCH   4   5
ENDBRANCH   2   4
BRANCH   2   7
HETATM    7  C7  UNL     1     -35.084  15.455  -6.836  1.00 20.00     0.131 C 
HETATM    8  C3  UNL     1     -34.060  15.783  -7.918  1.00 20.00     0.040 C 
BRANCH   7   9
HETATM    9  O9  UNL     1     -35.972  14.446  -7.316  1.00 20.00    -0.395 OA
HETATM   10  H22 UNL     1     -35.490  13.606  -7.256  1.00 20.00     0.210 HD
ENDBRANCH   7   9
ENDBRANCH   2   7
TORSDOF 4
ENDMDL
MODEL 4
REMARK VINA RESULT:      -4.0      2.795      4.151
REMARK  4 active torsions:
REMARK  status: ('A' for Active; 'I' for Inactive)
REMARK    1  A    between atoms: C4_4  and  C5_5 
REMARK    2  A    between atoms: C5_5  and  C6_6 
REMARK    3  A    between atoms: C6_6  and  C7_7 
REMARK    4  A    between atoms: C7_7  and  O9_9 
ROOT
HETATM    1  C1  UNL     1     -32.527   8.703   4.812  1.00 20.00     0.066 C 
HETATM    2  C6  UNL     1     -33.295   7.861   3.869  1.00 20.00     0.121 C 
HETATM    3  N8  UNL     1     -31.924   9.366   5.550  1.00 20.00    -0.197 NA
ENDROOT
BRANCH   2   4
HETATM    4  C5  UNL     1     -34.336   7.016   4.633  1.00 20.00     0.021 C 
BRANCH   4   5
HETATM    5  C4  UNL     1     -33.936   6.755   6.091  1.00 20.00    -0.003 C 
HETATM    6  C2  UNL     1     -34.392   5.380   6.553  1.00 20.00     0.005 C 
ENDBRANCH   4   5
ENDBRANCH   2   4
BRANCH   2   7
HETATM    7  C7  UNL     1     -32.361   6.953   3.038  1.00 20.00     0.131 C 
HETATM    8  C3  UNL     1     -32.942   5.570   2.762  1.00 20.00     0.040 C 
BRANCH   7   9
HETATM    9  O9  UNL     1     -32.043   7.587   1.799  1.00 20.00    -0.395 OA
HETATM   10  H22 UNL     1     -31.651   8.445   2.024  1.00 20.00     0.210 HD
ENDBRANCH   7   9
ENDBRANCH   2   7
TORSDOF 4
ENDMDL
MODEL 5
REMARK VINA RESULT:      -4.0      9.647     10.224
REMARK  4 active torsions:
REMARK  status: ('A' for Active; 'I' for Inactive)
REMARK    1  A    between atoms: C4_4  and  C5_5 
REMARK    2  A    between atoms: C5_5  and  C6_6 
REMARK    3  A    between atoms: C6_6  and  C7_7 
REMARK    4  A    between atoms: C7_7  and  O9_9 
ROOT
HETATM    1  C1  UNL     1     -42.259  12.460   6.775  1.00 20.00     0.066 C 
HETATM    2  C6  UNL     1     -40.996  12.914   6.154  1.00 20.00     0.121 C 
HETATM    3  N8  UNL     1     -43.251  12.105   7.261  1.00 20.00    -0.197 NA
ENDROOT
BRANCH   2   4
HETATM    4  C5  UNL     1     -40.007  11.736   6.030  1.00 20.00     0.021 C 
BRANCH   4   5
HETATM    5  C4  UNL     1     -38.765  12.087   5.201  1.00 20.00    -0.003 C 
HETATM    6  C2  UNL     1     -38.930  11.663   3.750  1.00 20.00     0.005 C 
ENDBRANCH   4   5
ENDBRANCH   2   4
BRANCH   2   7
HETATM    7  C7  UNL     1     -40.361  14.075   6.953  1.00 20.00     0.131 C 
HETATM    8  C3  UNL     1     -41.312  15.245   7.188  1.00 20.00     0.040 C 
BRANCH   7   9
HETATM    9  O9  UNL     1     -39.884  13.595   8.210  1.00 20.00    -0.395 OA
HETATM   10  H22 UNL     1     -40.100  12.650   8.242  1.00 20.00     0.210 HD
ENDBRANCH   7   9
ENDBRANCH   2   7
TORSDOF 4
ENDMDL
MODEL 6
REMARK VINA RESULT:      -3.9      9.833     10.348
REMARK  4 active torsions:
REMARK  status: ('A' for Active; 'I' for Inactive)
REMARK    1  A    between atoms: C4_4  and  C5_5 
REMARK    2  A    between atoms: C5_5  and  C6_6 
REMARK    3  A    between atoms: C6_6  and  C7_7 
REMARK    4  A    between atoms: C7_7  and  O9_9 
ROOT
HETATM    1  C1  UNL     1     -41.595  13.905   4.838  1.00 20.00     0.066 C 
HETATM    2  C6  UNL     1     -41.050  13.427   6.126  1.00 20.00     0.121 C 
HETATM    3  N8  UNL     1     -42.023  14.282   3.827  1.00 20.00    -0.197 NA
ENDROOT
BRANCH   2   4
HETATM    4  C5  UNL     1     -40.399  12.038   5.950  1.00 20.00     0.021 C 
BRANCH   4   5
HETATM    5  C4  UNL     1     -38.969  12.117   5.403  1.00 20.00    -0.003 C 
HETATM    6  C2  UNL     1     -38.897  11.622   3.967  1.00 20.00     0.005 C 
ENDBRANCH   4   5
ENDBRANCH   2   4
BRANCH   2   7
HETATM    7  C7  UNL     1     -42.144  13.380   7.217  1.00 20.00     0.131 C 
HETATM    8  C3  UNL     1     -43.033  12.143   7.136  1.00 20.00     0.040 C 
BRANCH   7   9
HETATM    9  O9  UNL     1     -41.543  13.446   8.510  1.00 20.00    -0.395 OA
HETATM   10  H22 UNL     1     -42.253  13.672   9.131  1.00 20.00     0.210 HD
ENDBRANCH   7   9
ENDBRANCH   2   7
TORSDOF 4
ENDMDL
MODEL 7
REMARK VINA RESULT:      -3.9      1.373      1.437
REMARK  4 active torsions:
REMARK  status: ('A' for Active; 'I' for Inactive)
REMARK    1  A    between atoms: C4_4  and  C5_5 
REMARK    2  A    between atoms: C5_5  and  C6_6 
REMARK    3  A    between atoms: C6_6  and  C7_7 
REMARK    4  A    between atoms: C7_7  and  O9_9 
ROOT
HETATM    1  C1  UNL     1     -33.589   5.946   3.731  1.00 20.00     0.066 C 
HETATM    2  C6  UNL     1     -33.969   7.136   4.524  1.00 20.00     0.121 C 
HETATM    3  N8  UNL     1     -33.294   5.013   3.108  1.00 20.00    -0.197 NA
ENDROOT
BRANCH   2   4
HETATM    4  C5  UNL     1     -32.909   8.246   4.364  1.00 20.00     0.021 C 
BRANCH   4   5
HETATM    5  C4  UNL     1     -32.167   8.171   3.024  1.00 20.00    -0.003 C 
HETATM    6  C2  UNL     1     -32.756   9.140   2.011  1.00 20.00     0.005 C 
ENDBRANCH   4   5
ENDBRANCH   2   4
BRANCH   2   7
HETATM    7  C7  UNL     1     -34.162   6.779   6.015  1.00 20.00     0.131 C 
HETATM    8  C3  UNL     1     -34.742   5.386   6.239  1.00 20.00     0.040 C 
BRANCH   7   9
HETATM    9  O9  UNL     1     -32.918   6.888   6.706  1.00 20.00    -0.395 OA
HETATM   10  H22 UNL     1     -32.524   6.002   6.704  1.00 20.00     0.210 HD
ENDBRANCH   7   9
ENDBRANCH   2   7
TORSDOF 4
ENDMDL
MODEL 8
REMARK VINA RESULT:      -3.9     12.054     12.975
REMARK  4 active torsions:
REMARK  status: ('A' for Active; 'I' for Inactive)
REMARK    1  A    between atoms: C4_4  and  C5_5 
REMARK    2  A    between atoms: C5_5  and  C6_6 
REMARK    3  A    between atoms: C6_6  and  C7_7 
REMARK    4  A    between atoms: C7_7  and  O9_9 
ROOT
HETATM    1  C1  UNL     1     -35.153  14.061  -4.642  1.00 20.00     0.066 C 
HETATM    2  C6  UNL     1     -34.289  15.222  -4.947  1.00 20.00     0.121 C 
HETATM    3  N8  UNL     1     -35.831  13.149  -4.405  1.00 20.00    -0.197 NA
ENDROOT
BRANCH   2   4
HETATM    4  C5  UNL     1     -33.297  15.469  -3.791  1.00 20.00     0.021 C 
BRANCH   4   5
HETATM    5  C4  UNL     1     -33.293  16.925  -3.311  1.00 20.00    -0.003 C 
HETATM    6  C2  UNL     1     -33.529  17.014  -1.812  1.00 20.00     0.005 C 
ENDBRANCH   4   5
ENDBRANCH   2   4
BRANCH   2   7
HETATM    7  C7  UNL     1     -35.129  16.491  -5.222  1.00 20.00     0.131 C 
HETATM    8  C3  UNL     1     -35.057  16.967  -6.670  1.00 20.00     0.040 C 
BRANCH   7   9
HETATM    9  O9  UNL     1     -36.492  16.257  -4.869  1.00 20.00    -0.395 OA
HETATM   10  H22 UNL     1     -36.791  15.510  -5.411  1.00 20.00     0.210 HD
ENDBRANCH   7   9
ENDBRANCH   2   7
TORSDOF 4
ENDMDL
MODEL 9
REMARK VINA RESULT:      -3.8     12.173     13.135
REMARK  4 active torsions:
REMARK  status: ('A' for Active; 'I' for Inactive)
REMARK    1  A    between atoms: C4_4  and  C5_5 
REMARK    2  A    between atoms: C5_5  and  C6_6 
REMARK    3  A    between atoms: C6_6  and  C7_7 
REMARK    4  A    between atoms: C7_7  and  O9_9 
ROOT
HETATM    1  C1  UNL     1     -33.672  15.191  -3.941  1.00 20.00     0.066 C 
HETATM    2  C6  UNL     1     -33.479  16.627  -3.648  1.00 20.00     0.121 C 
HETATM    3  N8  UNL     1     -33.822  14.063  -4.173  1.00 20.00    -0.197 NA
ENDROOT
BRANCH   2   4
HETATM    4  C5  UNL     1     -33.311  16.846  -2.130  1.00 20.00     0.021 C 
BRANCH   4   5
HETATM    5  C4  UNL     1     -32.951  18.294  -1.774  1.00 20.00    -0.003 C 
HETATM    6  C2  UNL     1     -31.826  18.349  -0.752  1.00 20.00     0.005 C 
ENDBRANCH   4   5
ENDBRANCH   2   4
BRANCH   2   7
HETATM    7  C7  UNL     1     -34.651  17.474  -4.194  1.00 20.00     0.131 C 
HETATM    8  C3  UNL     1     -34.263  18.370  -5.367  1.00 20.00     0.040 C 
BRANCH   7   9
HETATM    9  O9  UNL     1     -35.725  16.621  -4.587  1.00 20.00    -0.395 OA
HETATM   10  H22 UNL     1     -35.485  16.261  -5.455  1.00 20.00     0.210 HD
ENDBRANCH   7   9
ENDBRANCH   2   7
TORSDOF 4
ENDMDL
