MODEL 1
REMARK VINA RESULT:      -4.2      0.000      0.000
REMARK  4 active torsions:
REMARK  status: ('A' for Active; 'I' for Inactive)
REMARK    1  A    between atoms: C1_1  and  C7_7 
REMARK    2  A    between atoms: C6_6  and  C8_8 
REMARK    3  A    between atoms: C6_6  and  O10_10 
REMARK    4  A    between atoms: C7_7  and  C8_8 
ROOT
HETATM    1  C3  UNL     1     -33.217   5.323   2.860  1.00 20.00     0.018 C 
HETATM    2  C7  UNL     1     -33.364   6.166   4.128  1.00 20.00     0.056 C 
ENDROOT
BRANCH   2   3
HETATM    3  C1  UNL     1     -34.678   5.833   4.842  1.00 20.00     0.127 C 
HETATM    4  C2  UNL     1     -34.582   5.366   6.273  1.00 20.00     0.091 C 
HETATM    5  O9  UNL     1     -35.770   5.910   4.280  1.00 20.00    -0.298 OA
ENDBRANCH   2   3
BRANCH   2   6
HETATM    6  C8  UNL     1     -33.237   7.692   3.895  1.00 20.00     0.016 C 
HETATM    7  C4  UNL     1     -32.860   8.421   5.192  1.00 20.00     0.013 C 
BRANCH   6   8
HETATM    8  C6  UNL     1     -32.252   8.049   2.772  1.00 20.00     0.172 C 
BRANCH   8   9
HETATM    9  O10 UNL     1     -32.692   9.226   2.104  1.00 20.00    -0.396 OA
HETATM   10  C5  UNL     1     -32.629   9.078   0.693  1.00 20.00     0.201 C 
ENDBRANCH   8   9
ENDBRANCH   6   8
ENDBRANCH   2   6
TORSDOF 4
ENDMDL
MODEL 2
REMARK VINA RESULT:      -4.0      0.808      1.907
REMARK  4 active torsions:
REMARK  status: ('A' for Active; 'I' for Inactive)
REMARK    1  A    between atoms: C1_1  and  C7_7 
REMARK    2  A    between atoms: C6_6  and  C8_8 
REMARK    3  A    between atoms: C6_6  and  O10_10 
REMARK    4  A    between atoms: C7_7  and  C8_8 
ROOT
HETATM    1  C3  UNL     1     -33.646   8.270   5.680  1.00 20.00     0.018 C 
HETATM    2  C7  UNL     1     -33.963   7.312   4.530  1.00 20.00     0.056 C 
ENDROOT
BRANCH   2   3
HETATM    3  C1  UNL     1     -34.767   6.112   5.039  1.00 20.00     0.127 C 
HETATM    4  C2  UNL     1     -34.294   5.463   6.317  1.00 20.00     0.091 C 
HETATM    5  O9  UNL     1     -35.739   5.665   4.432  1.00 20.00    -0.298 OA
ENDBRANCH   2   3
BRANCH   2   6
HETATM    6  C8  UNL     1     -32.720   6.843   3.733  1.00 20.00     0.016 C 
HETATM    7  C4  UNL     1     -33.068   5.676   2.799  1.00 20.00     0.013 C 
BRANCH   6   8
HETATM    8  C6  UNL     1     -32.045   7.978   2.948  1.00 20.00     0.172 C 
BRANCH   8   9
HETATM    9  O10 UNL     1     -32.120   7.707   1.553  1.00 20.00    -0.396 OA
HETATM   10  C5  UNL     1     -32.452   8.873   0.815  1.00 20.00     0.201 C 
ENDBRANCH   8   9
ENDBRANCH   6   8
ENDBRANCH   2   6
TORSDOF 4
ENDMDL
MODEL 3
REMARK VINA RESULT:      -3.6      1.218      1.710
REMARK  4 active torsions:
REMARK  status: ('A' for Active; 'I' for Inactive)
REMARK    1  A    between atoms: C1_1  and  C7_7 
REMARK    2  A    between atoms: C6_6  and  C8_8 
REMARK    3  A    between atoms: C6_6  and  O10_10 
REMARK    4  A    between atoms: C7_7  and  C8_8 
ROOT
HETATM    1  C3  UNL     1     -33.497   6.740   6.584  1.00 20.00     0.018 C 
HETATM    2  C7  UNL     1     -34.282   7.161   5.340  1.00 20.00     0.056 C 
ENDROOT
BRANCH   2   3
HETATM    3  C1  UNL     1     -34.986   5.951   4.717  1.00 20.00     0.127 C 
HETATM    4  C2  UNL     1     -34.329   4.606   4.901  1.00 20.00     0.091 C 
HETATM    5  O9  UNL     1     -36.026   6.057   4.067  1.00 20.00    -0.298 OA
ENDBRANCH   2   3
BRANCH   2   6
HETATM    6  C8  UNL     1     -33.438   7.911   4.280  1.00 20.00     0.016 C 
HETATM    7  C4  UNL     1     -32.414   8.841   4.944  1.00 20.00     0.013 C 
BRANCH   6   8
HETATM    8  C6  UNL     1     -32.744   6.968   3.286  1.00 20.00     0.172 C 
BRANCH   8   9
HETATM    9  O10 UNL     1     -31.752   7.684   2.558  1.00 20.00    -0.396 OA
HETATM   10  C5  UNL     1     -32.252   8.142   1.311  1.00 20.00     0.201 C 
ENDBRANCH   8   9
ENDBRANCH   6   8
ENDBRANCH   2   6
TORSDOF 4
ENDMDL
MODEL 4
REMARK VINA RESULT:      -3.6     11.830     12.691
REMARK  4 active torsions:
REMARK  status: ('A' for Active; 'I' for Inactive)
REMARK    1  A    between atoms: C1_1  and  C7_7 
REMARK    2  A    between atoms: C6_6  and  C8_8 
REMARK    3  A    between atoms: C6_6  and  O10_10 
REMARK    4  A    between atoms: C7_7  and  C8_8 
ROOT
HETATM    1  C3  UNL     1     -33.877  18.945   0.928  1.00 20.00     0.018 C 
HETATM    2  C7  UNL     1     -32.963  18.114   0.026  1.00 20.00     0.056 C 
ENDROOT
BRANCH   2   3
HETATM    3  C1  UNL     1     -31.494  18.460   0.289  1.00 20.00     0.127 C 
HETATM    4  C2  UNL     1     -31.023  18.407   1.721  1.00 20.00     0.091 C 
HETATM    5  O9  UNL     1     -30.726  18.796  -0.612  1.00 20.00    -0.298 OA
ENDBRANCH   2   3
BRANCH   2   6
HETATM    6  C8  UNL     1     -33.292  18.224  -1.484  1.00 20.00     0.016 C 
HETATM    7  C4  UNL     1     -33.426  16.836  -2.124  1.00 20.00     0.013 C 
BRANCH   6   8
HETATM    8  C6  UNL     1     -34.542  19.071  -1.768  1.00 20.00     0.172 C 
BRANCH   8   9
HETATM    9  O10 UNL     1     -35.365  18.407  -2.720  1.00 20.00    -0.396 OA
HETATM   10  C5  UNL     1     -36.681  18.941  -2.731  1.00 20.00     0.201 C 
ENDBRANCH   8   9
ENDBRANCH   6   8
ENDBRANCH   2   6
TORSDOF 4
ENDMDL
MODEL 5
REMARK VINA RESULT:      -3.5      2.030      3.092
REMARK  4 active torsions:
REMARK  status: ('A' for Active; 'I' for Inactive)
REMARK    1  A    between atoms: C1_1  and  C7_7 
REMARK    2  A    between atoms: C6_6  and  C8_8 
REMARK    3  A    between atoms: C6_6  and  O10_10 
REMARK    4  A    between atoms: C7_7  and  C8_8 
ROOT
HETATM    1  C3  UNL     1     -36.257   5.971   4.045  1.00 20.00     0.018 C 
HETATM    2  C7  UNL     1     -34.786   6.255   4.352  1.00 20.00     0.056 C 
ENDROOT
BRANCH   2   3
HETATM    3  C1  UNL     1     -33.901   5.118   3.831  1.00 20.00     0.127 C 
HETATM    4  C2  UNL     1     -32.869   5.475   2.790  1.00 20.00     0.091 C 
HETATM    5  O9  UNL     1     -34.032   3.955   4.211  1.00 20.00    -0.298 OA
ENDBRANCH   2   3
BRANCH   2   6
HETATM    6  C8  UNL     1     -34.492   6.537   5.847  1.00 20.00     0.016 C 
HETATM    7  C4  UNL     1     -34.347   5.232   6.640  1.00 20.00     0.013 C 
BRANCH   6   8
HETATM    8  C6  UNL     1     -33.264   7.436   6.060  1.00 20.00     0.172 C 
BRANCH   8   9
HETATM    9  O10 UNL     1     -33.347   8.571   5.205  1.00 20.00    -0.396 OA
HETATM   10  C5  UNL     1     -32.151   8.747   4.459  1.00 20.00     0.201 C 
ENDBRANCH   8   9
ENDBRANCH   6   8
ENDBRANCH   2   6
TORSDOF 4
ENDMDL
MODEL 6
REMARK VINA RESULT:      -3.5      9.916     11.071
REMARK  4 active torsions:
REMARK  status: ('A' for Active; 'I' for Inactive)
REMARK    1  A    between atoms: C1_1  and  C7_7 
REMARK    2  A    between atoms: C6_6  and  C8_8 
REMARK    3  A    between atoms: C6_6  and  O10_10 
REMARK    4  A    between atoms: C7_7  and  C8_8 
ROOT
HETATM    1  C3  UNL     1     -42.259  12.567   6.786  1.00 20.00     0.018 C 
HETATM    2  C7  UNL     1     -40.958  13.356   6.634  1.00 20.00     0.056 C 
ENDROOT
BRANCH   2   3
HETATM    3  C1  UNL     1     -39.806  12.421   6.255  1.00 20.00     0.127 C 
HETATM    4  C2  UNL     1     -39.689  12.031   4.802  1.00 20.00     0.091 C 
HETATM    5  O9  UNL     1     -39.019  11.973   7.089  1.00 20.00    -0.298 OA
ENDBRANCH   2   3
BRANCH   2   6
HETATM    6  C8  UNL     1     -40.586  14.212   7.871  1.00 20.00     0.016 C 
HETATM    7  C4  UNL     1     -40.369  15.681   7.485  1.00 20.00     0.013 C 
BRANCH   6   8
HETATM    8  C6  UNL     1     -41.612  14.100   9.010  1.00 20.00     0.172 C 
BRANCH   8   9
HETATM    9  O10 UNL     1     -40.976  13.599  10.180  1.00 20.00    -0.396 OA
HETATM   10  C5  UNL     1     -41.857  13.605  11.294  1.00 20.00     0.201 C 
ENDBRANCH   8   9
ENDBRANCH   6   8
ENDBRANCH   2   6
TORSDOF 4
ENDMDL
MODEL 7
REMARK VINA RESULT:      -3.5     15.414     16.306
REMARK  4 active torsions:
REMARK  status: ('A' for Active; 'I' for Inactive)
REMARK    1  A    between atoms: C1_1  and  C7_7 
REMARK    2  A    between atoms: C6_6  and  C8_8 
REMARK    3  A    between atoms: C6_6  and  O10_10 
REMARK    4  A    between atoms: C7_7  and  C8_8 
ROOT
HETATM    1  C3  UNL     1     -24.849  19.220   9.297  1.00 20.00     0.018 C 
HETATM    2  C7  UNL     1     -24.005  18.084   9.877  1.00 20.00     0.056 C 
ENDROOT
BRANCH   2   3
HETATM    3  C1  UNL     1     -24.530  17.679  11.258  1.00 20.00     0.127 C 
HETATM    4  C2  UNL     1     -24.469  16.213  11.612  1.00 20.00     0.091 C 
HETATM    5  O9  UNL     1     -25.009  18.494  12.046  1.00 20.00    -0.298 OA
ENDBRANCH   2   3
BRANCH   2   6
HETATM    6  C8  UNL     1     -22.487  18.386   9.933  1.00 20.00     0.016 C 
HETATM    7  C4  UNL     1     -22.007  18.552  11.381  1.00 20.00     0.013 C 
BRANCH   6   8
HETATM    8  C6  UNL     1     -21.637  17.335   9.202  1.00 20.00     0.172 C 
BRANCH   8   9
HETATM    9  O10 UNL     1     -22.065  17.228   7.849  1.00 20.00    -0.396 OA
HETATM   10  C5  UNL     1     -21.293  18.057   6.993  1.00 20.00     0.201 C 
ENDBRANCH   8   9
ENDBRANCH   6   8
ENDBRANCH   2   6
TORSDOF 4
ENDMDL
MODEL 8
REMARK VINA RESULT:      -3.4     11.180     12.266
REMARK  4 active torsions:
REMARK  status: ('A' for Active; 'I' for Inactive)
REMARK    1  A    between atoms: C1_1  and  C7_7 
REMARK    2  A    between atoms: C6_6  and  C8_8 
REMARK    3  A    between atoms: C6_6  and  O10_10 
REMARK    4  A    between atoms: C7_7  and  C8_8 
ROOT
HETATM    1  C3  UNL     1     -35.451  17.113  -5.523  1.00 20.00     0.018 C 
HETATM    2  C7  UNL     1     -34.684  15.790  -5.466  1.00 20.00     0.056 C 
ENDROOT
BRANCH   2   3
HETATM    3  C1  UNL     1     -35.613  14.620  -5.804  1.00 20.00     0.127 C 
HETATM    4  C2  UNL     1     -36.084  13.764  -4.654  1.00 20.00     0.091 C 
HETATM    5  O9  UNL     1     -35.947  14.356  -6.959  1.00 20.00    -0.298 OA
ENDBRANCH   2   3
BRANCH   2   6
HETATM    6  C8  UNL     1     -33.950  15.539  -4.126  1.00 20.00     0.016 C 
HETATM    7  C4  UNL     1     -32.635  14.781  -4.348  1.00 20.00     0.013 C 
BRANCH   6   8
HETATM    8  C6  UNL     1     -33.700  16.827  -3.326  1.00 20.00     0.172 C 
BRANCH   8   9
HETATM    9  O10 UNL     1     -33.527  16.511  -1.949  1.00 20.00    -0.396 OA
HETATM   10  C5  UNL     1     -33.677  17.660  -1.129  1.00 20.00     0.201 C 
ENDBRANCH   8   9
ENDBRANCH   6   8
ENDBRANCH   2   6
TORSDOF 4
ENDMDL
MODEL 9
REMARK VINA RESULT:      -3.4      9.278     10.348
REMARK  4 active torsions:
REMARK  status: ('A' for Active; 'I' for Inactive)
REMARK    1  A    between atoms: C1_1  and  C7_7 
REMARK    2  A    between atoms: C6_6  and  C8_8 
REMARK    3  A    between atoms: C6_6  and  O10_10 
REMARK    4  A    between atoms: C7_7  and  C8_8 
ROOT
HETATM    1  C3  UNL     1     -39.003  12.118   6.820  1.00 20.00     0.018 C 
HETATM    2  C7  UNL     1     -40.313  12.163   6.032  1.00 20.00     0.056 C 
ENDROOT
BRANCH   2   3
HETATM    3  C1  UNL     1     -40.036  12.436   4.550  1.00 20.00     0.127 C 
HETATM    4  C2  UNL     1     -38.915  11.657   3.908  1.00 20.00     0.091 C 
HETATM    5  O9  UNL     1     -40.670  13.270   3.904  1.00 20.00    -0.298 OA
ENDBRANCH   2   3
BRANCH   2   6
HETATM    6  C8  UNL     1     -41.355  13.164   6.589  1.00 20.00     0.016 C 
HETATM    7  C4  UNL     1     -42.618  12.439   7.071  1.00 20.00     0.013 C 
BRANCH   6   8
HETATM    8  C6  UNL     1     -40.793  14.063   7.701  1.00 20.00     0.172 C 
BRANCH   8   9
HETATM    9  O10 UNL     1     -41.369  13.697   8.950  1.00 20.00    -0.396 OA
HETATM   10  C5  UNL     1     -40.682  14.302  10.036  1.00 20.00     0.201 C 
ENDBRANCH   8   9
ENDBRANCH   6   8
ENDBRANCH   2   6
TORSDOF 4
ENDMDL
