MODEL 1
REMARK VINA RESULT:      -4.8      0.000      0.000
REMARK  4 active torsions:
REMARK  status: ('A' for Active; 'I' for Inactive)
REMARK    1  A    between atoms: C1_1  and  C5_5 
REMARK    2  A    between atoms: C1_1  and  C8_8 
REMARK    3  A    between atoms: C5_5  and  C6_6 
REMARK    4  A    between atoms: C6_6  and  C7_7 
ROOT
HETATM    1  C1  UNL     1     -33.541   7.076   4.536  1.00 20.00     0.134 C 
HETATM    2  O9  UNL     1     -33.594   8.095   5.229  1.00 20.00    -0.297 OA
ENDROOT
BRANCH   1   3
HETATM    3  C5  UNL     1     -32.586   6.987   3.349  1.00 20.00     0.084 C 
BRANCH   3   4
HETATM    4  C6  UNL     1     -32.191   8.350   2.786  1.00 20.00     0.078 C 
BRANCH   4   5
HETATM    5  C7  UNL     1     -32.551   8.504   1.320  1.00 20.00     0.353 C 
HETATM    6  F10 UNL     1     -31.494   8.123   0.560  1.00 20.00    -0.214 F 
HETATM    7  F11 UNL     1     -32.782   9.809   1.036  1.00 20.00    -0.214 F 
ENDBRANCH   4   5
ENDBRANCH   3   4
ENDBRANCH   1   3
BRANCH   1   8
HETATM    8  C8  UNL     1     -34.436   5.856   4.837  1.00 20.00     0.009 C 
HETATM    9  C2  UNL     1     -35.829   6.103   4.245  1.00 20.00     0.022 C 
HETATM   10  C3  UNL     1     -34.533   5.613   6.348  1.00 20.00     0.022 C 
HETATM   11  C4  UNL     1     -33.831   4.601   4.181  1.00 20.00     0.022 C 
ENDBRANCH   1   8
TORSDOF 4
ENDMDL
MODEL 2
REMARK VINA RESULT:      -4.7      0.203      1.331
REMARK  4 active torsions:
REMARK  status: ('A' for Active; 'I' for Inactive)
REMARK    1  A    between atoms: C1_1  and  C5_5 
REMARK    2  A    between atoms: C1_1  and  C8_8 
REMARK    3  A    between atoms: C5_5  and  C6_6 
REMARK    4  A    between atoms: C6_6  and  C7_7 
ROOT
HETATM    1  C1  UNL     1     -33.533   7.124   4.656  1.00 20.00     0.134 C 
HETATM    2  O9  UNL     1     -33.578   8.043   5.477  1.00 20.00    -0.297 OA
ENDROOT
BRANCH   1   3
HETATM    3  C5  UNL     1     -32.612   7.204   3.443  1.00 20.00     0.084 C 
BRANCH   3   4
HETATM    4  C6  UNL     1     -32.506   8.609   2.854  1.00 20.00     0.078 C 
BRANCH   4   5
HETATM    5  C7  UNL     1     -32.634   8.621   1.342  1.00 20.00     0.353 C 
HETATM    6  F10 UNL     1     -31.523   8.066   0.797  1.00 20.00    -0.214 F 
HETATM    7  F11 UNL     1     -32.689   9.900   0.894  1.00 20.00    -0.214 F 
ENDBRANCH   4   5
ENDBRANCH   3   4
ENDBRANCH   1   3
BRANCH   1   8
HETATM    8  C8  UNL     1     -34.406   5.862   4.820  1.00 20.00     0.009 C 
HETATM    9  C2  UNL     1     -34.546   5.546   6.314  1.00 20.00     0.022 C 
HETATM   10  C3  UNL     1     -33.785   4.672   4.078  1.00 20.00     0.022 C 
HETATM   11  C4  UNL     1     -35.805   6.125   4.232  1.00 20.00     0.022 C 
ENDBRANCH   1   8
TORSDOF 4
ENDMDL
MODEL 3
REMARK VINA RESULT:      -4.7      0.197      1.310
REMARK  4 active torsions:
REMARK  status: ('A' for Active; 'I' for Inactive)
REMARK    1  A    between atoms: C1_1  and  C5_5 
REMARK    2  A    between atoms: C1_1  and  C8_8 
REMARK    3  A    between atoms: C5_5  and  C6_6 
REMARK    4  A    between atoms: C6_6  and  C7_7 
ROOT
HETATM    1  C1  UNL     1     -33.499   7.129   4.611  1.00 20.00     0.134 C 
HETATM    2  O9  UNL     1     -33.496   8.036   5.447  1.00 20.00    -0.297 OA
ENDROOT
BRANCH   1   3
HETATM    3  C5  UNL     1     -32.602   7.199   3.379  1.00 20.00     0.084 C 
BRANCH   3   4
HETATM    4  C6  UNL     1     -32.473   8.606   2.802  1.00 20.00     0.078 C 
BRANCH   4   5
HETATM    5  C7  UNL     1     -32.627   8.636   1.293  1.00 20.00     0.353 C 
HETATM    6  F10 UNL     1     -31.532   8.071   0.723  1.00 20.00    -0.214 F 
HETATM    7  F11 UNL     1     -32.670   9.920   0.859  1.00 20.00    -0.214 F 
ENDBRANCH   4   5
ENDBRANCH   3   4
ENDBRANCH   1   3
BRANCH   1   8
HETATM    8  C8  UNL     1     -34.407   5.892   4.775  1.00 20.00     0.009 C 
HETATM    9  C2  UNL     1     -33.765   4.704   4.047  1.00 20.00     0.022 C 
HETATM   10  C3  UNL     1     -35.807   6.168   4.214  1.00 20.00     0.022 C 
HETATM   11  C4  UNL     1     -34.541   5.548   6.270  1.00 20.00     0.022 C 
ENDBRANCH   1   8
TORSDOF 4
ENDMDL
MODEL 4
REMARK VINA RESULT:      -4.5      0.783      1.770
REMARK  4 active torsions:
REMARK  status: ('A' for Active; 'I' for Inactive)
REMARK    1  A    between atoms: C1_1  and  C5_5 
REMARK    2  A    between atoms: C1_1  and  C8_8 
REMARK    3  A    between atoms: C5_5  and  C6_6 
REMARK    4  A    between atoms: C6_6  and  C7_7 
ROOT
HETATM    1  C1  UNL     1     -33.656   7.236   5.079  1.00 20.00     0.134 C 
HETATM    2  O9  UNL     1     -34.037   7.955   6.005  1.00 20.00    -0.297 OA
ENDROOT
BRANCH   1   3
HETATM    3  C5  UNL     1     -32.484   7.655   4.197  1.00 20.00     0.084 C 
BRANCH   3   4
HETATM    4  C6  UNL     1     -32.796   8.851   3.301  1.00 20.00     0.078 C 
BRANCH   4   5
HETATM    5  C7  UNL     1     -32.174   8.728   1.922  1.00 20.00     0.353 C 
HETATM    6  F10 UNL     1     -32.885   9.479   1.044  1.00 20.00    -0.214 F 
HETATM    7  F11 UNL     1     -32.258   7.445   1.491  1.00 20.00    -0.214 F 
ENDBRANCH   4   5
ENDBRANCH   3   4
ENDBRANCH   1   3
BRANCH   1   8
HETATM    8  C8  UNL     1     -34.347   5.891   4.773  1.00 20.00     0.009 C 
HETATM    9  C2  UNL     1     -34.445   5.077   6.069  1.00 20.00     0.022 C 
HETATM   10  C3  UNL     1     -33.568   5.109   3.709  1.00 20.00     0.022 C 
HETATM   11  C4  UNL     1     -35.768   6.153   4.240  1.00 20.00     0.022 C 
ENDBRANCH   1   8
TORSDOF 4
ENDMDL
MODEL 5
REMARK VINA RESULT:      -4.5      0.780      1.656
REMARK  4 active torsions:
REMARK  status: ('A' for Active; 'I' for Inactive)
REMARK    1  A    between atoms: C1_1  and  C5_5 
REMARK    2  A    between atoms: C1_1  and  C8_8 
REMARK    3  A    between atoms: C5_5  and  C6_6 
REMARK    4  A    between atoms: C6_6  and  C7_7 
ROOT
HETATM    1  C1  UNL     1     -33.657   7.232   5.032  1.00 20.00     0.134 C 
HETATM    2  O9  UNL     1     -34.019   7.931   5.981  1.00 20.00    -0.297 OA
ENDROOT
BRANCH   1   3
HETATM    3  C5  UNL     1     -32.487   7.657   4.150  1.00 20.00     0.084 C 
BRANCH   3   4
HETATM    4  C6  UNL     1     -32.793   8.876   3.283  1.00 20.00     0.078 C 
BRANCH   4   5
HETATM    5  C7  UNL     1     -32.177   8.779   1.899  1.00 20.00     0.353 C 
HETATM    6  F10 UNL     1     -32.909   9.525   1.033  1.00 20.00    -0.214 F 
HETATM    7  F11 UNL     1     -32.239   7.499   1.456  1.00 20.00    -0.214 F 
ENDBRANCH   4   5
ENDBRANCH   3   4
ENDBRANCH   1   3
BRANCH   1   8
HETATM    8  C8  UNL     1     -34.370   5.906   4.697  1.00 20.00     0.009 C 
HETATM    9  C2  UNL     1     -33.569   5.170   3.616  1.00 20.00     0.022 C 
HETATM   10  C3  UNL     1     -35.803   6.166   4.215  1.00 20.00     0.022 C 
HETATM   11  C4  UNL     1     -34.434   5.024   5.958  1.00 20.00     0.022 C 
ENDBRANCH   1   8
TORSDOF 4
ENDMDL
MODEL 6
REMARK VINA RESULT:      -4.4      1.150      1.199
REMARK  4 active torsions:
REMARK  status: ('A' for Active; 'I' for Inactive)
REMARK    1  A    between atoms: C1_1  and  C5_5 
REMARK    2  A    between atoms: C1_1  and  C8_8 
REMARK    3  A    between atoms: C5_5  and  C6_6 
REMARK    4  A    between atoms: C6_6  and  C7_7 
ROOT
HETATM    1  C1  UNL     1     -33.357   6.624   4.000  1.00 20.00     0.134 C 
HETATM    2  O9  UNL     1     -32.710   6.077   3.103  1.00 20.00    -0.297 OA
ENDROOT
BRANCH   1   3
HETATM    3  C5  UNL     1     -33.170   8.108   4.303  1.00 20.00     0.084 C 
BRANCH   3   4
HETATM    4  C6  UNL     1     -32.250   8.818   3.313  1.00 20.00     0.078 C 
BRANCH   4   5
HETATM    5  C7  UNL     1     -32.884   8.986   1.944  1.00 20.00     0.353 C 
HETATM    6  F10 UNL     1     -32.150   8.306   1.027  1.00 20.00    -0.214 F 
HETATM    7  F11 UNL     1     -32.849  10.291   1.577  1.00 20.00    -0.214 F 
ENDBRANCH   4   5
ENDBRANCH   3   4
ENDBRANCH   1   3
BRANCH   1   8
HETATM    8  C8  UNL     1     -34.374   5.835   4.849  1.00 20.00     0.009 C 
HETATM    9  C2  UNL     1     -35.781   6.071   4.285  1.00 20.00     0.022 C 
HETATM   10  C3  UNL     1     -34.308   6.269   6.318  1.00 20.00     0.022 C 
HETATM   11  C4  UNL     1     -34.052   4.331   4.771  1.00 20.00     0.022 C 
ENDBRANCH   1   8
TORSDOF 4
ENDMDL
MODEL 7
REMARK VINA RESULT:      -4.1      3.347      4.884
REMARK  4 active torsions:
REMARK  status: ('A' for Active; 'I' for Inactive)
REMARK    1  A    between atoms: C1_1  and  C5_5 
REMARK    2  A    between atoms: C1_1  and  C8_8 
REMARK    3  A    between atoms: C5_5  and  C6_6 
REMARK    4  A    between atoms: C6_6  and  C7_7 
ROOT
HETATM    1  C1  UNL     1     -33.307   6.604   3.522  1.00 20.00     0.134 C 
HETATM    2  O9  UNL     1     -32.837   5.692   2.838  1.00 20.00    -0.297 OA
ENDROOT
BRANCH   1   3
HETATM    3  C5  UNL     1     -34.648   6.439   4.229  1.00 20.00     0.084 C 
BRANCH   3   4
HETATM    4  C6  UNL     1     -34.759   5.139   5.022  1.00 20.00     0.078 C 
BRANCH   4   5
HETATM    5  C7  UNL     1     -34.670   5.359   6.522  1.00 20.00     0.353 C 
HETATM    6  F10 UNL     1     -34.783   6.685   6.784  1.00 20.00    -0.214 F 
HETATM    7  F11 UNL     1     -33.449   4.978   6.972  1.00 20.00    -0.214 F 
ENDBRANCH   4   5
ENDBRANCH   3   4
ENDBRANCH   1   3
BRANCH   1   8
HETATM    8  C8  UNL     1     -32.562   7.945   3.689  1.00 20.00     0.009 C 
HETATM    9  C2  UNL     1     -32.958   8.570   5.032  1.00 20.00     0.022 C 
HETATM   10  C3  UNL     1     -32.896   8.899   2.536  1.00 20.00     0.022 C 
HETATM   11  C4  UNL     1     -31.042   7.692   3.685  1.00 20.00     0.022 C 
ENDBRANCH   1   8
TORSDOF 4
ENDMDL
MODEL 8
REMARK VINA RESULT:      -4.0     11.213     12.225
REMARK  4 active torsions:
REMARK  status: ('A' for Active; 'I' for Inactive)
REMARK    1  A    between atoms: C1_1  and  C5_5 
REMARK    2  A    between atoms: C1_1  and  C8_8 
REMARK    3  A    between atoms: C5_5  and  C6_6 
REMARK    4  A    between atoms: C6_6  and  C7_7 
ROOT
HETATM    1  C1  UNL     1     -33.773  15.240  -4.491  1.00 20.00     0.134 C 
HETATM    2  O9  UNL     1     -33.349  14.108  -4.247  1.00 20.00    -0.297 OA
ENDROOT
BRANCH   1   3
HETATM    3  C5  UNL     1     -33.287  16.445  -3.693  1.00 20.00     0.084 C 
BRANCH   3   4
HETATM    4  C6  UNL     1     -33.608  16.354  -2.203  1.00 20.00     0.078 C 
BRANCH   4   5
HETATM    5  C7  UNL     1     -33.346  17.656  -1.468  1.00 20.00     0.353 C 
HETATM    6  F10 UNL     1     -32.007  17.820  -1.317  1.00 20.00    -0.214 F 
HETATM    7  F11 UNL     1     -33.872  17.595  -0.219  1.00 20.00    -0.214 F 
ENDBRANCH   4   5
ENDBRANCH   3   4
ENDBRANCH   1   3
BRANCH   1   8
HETATM    8  C8  UNL     1     -34.810  15.482  -5.608  1.00 20.00     0.009 C 
HETATM    9  C2  UNL     1     -35.929  14.441  -5.481  1.00 20.00     0.022 C 
HETATM   10  C3  UNL     1     -34.151  15.392  -6.990  1.00 20.00     0.022 C 
HETATM   11  C4  UNL     1     -35.417  16.889  -5.450  1.00 20.00     0.022 C 
ENDBRANCH   1   8
TORSDOF 4
ENDMDL
MODEL 9
REMARK VINA RESULT:      -4.0      9.459     10.484
REMARK  4 active torsions:
REMARK  status: ('A' for Active; 'I' for Inactive)
REMARK    1  A    between atoms: C1_1  and  C5_5 
REMARK    2  A    between atoms: C1_1  and  C8_8 
REMARK    3  A    between atoms: C5_5  and  C6_6 
REMARK    4  A    between atoms: C6_6  and  C7_7 
ROOT
HETATM    1  C1  UNL     1     -40.825  13.800   7.269  1.00 20.00     0.134 C 
HETATM    2  O9  UNL     1     -40.031  13.481   8.157  1.00 20.00    -0.297 OA
ENDROOT
BRANCH   1   3
HETATM    3  C5  UNL     1     -41.102  12.865   6.095  1.00 20.00     0.084 C 
BRANCH   3   4
HETATM    4  C6  UNL     1     -40.063  11.756   5.947  1.00 20.00     0.078 C 
BRANCH   4   5
HETATM    5  C7  UNL     1     -39.127  11.984   4.773  1.00 20.00     0.353 C 
HETATM    6  F10 UNL     1     -39.208  10.926   3.928  1.00 20.00    -0.214 F 
HETATM    7  F11 UNL     1     -37.845  12.035   5.210  1.00 20.00    -0.214 F 
ENDBRANCH   4   5
ENDBRANCH   3   4
ENDBRANCH   1   3
BRANCH   1   8
HETATM    8  C8  UNL     1     -41.567  15.152   7.306  1.00 20.00     0.009 C 
HETATM    9  C2  UNL     1     -42.209  15.405   5.936  1.00 20.00     0.022 C 
HETATM   10  C3  UNL     1     -40.604  16.291   7.663  1.00 20.00     0.022 C 
HETATM   11  C4  UNL     1     -42.676  15.101   8.374  1.00 20.00     0.022 C 
ENDBRANCH   1   8
TORSDOF 4
ENDMDL
