MODEL 1
REMARK VINA RESULT:      -5.2      0.000      0.000
REMARK  3 active torsions:
REMARK  status: ('A' for Active; 'I' for Inactive)
REMARK    1  A    between atoms: C7_7  and  C9_9 
REMARK    2  A    between atoms: C8_8  and  C10_10 
REMARK    3  A    between atoms: C9_9  and  C10_10 
ROOT
HETATM    1  C1  UNL     1     -33.868   5.810   4.218  1.00 20.00     0.131 C 
HETATM    2  C2  UNL     1     -34.460   4.941   5.298  1.00 20.00     0.079 C 
HETATM    3  C3  UNL     1     -34.889   5.972   6.334  1.00 20.00     0.008 C 
HETATM    4  C4  UNL     1     -33.880   7.103   6.185  1.00 20.00     0.013 C 
HETATM    5  C7  UNL     1     -33.701   7.246   4.672  1.00 20.00     0.055 C 
HETATM    6  O11 UNL     1     -33.562   5.396   3.107  1.00 20.00    -0.298 OA
ENDROOT
BRANCH   5   7
HETATM    7  C9  UNL     1     -32.360   7.837   4.288  1.00 20.00     0.012 C 
BRANCH   7   8
HETATM    8  C10 UNL     1     -32.519   9.047   3.367  1.00 20.00     0.005 C 
BRANCH   8   9
HETATM    9  C8  UNL     1     -32.948   8.635   1.968  1.00 20.00    -0.014 A 
HETATM   10  C5  UNL     1     -32.784   9.584   0.814  1.00 20.00     0.005 A 
HETATM   11  C6  UNL     1     -31.916   8.360   0.911  1.00 20.00     0.005 A 
ENDBRANCH   8   9
ENDBRANCH   7   8
ENDBRANCH   5   7
TORSDOF 3
ENDMDL
MODEL 2
REMARK VINA RESULT:      -4.5      1.462      2.065
REMARK  3 active torsions:
REMARK  status: ('A' for Active; 'I' for Inactive)
REMARK    1  A    between atoms: C7_7  and  C9_9 
REMARK    2  A    between atoms: C8_8  and  C10_10 
REMARK    3  A    between atoms: C9_9  and  C10_10 
ROOT
HETATM    1  C1  UNL     1     -33.963   6.964   5.248  1.00 20.00     0.131 C 
HETATM    2  C2  UNL     1     -34.985   5.859   5.330  1.00 20.00     0.079 C 
HETATM    3  C3  UNL     1     -34.333   4.762   4.499  1.00 20.00     0.008 C 
HETATM    4  C4  UNL     1     -33.526   5.512   3.448  1.00 20.00     0.013 C 
HETATM    5  C7  UNL     1     -32.889   6.668   4.221  1.00 20.00     0.055 C 
HETATM    6  O11 UNL     1     -34.005   7.979   5.933  1.00 20.00    -0.298 OA
ENDROOT
BRANCH   5   7
HETATM    7  C9  UNL     1     -32.563   7.859   3.343  1.00 20.00     0.012 C 
BRANCH   7   8
HETATM    8  C10 UNL     1     -32.234   7.432   1.912  1.00 20.00     0.005 C 
BRANCH   8   9
HETATM    9  C8  UNL     1     -32.017   8.633   1.005  1.00 20.00    -0.014 A 
HETATM   10  C5  UNL     1     -32.985   8.928  -0.108  1.00 20.00     0.005 A 
HETATM   11  C6  UNL     1     -32.928   9.826   1.097  1.00 20.00     0.005 A 
ENDBRANCH   8   9
ENDBRANCH   7   8
ENDBRANCH   5   7
TORSDOF 3
ENDMDL
MODEL 3
REMARK VINA RESULT:      -4.5     10.008     10.723
REMARK  3 active torsions:
REMARK  status: ('A' for Active; 'I' for Inactive)
REMARK    1  A    between atoms: C7_7  and  C9_9 
REMARK    2  A    between atoms: C8_8  and  C10_10 
REMARK    3  A    between atoms: C9_9  and  C10_10 
ROOT
HETATM    1  C1  UNL     1     -40.696  14.446   8.042  1.00 20.00     0.131 C 
HETATM    2  C2  UNL     1     -40.314  15.900   7.922  1.00 20.00     0.079 C 
HETATM    3  C3  UNL     1     -41.562  16.504   7.293  1.00 20.00     0.008 C 
HETATM    4  C4  UNL     1     -42.133  15.385   6.431  1.00 20.00     0.013 C 
HETATM    5  C7  UNL     1     -41.976  14.132   7.296  1.00 20.00     0.055 C 
HETATM    6  O11 UNL     1     -40.042  13.624   8.670  1.00 20.00    -0.298 OA
ENDROOT
BRANCH   5   7
HETATM    7  C9  UNL     1     -41.891  12.858   6.481  1.00 20.00     0.012 C 
BRANCH   7   8
HETATM    8  C10 UNL     1     -40.892  12.989   5.331  1.00 20.00     0.005 C 
BRANCH   8   9
HETATM    9  C8  UNL     1     -39.911  11.828   5.305  1.00 20.00    -0.014 A 
HETATM   10  C5  UNL     1     -38.964  11.660   4.149  1.00 20.00     0.005 A 
HETATM   11  C6  UNL     1     -38.440  12.076   5.495  1.00 20.00     0.005 A 
ENDBRANCH   8   9
ENDBRANCH   7   8
ENDBRANCH   5   7
TORSDOF 3
ENDMDL
MODEL 4
REMARK VINA RESULT:      -4.5     11.385     12.021
REMARK  3 active torsions:
REMARK  status: ('A' for Active; 'I' for Inactive)
REMARK    1  A    between atoms: C7_7  and  C9_9 
REMARK    2  A    between atoms: C8_8  and  C10_10 
REMARK    3  A    between atoms: C9_9  and  C10_10 
ROOT
HETATM    1  C1  UNL     1     -31.903  18.460  -0.440  1.00 20.00     0.131 C 
HETATM    2  C2  UNL     1     -32.510  18.928   0.858  1.00 20.00     0.079 C 
HETATM    3  C3  UNL     1     -33.891  18.287   0.810  1.00 20.00     0.008 C 
HETATM    4  C4  UNL     1     -34.234  18.234  -0.673  1.00 20.00     0.013 C 
HETATM    5  C7  UNL     1     -32.928  17.804  -1.342  1.00 20.00     0.055 C 
HETATM    6  O11 UNL     1     -30.719  18.598  -0.723  1.00 20.00    -0.298 OA
ENDROOT
BRANCH   5   7
HETATM    7  C9  UNL     1     -32.825  18.258  -2.785  1.00 20.00     0.012 C 
BRANCH   7   8
HETATM    8  C10 UNL     1     -33.624  17.350  -3.720  1.00 20.00     0.005 C 
BRANCH   8   9
HETATM    9  C8  UNL     1     -33.453  15.883  -3.358  1.00 20.00    -0.014 A 
HETATM   10  C5  UNL     1     -34.157  14.818  -4.154  1.00 20.00     0.005 A 
HETATM   11  C6  UNL     1     -32.664  14.969  -4.255  1.00 20.00     0.005 A 
ENDBRANCH   8   9
ENDBRANCH   7   8
ENDBRANCH   5   7
TORSDOF 3
ENDMDL
MODEL 5
REMARK VINA RESULT:      -4.4     11.437     11.998
REMARK  3 active torsions:
REMARK  status: ('A' for Active; 'I' for Inactive)
REMARK    1  A    between atoms: C7_7  and  C9_9 
REMARK    2  A    between atoms: C8_8  and  C10_10 
REMARK    3  A    between atoms: C9_9  and  C10_10 
ROOT
HETATM    1  C1  UNL     1     -33.306  18.794   0.844  1.00 20.00     0.131 C 
HETATM    2  C2  UNL     1     -32.096  18.998   1.720  1.00 20.00     0.079 C 
HETATM    3  C3  UNL     1     -30.988  19.186   0.693  1.00 20.00     0.008 C 
HETATM    4  C4  UNL     1     -31.424  18.338  -0.495  1.00 20.00     0.013 C 
HETATM    5  C7  UNL     1     -32.927  18.602  -0.610  1.00 20.00     0.055 C 
HETATM    6  O11 UNL     1     -34.455  18.785   1.266  1.00 20.00    -0.298 OA
ENDROOT
BRANCH   5   7
HETATM    7  C9  UNL     1     -33.678  17.466  -1.274  1.00 20.00     0.012 C 
BRANCH   7   8
HETATM    8  C10 UNL     1     -33.027  17.055  -2.596  1.00 20.00     0.005 C 
BRANCH   8   9
HETATM    9  C8  UNL     1     -33.713  15.843  -3.205  1.00 20.00    -0.014 A 
HETATM   10  C5  UNL     1     -34.170  15.871  -4.638  1.00 20.00     0.005 A 
HETATM   11  C6  UNL     1     -33.003  15.011  -4.237  1.00 20.00     0.005 A 
ENDBRANCH   8   9
ENDBRANCH   7   8
ENDBRANCH   5   7
TORSDOF 3
ENDMDL
MODEL 6
REMARK VINA RESULT:      -4.3      1.378      1.802
REMARK  3 active torsions:
REMARK  status: ('A' for Active; 'I' for Inactive)
REMARK    1  A    between atoms: C7_7  and  C9_9 
REMARK    2  A    between atoms: C8_8  and  C10_10 
REMARK    3  A    between atoms: C9_9  and  C10_10 
ROOT
HETATM    1  C1  UNL     1     -35.062   6.148   4.814  1.00 20.00     0.131 C 
HETATM    2  C2  UNL     1     -34.672   4.818   5.408  1.00 20.00     0.079 C 
HETATM    3  C3  UNL     1     -34.054   5.234   6.736  1.00 20.00     0.008 C 
HETATM    4  C4  UNL     1     -33.439   6.599   6.458  1.00 20.00     0.013 C 
HETATM    5  C7  UNL     1     -34.484   7.310   5.595  1.00 20.00     0.055 C 
HETATM    6  O11 UNL     1     -35.762   6.266   3.816  1.00 20.00    -0.298 OA
ENDROOT
BRANCH   5   7
HETATM    7  C9  UNL     1     -33.887   8.383   4.708  1.00 20.00     0.012 C 
BRANCH   7   8
HETATM    8  C10 UNL     1     -32.359   8.382   4.770  1.00 20.00     0.005 C 
BRANCH   8   9
HETATM    9  C8  UNL     1     -31.745   7.934   3.454  1.00 20.00    -0.014 A 
HETATM   10  C5  UNL     1     -32.215   6.669   2.789  1.00 20.00     0.005 A 
HETATM   11  C6  UNL     1     -32.545   8.004   2.183  1.00 20.00     0.005 A 
ENDBRANCH   8   9
ENDBRANCH   7   8
ENDBRANCH   5   7
TORSDOF 3
ENDMDL
MODEL 7
REMARK VINA RESULT:      -4.2     11.175     12.212
REMARK  3 active torsions:
REMARK  status: ('A' for Active; 'I' for Inactive)
REMARK    1  A    between atoms: C7_7  and  C9_9 
REMARK    2  A    between atoms: C8_8  and  C10_10 
REMARK    3  A    between atoms: C9_9  and  C10_10 
ROOT
HETATM    1  C1  UNL     1     -35.299  14.200  -4.953  1.00 20.00     0.131 C 
HETATM    2  C2  UNL     1     -36.451  14.766  -5.742  1.00 20.00     0.079 C 
HETATM    3  C3  UNL     1     -35.745  15.729  -6.687  1.00 20.00     0.008 C 
HETATM    4  C4  UNL     1     -34.536  16.215  -5.900  1.00 20.00     0.013 C 
HETATM    5  C7  UNL     1     -34.011  14.956  -5.207  1.00 20.00     0.055 C 
HETATM    6  O11 UNL     1     -35.401  13.242  -4.196  1.00 20.00    -0.298 OA
ENDROOT
BRANCH   5   7
HETATM    7  C9  UNL     1     -33.238  15.256  -3.938  1.00 20.00     0.012 C 
BRANCH   7   8
HETATM    8  C10 UNL     1     -33.406  16.714  -3.507  1.00 20.00     0.005 C 
BRANCH   8   9
HETATM    9  C8  UNL     1     -33.410  16.853  -1.993  1.00 20.00    -0.014 A 
HETATM   10  C5  UNL     1     -32.585  17.921  -1.328  1.00 20.00     0.005 A 
HETATM   11  C6  UNL     1     -34.084  18.030  -1.344  1.00 20.00     0.005 A 
ENDBRANCH   8   9
ENDBRANCH   7   8
ENDBRANCH   5   7
TORSDOF 3
ENDMDL
MODEL 8
REMARK VINA RESULT:      -4.2     11.622     12.517
REMARK  3 active torsions:
REMARK  status: ('A' for Active; 'I' for Inactive)
REMARK    1  A    between atoms: C7_7  and  C9_9 
REMARK    2  A    between atoms: C8_8  and  C10_10 
REMARK    3  A    between atoms: C9_9  and  C10_10 
ROOT
HETATM    1  C1  UNL     1     -34.491  16.952  -4.550  1.00 20.00     0.131 C 
HETATM    2  C2  UNL     1     -34.455  16.217  -5.866  1.00 20.00     0.079 C 
HETATM    3  C3  UNL     1     -33.986  14.832  -5.442  1.00 20.00     0.008 C 
HETATM    4  C4  UNL     1     -33.091  15.086  -4.237  1.00 20.00     0.013 C 
HETATM    5  C7  UNL     1     -33.836  16.158  -3.439  1.00 20.00     0.055 C 
HETATM    6  O11 UNL     1     -34.993  18.060  -4.406  1.00 20.00    -0.298 OA
ENDROOT
BRANCH   5   7
HETATM    7  C9  UNL     1     -32.917  16.997  -2.573  1.00 20.00     0.012 C 
BRANCH   7   8
HETATM    8  C10 UNL     1     -33.585  17.385  -1.254  1.00 20.00     0.005 C 
BRANCH   8   9
HETATM    9  C8  UNL     1     -32.910  18.591  -0.618  1.00 20.00    -0.014 A 
HETATM   10  C5  UNL     1     -32.440  18.532   0.809  1.00 20.00     0.005 A 
HETATM   11  C6  UNL     1     -31.438  18.560  -0.312  1.00 20.00     0.005 A 
ENDBRANCH   8   9
ENDBRANCH   7   8
ENDBRANCH   5   7
TORSDOF 3
ENDMDL
MODEL 9
REMARK VINA RESULT:      -4.1     10.212     10.894
REMARK  3 active torsions:
REMARK  status: ('A' for Active; 'I' for Inactive)
REMARK    1  A    between atoms: C7_7  and  C9_9 
REMARK    2  A    between atoms: C8_8  and  C10_10 
REMARK    3  A    between atoms: C9_9  and  C10_10 
ROOT
HETATM    1  C1  UNL     1     -41.406  15.853   7.247  1.00 20.00     0.131 C 
HETATM    2  C2  UNL     1     -41.322  16.523   8.595  1.00 20.00     0.079 C 
HETATM    3  C3  UNL     1     -40.238  15.709   9.287  1.00 20.00     0.008 C 
HETATM    4  C4  UNL     1     -40.379  14.311   8.700  1.00 20.00     0.013 C 
HETATM    5  C7  UNL     1     -40.624  14.556   7.209  1.00 20.00     0.055 C 
HETATM    6  O11 UNL     1     -42.034  16.310   6.300  1.00 20.00    -0.298 OA
ENDROOT
BRANCH   5   7
HETATM    7  C9  UNL     1     -41.380  13.426   6.540  1.00 20.00     0.012 C 
BRANCH   7   8
HETATM    8  C10 UNL     1     -40.819  13.115   5.152  1.00 20.00     0.005 C 
BRANCH   8   9
HETATM    9  C8  UNL     1     -39.919  11.889   5.174  1.00 20.00    -0.014 A 
HETATM   10  C5  UNL     1     -38.928  11.657   4.067  1.00 20.00     0.005 A 
HETATM   11  C6  UNL     1     -38.447  12.037   5.440  1.00 20.00     0.005 A 
ENDBRANCH   8   9
ENDBRANCH   7   8
ENDBRANCH   5   7
TORSDOF 3
ENDMDL
