MODEL 1
REMARK VINA RESULT:      -4.9      0.000      0.000
REMARK  4 active torsions:
REMARK  status: ('A' for Active; 'I' for Inactive)
REMARK    1  A    between atoms: C1_1  and  C8_8 
REMARK    2  A    between atoms: C1_1  and  C10_10 
REMARK    3  A    between atoms: C5_5  and  C9_9 
REMARK    4  A    between atoms: C9_9  and  C10_10 
ROOT
HETATM    1  C7  UNL     1     -31.764   8.628   4.648  1.00 20.00     0.018 C 
HETATM    2  C10 UNL     1     -32.874   8.512   3.607  1.00 20.00     0.051 C 
ENDROOT
BRANCH   2   3
HETATM    3  C1  UNL     1     -32.378   7.621   2.467  1.00 20.00     0.130 C 
HETATM    4  O11 UNL     1     -32.234   6.406   2.610  1.00 20.00    -0.298 OA
BRANCH   3   5
HETATM    5  C8  UNL     1     -32.107   8.317   1.143  1.00 20.00     0.074 C 
HETATM    6  C6  UNL     1     -32.846   9.638   1.014  1.00 20.00     0.013 C 
ENDBRANCH   3   5
ENDBRANCH   2   3
BRANCH   2   7
HETATM    7  C9  UNL     1     -34.159   7.963   4.241  1.00 20.00     0.016 C 
BRANCH   7   8
HETATM    8  C5  UNL     1     -33.874   6.724   5.062  1.00 20.00    -0.014 C 
HETATM    9  C3  UNL     1     -34.862   5.539   4.899  1.00 20.00     0.005 C 
HETATM   10  C2  UNL     1     -34.677   5.274   6.408  1.00 20.00     0.001 C 
HETATM   11  C4  UNL     1     -34.303   6.765   6.551  1.00 20.00     0.005 C 
ENDBRANCH   7   8
ENDBRANCH   2   7
TORSDOF 4
ENDMDL
MODEL 2
REMARK VINA RESULT:      -4.5     11.369     12.367
REMARK  4 active torsions:
REMARK  status: ('A' for Active; 'I' for Inactive)
REMARK    1  A    between atoms: C1_1  and  C8_8 
REMARK    2  A    between atoms: C1_1  and  C10_10 
REMARK    3  A    between atoms: C5_5  and  C9_9 
REMARK    4  A    between atoms: C9_9  and  C10_10 
ROOT
HETATM    1  C7  UNL     1     -34.307  19.073  -0.471  1.00 20.00     0.018 C 
HETATM    2  C10 UNL     1     -33.103  18.484  -1.200  1.00 20.00     0.051 C 
ENDROOT
BRANCH   2   3
HETATM    3  C1  UNL     1     -31.890  18.563  -0.274  1.00 20.00     0.130 C 
HETATM    4  O11 UNL     1     -30.743  18.654  -0.714  1.00 20.00    -0.298 OA
BRANCH   3   5
HETATM    5  C8  UNL     1     -32.184  18.556   1.218  1.00 20.00     0.074 C 
HETATM    6  C6  UNL     1     -30.932  18.401   2.062  1.00 20.00     0.013 C 
ENDBRANCH   3   5
ENDBRANCH   2   3
BRANCH   2   7
HETATM    7  C9  UNL     1     -33.387  17.043  -1.645  1.00 20.00     0.016 C 
BRANCH   7   8
HETATM    8  C5  UNL     1     -33.302  16.913  -3.151  1.00 20.00    -0.014 C 
HETATM    9  C3  UNL     1     -34.520  17.421  -3.964  1.00 20.00     0.005 C 
HETATM   10  C2  UNL     1     -34.281  16.236  -4.924  1.00 20.00     0.001 C 
HETATM   11  C4  UNL     1     -33.600  15.511  -3.744  1.00 20.00     0.005 C 
ENDBRANCH   7   8
ENDBRANCH   2   7
TORSDOF 4
ENDMDL
MODEL 3
REMARK VINA RESULT:      -4.5      1.480      2.451
REMARK  4 active torsions:
REMARK  status: ('A' for Active; 'I' for Inactive)
REMARK    1  A    between atoms: C1_1  and  C8_8 
REMARK    2  A    between atoms: C1_1  and  C10_10 
REMARK    3  A    between atoms: C5_5  and  C9_9 
REMARK    4  A    between atoms: C9_9  and  C10_10 
ROOT
HETATM    1  C7  UNL     1     -32.891   5.032   2.225  1.00 20.00     0.018 C 
HETATM    2  C10 UNL     1     -33.073   6.071   3.328  1.00 20.00     0.051 C 
ENDROOT
BRANCH   2   3
HETATM    3  C1  UNL     1     -32.272   7.318   2.955  1.00 20.00     0.130 C 
HETATM    4  O11 UNL     1     -32.195   7.714   1.791  1.00 20.00    -0.298 OA
BRANCH   3   5
HETATM    5  C8  UNL     1     -31.607   8.057   4.106  1.00 20.00     0.074 C 
HETATM    6  C6  UNL     1     -32.496   9.133   4.703  1.00 20.00     0.013 C 
ENDBRANCH   3   5
ENDBRANCH   2   3
BRANCH   2   7
HETATM    7  C9  UNL     1     -34.559   6.390   3.537  1.00 20.00     0.016 C 
BRANCH   7   8
HETATM    8  C5  UNL     1     -35.029   5.925   4.899  1.00 20.00    -0.014 C 
HETATM    9  C3  UNL     1     -34.416   6.644   6.129  1.00 20.00     0.005 C 
HETATM   10  C2  UNL     1     -34.436   5.277   6.845  1.00 20.00     0.001 C 
HETATM   11  C4  UNL     1     -34.387   4.624   5.447  1.00 20.00     0.005 C 
ENDBRANCH   7   8
ENDBRANCH   2   7
TORSDOF 4
ENDMDL
MODEL 4
REMARK VINA RESULT:      -4.5      1.063      4.576
REMARK  4 active torsions:
REMARK  status: ('A' for Active; 'I' for Inactive)
REMARK    1  A    between atoms: C1_1  and  C8_8 
REMARK    2  A    between atoms: C1_1  and  C10_10 
REMARK    3  A    between atoms: C5_5  and  C9_9 
REMARK    4  A    between atoms: C9_9  and  C10_10 
ROOT
HETATM    1  C7  UNL     1     -33.711   8.481   5.027  1.00 20.00     0.018 C 
HETATM    2  C10 UNL     1     -32.777   7.395   4.500  1.00 20.00     0.051 C 
ENDROOT
BRANCH   2   3
HETATM    3  C1  UNL     1     -33.625   6.214   4.027  1.00 20.00     0.130 C 
HETATM    4  O11 UNL     1     -33.251   5.470   3.120  1.00 20.00    -0.298 OA
BRANCH   3   5
HETATM    5  C8  UNL     1     -34.936   5.994   4.765  1.00 20.00     0.074 C 
HETATM    6  C6  UNL     1     -34.749   5.279   6.092  1.00 20.00     0.013 C 
ENDBRANCH   3   5
ENDBRANCH   2   3
BRANCH   2   7
HETATM    7  C9  UNL     1     -31.886   7.942   3.376  1.00 20.00     0.016 C 
BRANCH   7   8
HETATM    8  C5  UNL     1     -32.704   8.270   2.145  1.00 20.00    -0.014 C 
HETATM    9  C3  UNL     1     -31.990   8.125   0.776  1.00 20.00     0.005 C 
HETATM   10  C2  UNL     1     -32.780   9.369   0.316  1.00 20.00     0.001 C 
HETATM   11  C4  UNL     1     -32.870   9.774   1.803  1.00 20.00     0.005 C 
ENDBRANCH   7   8
ENDBRANCH   2   7
TORSDOF 4
ENDMDL
MODEL 5
REMARK VINA RESULT:      -4.3     11.278     12.280
REMARK  4 active torsions:
REMARK  status: ('A' for Active; 'I' for Inactive)
REMARK    1  A    between atoms: C1_1  and  C8_8 
REMARK    2  A    between atoms: C1_1  and  C10_10 
REMARK    3  A    between atoms: C5_5  and  C9_9 
REMARK    4  A    between atoms: C9_9  and  C10_10 
ROOT
HETATM    1  C7  UNL     1     -33.034  19.188  -3.414  1.00 20.00     0.018 C 
HETATM    2  C10 UNL     1     -33.875  18.027  -2.891  1.00 20.00     0.051 C 
ENDROOT
BRANCH   2   3
HETATM    3  C1  UNL     1     -33.985  16.973  -3.993  1.00 20.00     0.130 C 
HETATM    4  O11 UNL     1     -34.624  17.180  -5.025  1.00 20.00    -0.298 OA
BRANCH   3   5
HETATM    5  C8  UNL     1     -33.233  15.673  -3.754  1.00 20.00     0.074 C 
HETATM    6  C6  UNL     1     -34.012  14.454  -4.212  1.00 20.00     0.013 C 
ENDBRANCH   3   5
ENDBRANCH   2   3
BRANCH   2   7
HETATM    7  C9  UNL     1     -33.265  17.447  -1.608  1.00 20.00     0.016 C 
BRANCH   7   8
HETATM    8  C5  UNL     1     -32.698  18.544  -0.732  1.00 20.00    -0.014 C 
HETATM    9  C3  UNL     1     -31.211  18.401  -0.313  1.00 20.00     0.005 C 
HETATM   10  C2  UNL     1     -31.615  18.998   1.052  1.00 20.00     0.001 C 
HETATM   11  C4  UNL     1     -33.040  18.473   0.779  1.00 20.00     0.005 C 
ENDBRANCH   7   8
ENDBRANCH   2   7
TORSDOF 4
ENDMDL
MODEL 6
REMARK VINA RESULT:      -4.3      1.474      4.905
REMARK  4 active torsions:
REMARK  status: ('A' for Active; 'I' for Inactive)
REMARK    1  A    between atoms: C1_1  and  C8_8 
REMARK    2  A    between atoms: C1_1  and  C10_10 
REMARK    3  A    between atoms: C5_5  and  C9_9 
REMARK    4  A    between atoms: C9_9  and  C10_10 
ROOT
HETATM    1  C7  UNL     1     -33.073   5.291   2.929  1.00 20.00     0.018 C 
HETATM    2  C10 UNL     1     -33.224   6.776   3.248  1.00 20.00     0.051 C 
ENDROOT
BRANCH   2   3
HETATM    3  C1  UNL     1     -33.908   6.913   4.608  1.00 20.00     0.130 C 
HETATM    4  O11 UNL     1     -33.695   7.875   5.347  1.00 20.00    -0.298 OA
BRANCH   3   5
HETATM    5  C8  UNL     1     -34.889   5.811   4.978  1.00 20.00     0.074 C 
HETATM    6  C6  UNL     1     -34.654   5.261   6.373  1.00 20.00     0.013 C 
ENDBRANCH   3   5
ENDBRANCH   2   3
BRANCH   2   7
HETATM    7  C9  UNL     1     -31.860   7.479   3.223  1.00 20.00     0.016 C 
BRANCH   7   8
HETATM    8  C5  UNL     1     -31.800   8.510   2.116  1.00 20.00    -0.014 C 
HETATM    9  C3  UNL     1     -33.030   9.442   1.966  1.00 20.00     0.005 C 
HETATM   10  C2  UNL     1     -32.812   9.363   0.440  1.00 20.00     0.001 C 
HETATM   11  C4  UNL     1     -32.114   8.008   0.682  1.00 20.00     0.005 C 
ENDBRANCH   7   8
ENDBRANCH   2   7
TORSDOF 4
ENDMDL
MODEL 7
REMARK VINA RESULT:      -4.2      9.534     10.725
REMARK  4 active torsions:
REMARK  status: ('A' for Active; 'I' for Inactive)
REMARK    1  A    between atoms: C1_1  and  C8_8 
REMARK    2  A    between atoms: C1_1  and  C10_10 
REMARK    3  A    between atoms: C5_5  and  C9_9 
REMARK    4  A    between atoms: C9_9  and  C10_10 
ROOT
HETATM    1  C7  UNL     1     -42.379  14.365   4.731  1.00 20.00     0.018 C 
HETATM    2  C10 UNL     1     -41.368  14.064   5.834  1.00 20.00     0.051 C 
ENDROOT
BRANCH   2   3
HETATM    3  C1  UNL     1     -41.590  15.054   6.977  1.00 20.00     0.130 C 
HETATM    4  O11 UNL     1     -42.714  15.463   7.271  1.00 20.00    -0.298 OA
BRANCH   3   5
HETATM    5  C8  UNL     1     -40.349  15.475   7.749  1.00 20.00     0.074 C 
HETATM    6  C6  UNL     1     -40.198  14.732   9.065  1.00 20.00     0.013 C 
ENDBRANCH   3   5
ENDBRANCH   2   3
BRANCH   2   7
HETATM    7  C9  UNL     1     -41.495  12.610   6.307  1.00 20.00     0.016 C 
BRANCH   7   8
HETATM    8  C5  UNL     1     -40.279  11.800   5.908  1.00 20.00    -0.014 C 
HETATM    9  C3  UNL     1     -38.929  12.209   6.551  1.00 20.00     0.005 C 
HETATM   10  C2  UNL     1     -38.266  11.869   5.200  1.00 20.00     0.001 C 
HETATM   11  C4  UNL     1     -39.633  12.146   4.540  1.00 20.00     0.005 C 
ENDBRANCH   7   8
ENDBRANCH   2   7
TORSDOF 4
ENDMDL
MODEL 8
REMARK VINA RESULT:      -4.1      1.108      1.728
REMARK  4 active torsions:
REMARK  status: ('A' for Active; 'I' for Inactive)
REMARK    1  A    between atoms: C1_1  and  C8_8 
REMARK    2  A    between atoms: C1_1  and  C10_10 
REMARK    3  A    between atoms: C5_5  and  C9_9 
REMARK    4  A    between atoms: C9_9  and  C10_10 
ROOT
HETATM    1  C7  UNL     1     -31.840   8.669   4.754  1.00 20.00     0.018 C 
HETATM    2  C10 UNL     1     -32.933   8.547   3.697  1.00 20.00     0.051 C 
ENDROOT
BRANCH   2   3
HETATM    3  C1  UNL     1     -32.417   7.655   2.567  1.00 20.00     0.130 C 
HETATM    4  O11 UNL     1     -32.225   8.093   1.432  1.00 20.00    -0.298 OA
BRANCH   3   5
HETATM    5  C8  UNL     1     -32.125   6.209   2.937  1.00 20.00     0.074 C 
HETATM    6  C6  UNL     1     -32.949   5.221   2.131  1.00 20.00     0.013 C 
ENDBRANCH   3   5
ENDBRANCH   2   3
BRANCH   2   7
HETATM    7  C9  UNL     1     -34.227   7.996   4.312  1.00 20.00     0.016 C 
BRANCH   7   8
HETATM    8  C5  UNL     1     -33.951   6.760   5.141  1.00 20.00    -0.014 C 
HETATM    9  C3  UNL     1     -35.004   5.624   5.067  1.00 20.00     0.005 C 
HETATM   10  C2  UNL     1     -34.736   5.379   6.567  1.00 20.00     0.001 C 
HETATM   11  C4  UNL     1     -34.281   6.851   6.653  1.00 20.00     0.005 C 
ENDBRANCH   7   8
ENDBRANCH   2   7
TORSDOF 4
ENDMDL
MODEL 9
REMARK VINA RESULT:      -4.1     11.306     12.132
REMARK  4 active torsions:
REMARK  status: ('A' for Active; 'I' for Inactive)
REMARK    1  A    between atoms: C1_1  and  C8_8 
REMARK    2  A    between atoms: C1_1  and  C10_10 
REMARK    3  A    between atoms: C5_5  and  C9_9 
REMARK    4  A    between atoms: C9_9  and  C10_10 
ROOT
HETATM    1  C7  UNL     1     -33.304  18.355  -3.943  1.00 20.00     0.018 C 
HETATM    2  C10 UNL     1     -33.961  17.125  -3.323  1.00 20.00     0.051 C 
ENDROOT
BRANCH   2   3
HETATM    3  C1  UNL     1     -33.748  15.937  -4.263  1.00 20.00     0.130 C 
HETATM    4  O11 UNL     1     -32.823  15.141  -4.100  1.00 20.00    -0.298 OA
BRANCH   3   5
HETATM    5  C8  UNL     1     -34.763  15.781  -5.385  1.00 20.00     0.074 C 
HETATM    6  C6  UNL     1     -34.138  15.277  -6.673  1.00 20.00     0.013 C 
ENDBRANCH   3   5
ENDBRANCH   2   3
BRANCH   2   7
HETATM    7  C9  UNL     1     -33.394  16.852  -1.923  1.00 20.00     0.016 C 
BRANCH   7   8
HETATM    8  C5  UNL     1     -33.184  18.143  -1.161  1.00 20.00    -0.014 C 
HETATM    9  C3  UNL     1     -31.766  18.385  -0.582  1.00 20.00     0.005 C 
HETATM   10  C2  UNL     1     -32.455  19.033   0.638  1.00 20.00     0.001 C 
HETATM   11  C4  UNL     1     -33.693  18.175   0.303  1.00 20.00     0.005 C 
ENDBRANCH   7   8
ENDBRANCH   2   7
TORSDOF 4
ENDMDL
