MODEL 1
REMARK VINA RESULT:      -4.6      0.000      0.000
REMARK  4 active torsions:
REMARK  status: ('A' for Active; 'I' for Inactive)
REMARK    1  A    between atoms: C4_4  and  C6_6 
REMARK    2  A    between atoms: C6_6  and  C8_8 
REMARK    3  A    between atoms: C7_7  and  C8_8 
REMARK    4  A    between atoms: C8_8  and  O10_10 
ROOT
HETATM    1  C6  UNL     1     -33.877   8.165   4.565  1.00 20.00     0.038 C 
ENDROOT
BRANCH   1   2
HETATM    2  C4  UNL     1     -33.819   6.725   5.038  1.00 20.00     0.014 C 
HETATM    3  C1  UNL     1     -34.290   6.520   6.462  1.00 20.00     0.033 C 
HETATM    4  C2  UNL     1     -34.587   5.035   6.476  1.00 20.00     0.168 C 
HETATM    5  O9  UNL     1     -35.013   4.684   5.151  1.00 20.00    -0.391 OA
HETATM    6  C3  UNL     1     -34.748   5.794   4.279  1.00 20.00     0.172 C 
ENDBRANCH   1   2
BRANCH   1   7
HETATM    7  C8  UNL     1     -32.515   8.676   4.083  1.00 20.00     0.118 C 
BRANCH   7   8
HETATM    8  C7  UNL     1     -31.897   7.701   3.074  1.00 20.00     0.027 C 
HETATM    9  C5  UNL     1     -32.246   8.043   1.632  1.00 20.00     0.007 C 
ENDBRANCH   7   8
BRANCH   7  10
HETATM   10  O10 UNL     1     -31.657   8.810   5.214  1.00 20.00    -0.396 OA
HETATM   11  H26 UNL     1     -31.489   7.912   5.540  1.00 20.00     0.210 HD
ENDBRANCH   7  10
ENDBRANCH   1   7
TORSDOF 4
ENDMDL
MODEL 2
REMARK VINA RESULT:      -3.9     11.871     13.009
REMARK  4 active torsions:
REMARK  status: ('A' for Active; 'I' for Inactive)
REMARK    1  A    between atoms: C4_4  and  C6_6 
REMARK    2  A    between atoms: C6_6  and  C8_8 
REMARK    3  A    between atoms: C7_7  and  C8_8 
REMARK    4  A    between atoms: C8_8  and  O10_10 
ROOT
HETATM    1  C6  UNL     1     -33.950  15.545  -3.469  1.00 20.00     0.038 C 
ENDROOT
BRANCH   1   2
HETATM    2  C4  UNL     1     -33.143  16.710  -2.930  1.00 20.00     0.014 C 
HETATM    3  C1  UNL     1     -33.289  17.989  -3.726  1.00 20.00     0.033 C 
HETATM    4  C2  UNL     1     -32.818  19.027  -2.730  1.00 20.00     0.168 C 
HETATM    5  O9  UNL     1     -33.165  18.538  -1.426  1.00 20.00    -0.391 OA
HETATM    6  C3  UNL     1     -33.577  17.168  -1.547  1.00 20.00     0.172 C 
ENDBRANCH   1   2
BRANCH   1   7
HETATM    7  C8  UNL     1     -33.365  14.983  -4.769  1.00 20.00     0.118 C 
BRANCH   7   8
HETATM    8  C7  UNL     1     -34.387  15.076  -5.908  1.00 20.00     0.027 C 
HETATM    9  C5  UNL     1     -35.769  14.580  -5.505  1.00 20.00     0.007 C 
ENDBRANCH   7   8
BRANCH   7  10
HETATM   10  O10 UNL     1     -33.008  13.620  -4.550  1.00 20.00    -0.396 OA
HETATM   11  H26 UNL     1     -33.805  13.175  -4.223  1.00 20.00     0.210 HD
ENDBRANCH   7  10
ENDBRANCH   1   7
TORSDOF 4
ENDMDL
MODEL 3
REMARK VINA RESULT:      -3.8     15.636     16.484
REMARK  4 active torsions:
REMARK  status: ('A' for Active; 'I' for Inactive)
REMARK    1  A    between atoms: C4_4  and  C6_6 
REMARK    2  A    between atoms: C6_6  and  C8_8 
REMARK    3  A    between atoms: C7_7  and  C8_8 
REMARK    4  A    between atoms: C8_8  and  O10_10 
ROOT
HETATM    1  C6  UNL     1     -23.114  18.543  11.136  1.00 20.00     0.038 C 
ENDROOT
BRANCH   1   2
HETATM    2  C4  UNL     1     -22.498  18.760   9.768  1.00 20.00     0.014 C 
HETATM    3  C1  UNL     1     -21.849  17.527   9.176  1.00 20.00     0.033 C 
HETATM    4  C2  UNL     1     -21.787  17.888   7.707  1.00 20.00     0.168 C 
HETATM    5  O9  UNL     1     -22.918  18.730   7.438  1.00 20.00    -0.391 OA
HETATM    6  C3  UNL     1     -23.509  19.112   8.690  1.00 20.00     0.172 C 
ENDBRANCH   1   2
BRANCH   1   7
HETATM    7  C8  UNL     1     -24.633  18.349  11.068  1.00 20.00     0.118 C 
BRANCH   7   8
HETATM    8  C7  UNL     1     -25.306  18.897  12.331  1.00 20.00     0.027 C 
HETATM    9  C5  UNL     1     -26.768  19.262  12.110  1.00 20.00     0.007 C 
ENDBRANCH   7   8
BRANCH   7  10
HETATM   10  O10 UNL     1     -24.904  16.955  10.941  1.00 20.00    -0.396 OA
HETATM   11  H26 UNL     1     -25.537  16.732  11.642  1.00 20.00     0.210 HD
ENDBRANCH   7  10
ENDBRANCH   1   7
TORSDOF 4
ENDMDL
MODEL 4
REMARK VINA RESULT:      -3.8     12.101     12.946
REMARK  4 active torsions:
REMARK  status: ('A' for Active; 'I' for Inactive)
REMARK    1  A    between atoms: C4_4  and  C6_6 
REMARK    2  A    between atoms: C6_6  and  C8_8 
REMARK    3  A    between atoms: C7_7  and  C8_8 
REMARK    4  A    between atoms: C8_8  and  O10_10 
ROOT
HETATM    1  C6  UNL     1     -32.562  18.826  -2.203  1.00 20.00     0.038 C 
ENDROOT
BRANCH   1   2
HETATM    2  C4  UNL     1     -32.431  18.313  -0.781  1.00 20.00     0.014 C 
HETATM    3  C1  UNL     1     -31.068  18.539  -0.163  1.00 20.00     0.033 C 
HETATM    4  C2  UNL     1     -31.375  18.405   1.314  1.00 20.00     0.168 C 
HETATM    5  O9  UNL     1     -32.720  18.868   1.502  1.00 20.00    -0.391 OA
HETATM    6  C3  UNL     1     -33.332  19.028   0.212  1.00 20.00     0.172 C 
ENDBRANCH   1   2
BRANCH   1   7
HETATM    7  C8  UNL     1     -33.467  17.936  -3.062  1.00 20.00     0.118 C 
BRANCH   7   8
HETATM    8  C7  UNL     1     -33.345  16.469  -2.637  1.00 20.00     0.027 C 
HETATM    9  C5  UNL     1     -33.558  15.499  -3.792  1.00 20.00     0.007 C 
ENDBRANCH   7   8
BRANCH   7  10
HETATM   10  O10 UNL     1     -33.077  18.079  -4.426  1.00 20.00    -0.396 OA
HETATM   11  H26 UNL     1     -32.953  19.029  -4.579  1.00 20.00     0.210 HD
ENDBRANCH   7  10
ENDBRANCH   1   7
TORSDOF 4
ENDMDL
MODEL 5
REMARK VINA RESULT:      -3.8     12.033     12.889
REMARK  4 active torsions:
REMARK  status: ('A' for Active; 'I' for Inactive)
REMARK    1  A    between atoms: C4_4  and  C6_6 
REMARK    2  A    between atoms: C6_6  and  C8_8 
REMARK    3  A    between atoms: C7_7  and  C8_8 
REMARK    4  A    between atoms: C8_8  and  O10_10 
ROOT
HETATM    1  C6  UNL     1     -33.493  18.110  -0.049  1.00 20.00     0.038 C 
ENDROOT
BRANCH   1   2
HETATM    2  C4  UNL     1     -32.910  17.804  -1.415  1.00 20.00     0.014 C 
HETATM    3  C1  UNL     1     -33.582  16.654  -2.134  1.00 20.00     0.033 C 
HETATM    4  C2  UNL     1     -33.164  16.901  -3.568  1.00 20.00     0.168 C 
HETATM    5  O9  UNL     1     -33.030  18.322  -3.722  1.00 20.00    -0.391 OA
HETATM    6  C3  UNL     1     -33.086  18.929  -2.421  1.00 20.00     0.172 C 
ENDBRANCH   1   2
BRANCH   1   7
HETATM    7  C8  UNL     1     -32.571  18.999   0.793  1.00 20.00     0.118 C 
BRANCH   7   8
HETATM    8  C7  UNL     1     -31.119  18.520   0.693  1.00 20.00     0.027 C 
HETATM    9  C5  UNL     1     -30.430  18.435   2.048  1.00 20.00     0.007 C 
ENDBRANCH   7   8
BRANCH   7  10
HETATM   10  O10 UNL     1     -33.007  18.944   2.150  1.00 20.00    -0.396 OA
HETATM   11  H26 UNL     1     -33.297  19.840   2.382  1.00 20.00     0.210 HD
ENDBRANCH   7  10
ENDBRANCH   1   7
TORSDOF 4
ENDMDL
MODEL 6
REMARK VINA RESULT:      -3.8     11.994     13.479
REMARK  4 active torsions:
REMARK  status: ('A' for Active; 'I' for Inactive)
REMARK    1  A    between atoms: C4_4  and  C6_6 
REMARK    2  A    between atoms: C6_6  and  C8_8 
REMARK    3  A    between atoms: C7_7  and  C8_8 
REMARK    4  A    between atoms: C8_8  and  O10_10 
ROOT
HETATM    1  C6  UNL     1     -34.481  14.453  -4.625  1.00 20.00     0.038 C 
ENDROOT
BRANCH   1   2
HETATM    2  C4  UNL     1     -35.181  15.475  -5.500  1.00 20.00     0.014 C 
HETATM    3  C1  UNL     1     -34.830  15.380  -6.969  1.00 20.00     0.033 C 
HETATM    4  C2  UNL     1     -35.984  16.123  -7.610  1.00 20.00     0.168 C 
HETATM    5  O9  UNL     1     -37.130  15.913  -6.771  1.00 20.00    -0.391 OA
HETATM    6  C3  UNL     1     -36.691  15.314  -5.542  1.00 20.00     0.172 C 
ENDBRANCH   1   2
BRANCH   1   7
HETATM    7  C8  UNL     1     -33.317  15.061  -3.836  1.00 20.00     0.118 C 
BRANCH   7   8
HETATM    8  C7  UNL     1     -33.562  16.550  -3.569  1.00 20.00     0.027 C 
HETATM    9  C5  UNL     1     -33.424  16.917  -2.097  1.00 20.00     0.007 C 
ENDBRANCH   7   8
BRANCH   7  10
HETATM   10  O10 UNL     1     -32.122  14.897  -4.596  1.00 20.00    -0.396 OA
HETATM   11  H26 UNL     1     -32.398  14.672  -5.499  1.00 20.00     0.210 HD
ENDBRANCH   7  10
ENDBRANCH   1   7
TORSDOF 4
ENDMDL
MODEL 7
REMARK VINA RESULT:      -3.7     12.240     13.281
REMARK  4 active torsions:
REMARK  status: ('A' for Active; 'I' for Inactive)
REMARK    1  A    between atoms: C4_4  and  C6_6 
REMARK    2  A    between atoms: C6_6  and  C8_8 
REMARK    3  A    between atoms: C7_7  and  C8_8 
REMARK    4  A    between atoms: C8_8  and  O10_10 
ROOT
HETATM    1  C6  UNL     1     -33.695  15.382  -4.229  1.00 20.00     0.038 C 
ENDROOT
BRANCH   1   2
HETATM    2  C4  UNL     1     -33.968  16.685  -3.502  1.00 20.00     0.014 C 
HETATM    3  C1  UNL     1     -33.352  16.767  -2.123  1.00 20.00     0.033 C 
HETATM    4  C2  UNL     1     -33.355  18.261  -1.874  1.00 20.00     0.168 C 
HETATM    5  O9  UNL     1     -33.196  18.895  -3.152  1.00 20.00    -0.391 OA
HETATM    6  C3  UNL     1     -33.357  17.901  -4.176  1.00 20.00     0.172 C 
ENDBRANCH   1   2
BRANCH   1   7
HETATM    7  C8  UNL     1     -34.227  15.393  -5.667  1.00 20.00     0.118 C 
BRANCH   7   8
HETATM    8  C7  UNL     1     -35.608  14.731  -5.738  1.00 20.00     0.027 C 
HETATM    9  C5  UNL     1     -35.817  13.683  -4.654  1.00 20.00     0.007 C 
ENDBRANCH   7   8
BRANCH   7  10
HETATM   10  O10 UNL     1     -33.307  14.685  -6.494  1.00 20.00    -0.396 OA
HETATM   11  H26 UNL     1     -33.834  14.251  -7.183  1.00 20.00     0.210 HD
ENDBRANCH   7  10
ENDBRANCH   1   7
TORSDOF 4
ENDMDL
MODEL 8
REMARK VINA RESULT:      -3.7     12.392     13.056
REMARK  4 active torsions:
REMARK  status: ('A' for Active; 'I' for Inactive)
REMARK    1  A    between atoms: C4_4  and  C6_6 
REMARK    2  A    between atoms: C6_6  and  C8_8 
REMARK    3  A    between atoms: C7_7  and  C8_8 
REMARK    4  A    between atoms: C8_8  and  O10_10 
ROOT
HETATM    1  C6  UNL     1     -33.483  17.298  -1.848  1.00 20.00     0.038 C 
ENDROOT
BRANCH   1   2
HETATM    2  C4  UNL     1     -33.421  16.936  -3.320  1.00 20.00     0.014 C 
HETATM    3  C1  UNL     1     -33.564  15.456  -3.602  1.00 20.00     0.033 C 
HETATM    4  C2  UNL     1     -33.955  15.458  -5.065  1.00 20.00     0.168 C 
HETATM    5  O9  UNL     1     -34.699  16.664  -5.293  1.00 20.00    -0.391 OA
HETATM    6  C3  UNL     1     -34.565  17.508  -4.140  1.00 20.00     0.172 C 
ENDBRANCH   1   2
BRANCH   1   7
HETATM    7  C8  UNL     1     -32.262  18.104  -1.394  1.00 20.00     0.118 C 
BRANCH   7   8
HETATM    8  C7  UNL     1     -32.403  18.522   0.074  1.00 20.00     0.027 C 
HETATM    9  C5  UNL     1     -31.084  18.475   0.832  1.00 20.00     0.007 C 
ENDBRANCH   7   8
BRANCH   7  10
HETATM   10  O10 UNL     1     -32.153  19.263  -2.219  1.00 20.00    -0.396 OA
HETATM   11  H26 UNL     1     -31.558  19.027  -2.948  1.00 20.00     0.210 HD
ENDBRANCH   7  10
ENDBRANCH   1   7
TORSDOF 4
ENDMDL
MODEL 9
REMARK VINA RESULT:      -3.7     11.923     13.672
REMARK  4 active torsions:
REMARK  status: ('A' for Active; 'I' for Inactive)
REMARK    1  A    between atoms: C4_4  and  C6_6 
REMARK    2  A    between atoms: C6_6  and  C8_8 
REMARK    3  A    between atoms: C7_7  and  C8_8 
REMARK    4  A    between atoms: C8_8  and  O10_10 
ROOT
HETATM    1  C6  UNL     1     -34.151  15.307  -5.806  1.00 20.00     0.038 C 
ENDROOT
BRANCH   1   2
HETATM    2  C4  UNL     1     -35.655  15.351  -5.999  1.00 20.00     0.014 C 
HETATM    3  C1  UNL     1     -36.320  16.579  -5.418  1.00 20.00     0.033 C 
HETATM    4  C2  UNL     1     -37.639  16.595  -6.163  1.00 20.00     0.168 C 
HETATM    5  O9  UNL     1     -37.392  16.029  -7.458  1.00 20.00    -0.391 OA
HETATM    6  C3  UNL     1     -36.082  15.439  -7.455  1.00 20.00     0.172 C 
ENDBRANCH   1   2
BRANCH   1   7
HETATM    7  C8  UNL     1     -33.757  14.841  -4.400  1.00 20.00     0.118 C 
BRANCH   7   8
HETATM    8  C7  UNL     1     -32.907  15.903  -3.695  1.00 20.00     0.027 C 
HETATM    9  C5  UNL     1     -33.604  16.511  -2.486  1.00 20.00     0.007 C 
ENDBRANCH   7   8
BRANCH   7  10
HETATM   10  O10 UNL     1     -33.017  13.628  -4.518  1.00 20.00    -0.396 OA
HETATM   11  H26 UNL     1     -33.604  12.988  -4.951  1.00 20.00     0.210 HD
ENDBRANCH   7  10
ENDBRANCH   1   7
TORSDOF 4
ENDMDL
