MODEL 1
REMARK VINA RESULT:      -4.8      0.000      0.000
REMARK  4 active torsions:
REMARK  status: ('A' for Active; 'I' for Inactive)
REMARK    1  A    between atoms: C6_6  and  C9_9 
REMARK    2  A    between atoms: C7_7  and  C10_10 
REMARK    3  A    between atoms: C8_8  and  O11_11 
REMARK    4  A    between atoms: C9_9  and  C10_10 
ROOT
HETATM    1  C1  UNL     1     -34.475   6.273   6.399  1.00 20.00     0.003 C 
HETATM    2  C2  UNL     1     -33.324   7.145   5.895  1.00 20.00     0.007 C 
HETATM    3  C5  UNL     1     -35.172   5.711   5.156  1.00 20.00     0.032 C 
HETATM    4  C7  UNL     1     -33.554   7.285   4.389  1.00 20.00     0.014 C 
HETATM    5  C8  UNL     1     -34.195   5.949   4.011  1.00 20.00     0.122 C 
ENDROOT
BRANCH   4   6
HETATM    6  C10 UNL     1     -32.279   7.615   3.628  1.00 20.00     0.007 C 
BRANCH   6   7
HETATM    7  C9  UNL     1     -32.423   7.316   2.138  1.00 20.00     0.005 C 
BRANCH   7   8
HETATM    8  C6  UNL     1     -32.035   8.517   1.289  1.00 20.00    -0.014 A 
HETATM    9  C3  UNL     1     -32.828   8.864   0.060  1.00 20.00     0.005 A 
HETATM   10  C4  UNL     1     -32.902   9.746   1.276  1.00 20.00     0.005 A 
ENDBRANCH   7   8
ENDBRANCH   6   7
ENDBRANCH   4   6
BRANCH   5  11
HETATM   11  O11 UNL     1     -33.227   4.909   3.981  1.00 20.00    -0.395 OA
HETATM   12  H29 UNL     1     -33.299   4.436   4.827  1.00 20.00     0.210 HD
ENDBRANCH   5  11
TORSDOF 4
ENDMDL
MODEL 2
REMARK VINA RESULT:      -4.7      1.281      1.763
REMARK  4 active torsions:
REMARK  status: ('A' for Active; 'I' for Inactive)
REMARK    1  A    between atoms: C6_6  and  C9_9 
REMARK    2  A    between atoms: C7_7  and  C10_10 
REMARK    3  A    between atoms: C8_8  and  O11_11 
REMARK    4  A    between atoms: C9_9  and  C10_10 
ROOT
HETATM    1  C1  UNL     1     -34.956   5.588   5.201  1.00 20.00     0.003 C 
HETATM    2  C2  UNL     1     -34.190   6.127   3.993  1.00 20.00     0.007 C 
HETATM    3  C5  UNL     1     -34.310   6.212   6.441  1.00 20.00     0.032 C 
HETATM    4  C7  UNL     1     -32.958   6.824   4.575  1.00 20.00     0.014 C 
HETATM    5  C8  UNL     1     -33.467   7.367   5.912  1.00 20.00     0.122 C 
ENDROOT
BRANCH   4   6
HETATM    6  C10 UNL     1     -32.382   7.877   3.641  1.00 20.00     0.007 C 
BRANCH   6   7
HETATM    7  C9  UNL     1     -32.313   7.371   2.202  1.00 20.00     0.005 C 
BRANCH   7   8
HETATM    8  C6  UNL     1     -32.000   8.498   1.230  1.00 20.00    -0.014 A 
HETATM    9  C3  UNL     1     -32.875   8.727   0.028  1.00 20.00     0.005 A 
HETATM   10  C4  UNL     1     -32.888   9.710   1.166  1.00 20.00     0.005 A 
ENDBRANCH   7   8
ENDBRANCH   6   7
ENDBRANCH   4   6
BRANCH   5  11
HETATM   11  O11 UNL     1     -34.286   8.511   5.718  1.00 20.00    -0.395 OA
HETATM   12  H29 UNL     1     -34.294   8.692   4.764  1.00 20.00     0.210 HD
ENDBRANCH   5  11
TORSDOF 4
ENDMDL
MODEL 3
REMARK VINA RESULT:      -4.4     11.539     12.438
REMARK  4 active torsions:
REMARK  status: ('A' for Active; 'I' for Inactive)
REMARK    1  A    between atoms: C6_6  and  C9_9 
REMARK    2  A    between atoms: C7_7  and  C10_10 
REMARK    3  A    between atoms: C8_8  and  O11_11 
REMARK    4  A    between atoms: C9_9  and  C10_10 
ROOT
HETATM    1  C1  UNL     1     -34.030  14.815  -5.364  1.00 20.00     0.003 C 
HETATM    2  C2  UNL     1     -33.126  15.104  -4.166  1.00 20.00     0.007 C 
HETATM    3  C5  UNL     1     -35.085  15.926  -5.393  1.00 20.00     0.032 C 
HETATM    4  C7  UNL     1     -33.840  16.205  -3.378  1.00 20.00     0.014 C 
HETATM    5  C8  UNL     1     -34.542  17.012  -4.471  1.00 20.00     0.122 C 
ENDROOT
BRANCH   4   6
HETATM    6  C10 UNL     1     -32.892  17.011  -2.504  1.00 20.00     0.007 C 
BRANCH   6   7
HETATM    7  C9  UNL     1     -33.568  17.462  -1.212  1.00 20.00     0.005 C 
BRANCH   7   8
HETATM    8  C6  UNL     1     -32.832  18.630  -0.576  1.00 20.00    -0.014 A 
HETATM    9  C3  UNL     1     -32.330  18.531   0.838  1.00 20.00     0.005 A 
HETATM   10  C4  UNL     1     -31.355  18.538  -0.306  1.00 20.00     0.005 A 
ENDBRANCH   7   8
ENDBRANCH   6   7
ENDBRANCH   4   6
BRANCH   5  11
HETATM   11  O11 UNL     1     -33.616  17.825  -5.180  1.00 20.00    -0.395 OA
HETATM   12  H29 UNL     1     -32.730  17.567  -4.878  1.00 20.00     0.210 HD
ENDBRANCH   5  11
TORSDOF 4
ENDMDL
MODEL 4
REMARK VINA RESULT:      -4.4     10.151     10.842
REMARK  4 active torsions:
REMARK  status: ('A' for Active; 'I' for Inactive)
REMARK    1  A    between atoms: C6_6  and  C9_9 
REMARK    2  A    between atoms: C7_7  and  C10_10 
REMARK    3  A    between atoms: C8_8  and  O11_11 
REMARK    4  A    between atoms: C9_9  and  C10_10 
ROOT
HETATM    1  C1  UNL     1     -40.743  16.407   7.767  1.00 20.00     0.003 C 
HETATM    2  C2  UNL     1     -41.212  15.405   6.712  1.00 20.00     0.007 C 
HETATM    3  C5  UNL     1     -40.895  15.713   9.125  1.00 20.00     0.032 C 
HETATM    4  C7  UNL     1     -41.877  14.272   7.498  1.00 20.00     0.014 C 
HETATM    5  C8  UNL     1     -41.072  14.235   8.798  1.00 20.00     0.122 C 
ENDROOT
BRANCH   4   6
HETATM    6  C10 UNL     1     -41.903  12.960   6.730  1.00 20.00     0.007 C 
BRANCH   6   7
HETATM    7  C9  UNL     1     -41.022  13.023   5.484  1.00 20.00     0.005 C 
BRANCH   7   8
HETATM    8  C6  UNL     1     -40.027  11.873   5.447  1.00 20.00    -0.014 A 
HETATM    9  C3  UNL     1     -39.120  11.693   4.262  1.00 20.00     0.005 A 
HETATM   10  C4  UNL     1     -38.554  12.142   5.580  1.00 20.00     0.005 A 
ENDBRANCH   7   8
ENDBRANCH   6   7
ENDBRANCH   4   6
BRANCH   5  11
HETATM   11  O11 UNL     1     -39.801  13.633   8.593  1.00 20.00    -0.395 OA
HETATM   12  H29 UNL     1     -39.213  13.977   9.286  1.00 20.00     0.210 HD
ENDBRANCH   5  11
TORSDOF 4
ENDMDL
MODEL 5
REMARK VINA RESULT:      -4.4     11.100     12.272
REMARK  4 active torsions:
REMARK  status: ('A' for Active; 'I' for Inactive)
REMARK    1  A    between atoms: C6_6  and  C9_9 
REMARK    2  A    between atoms: C7_7  and  C10_10 
REMARK    3  A    between atoms: C8_8  and  O11_11 
REMARK    4  A    between atoms: C9_9  and  C10_10 
ROOT
HETATM    1  C1  UNL     1     -34.994  16.169  -6.109  1.00 20.00     0.003 C 
HETATM    2  C2  UNL     1     -34.816  16.827  -4.741  1.00 20.00     0.007 C 
HETATM    3  C5  UNL     1     -34.020  14.989  -6.155  1.00 20.00     0.032 C 
HETATM    4  C7  UNL     1     -33.560  16.186  -4.145  1.00 20.00     0.014 C 
HETATM    5  C8  UNL     1     -33.598  14.764  -4.708  1.00 20.00     0.122 C 
ENDROOT
BRANCH   4   6
HETATM    6  C10 UNL     1     -33.523  16.268  -2.627  1.00 20.00     0.007 C 
BRANCH   6   7
HETATM    7  C9  UNL     1     -33.529  17.716  -2.143  1.00 20.00     0.005 C 
BRANCH   7   8
HETATM    8  C6  UNL     1     -32.883  17.848  -0.773  1.00 20.00    -0.014 A 
HETATM    9  C3  UNL     1     -31.607  18.626  -0.609  1.00 20.00     0.005 A 
HETATM   10  C4  UNL     1     -32.895  19.169  -0.055  1.00 20.00     0.005 A 
ENDBRANCH   7   8
ENDBRANCH   6   7
ENDBRANCH   4   6
BRANCH   5  11
HETATM   11  O11 UNL     1     -34.575  13.978  -4.039  1.00 20.00    -0.395 OA
HETATM   12  H29 UNL     1     -34.820  14.461  -3.233  1.00 20.00     0.210 HD
ENDBRANCH   5  11
TORSDOF 4
ENDMDL
MODEL 6
REMARK VINA RESULT:      -4.4     11.335     12.812
REMARK  4 active torsions:
REMARK  status: ('A' for Active; 'I' for Inactive)
REMARK    1  A    between atoms: C6_6  and  C9_9 
REMARK    2  A    between atoms: C7_7  and  C10_10 
REMARK    3  A    between atoms: C8_8  and  O11_11 
REMARK    4  A    between atoms: C9_9  and  C10_10 
ROOT
HETATM    1  C1  UNL     1     -36.264  15.185  -7.208  1.00 20.00     0.003 C 
HETATM    2  C2  UNL     1     -35.919  14.604  -5.837  1.00 20.00     0.007 C 
HETATM    3  C5  UNL     1     -35.181  16.219  -7.529  1.00 20.00     0.032 C 
HETATM    4  C7  UNL     1     -34.813  15.505  -5.284  1.00 20.00     0.014 C 
HETATM    5  C8  UNL     1     -34.055  15.934  -6.541  1.00 20.00     0.122 C 
ENDROOT
BRANCH   4   6
HETATM    6  C10 UNL     1     -33.959  14.811  -4.234  1.00 20.00     0.007 C 
BRANCH   6   7
HETATM    7  C9  UNL     1     -32.987  15.784  -3.569  1.00 20.00     0.005 C 
BRANCH   7   8
HETATM    8  C6  UNL     1     -33.720  16.957  -2.936  1.00 20.00    -0.014 A 
HETATM    9  C3  UNL     1     -33.530  17.270  -1.478  1.00 20.00     0.005 A 
HETATM   10  C4  UNL     1     -32.963  18.189  -2.524  1.00 20.00     0.005 A 
ENDBRANCH   7   8
ENDBRANCH   6   7
ENDBRANCH   4   6
BRANCH   5  11
HETATM   11  O11 UNL     1     -33.241  14.877  -7.031  1.00 20.00    -0.395 OA
HETATM   12  H29 UNL     1     -33.188  14.989  -7.995  1.00 20.00     0.210 HD
ENDBRANCH   5  11
TORSDOF 4
ENDMDL
MODEL 7
REMARK VINA RESULT:      -4.4     11.263     11.915
REMARK  4 active torsions:
REMARK  status: ('A' for Active; 'I' for Inactive)
REMARK    1  A    between atoms: C6_6  and  C9_9 
REMARK    2  A    between atoms: C7_7  and  C10_10 
REMARK    3  A    between atoms: C8_8  and  O11_11 
REMARK    4  A    between atoms: C9_9  and  C10_10 
ROOT
HETATM    1  C1  UNL     1     -31.060  18.551   0.920  1.00 20.00     0.003 C 
HETATM    2  C2  UNL     1     -31.579  18.221  -0.479  1.00 20.00     0.007 C 
HETATM    3  C5  UNL     1     -32.202  19.263   1.652  1.00 20.00     0.032 C 
HETATM    4  C7  UNL     1     -32.896  18.988  -0.612  1.00 20.00     0.014 C 
HETATM    5  C8  UNL     1     -33.445  18.983   0.815  1.00 20.00     0.122 C 
ENDROOT
BRANCH   4   6
HETATM    6  C10 UNL     1     -33.826  18.382  -1.652  1.00 20.00     0.007 C 
BRANCH   6   7
HETATM    7  C9  UNL     1     -33.462  16.930  -1.951  1.00 20.00     0.005 C 
BRANCH   7   8
HETATM    8  C6  UNL     1     -33.182  16.720  -3.431  1.00 20.00    -0.014 A 
HETATM    9  C3  UNL     1     -33.192  15.334  -4.014  1.00 20.00     0.005 A 
HETATM   10  C4  UNL     1     -34.289  16.302  -4.359  1.00 20.00     0.005 A 
ENDBRANCH   7   8
ENDBRANCH   6   7
ENDBRANCH   4   6
BRANCH   5  11
HETATM   11  O11 UNL     1     -33.975  17.709   1.153  1.00 20.00    -0.395 OA
HETATM   12  H29 UNL     1     -33.780  17.118   0.407  1.00 20.00     0.210 HD
ENDBRANCH   5  11
TORSDOF 4
ENDMDL
MODEL 8
REMARK VINA RESULT:      -4.3     10.240     10.917
REMARK  4 active torsions:
REMARK  status: ('A' for Active; 'I' for Inactive)
REMARK    1  A    between atoms: C6_6  and  C9_9 
REMARK    2  A    between atoms: C7_7  and  C10_10 
REMARK    3  A    between atoms: C8_8  and  O11_11 
REMARK    4  A    between atoms: C9_9  and  C10_10 
ROOT
HETATM    1  C1  UNL     1     -40.459  15.344   9.320  1.00 20.00     0.003 C 
HETATM    2  C2  UNL     1     -40.286  14.482   8.070  1.00 20.00     0.007 C 
HETATM    3  C5  UNL     1     -41.955  15.340   9.649  1.00 20.00     0.032 C 
HETATM    4  C7  UNL     1     -41.705  14.232   7.553  1.00 20.00     0.014 C 
HETATM    5  C8  UNL     1     -42.537  14.191   8.835  1.00 20.00     0.122 C 
ENDROOT
BRANCH   4   6
HETATM    6  C10 UNL     1     -41.804  12.983   6.691  1.00 20.00     0.007 C 
BRANCH   6   7
HETATM    7  C9  UNL     1     -40.892  13.071   5.470  1.00 20.00     0.005 C 
BRANCH   7   8
HETATM    8  C6  UNL     1     -39.958  11.874   5.385  1.00 20.00    -0.014 A 
HETATM    9  C3  UNL     1     -39.068  11.691   4.187  1.00 20.00     0.005 A 
HETATM   10  C4  UNL     1     -38.472  12.062   5.517  1.00 20.00     0.005 A 
ENDBRANCH   7   8
ENDBRANCH   6   7
ENDBRANCH   4   6
BRANCH   5  11
HETATM   11  O11 UNL     1     -42.345  12.965   9.529  1.00 20.00    -0.395 OA
HETATM   12  H29 UNL     1     -43.193  12.746   9.949  1.00 20.00     0.210 HD
ENDBRANCH   5  11
TORSDOF 4
ENDMDL
MODEL 9
REMARK VINA RESULT:      -4.1     11.463     12.158
REMARK  4 active torsions:
REMARK  status: ('A' for Active; 'I' for Inactive)
REMARK    1  A    between atoms: C6_6  and  C9_9 
REMARK    2  A    between atoms: C7_7  and  C10_10 
REMARK    3  A    between atoms: C8_8  and  O11_11 
REMARK    4  A    between atoms: C9_9  and  C10_10 
ROOT
HETATM    1  C1  UNL     1     -34.172  19.059   0.034  1.00 20.00     0.003 C 
HETATM    2  C2  UNL     1     -34.533  18.401  -1.299  1.00 20.00     0.007 C 
HETATM    3  C5  UNL     1     -32.714  18.689   0.321  1.00 20.00     0.032 C 
HETATM    4  C7  UNL     1     -33.374  17.450  -1.606  1.00 20.00     0.014 C 
HETATM    5  C8  UNL     1     -32.167  18.170  -1.004  1.00 20.00     0.122 C 
ENDROOT
BRANCH   4   6
HETATM    6  C10 UNL     1     -33.250  17.135  -3.089  1.00 20.00     0.007 C 
BRANCH   6   7
HETATM    7  C9  UNL     1     -33.518  15.658  -3.372  1.00 20.00     0.005 C 
BRANCH   7   8
HETATM    8  C6  UNL     1     -33.915  15.432  -4.822  1.00 20.00    -0.014 A 
HETATM    9  C3  UNL     1     -35.190  14.708  -5.156  1.00 20.00     0.005 A 
HETATM   10  C4  UNL     1     -35.073  16.184  -5.416  1.00 20.00     0.005 A 
ENDBRANCH   7   8
ENDBRANCH   6   7
ENDBRANCH   4   6
BRANCH   5  11
HETATM   11  O11 UNL     1     -31.766  19.263  -1.819  1.00 20.00    -0.395 OA
HETATM   12  H29 UNL     1     -32.186  19.134  -2.686  1.00 20.00     0.210 HD
ENDBRANCH   5  11
TORSDOF 4
ENDMDL
