MODEL 1
REMARK VINA RESULT:      -4.0      0.000      0.000
REMARK  3 active torsions:
REMARK  status: ('A' for Active; 'I' for Inactive)
REMARK    1  A    between atoms: C4_4  and  C7_7 
REMARK    2  A    between atoms: C8_8  and  C9_9 
REMARK    3  A    between atoms: C9_9  and  N10_10 
ROOT
HETATM    1  C1  UNL     1     -34.697   6.003   6.362  1.00 20.00     0.032 C 
HETATM    2  C2  UNL     1     -35.235   5.569   5.002  1.00 20.00     0.038 C 
HETATM    3  C3  UNL     1     -33.629   7.048   6.061  1.00 20.00     0.273 C 
HETATM    4  C4  UNL     1     -34.214   6.087   3.991  1.00 20.00     0.237 C 
HETATM    5  N10 UNL     1     -33.792   7.334   4.638  1.00 20.00     0.098 N 
ENDROOT
BRANCH   5   6
HETATM    6  C9  UNL     1     -32.631   7.983   4.051  1.00 20.00     0.219 C 
HETATM    7  C6  UNL     1     -32.072   9.014   5.027  1.00 20.00     0.043 C 
BRANCH   6   8
HETATM    8  C8  UNL     1     -32.976   8.636   2.707  1.00 20.00     0.031 C 
HETATM    9  C5  UNL     1     -32.062   8.174   1.579  1.00 20.00     0.007 C 
ENDBRANCH   6   8
ENDBRANCH   5   6
BRANCH   4  10
HETATM   10  C7  UNL     1     -33.110   5.056   3.731  1.00 20.00     0.150 C 
HETATM   11 CL11 UNL     1     -32.945   4.758   1.991  1.00 20.00    -0.128 Cl
ENDBRANCH   4  10
TORSDOF 3
ENDMDL
MODEL 2
REMARK VINA RESULT:      -3.5     12.024     13.643
REMARK  3 active torsions:
REMARK  status: ('A' for Active; 'I' for Inactive)
REMARK    1  A    between atoms: C4_4  and  C7_7 
REMARK    2  A    between atoms: C8_8  and  C9_9 
REMARK    3  A    between atoms: C9_9  and  N10_10 
ROOT
HETATM    1  C1  UNL     1     -34.473  16.935  -7.820  1.00 20.00     0.032 C 
HETATM    2  C2  UNL     1     -34.041  15.494  -7.571  1.00 20.00     0.038 C 
HETATM    3  C3  UNL     1     -34.644  17.553  -6.437  1.00 20.00     0.273 C 
HETATM    4  C4  UNL     1     -34.347  15.241  -6.096  1.00 20.00     0.237 C 
HETATM    5  N10 UNL     1     -34.073  16.565  -5.525  1.00 20.00     0.098 N 
ENDROOT
BRANCH   5   6
HETATM    6  C9  UNL     1     -34.493  16.753  -4.147  1.00 20.00     0.219 C 
HETATM    7  C6  UNL     1     -34.867  18.214  -3.919  1.00 20.00     0.043 C 
BRANCH   6   8
HETATM    8  C8  UNL     1     -33.401  16.311  -3.164  1.00 20.00     0.031 C 
HETATM    9  C5  UNL     1     -33.490  17.031  -1.825  1.00 20.00     0.007 C 
ENDBRANCH   6   8
ENDBRANCH   5   6
BRANCH   4  10
HETATM   10  C7  UNL     1     -35.769  14.705  -5.901  1.00 20.00     0.150 C 
HETATM   11 CL11 UNL     1     -35.810  13.543  -4.562  1.00 20.00    -0.128 Cl
ENDBRANCH   4  10
TORSDOF 3
ENDMDL
MODEL 3
REMARK VINA RESULT:      -3.4     11.924     12.925
REMARK  3 active torsions:
REMARK  status: ('A' for Active; 'I' for Inactive)
REMARK    1  A    between atoms: C4_4  and  C7_7 
REMARK    2  A    between atoms: C8_8  and  C9_9 
REMARK    3  A    between atoms: C9_9  and  N10_10 
ROOT
HETATM    1  C1  UNL     1     -35.302  18.876  -3.190  1.00 20.00     0.032 C 
HETATM    2  C2  UNL     1     -34.121  18.382  -4.019  1.00 20.00     0.038 C 
HETATM    3  C3  UNL     1     -34.827  18.840  -1.742  1.00 20.00     0.273 C 
HETATM    4  C4  UNL     1     -33.174  17.737  -3.008  1.00 20.00     0.237 C 
HETATM    5  N10 UNL     1     -33.389  18.596  -1.838  1.00 20.00     0.098 N 
ENDROOT
BRANCH   5   6
HETATM    6  C9  UNL     1     -32.809  18.119  -0.594  1.00 20.00     0.219 C 
HETATM    7  C6  UNL     1     -33.757  18.417   0.562  1.00 20.00     0.043 C 
BRANCH   6   8
HETATM    8  C8  UNL     1     -31.431  18.745  -0.345  1.00 20.00     0.031 C 
HETATM    9  C5  UNL     1     -30.897  18.451   1.051  1.00 20.00     0.007 C 
ENDBRANCH   6   8
ENDBRANCH   5   6
BRANCH   4  10
HETATM   10  C7  UNL     1     -33.486  16.249  -2.818  1.00 20.00     0.150 C 
HETATM   11 CL11 UNL     1     -33.190  15.362  -4.325  1.00 20.00    -0.128 Cl
ENDBRANCH   4  10
TORSDOF 3
ENDMDL
MODEL 4
REMARK VINA RESULT:      -3.4     10.663     11.236
REMARK  3 active torsions:
REMARK  status: ('A' for Active; 'I' for Inactive)
REMARK    1  A    between atoms: C4_4  and  C7_7 
REMARK    2  A    between atoms: C8_8  and  C9_9 
REMARK    3  A    between atoms: C9_9  and  N10_10 
ROOT
HETATM    1  C1  UNL     1     -42.662  13.961   8.804  1.00 20.00     0.032 C 
HETATM    2  C2  UNL     1     -41.359  14.446   9.429  1.00 20.00     0.038 C 
HETATM    3  C3  UNL     1     -42.280  13.434   7.425  1.00 20.00     0.273 C 
HETATM    4  C4  UNL     1     -40.371  14.528   8.267  1.00 20.00     0.237 C 
HETATM    5  N10 UNL     1     -40.820  13.401   7.442  1.00 20.00     0.098 N 
ENDROOT
BRANCH   5   6
HETATM    6  C9  UNL     1     -40.237  13.326   6.112  1.00 20.00     0.219 C 
HETATM    7  C6  UNL     1     -41.324  13.536   5.063  1.00 20.00     0.043 C 
BRANCH   6   8
HETATM    8  C8  UNL     1     -39.518  11.989   5.892  1.00 20.00     0.031 C 
HETATM    9  C5  UNL     1     -39.140  11.759   4.435  1.00 20.00     0.007 C 
ENDBRANCH   6   8
ENDBRANCH   5   6
BRANCH   4  10
HETATM   10  C7  UNL     1     -40.404  15.907   7.599  1.00 20.00     0.150 C 
HETATM   11 CL11 UNL     1     -40.943  17.138   8.757  1.00 20.00    -0.128 Cl
ENDBRANCH   4  10
TORSDOF 3
ENDMDL
MODEL 5
REMARK VINA RESULT:      -3.3     15.432     16.434
REMARK  3 active torsions:
REMARK  status: ('A' for Active; 'I' for Inactive)
REMARK    1  A    between atoms: C4_4  and  C7_7 
REMARK    2  A    between atoms: C8_8  and  C9_9 
REMARK    3  A    between atoms: C9_9  and  N10_10 
ROOT
HETATM    1  C1  UNL     1     -24.320  16.321  11.328  1.00 20.00     0.032 C 
HETATM    2  C2  UNL     1     -24.492  17.456  12.331  1.00 20.00     0.038 C 
HETATM    3  C3  UNL     1     -23.630  16.946  10.121  1.00 20.00     0.273 C 
HETATM    4  C4  UNL     1     -24.249  18.732  11.527  1.00 20.00     0.237 C 
HETATM    5  N10 UNL     1     -23.226  18.272  10.580  1.00 20.00     0.098 N 
ENDROOT
BRANCH   5   6
HETATM    6  C9  UNL     1     -22.924  19.184   9.490  1.00 20.00     0.219 C 
HETATM    7  C6  UNL     1     -23.853  18.904   8.313  1.00 20.00     0.043 C 
BRANCH   6   8
HETATM    8  C8  UNL     1     -21.455  19.077   9.062  1.00 20.00     0.031 C 
HETATM    9  C5  UNL     1     -21.293  18.506   7.659  1.00 20.00     0.007 C 
ENDBRANCH   6   8
ENDBRANCH   5   6
BRANCH   4  10
HETATM   10  C7  UNL     1     -25.547  19.263  10.910  1.00 20.00     0.150 C 
HETATM   11 CL11 UNL     1     -26.868  19.177  12.091  1.00 20.00    -0.128 Cl
ENDBRANCH   4  10
TORSDOF 3
ENDMDL
MODEL 6
REMARK VINA RESULT:      -3.2     12.030     13.547
REMARK  3 active torsions:
REMARK  status: ('A' for Active; 'I' for Inactive)
REMARK    1  A    between atoms: C4_4  and  C7_7 
REMARK    2  A    between atoms: C8_8  and  C9_9 
REMARK    3  A    between atoms: C9_9  and  N10_10 
ROOT
HETATM    1  C1  UNL     1     -32.883  17.857  -2.126  1.00 20.00     0.032 C 
HETATM    2  C2  UNL     1     -33.264  18.884  -3.187  1.00 20.00     0.038 C 
HETATM    3  C3  UNL     1     -33.306  16.508  -2.695  1.00 20.00     0.273 C 
HETATM    4  C4  UNL     1     -34.213  18.144  -4.128  1.00 20.00     0.237 C 
HETATM    5  N10 UNL     1     -33.645  16.792  -4.088  1.00 20.00     0.098 N 
ENDROOT
BRANCH   5   6
HETATM    6  C9  UNL     1     -34.454  15.752  -4.700  1.00 20.00     0.219 C 
HETATM    7  C6  UNL     1     -34.027  14.388  -4.168  1.00 20.00     0.043 C 
BRANCH   6   8
HETATM    8  C8  UNL     1     -34.356  15.796  -6.230  1.00 20.00     0.031 C 
HETATM    9  C5  UNL     1     -35.551  15.141  -6.913  1.00 20.00     0.007 C 
ENDBRANCH   6   8
ENDBRANCH   5   6
BRANCH   4  10
HETATM   10  C7  UNL     1     -35.670  18.276  -3.672  1.00 20.00     0.150 C 
HETATM   11 CL11 UNL     1     -36.739  18.458  -5.076  1.00 20.00    -0.128 Cl
ENDBRANCH   4  10
TORSDOF 3
ENDMDL
MODEL 7
REMARK VINA RESULT:      -3.1     11.188     11.874
REMARK  3 active torsions:
REMARK  status: ('A' for Active; 'I' for Inactive)
REMARK    1  A    between atoms: C4_4  and  C7_7 
REMARK    2  A    between atoms: C8_8  and  C9_9 
REMARK    3  A    between atoms: C9_9  and  N10_10 
ROOT
HETATM    1  C1  UNL     1     -41.248  14.727  10.016  1.00 20.00     0.032 C 
HETATM    2  C2  UNL     1     -40.088  15.396   9.285  1.00 20.00     0.038 C 
HETATM    3  C3  UNL     1     -41.971  13.899   8.959  1.00 20.00     0.273 C 
HETATM    4  C4  UNL     1     -40.412  15.234   7.801  1.00 20.00     0.237 C 
HETATM    5  N10 UNL     1     -41.077  13.926   7.803  1.00 20.00     0.098 N 
ENDROOT
BRANCH   5   6
HETATM    6  C9  UNL     1     -41.739  13.556   6.564  1.00 20.00     0.219 C 
HETATM    7  C6  UNL     1     -42.795  12.491   6.843  1.00 20.00     0.043 C 
BRANCH   6   8
HETATM    8  C8  UNL     1     -40.731  13.064   5.517  1.00 20.00     0.031 C 
HETATM    9  C5  UNL     1     -39.839  11.946   6.043  1.00 20.00     0.007 C 
ENDBRANCH   6   8
ENDBRANCH   5   6
BRANCH   4  10
HETATM   10  C7  UNL     1     -41.242  16.411   7.276  1.00 20.00     0.150 C 
HETATM   11 CL11 UNL     1     -40.761  17.911   8.090  1.00 20.00    -0.128 Cl
ENDBRANCH   4  10
TORSDOF 3
ENDMDL
MODEL 8
REMARK VINA RESULT:      -3.1     12.101     13.552
REMARK  3 active torsions:
REMARK  status: ('A' for Active; 'I' for Inactive)
REMARK    1  A    between atoms: C4_4  and  C7_7 
REMARK    2  A    between atoms: C8_8  and  C9_9 
REMARK    3  A    between atoms: C9_9  and  N10_10 
ROOT
HETATM    1  C1  UNL     1     -32.549  18.629  -2.132  1.00 20.00     0.032 C 
HETATM    2  C2  UNL     1     -33.331  17.400  -1.679  1.00 20.00     0.038 C 
HETATM    3  C3  UNL     1     -33.078  18.956  -3.524  1.00 20.00     0.273 C 
HETATM    4  C4  UNL     1     -33.984  16.859  -2.949  1.00 20.00     0.237 C 
HETATM    5  N10 UNL     1     -34.256  18.105  -3.674  1.00 20.00     0.098 N 
ENDROOT
BRANCH   5   6
HETATM    6  C9  UNL     1     -34.671  17.949  -5.058  1.00 20.00     0.219 C 
HETATM    7  C6  UNL     1     -34.166  19.128  -5.883  1.00 20.00     0.043 C 
BRANCH   6   8
HETATM    8  C8  UNL     1     -36.196  17.817  -5.172  1.00 20.00     0.031 C 
HETATM    9  C5  UNL     1     -36.634  16.420  -5.593  1.00 20.00     0.007 C 
ENDBRANCH   6   8
ENDBRANCH   5   6
BRANCH   4  10
HETATM   10  C7  UNL     1     -33.076  15.850  -3.660  1.00 20.00     0.150 C 
HETATM   11 CL11 UNL     1     -34.004  14.412  -4.128  1.00 20.00    -0.128 Cl
ENDBRANCH   4  10
TORSDOF 3
ENDMDL
MODEL 9
REMARK VINA RESULT:      -3.1     11.757     13.605
REMARK  3 active torsions:
REMARK  status: ('A' for Active; 'I' for Inactive)
REMARK    1  A    between atoms: C4_4  and  C7_7 
REMARK    2  A    between atoms: C8_8  and  C9_9 
REMARK    3  A    between atoms: C9_9  and  N10_10 
ROOT
HETATM    1  C1  UNL     1     -34.035  14.391  -4.167  1.00 20.00     0.032 C 
HETATM    2  C2  UNL     1     -32.999  15.483  -3.921  1.00 20.00     0.038 C 
HETATM    3  C3  UNL     1     -35.120  15.044  -5.015  1.00 20.00     0.273 C 
HETATM    4  C4  UNL     1     -33.701  16.785  -4.304  1.00 20.00     0.237 C 
HETATM    5  N10 UNL     1     -34.547  16.328  -5.412  1.00 20.00     0.098 N 
ENDROOT
BRANCH   5   6
HETATM    6  C9  UNL     1     -35.546  17.278  -5.872  1.00 20.00     0.219 C 
HETATM    7  C6  UNL     1     -36.937  16.668  -5.734  1.00 20.00     0.043 C 
BRANCH   6   8
HETATM    8  C8  UNL     1     -35.281  17.709  -7.321  1.00 20.00     0.031 C 
HETATM    9  C5  UNL     1     -34.053  17.034  -7.918  1.00 20.00     0.007 C 
ENDBRANCH   6   8
ENDBRANCH   5   6
BRANCH   4  10
HETATM   10  C7  UNL     1     -34.434  17.400  -3.106  1.00 20.00     0.150 C 
HETATM   11 CL11 UNL     1     -33.581  17.014  -1.600  1.00 20.00    -0.128 Cl
ENDBRANCH   4  10
TORSDOF 3
ENDMDL
