MODEL 1
REMARK VINA RESULT:      -4.5      0.000      0.000
REMARK  3 active torsions:
REMARK  status: ('A' for Active; 'I' for Inactive)
REMARK    1  A    between atoms: C1_1  and  C7_7 
REMARK    2  A    between atoms: C7_7  and  C8_8 
REMARK    3  A    between atoms: C7_7  and  C9_9 
ROOT
HETATM    1  C7  UNL     1     -33.685   6.924   4.209  1.00 20.00     0.061 C 
ENDROOT
BRANCH   1   2
HETATM    2  C1  UNL     1     -34.691   5.851   4.643  1.00 20.00     0.128 C 
HETATM    3  C2  UNL     1     -34.182   4.770   5.563  1.00 20.00     0.091 C 
HETATM    4  O10 UNL     1     -35.858   5.847   4.252  1.00 20.00    -0.298 OA
ENDBRANCH   1   2
BRANCH   1   5
HETATM    5  C8  UNL     1     -32.651   6.347   3.200  1.00 20.00    -0.011 C 
HETATM    6  C3  UNL     1     -32.221   7.389   2.160  1.00 20.00     0.010 C 
HETATM    7  C4  UNL     1     -33.104   5.069   2.489  1.00 20.00     0.010 C 
ENDBRANCH   1   5
BRANCH   1   8
HETATM    8  C9  UNL     1     -33.071   7.602   5.469  1.00 20.00    -0.011 C 
HETATM    9  C5  UNL     1     -32.448   8.968   5.157  1.00 20.00     0.010 C 
HETATM   10  C6  UNL     1     -34.131   7.791   6.566  1.00 20.00     0.010 C 
ENDBRANCH   1   8
TORSDOF 3
ENDMDL
MODEL 2
REMARK VINA RESULT:      -4.4      0.567      2.945
REMARK  3 active torsions:
REMARK  status: ('A' for Active; 'I' for Inactive)
REMARK    1  A    between atoms: C1_1  and  C7_7 
REMARK    2  A    between atoms: C7_7  and  C8_8 
REMARK    3  A    between atoms: C7_7  and  C9_9 
ROOT
HETATM    1  C7  UNL     1     -33.417   6.659   4.424  1.00 20.00     0.061 C 
ENDROOT
BRANCH   1   2
HETATM    2  C1  UNL     1     -34.648   5.897   4.930  1.00 20.00     0.128 C 
HETATM    3  C2  UNL     1     -34.467   5.052   6.166  1.00 20.00     0.091 C 
HETATM    4  O10 UNL     1     -35.736   5.948   4.355  1.00 20.00    -0.298 OA
ENDBRANCH   1   2
BRANCH   1   5
HETATM    5  C8  UNL     1     -33.492   8.163   4.808  1.00 20.00    -0.011 C 
HETATM    6  C3  UNL     1     -32.121   8.846   4.724  1.00 20.00     0.010 C 
HETATM    7  C4  UNL     1     -34.119   8.438   6.178  1.00 20.00     0.010 C 
ENDBRANCH   1   5
BRANCH   1   8
HETATM    8  C9  UNL     1     -33.215   6.372   2.907  1.00 20.00    -0.011 C 
HETATM    9  C5  UNL     1     -32.118   7.244   2.285  1.00 20.00     0.010 C 
HETATM   10  C6  UNL     1     -32.858   4.898   2.665  1.00 20.00     0.010 C 
ENDBRANCH   1   8
TORSDOF 3
ENDMDL
MODEL 3
REMARK VINA RESULT:      -4.2      1.545      3.033
REMARK  3 active torsions:
REMARK  status: ('A' for Active; 'I' for Inactive)
REMARK    1  A    between atoms: C1_1  and  C7_7 
REMARK    2  A    between atoms: C7_7  and  C8_8 
REMARK    3  A    between atoms: C7_7  and  C9_9 
ROOT
HETATM    1  C7  UNL     1     -33.232   6.482   4.421  1.00 20.00     0.061 C 
ENDROOT
BRANCH   1   2
HETATM    2  C1  UNL     1     -32.755   6.314   2.973  1.00 20.00     0.128 C 
HETATM    3  C2  UNL     1     -32.897   4.942   2.364  1.00 20.00     0.091 C 
HETATM    4  O10 UNL     1     -32.260   7.240   2.331  1.00 20.00    -0.298 OA
ENDBRANCH   1   2
BRANCH   1   5
HETATM    5  C8  UNL     1     -34.420   5.529   4.733  1.00 20.00    -0.011 C 
HETATM    6  C3  UNL     1     -35.759   6.106   4.258  1.00 20.00     0.010 C 
HETATM    7  C4  UNL     1     -34.533   5.115   6.203  1.00 20.00     0.010 C 
ENDBRANCH   1   5
BRANCH   1   8
HETATM    8  C9  UNL     1     -33.499   7.989   4.709  1.00 20.00    -0.011 C 
HETATM    9  C5  UNL     1     -34.030   8.231   6.127  1.00 20.00     0.010 C 
HETATM   10  C6  UNL     1     -32.223   8.823   4.519  1.00 20.00     0.010 C 
ENDBRANCH   1   8
TORSDOF 3
ENDMDL
MODEL 4
REMARK VINA RESULT:      -4.2      1.755      3.095
REMARK  3 active torsions:
REMARK  status: ('A' for Active; 'I' for Inactive)
REMARK    1  A    between atoms: C1_1  and  C7_7 
REMARK    2  A    between atoms: C7_7  and  C8_8 
REMARK    3  A    between atoms: C7_7  and  C9_9 
ROOT
HETATM    1  C7  UNL     1     -33.229   6.660   4.632  1.00 20.00     0.061 C 
ENDROOT
BRANCH   1   2
HETATM    2  C1  UNL     1     -32.851   8.103   4.990  1.00 20.00     0.128 C 
HETATM    3  C2  UNL     1     -33.916   8.944   5.648  1.00 20.00     0.091 C 
HETATM    4  O10 UNL     1     -31.741   8.574   4.742  1.00 20.00    -0.298 OA
ENDBRANCH   1   2
BRANCH   1   5
HETATM    5  C8  UNL     1     -33.203   6.441   3.093  1.00 20.00    -0.011 C 
HETATM    6  C3  UNL     1     -32.831   4.999   2.725  1.00 20.00     0.010 C 
HETATM    7  C4  UNL     1     -32.301   7.414   2.328  1.00 20.00     0.010 C 
ENDBRANCH   1   5
BRANCH   1   8
HETATM    8  C9  UNL     1     -34.568   6.284   5.331  1.00 20.00    -0.011 C 
HETATM    9  C5  UNL     1     -35.655   5.867   4.334  1.00 20.00     0.010 C 
HETATM   10  C6  UNL     1     -34.364   5.138   6.334  1.00 20.00     0.010 C 
ENDBRANCH   1   8
TORSDOF 3
ENDMDL
MODEL 5
REMARK VINA RESULT:      -4.1      1.458      3.740
REMARK  3 active torsions:
REMARK  status: ('A' for Active; 'I' for Inactive)
REMARK    1  A    between atoms: C1_1  and  C7_7 
REMARK    2  A    between atoms: C7_7  and  C8_8 
REMARK    3  A    between atoms: C7_7  and  C9_9 
ROOT
HETATM    1  C7  UNL     1     -33.717   7.142   4.093  1.00 20.00     0.061 C 
ENDROOT
BRANCH   1   2
HETATM    2  C1  UNL     1     -33.303   8.332   4.969  1.00 20.00     0.128 C 
HETATM    3  C2  UNL     1     -31.844   8.711   4.960  1.00 20.00     0.091 C 
HETATM    4  O10 UNL     1     -34.110   8.947   5.666  1.00 20.00    -0.298 OA
ENDBRANCH   1   2
BRANCH   1   5
HETATM    5  C8  UNL     1     -34.284   5.982   4.959  1.00 20.00    -0.011 C 
HETATM    6  C3  UNL     1     -35.717   5.611   4.553  1.00 20.00     0.010 C 
HETATM    7  C4  UNL     1     -34.226   6.228   6.469  1.00 20.00     0.010 C 
ENDBRANCH   1   5
BRANCH   1   8
HETATM    8  C9  UNL     1     -32.538   6.753   3.154  1.00 20.00    -0.011 C 
HETATM    9  C5  UNL     1     -32.693   5.343   2.570  1.00 20.00     0.010 C 
HETATM   10  C6  UNL     1     -32.406   7.748   1.991  1.00 20.00     0.010 C 
ENDBRANCH   1   8
TORSDOF 3
ENDMDL
MODEL 6
REMARK VINA RESULT:      -3.9      1.517      3.534
REMARK  3 active torsions:
REMARK  status: ('A' for Active; 'I' for Inactive)
REMARK    1  A    between atoms: C1_1  and  C7_7 
REMARK    2  A    between atoms: C7_7  and  C8_8 
REMARK    3  A    between atoms: C7_7  and  C9_9 
ROOT
HETATM    1  C7  UNL     1     -33.776   6.905   4.143  1.00 20.00     0.061 C 
ENDROOT
BRANCH   1   2
HETATM    2  C1  UNL     1     -32.806   6.536   3.014  1.00 20.00     0.128 C 
HETATM    3  C2  UNL     1     -32.778   5.090   2.585  1.00 20.00     0.091 C 
HETATM    4  O10 UNL     1     -32.064   7.364   2.486  1.00 20.00    -0.298 OA
ENDBRANCH   1   2
BRANCH   1   5
HETATM    5  C8  UNL     1     -33.033   7.615   5.310  1.00 20.00    -0.011 C 
HETATM    6  C3  UNL     1     -33.977   7.948   6.472  1.00 20.00     0.010 C 
HETATM    7  C4  UNL     1     -32.261   8.872   4.900  1.00 20.00     0.010 C 
ENDBRANCH   1   5
BRANCH   1   8
HETATM    8  C9  UNL     1     -34.603   5.651   4.550  1.00 20.00    -0.011 C 
HETATM    9  C5  UNL     1     -34.460   5.310   6.038  1.00 20.00     0.010 C 
HETATM   10  C6  UNL     1     -36.095   5.847   4.238  1.00 20.00     0.010 C 
ENDBRANCH   1   8
TORSDOF 3
ENDMDL
MODEL 7
REMARK VINA RESULT:      -3.8     11.720     13.164
REMARK  3 active torsions:
REMARK  status: ('A' for Active; 'I' for Inactive)
REMARK    1  A    between atoms: C1_1  and  C7_7 
REMARK    2  A    between atoms: C7_7  and  C8_8 
REMARK    3  A    between atoms: C7_7  and  C9_9 
ROOT
HETATM    1  C7  UNL     1     -34.502  16.123  -4.564  1.00 20.00     0.061 C 
ENDROOT
BRANCH   1   2
HETATM    2  C1  UNL     1     -34.333  14.600  -4.489  1.00 20.00     0.128 C 
HETATM    3  C2  UNL     1     -35.590  13.770  -4.556  1.00 20.00     0.091 C 
HETATM    4  O10 UNL     1     -33.231  14.066  -4.360  1.00 20.00    -0.298 OA
ENDBRANCH   1   2
BRANCH   1   5
HETATM    5  C8  UNL     1     -34.650  16.597  -6.038  1.00 20.00    -0.011 C 
HETATM    6  C3  UNL     1     -36.094  16.991  -6.371  1.00 20.00     0.010 C 
HETATM    7  C4  UNL     1     -34.137  15.599  -7.080  1.00 20.00     0.010 C 
ENDBRANCH   1   5
BRANCH   1   8
HETATM    8  C9  UNL     1     -33.364  16.814  -3.757  1.00 20.00    -0.011 C 
HETATM    9  C5  UNL     1     -33.269  18.317  -4.045  1.00 20.00     0.010 C 
HETATM   10  C6  UNL     1     -33.562  16.620  -2.246  1.00 20.00     0.010 C 
ENDBRANCH   1   8
TORSDOF 3
ENDMDL
MODEL 8
REMARK VINA RESULT:      -3.7      9.136     10.571
REMARK  3 active torsions:
REMARK  status: ('A' for Active; 'I' for Inactive)
REMARK    1  A    between atoms: C1_1  and  C7_7 
REMARK    2  A    between atoms: C7_7  and  C8_8 
REMARK    3  A    between atoms: C7_7  and  C9_9 
ROOT
HETATM    1  C7  UNL     1     -40.706  13.509   5.875  1.00 20.00     0.061 C 
ENDROOT
BRANCH   1   2
HETATM    2  C1  UNL     1     -40.834  13.969   7.333  1.00 20.00     0.128 C 
HETATM    3  C2  UNL     1     -40.369  15.368   7.650  1.00 20.00     0.091 C 
HETATM    4  O10 UNL     1     -41.276  13.236   8.218  1.00 20.00    -0.298 OA
ENDBRANCH   1   2
BRANCH   1   5
HETATM    5  C8  UNL     1     -42.084  13.540   5.156  1.00 20.00    -0.011 C 
HETATM    6  C3  UNL     1     -42.121  14.582   4.032  1.00 20.00     0.010 C 
HETATM    7  C4  UNL     1     -43.282  13.747   6.087  1.00 20.00     0.010 C 
ENDBRANCH   1   5
BRANCH   1   8
HETATM    8  C9  UNL     1     -39.963  12.141   5.825  1.00 20.00    -0.011 C 
HETATM    9  C5  UNL     1     -39.537  11.756   4.403  1.00 20.00     0.010 C 
HETATM   10  C6  UNL     1     -38.714  12.157   6.719  1.00 20.00     0.010 C 
ENDBRANCH   1   8
TORSDOF 3
ENDMDL
MODEL 9
REMARK VINA RESULT:      -3.7     12.113     13.496
REMARK  3 active torsions:
REMARK  status: ('A' for Active; 'I' for Inactive)
REMARK    1  A    between atoms: C1_1  and  C7_7 
REMARK    2  A    between atoms: C7_7  and  C8_8 
REMARK    3  A    between atoms: C7_7  and  C9_9 
ROOT
HETATM    1  C7  UNL     1     -34.546  15.721  -5.496  1.00 20.00     0.061 C 
ENDROOT
BRANCH   1   2
HETATM    2  C1  UNL     1     -35.576  14.639  -5.844  1.00 20.00     0.128 C 
HETATM    3  C2  UNL     1     -36.114  13.816  -4.701  1.00 20.00     0.091 C 
HETATM    4  O10 UNL     1     -35.942  14.427  -7.000  1.00 20.00    -0.298 OA
ENDBRANCH   1   2
BRANCH   1   5
HETATM    5  C8  UNL     1     -33.814  15.388  -4.165  1.00 20.00    -0.011 C 
HETATM    6  C3  UNL     1     -33.539  16.646  -3.331  1.00 20.00     0.010 C 
HETATM    7  C4  UNL     1     -32.517  14.593  -4.336  1.00 20.00     0.010 C 
ENDBRANCH   1   5
BRANCH   1   8
HETATM    8  C9  UNL     1     -35.225  17.121  -5.545  1.00 20.00    -0.011 C 
HETATM    9  C5  UNL     1     -35.095  17.790  -6.919  1.00 20.00     0.010 C 
HETATM   10  C6  UNL     1     -36.717  17.025  -5.192  1.00 20.00     0.010 C 
ENDBRANCH   1   8
TORSDOF 3
ENDMDL
