MODEL 1
REMARK VINA RESULT:      -5.0      0.000      0.000
REMARK  4 active torsions:
REMARK  status: ('A' for Active; 'I' for Inactive)
REMARK    1  A    between atoms: C1_1  and  C6_6 
REMARK    2  A    between atoms: C4_4  and  C6_6 
REMARK    3  A    between atoms: C5_5  and  C6_6 
REMARK    4  A    between atoms: C5_5  and  C7_7 
ROOT
HETATM    1  C6  UNL     1     -33.988   6.585   4.072  1.00 20.00     0.059 C 
ENDROOT
BRANCH   1   2
HETATM    2  C1  UNL     1     -34.445   5.573   5.119  1.00 20.00     0.127 C 
HETATM    3  C2  UNL     1     -34.448   6.035   6.553  1.00 20.00     0.091 C 
HETATM    4  O8  UNL     1     -34.802   4.434   4.816  1.00 20.00    -0.298 OA
ENDBRANCH   1   2
BRANCH   1   5
HETATM    5  C4  UNL     1     -32.701   6.084   3.393  1.00 20.00     0.008 C 
HETATM    6  C3  UNL     1     -32.971   5.089   2.272  1.00 20.00     0.006 C 
ENDBRANCH   1   5
BRANCH   1   7
HETATM    7  C5  UNL     1     -33.746   7.960   4.723  1.00 20.00     0.083 C 
BRANCH   7   8
HETATM    8  C7  UNL     1     -32.409   8.584   4.352  1.00 20.00     0.353 C 
HETATM    9  F9  UNL     1     -32.000   9.450   5.308  1.00 20.00    -0.214 F 
HETATM   10  F10 UNL     1     -32.525   9.286   3.199  1.00 20.00    -0.214 F 
ENDBRANCH   7   8
ENDBRANCH   1   7
TORSDOF 4
ENDMDL
MODEL 2
REMARK VINA RESULT:      -4.9      1.426      1.754
REMARK  4 active torsions:
REMARK  status: ('A' for Active; 'I' for Inactive)
REMARK    1  A    between atoms: C1_1  and  C6_6 
REMARK    2  A    between atoms: C4_4  and  C6_6 
REMARK    3  A    between atoms: C5_5  and  C6_6 
REMARK    4  A    between atoms: C5_5  and  C7_7 
ROOT
HETATM    1  C6  UNL     1     -33.999   6.667   4.414  1.00 20.00     0.059 C 
ENDROOT
BRANCH   1   2
HETATM    2  C1  UNL     1     -34.254   6.507   5.911  1.00 20.00     0.127 C 
HETATM    3  C2  UNL     1     -34.562   5.117   6.403  1.00 20.00     0.091 C 
HETATM    4  O8  UNL     1     -34.207   7.461   6.688  1.00 20.00    -0.298 OA
ENDBRANCH   1   2
BRANCH   1   5
HETATM    5  C4  UNL     1     -33.935   5.281   3.748  1.00 20.00     0.008 C 
HETATM    6  C3  UNL     1     -32.923   5.215   2.611  1.00 20.00     0.006 C 
ENDBRANCH   1   5
BRANCH   1   7
HETATM    7  C5  UNL     1     -32.686   7.435   4.172  1.00 20.00     0.083 C 
BRANCH   7   8
HETATM    8  C7  UNL     1     -32.893   8.904   3.836  1.00 20.00     0.353 C 
HETATM    9  F9  UNL     1     -32.646   9.137   2.526  1.00 20.00    -0.214 F 
HETATM   10  F10 UNL     1     -32.033   9.672   4.548  1.00 20.00    -0.214 F 
ENDBRANCH   7   8
ENDBRANCH   1   7
TORSDOF 4
ENDMDL
MODEL 3
REMARK VINA RESULT:      -4.9      2.748      3.596
REMARK  4 active torsions:
REMARK  status: ('A' for Active; 'I' for Inactive)
REMARK    1  A    between atoms: C1_1  and  C6_6 
REMARK    2  A    between atoms: C4_4  and  C6_6 
REMARK    3  A    between atoms: C5_5  and  C6_6 
REMARK    4  A    between atoms: C5_5  and  C7_7 
ROOT
HETATM    1  C6  UNL     1     -33.247   6.702   4.350  1.00 20.00     0.059 C 
ENDROOT
BRANCH   1   2
HETATM    2  C1  UNL     1     -33.222   8.212   4.569  1.00 20.00     0.127 C 
HETATM    3  C2  UNL     1     -32.514   9.037   3.526  1.00 20.00     0.091 C 
HETATM    4  O8  UNL     1     -33.756   8.741   5.544  1.00 20.00    -0.298 OA
ENDBRANCH   1   2
BRANCH   1   5
HETATM    5  C4  UNL     1     -32.698   6.370   2.952  1.00 20.00     0.008 C 
HETATM    6  C3  UNL     1     -32.963   4.928   2.537  1.00 20.00     0.006 C 
ENDBRANCH   1   5
BRANCH   1   7
HETATM    7  C5  UNL     1     -34.681   6.161   4.502  1.00 20.00     0.083 C 
BRANCH   7   8
HETATM    8  C7  UNL     1     -34.895   5.349   5.771  1.00 20.00     0.353 C 
HETATM    9  F9  UNL     1     -34.653   6.101   6.870  1.00 20.00    -0.214 F 
HETATM   10  F10 UNL     1     -34.037   4.302   5.806  1.00 20.00    -0.214 F 
ENDBRANCH   7   8
ENDBRANCH   1   7
TORSDOF 4
ENDMDL
MODEL 4
REMARK VINA RESULT:      -4.7      2.735      3.915
REMARK  4 active torsions:
REMARK  status: ('A' for Active; 'I' for Inactive)
REMARK    1  A    between atoms: C1_1  and  C6_6 
REMARK    2  A    between atoms: C4_4  and  C6_6 
REMARK    3  A    between atoms: C5_5  and  C6_6 
REMARK    4  A    between atoms: C5_5  and  C7_7 
ROOT
HETATM    1  C6  UNL     1     -33.574   7.334   4.109  1.00 20.00     0.059 C 
ENDROOT
BRANCH   1   2
HETATM    2  C1  UNL     1     -32.798   6.688   2.964  1.00 20.00     0.127 C 
HETATM    3  C2  UNL     1     -32.952   5.199   2.794  1.00 20.00     0.091 C 
HETATM    4  O8  UNL     1     -32.081   7.344   2.208  1.00 20.00    -0.298 OA
ENDBRANCH   1   2
BRANCH   1   5
HETATM    5  C4  UNL     1     -32.591   7.938   5.127  1.00 20.00     0.008 C 
HETATM    6  C3  UNL     1     -32.223   9.382   4.812  1.00 20.00     0.006 C 
ENDBRANCH   1   5
BRANCH   1   7
HETATM    7  C5  UNL     1     -34.481   6.296   4.796  1.00 20.00     0.083 C 
BRANCH   7   8
HETATM    8  C7  UNL     1     -34.127   6.047   6.254  1.00 20.00     0.353 C 
HETATM    9  F9  UNL     1     -34.337   4.751   6.585  1.00 20.00    -0.214 F 
HETATM   10  F10 UNL     1     -34.915   6.798   7.060  1.00 20.00    -0.214 F 
ENDBRANCH   7   8
ENDBRANCH   1   7
TORSDOF 4
ENDMDL
MODEL 5
REMARK VINA RESULT:      -4.6      2.164      3.200
REMARK  4 active torsions:
REMARK  status: ('A' for Active; 'I' for Inactive)
REMARK    1  A    between atoms: C1_1  and  C6_6 
REMARK    2  A    between atoms: C4_4  and  C6_6 
REMARK    3  A    between atoms: C5_5  and  C6_6 
REMARK    4  A    between atoms: C5_5  and  C7_7 
ROOT
HETATM    1  C6  UNL     1     -33.363   6.890   5.110  1.00 20.00     0.059 C 
ENDROOT
BRANCH   1   2
HETATM    2  C1  UNL     1     -34.235   6.399   6.263  1.00 20.00     0.127 C 
HETATM    3  C2  UNL     1     -34.624   4.944   6.248  1.00 20.00     0.091 C 
HETATM    4  O8  UNL     1     -34.604   7.147   7.169  1.00 20.00    -0.298 OA
ENDBRANCH   1   2
BRANCH   1   5
HETATM    5  C4  UNL     1     -33.472   8.420   4.991  1.00 20.00     0.008 C 
HETATM    6  C3  UNL     1     -32.143   9.086   4.660  1.00 20.00     0.006 C 
ENDBRANCH   1   5
BRANCH   1   7
HETATM    7  C5  UNL     1     -33.791   6.221   3.791  1.00 20.00     0.083 C 
BRANCH   7   8
HETATM    8  C7  UNL     1     -32.622   5.835   2.896  1.00 20.00     0.353 C 
HETATM    9  F9  UNL     1     -32.351   6.820   2.008  1.00 20.00    -0.214 F 
HETATM   10  F10 UNL     1     -32.928   4.725   2.182  1.00 20.00    -0.214 F 
ENDBRANCH   7   8
ENDBRANCH   1   7
TORSDOF 4
ENDMDL
MODEL 6
REMARK VINA RESULT:      -4.6      1.126      2.578
REMARK  4 active torsions:
REMARK  status: ('A' for Active; 'I' for Inactive)
REMARK    1  A    between atoms: C1_1  and  C6_6 
REMARK    2  A    between atoms: C4_4  and  C6_6 
REMARK    3  A    between atoms: C5_5  and  C6_6 
REMARK    4  A    between atoms: C5_5  and  C7_7 
ROOT
HETATM    1  C6  UNL     1     -33.538   6.886   5.136  1.00 20.00     0.059 C 
ENDROOT
BRANCH   1   2
HETATM    2  C1  UNL     1     -34.212   6.029   4.067  1.00 20.00     0.127 C 
HETATM    3  C2  UNL     1     -33.305   5.308   3.105  1.00 20.00     0.091 C 
HETATM    4  O8  UNL     1     -35.436   5.922   3.991  1.00 20.00    -0.298 OA
ENDBRANCH   1   2
BRANCH   1   5
HETATM    5  C4  UNL     1     -34.226   6.659   6.494  1.00 20.00     0.008 C 
HETATM    6  C3  UNL     1     -34.573   5.198   6.746  1.00 20.00     0.006 C 
ENDBRANCH   1   5
BRANCH   1   7
HETATM    7  C5  UNL     1     -33.602   8.376   4.749  1.00 20.00     0.083 C 
BRANCH   7   8
HETATM    8  C7  UNL     1     -32.392   8.853   3.959  1.00 20.00     0.353 C 
HETATM    9  F9  UNL     1     -32.720   9.074   2.664  1.00 20.00    -0.214 F 
HETATM   10  F10 UNL     1     -31.424   7.905   3.971  1.00 20.00    -0.214 F 
ENDBRANCH   7   8
ENDBRANCH   1   7
TORSDOF 4
ENDMDL
MODEL 7
REMARK VINA RESULT:      -4.6      2.856      4.029
REMARK  4 active torsions:
REMARK  status: ('A' for Active; 'I' for Inactive)
REMARK    1  A    between atoms: C1_1  and  C6_6 
REMARK    2  A    between atoms: C4_4  and  C6_6 
REMARK    3  A    between atoms: C5_5  and  C6_6 
REMARK    4  A    between atoms: C5_5  and  C7_7 
ROOT
HETATM    1  C6  UNL     1     -34.007   7.239   4.665  1.00 20.00     0.059 C 
ENDROOT
BRANCH   1   2
HETATM    2  C1  UNL     1     -32.791   7.970   4.101  1.00 20.00     0.127 C 
HETATM    3  C2  UNL     1     -32.162   9.019   4.980  1.00 20.00     0.091 C 
HETATM    4  O8  UNL     1     -32.337   7.719   2.985  1.00 20.00    -0.298 OA
ENDBRANCH   1   2
BRANCH   1   5
HETATM    5  C4  UNL     1     -33.694   6.726   6.082  1.00 20.00     0.008 C 
HETATM    6  C3  UNL     1     -34.766   5.790   6.625  1.00 20.00     0.006 C 
ENDBRANCH   1   5
BRANCH   1   7
HETATM    7  C5  UNL     1     -34.400   6.064   3.749  1.00 20.00     0.083 C 
BRANCH   7   8
HETATM    8  C7  UNL     1     -33.351   4.964   3.684  1.00 20.00     0.353 C 
HETATM    9  F9  UNL     1     -32.986   4.722   2.403  1.00 20.00    -0.214 F 
HETATM   10  F10 UNL     1     -33.855   3.809   4.181  1.00 20.00    -0.214 F 
ENDBRANCH   7   8
ENDBRANCH   1   7
TORSDOF 4
ENDMDL
MODEL 8
REMARK VINA RESULT:      -4.5      2.221      3.263
REMARK  4 active torsions:
REMARK  status: ('A' for Active; 'I' for Inactive)
REMARK    1  A    between atoms: C1_1  and  C6_6 
REMARK    2  A    between atoms: C4_4  and  C6_6 
REMARK    3  A    between atoms: C5_5  and  C6_6 
REMARK    4  A    between atoms: C5_5  and  C7_7 
ROOT
HETATM    1  C6  UNL     1     -33.988   6.507   3.893  1.00 20.00     0.059 C 
ENDROOT
BRANCH   1   2
HETATM    2  C1  UNL     1     -33.653   5.070   3.502  1.00 20.00     0.127 C 
HETATM    3  C2  UNL     1     -32.773   4.882   2.294  1.00 20.00     0.091 C 
HETATM    4  O8  UNL     1     -34.073   4.104   4.139  1.00 20.00    -0.298 OA
ENDBRANCH   1   2
BRANCH   1   5
HETATM    5  C4  UNL     1     -32.688   7.302   4.109  1.00 20.00     0.008 C 
HETATM    6  C3  UNL     1     -32.670   8.625   3.353  1.00 20.00     0.006 C 
ENDBRANCH   1   5
BRANCH   1   7
HETATM    7  C5  UNL     1     -34.845   6.529   5.173  1.00 20.00     0.083 C 
BRANCH   7   8
HETATM    8  C7  UNL     1     -34.026   6.567   6.454  1.00 20.00     0.353 C 
HETATM    9  F9  UNL     1     -33.897   5.326   6.980  1.00 20.00    -0.214 F 
HETATM   10  F10 UNL     1     -34.647   7.332   7.384  1.00 20.00    -0.214 F 
ENDBRANCH   7   8
ENDBRANCH   1   7
TORSDOF 4
ENDMDL
MODEL 9
REMARK VINA RESULT:      -4.3      1.475      2.794
REMARK  4 active torsions:
REMARK  status: ('A' for Active; 'I' for Inactive)
REMARK    1  A    between atoms: C1_1  and  C6_6 
REMARK    2  A    between atoms: C4_4  and  C6_6 
REMARK    3  A    between atoms: C5_5  and  C6_6 
REMARK    4  A    between atoms: C5_5  and  C7_7 
ROOT
HETATM    1  C6  UNL     1     -33.386   6.397   4.302  1.00 20.00     0.059 C 
ENDROOT
BRANCH   1   2
HETATM    2  C1  UNL     1     -32.808   6.092   2.922  1.00 20.00     0.127 C 
HETATM    3  C2  UNL     1     -32.178   7.242   2.181  1.00 20.00     0.091 C 
HETATM    4  O8  UNL     1     -32.847   4.963   2.432  1.00 20.00    -0.298 OA
ENDBRANCH   1   2
BRANCH   1   5
HETATM    5  C4  UNL     1     -34.581   5.468   4.582  1.00 20.00     0.008 C 
HETATM    6  C3  UNL     1     -34.826   5.249   6.069  1.00 20.00     0.006 C 
ENDBRANCH   1   5
BRANCH   1   7
HETATM    7  C5  UNL     1     -33.826   7.871   4.386  1.00 20.00     0.083 C 
BRANCH   7   8
HETATM    8  C7  UNL     1     -33.200   8.629   5.546  1.00 20.00     0.353 C 
HETATM    9  F9  UNL     1     -34.121   9.400   6.170  1.00 20.00    -0.214 F 
HETATM   10  F10 UNL     1     -32.228   9.456   5.093  1.00 20.00    -0.214 F 
ENDBRANCH   7   8
ENDBRANCH   1   7
TORSDOF 4
ENDMDL
