MODEL 1
REMARK VINA RESULT:      -5.0      0.000      0.000
REMARK  4 active torsions:
REMARK  status: ('A' for Active; 'I' for Inactive)
REMARK    1  A    between atoms: C1_1  and  C6_6 
REMARK    2  A    between atoms: C4_4  and  C6_6 
REMARK    3  A    between atoms: C5_5  and  C6_6 
REMARK    4  A    between atoms: C5_5  and  C7_7 
ROOT
HETATM    1  C6  UNL     1     -32.822   7.062   4.151  1.00 20.00     0.063 C 
ENDROOT
BRANCH   1   2
HETATM    2  C1  UNL     1     -32.561   8.562   4.029  1.00 20.00     0.127 C 
HETATM    3  C2  UNL     1     -32.652   9.157   2.647  1.00 20.00     0.091 C 
HETATM    4  O8  UNL     1     -32.290   9.260   5.006  1.00 20.00    -0.298 OA
ENDBRANCH   1   2
BRANCH   1   5
HETATM    5  C4  UNL     1     -32.664   6.393   2.776  1.00 20.00     0.008 C 
HETATM    6  C3  UNL     1     -33.181   4.960   2.751  1.00 20.00     0.006 C 
ENDBRANCH   1   5
BRANCH   1   7
HETATM    7  C5  UNL     1     -34.234   6.810   4.710  1.00 20.00     0.129 C 
BRANCH   7   8
HETATM    8  C7  UNL     1     -34.242   6.403   6.170  1.00 20.00     0.388 C 
HETATM    9  F9  UNL     1     -33.027   5.991   6.587  1.00 20.00    -0.171 F 
HETATM   10  F10 UNL     1     -35.124   5.406   6.397  1.00 20.00    -0.171 F 
HETATM   11  F11 UNL     1     -34.603   7.449   6.947  1.00 20.00    -0.171 F 
ENDBRANCH   7   8
ENDBRANCH   1   7
TORSDOF 4
ENDMDL
MODEL 2
REMARK VINA RESULT:      -5.0      0.031      1.133
REMARK  4 active torsions:
REMARK  status: ('A' for Active; 'I' for Inactive)
REMARK    1  A    between atoms: C1_1  and  C6_6 
REMARK    2  A    between atoms: C4_4  and  C6_6 
REMARK    3  A    between atoms: C5_5  and  C6_6 
REMARK    4  A    between atoms: C5_5  and  C7_7 
ROOT
HETATM    1  C6  UNL     1     -32.805   7.052   4.159  1.00 20.00     0.063 C 
ENDROOT
BRANCH   1   2
HETATM    2  C1  UNL     1     -32.559   8.554   4.035  1.00 20.00     0.127 C 
HETATM    3  C2  UNL     1     -32.653   9.146   2.653  1.00 20.00     0.091 C 
HETATM    4  O8  UNL     1     -32.297   9.256   5.012  1.00 20.00    -0.298 OA
ENDBRANCH   1   2
BRANCH   1   5
HETATM    5  C4  UNL     1     -32.615   6.379   2.789  1.00 20.00     0.008 C 
HETATM    6  C3  UNL     1     -33.149   4.952   2.751  1.00 20.00     0.006 C 
ENDBRANCH   1   5
BRANCH   1   7
HETATM    7  C5  UNL     1     -34.223   6.786   4.694  1.00 20.00     0.129 C 
BRANCH   7   8
HETATM    8  C7  UNL     1     -34.256   6.424   6.166  1.00 20.00     0.388 C 
HETATM    9  F9  UNL     1     -34.609   7.474   6.936  1.00 20.00    -0.171 F 
HETATM   10  F10 UNL     1     -33.055   5.977   6.589  1.00 20.00    -0.171 F 
HETATM   11  F11 UNL     1     -35.157   5.440   6.387  1.00 20.00    -0.171 F 
ENDBRANCH   7   8
ENDBRANCH   1   7
TORSDOF 4
ENDMDL
MODEL 3
REMARK VINA RESULT:      -4.7      2.463      3.611
REMARK  4 active torsions:
REMARK  status: ('A' for Active; 'I' for Inactive)
REMARK    1  A    between atoms: C1_1  and  C6_6 
REMARK    2  A    between atoms: C4_4  and  C6_6 
REMARK    3  A    between atoms: C5_5  and  C6_6 
REMARK    4  A    between atoms: C5_5  and  C7_7 
ROOT
HETATM    1  C6  UNL     1     -33.994   6.535   4.390  1.00 20.00     0.063 C 
ENDROOT
BRANCH   1   2
HETATM    2  C1  UNL     1     -34.260   6.382   5.886  1.00 20.00     0.127 C 
HETATM    3  C2  UNL     1     -34.558   4.992   6.385  1.00 20.00     0.091 C 
HETATM    4  O8  UNL     1     -34.231   7.342   6.657  1.00 20.00    -0.298 OA
ENDBRANCH   1   2
BRANCH   1   5
HETATM    5  C4  UNL     1     -33.930   5.148   3.729  1.00 20.00     0.008 C 
HETATM    6  C3  UNL     1     -32.939   5.087   2.573  1.00 20.00     0.006 C 
ENDBRANCH   1   5
BRANCH   1   7
HETATM    7  C5  UNL     1     -32.679   7.300   4.157  1.00 20.00     0.129 C 
BRANCH   7   8
HETATM    8  C7  UNL     1     -32.879   8.779   3.891  1.00 20.00     0.388 C 
HETATM    9  F9  UNL     1     -32.572   9.110   2.620  1.00 20.00    -0.171 F 
HETATM   10  F10 UNL     1     -32.122   9.533   4.715  1.00 20.00    -0.171 F 
HETATM   11  F11 UNL     1     -34.171   9.122   4.097  1.00 20.00    -0.171 F 
ENDBRANCH   7   8
ENDBRANCH   1   7
TORSDOF 4
ENDMDL
MODEL 4
REMARK VINA RESULT:      -4.7      2.799      3.979
REMARK  4 active torsions:
REMARK  status: ('A' for Active; 'I' for Inactive)
REMARK    1  A    between atoms: C1_1  and  C6_6 
REMARK    2  A    between atoms: C4_4  and  C6_6 
REMARK    3  A    between atoms: C5_5  and  C6_6 
REMARK    4  A    between atoms: C5_5  and  C7_7 
ROOT
HETATM    1  C6  UNL     1     -33.599   6.802   5.110  1.00 20.00     0.063 C 
ENDROOT
BRANCH   1   2
HETATM    2  C1  UNL     1     -34.286   5.918   4.071  1.00 20.00     0.127 C 
HETATM    3  C2  UNL     1     -33.391   5.180   3.109  1.00 20.00     0.091 C 
HETATM    4  O8  UNL     1     -35.511   5.806   4.015  1.00 20.00    -0.298 OA
ENDBRANCH   1   2
BRANCH   1   5
HETATM    5  C4  UNL     1     -34.249   6.588   6.487  1.00 20.00     0.008 C 
HETATM    6  C3  UNL     1     -34.576   5.126   6.768  1.00 20.00     0.006 C 
ENDBRANCH   1   5
BRANCH   1   7
HETATM    7  C5  UNL     1     -33.692   8.281   4.698  1.00 20.00     0.129 C 
BRANCH   7   8
HETATM    8  C7  UNL     1     -32.460   8.786   3.973  1.00 20.00     0.388 C 
HETATM    9  F9  UNL     1     -31.914   9.855   4.588  1.00 20.00    -0.171 F 
HETATM   10  F10 UNL     1     -32.748   9.135   2.701  1.00 20.00    -0.171 F 
HETATM   11  F11 UNL     1     -31.515   7.820   3.925  1.00 20.00    -0.171 F 
ENDBRANCH   7   8
ENDBRANCH   1   7
TORSDOF 4
ENDMDL
MODEL 5
REMARK VINA RESULT:      -4.6      1.396      2.786
REMARK  4 active torsions:
REMARK  status: ('A' for Active; 'I' for Inactive)
REMARK    1  A    between atoms: C1_1  and  C6_6 
REMARK    2  A    between atoms: C4_4  and  C6_6 
REMARK    3  A    between atoms: C5_5  and  C6_6 
REMARK    4  A    between atoms: C5_5  and  C7_7 
ROOT
HETATM    1  C6  UNL     1     -33.543   7.335   4.061  1.00 20.00     0.063 C 
ENDROOT
BRANCH   1   2
HETATM    2  C1  UNL     1     -32.768   6.621   2.956  1.00 20.00     0.127 C 
HETATM    3  C2  UNL     1     -33.000   5.139   2.811  1.00 20.00     0.091 C 
HETATM    4  O8  UNL     1     -31.990   7.219   2.212  1.00 20.00    -0.298 OA
ENDBRANCH   1   2
BRANCH   1   5
HETATM    5  C4  UNL     1     -33.166   8.826   4.082  1.00 20.00     0.008 C 
HETATM    6  C3  UNL     1     -32.091   9.151   5.111  1.00 20.00     0.006 C 
ENDBRANCH   1   5
BRANCH   1   7
HETATM    7  C5  UNL     1     -33.245   6.688   5.425  1.00 20.00     0.129 C 
BRANCH   7   8
HETATM    8  C7  UNL     1     -34.463   6.065   6.078  1.00 20.00     0.388 C 
HETATM    9  F9  UNL     1     -35.478   5.905   5.204  1.00 20.00    -0.171 F 
HETATM   10  F10 UNL     1     -34.908   6.817   7.106  1.00 20.00    -0.171 F 
HETATM   11  F11 UNL     1     -34.157   4.843   6.570  1.00 20.00    -0.171 F 
ENDBRANCH   7   8
ENDBRANCH   1   7
TORSDOF 4
ENDMDL
MODEL 6
REMARK VINA RESULT:      -4.6      1.405      2.572
REMARK  4 active torsions:
REMARK  status: ('A' for Active; 'I' for Inactive)
REMARK    1  A    between atoms: C1_1  and  C6_6 
REMARK    2  A    between atoms: C4_4  and  C6_6 
REMARK    3  A    between atoms: C5_5  and  C6_6 
REMARK    4  A    between atoms: C5_5  and  C7_7 
ROOT
HETATM    1  C6  UNL     1     -33.562   7.332   4.052  1.00 20.00     0.063 C 
ENDROOT
BRANCH   1   2
HETATM    2  C1  UNL     1     -32.769   6.641   2.945  1.00 20.00     0.127 C 
HETATM    3  C2  UNL     1     -32.959   5.153   2.801  1.00 20.00     0.091 C 
HETATM    4  O8  UNL     1     -32.010   7.262   2.200  1.00 20.00    -0.298 OA
ENDBRANCH   1   2
BRANCH   1   5
HETATM    5  C4  UNL     1     -33.206   8.828   4.092  1.00 20.00     0.008 C 
HETATM    6  C3  UNL     1     -32.108   9.149   5.098  1.00 20.00     0.006 C 
ENDBRANCH   1   5
BRANCH   1   7
HETATM    7  C5  UNL     1     -33.266   6.675   5.411  1.00 20.00     0.129 C 
BRANCH   7   8
HETATM    8  C7  UNL     1     -34.482   6.034   6.051  1.00 20.00     0.388 C 
HETATM    9  F9  UNL     1     -34.210   4.802   6.529  1.00 20.00    -0.171 F 
HETATM   10  F10 UNL     1     -35.501   5.928   5.172  1.00 20.00    -0.171 F 
HETATM   11  F11 UNL     1     -34.916   6.783   7.089  1.00 20.00    -0.171 F 
ENDBRANCH   7   8
ENDBRANCH   1   7
TORSDOF 4
ENDMDL
MODEL 7
REMARK VINA RESULT:      -4.5      2.260      3.131
REMARK  4 active torsions:
REMARK  status: ('A' for Active; 'I' for Inactive)
REMARK    1  A    between atoms: C1_1  and  C6_6 
REMARK    2  A    between atoms: C4_4  and  C6_6 
REMARK    3  A    between atoms: C5_5  and  C6_6 
REMARK    4  A    between atoms: C5_5  and  C7_7 
ROOT
HETATM    1  C6  UNL     1     -33.418   6.292   4.235  1.00 20.00     0.063 C 
ENDROOT
BRANCH   1   2
HETATM    2  C1  UNL     1     -32.809   6.023   2.860  1.00 20.00     0.127 C 
HETATM    3  C2  UNL     1     -32.180   7.196   2.155  1.00 20.00     0.091 C 
HETATM    4  O8  UNL     1     -32.825   4.904   2.346  1.00 20.00    -0.298 OA
ENDBRANCH   1   2
BRANCH   1   5
HETATM    5  C4  UNL     1     -34.607   5.347   4.472  1.00 20.00     0.008 C 
HETATM    6  C3  UNL     1     -34.922   5.150   5.950  1.00 20.00     0.006 C 
ENDBRANCH   1   5
BRANCH   1   7
HETATM    7  C5  UNL     1     -33.870   7.759   4.341  1.00 20.00     0.129 C 
BRANCH   7   8
HETATM    8  C7  UNL     1     -33.277   8.491   5.528  1.00 20.00     0.388 C 
HETATM    9  F9  UNL     1     -34.170   9.316   6.111  1.00 20.00    -0.171 F 
HETATM   10  F10 UNL     1     -32.202   9.223   5.166  1.00 20.00    -0.171 F 
HETATM   11  F11 UNL     1     -32.869   7.608   6.468  1.00 20.00    -0.171 F 
ENDBRANCH   7   8
ENDBRANCH   1   7
TORSDOF 4
ENDMDL
MODEL 8
REMARK VINA RESULT:      -4.5      2.532      3.560
REMARK  4 active torsions:
REMARK  status: ('A' for Active; 'I' for Inactive)
REMARK    1  A    between atoms: C1_1  and  C6_6 
REMARK    2  A    between atoms: C4_4  and  C6_6 
REMARK    3  A    between atoms: C5_5  and  C6_6 
REMARK    4  A    between atoms: C5_5  and  C7_7 
ROOT
HETATM    1  C6  UNL     1     -33.777   6.324   4.139  1.00 20.00     0.063 C 
ENDROOT
BRANCH   1   2
HETATM    2  C1  UNL     1     -34.273   5.104   4.913  1.00 20.00     0.127 C 
HETATM    3  C2  UNL     1     -34.801   5.350   6.303  1.00 20.00     0.091 C 
HETATM    4  O8  UNL     1     -34.249   3.971   4.432  1.00 20.00    -0.298 OA
ENDBRANCH   1   2
BRANCH   1   5
HETATM    5  C4  UNL     1     -32.942   5.870   2.930  1.00 20.00     0.008 C 
HETATM    6  C3  UNL     1     -32.105   6.993   2.332  1.00 20.00     0.006 C 
ENDBRANCH   1   5
BRANCH   1   7
HETATM    7  C5  UNL     1     -32.941   7.234   5.055  1.00 20.00     0.129 C 
BRANCH   7   8
HETATM    8  C7  UNL     1     -33.404   8.678   5.059  1.00 20.00     0.388 C 
HETATM    9  F9  UNL     1     -34.149   8.967   6.146  1.00 20.00    -0.171 F 
HETATM   10  F10 UNL     1     -34.137   8.962   3.961  1.00 20.00    -0.171 F 
HETATM   11  F11 UNL     1     -32.340   9.512   5.064  1.00 20.00    -0.171 F 
ENDBRANCH   7   8
ENDBRANCH   1   7
TORSDOF 4
ENDMDL
MODEL 9
REMARK VINA RESULT:      -4.3      2.744      4.071
REMARK  4 active torsions:
REMARK  status: ('A' for Active; 'I' for Inactive)
REMARK    1  A    between atoms: C1_1  and  C6_6 
REMARK    2  A    between atoms: C4_4  and  C6_6 
REMARK    3  A    between atoms: C5_5  and  C6_6 
REMARK    4  A    between atoms: C5_5  and  C7_7 
ROOT
HETATM    1  C6  UNL     1     -33.465   6.766   4.876  1.00 20.00     0.063 C 
ENDROOT
BRANCH   1   2
HETATM    2  C1  UNL     1     -34.208   6.417   6.164  1.00 20.00     0.127 C 
HETATM    3  C2  UNL     1     -34.635   4.982   6.335  1.00 20.00     0.091 C 
HETATM    4  O8  UNL     1     -34.450   7.260   7.028  1.00 20.00    -0.298 OA
ENDBRANCH   1   2
BRANCH   1   5
HETATM    5  C4  UNL     1     -33.573   8.276   4.606  1.00 20.00     0.008 C 
HETATM    6  C3  UNL     1     -32.234   8.995   4.713  1.00 20.00     0.006 C 
ENDBRANCH   1   5
BRANCH   1   7
HETATM    7  C5  UNL     1     -34.042   5.968   3.694  1.00 20.00     0.129 C 
BRANCH   7   8
HETATM    8  C7  UNL     1     -32.998   5.558   2.675  1.00 20.00     0.388 C 
HETATM    9  F9  UNL     1     -32.104   4.688   3.189  1.00 20.00    -0.171 F 
HETATM   10  F10 UNL     1     -32.322   6.628   2.206  1.00 20.00    -0.171 F 
HETATM   11  F11 UNL     1     -33.587   4.954   1.617  1.00 20.00    -0.171 F 
ENDBRANCH   7   8
ENDBRANCH   1   7
TORSDOF 4
ENDMDL
