MODEL 1
REMARK VINA RESULT:      -4.4      0.000      0.000
REMARK  4 active torsions:
REMARK  status: ('A' for Active; 'I' for Inactive)
REMARK    1  A    between atoms: C1_1  and  C10_10 
REMARK    2  A    between atoms: C5_5  and  C8_8 
REMARK    3  A    between atoms: C8_8  and  C10_10 
REMARK    4  A    between atoms: C9_9  and  C10_10 
ROOT
HETATM    1  C10 UNL     1     -32.939   7.079   3.774  1.00 20.00     0.055 C 
ENDROOT
BRANCH   1   2
HETATM    2  C1  UNL     1     -32.581   8.563   3.716  1.00 20.00     0.127 C 
HETATM    3  C6  UNL     1     -32.126   9.203   5.002  1.00 20.00     0.091 C 
HETATM    4  O11 UNL     1     -32.660   9.214   2.675  1.00 20.00    -0.298 OA
ENDBRANCH   1   2
BRANCH   1   5
HETATM    5  C8  UNL     1     -34.467   6.906   3.772  1.00 20.00     0.016 C 
BRANCH   5   6
HETATM    6  C5  UNL     1     -34.988   6.262   5.041  1.00 20.00    -0.014 C 
HETATM    7  C3  UNL     1     -34.245   6.613   6.355  1.00 20.00     0.005 C 
HETATM    8  C2  UNL     1     -34.483   5.153   6.793  1.00 20.00     0.001 C 
HETATM    9  C4  UNL     1     -34.564   4.792   5.296  1.00 20.00     0.005 C 
ENDBRANCH   5   6
ENDBRANCH   1   5
BRANCH   1  10
HETATM   10  C9  UNL     1     -32.313   6.343   2.578  1.00 20.00     0.007 C 
HETATM   11  C7  UNL     1     -32.924   4.956   2.400  1.00 20.00     0.006 C 
ENDBRANCH   1  10
TORSDOF 4
ENDMDL
MODEL 2
REMARK VINA RESULT:      -4.1     12.071     12.954
REMARK  4 active torsions:
REMARK  status: ('A' for Active; 'I' for Inactive)
REMARK    1  A    between atoms: C1_1  and  C10_10 
REMARK    2  A    between atoms: C5_5  and  C8_8 
REMARK    3  A    between atoms: C8_8  and  C10_10 
REMARK    4  A    between atoms: C9_9  and  C10_10 
ROOT
HETATM    1  C10 UNL     1     -33.165  17.136  -2.621  1.00 20.00     0.055 C 
ENDROOT
BRANCH   1   2
HETATM    2  C1  UNL     1     -33.603  18.246  -3.575  1.00 20.00     0.127 C 
HETATM    3  C6  UNL     1     -35.078  18.353  -3.861  1.00 20.00     0.091 C 
HETATM    4  O11 UNL     1     -32.797  19.020  -4.091  1.00 20.00    -0.298 OA
ENDBRANCH   1   2
BRANCH   1   5
HETATM    5  C8  UNL     1     -33.637  17.454  -1.193  1.00 20.00     0.016 C 
BRANCH   5   6
HETATM    6  C5  UNL     1     -32.852  18.579  -0.550  1.00 20.00    -0.014 C 
HETATM    7  C3  UNL     1     -31.308  18.439  -0.554  1.00 20.00     0.005 C 
HETATM    8  C2  UNL     1     -31.320  19.088   0.846  1.00 20.00     0.001 C 
HETATM    9  C4  UNL     1     -32.763  18.565   0.999  1.00 20.00     0.005 C 
ENDBRANCH   5   6
ENDBRANCH   1   5
BRANCH   1  10
HETATM   10  C9  UNL     1     -33.738  15.788  -3.090  1.00 20.00     0.007 C 
HETATM   11  C7  UNL     1     -32.884  15.178  -4.197  1.00 20.00     0.006 C 
ENDBRANCH   1  10
TORSDOF 4
ENDMDL
MODEL 3
REMARK VINA RESULT:      -4.1      9.529     10.469
REMARK  4 active torsions:
REMARK  status: ('A' for Active; 'I' for Inactive)
REMARK    1  A    between atoms: C1_1  and  C10_10 
REMARK    2  A    between atoms: C5_5  and  C8_8 
REMARK    3  A    between atoms: C8_8  and  C10_10 
REMARK    4  A    between atoms: C9_9  and  C10_10 
ROOT
HETATM    1  C10 UNL     1     -41.102  14.042   6.488  1.00 20.00     0.055 C 
ENDROOT
BRANCH   1   2
HETATM    2  C1  UNL     1     -40.992  14.397   7.970  1.00 20.00     0.127 C 
HETATM    3  C6  UNL     1     -40.379  15.732   8.305  1.00 20.00     0.091 C 
HETATM    4  O11 UNL     1     -41.379  13.635   8.856  1.00 20.00    -0.298 OA
ENDBRANCH   1   2
BRANCH   1   5
HETATM    5  C8  UNL     1     -41.418  12.546   6.329  1.00 20.00     0.016 C 
BRANCH   5   6
HETATM    6  C5  UNL     1     -40.230  11.743   5.838  1.00 20.00    -0.014 C 
HETATM    7  C3  UNL     1     -38.844  12.125   6.419  1.00 20.00     0.005 C 
HETATM    8  C2  UNL     1     -38.260  11.825   5.023  1.00 20.00     0.001 C 
HETATM    9  C4  UNL     1     -39.658  12.129   4.449  1.00 20.00     0.005 C 
ENDBRANCH   5   6
ENDBRANCH   1   5
BRANCH   1  10
HETATM   10  C9  UNL     1     -42.195  14.896   5.826  1.00 20.00     0.007 C 
HETATM   11  C7  UNL     1     -42.367  14.532   4.354  1.00 20.00     0.006 C 
ENDBRANCH   1  10
TORSDOF 4
ENDMDL
MODEL 4
REMARK VINA RESULT:      -4.0     11.552     12.957
REMARK  4 active torsions:
REMARK  status: ('A' for Active; 'I' for Inactive)
REMARK    1  A    between atoms: C1_1  and  C10_10 
REMARK    2  A    between atoms: C5_5  and  C8_8 
REMARK    3  A    between atoms: C8_8  and  C10_10 
REMARK    4  A    between atoms: C9_9  and  C10_10 
ROOT
HETATM    1  C10 UNL     1     -32.892  18.130  -2.297  1.00 20.00     0.055 C 
ENDROOT
BRANCH   1   2
HETATM    2  C1  UNL     1     -32.242  18.297  -0.925  1.00 20.00     0.127 C 
HETATM    3  C6  UNL     1     -33.139  18.138   0.276  1.00 20.00     0.091 C 
HETATM    4  O11 UNL     1     -31.045  18.553  -0.794  1.00 20.00    -0.298 OA
ENDBRANCH   1   2
BRANCH   1   5
HETATM    5  C8  UNL     1     -33.588  16.762  -2.385  1.00 20.00     0.016 C 
BRANCH   5   6
HETATM    6  C5  UNL     1     -33.297  16.035  -3.683  1.00 20.00    -0.014 C 
HETATM    7  C3  UNL     1     -34.217  16.366  -4.886  1.00 20.00     0.005 C 
HETATM    8  C2  UNL     1     -34.114  14.877  -5.278  1.00 20.00     0.001 C 
HETATM    9  C4  UNL     1     -33.819  14.579  -3.794  1.00 20.00     0.005 C 
ENDBRANCH   5   6
ENDBRANCH   1   5
BRANCH   1  10
HETATM   10  C9  UNL     1     -33.902  19.263  -2.540  1.00 20.00     0.007 C 
HETATM   11  C7  UNL     1     -35.337  18.765  -2.402  1.00 20.00     0.006 C 
ENDBRANCH   1  10
TORSDOF 4
ENDMDL
MODEL 5
REMARK VINA RESULT:      -4.0      1.836      4.055
REMARK  4 active torsions:
REMARK  status: ('A' for Active; 'I' for Inactive)
REMARK    1  A    between atoms: C1_1  and  C10_10 
REMARK    2  A    between atoms: C5_5  and  C8_8 
REMARK    3  A    between atoms: C8_8  and  C10_10 
REMARK    4  A    between atoms: C9_9  and  C10_10 
ROOT
HETATM    1  C10 UNL     1     -33.511   7.172   3.849  1.00 20.00     0.055 C 
ENDROOT
BRANCH   1   2
HETATM    2  C1  UNL     1     -33.712   7.636   5.291  1.00 20.00     0.127 C 
HETATM    3  C6  UNL     1     -34.178   6.599   6.280  1.00 20.00     0.091 C 
HETATM    4  O11 UNL     1     -33.508   8.799   5.638  1.00 20.00    -0.298 OA
ENDBRANCH   1   2
BRANCH   1   5
HETATM    5  C8  UNL     1     -32.054   7.408   3.420  1.00 20.00     0.016 C 
BRANCH   5   6
HETATM    6  C5  UNL     1     -31.916   8.504   2.382  1.00 20.00    -0.014 C 
HETATM    7  C3  UNL     1     -33.151   9.415   2.165  1.00 20.00     0.005 C 
HETATM    8  C2  UNL     1     -32.786   9.428   0.667  1.00 20.00     0.001 C 
HETATM    9  C4  UNL     1     -32.078   8.078   0.899  1.00 20.00     0.005 C 
ENDBRANCH   5   6
ENDBRANCH   1   5
BRANCH   1  10
HETATM   10  C9  UNL     1     -33.874   5.684   3.723  1.00 20.00     0.007 C 
HETATM   11  C7  UNL     1     -33.017   4.992   2.668  1.00 20.00     0.006 C 
ENDBRANCH   1  10
TORSDOF 4
ENDMDL
MODEL 6
REMARK VINA RESULT:      -3.9     12.127     13.197
REMARK  4 active torsions:
REMARK  status: ('A' for Active; 'I' for Inactive)
REMARK    1  A    between atoms: C1_1  and  C10_10 
REMARK    2  A    between atoms: C5_5  and  C8_8 
REMARK    3  A    between atoms: C8_8  and  C10_10 
REMARK    4  A    between atoms: C9_9  and  C10_10 
ROOT
HETATM    1  C10 UNL     1     -33.340  17.971  -3.127  1.00 20.00     0.055 C 
ENDROOT
BRANCH   1   2
HETATM    2  C1  UNL     1     -34.768  18.489  -3.283  1.00 20.00     0.127 C 
HETATM    3  C6  UNL     1     -35.204  18.876  -4.672  1.00 20.00     0.091 C 
HETATM    4  O11 UNL     1     -35.535  18.591  -2.325  1.00 20.00    -0.298 OA
ENDBRANCH   1   2
BRANCH   1   5
HETATM    5  C8  UNL     1     -32.561  18.864  -2.149  1.00 20.00     0.016 C 
BRANCH   5   6
HETATM    6  C5  UNL     1     -32.317  18.199  -0.810  1.00 20.00    -0.014 C 
HETATM    7  C3  UNL     1     -33.171  18.702   0.383  1.00 20.00     0.005 C 
HETATM    8  C2  UNL     1     -31.922  18.502   1.266  1.00 20.00     0.001 C 
HETATM    9  C4  UNL     1     -31.076  18.680  -0.012  1.00 20.00     0.005 C 
ENDBRANCH   5   6
ENDBRANCH   1   5
BRANCH   1  10
HETATM   10  C9  UNL     1     -33.362  16.517  -2.627  1.00 20.00     0.007 C 
HETATM   11  C7  UNL     1     -33.383  15.531  -3.791  1.00 20.00     0.006 C 
ENDBRANCH   1  10
TORSDOF 4
ENDMDL
MODEL 7
REMARK VINA RESULT:      -3.8     11.932     13.035
REMARK  4 active torsions:
REMARK  status: ('A' for Active; 'I' for Inactive)
REMARK    1  A    between atoms: C1_1  and  C10_10 
REMARK    2  A    between atoms: C5_5  and  C8_8 
REMARK    3  A    between atoms: C8_8  and  C10_10 
REMARK    4  A    between atoms: C9_9  and  C10_10 
ROOT
HETATM    1  C10 UNL     1     -34.252  16.386  -3.842  1.00 20.00     0.055 C 
ENDROOT
BRANCH   1   2
HETATM    2  C1  UNL     1     -34.078  15.082  -4.617  1.00 20.00     0.127 C 
HETATM    3  C6  UNL     1     -34.073  15.180  -6.121  1.00 20.00     0.091 C 
HETATM    4  O11 UNL     1     -33.951  13.996  -4.051  1.00 20.00    -0.298 OA
ENDBRANCH   1   2
BRANCH   1   5
HETATM    5  C8  UNL     1     -33.173  16.497  -2.752  1.00 20.00     0.016 C 
BRANCH   5   6
HETATM    6  C5  UNL     1     -33.281  17.774  -1.944  1.00 20.00    -0.014 C 
HETATM    7  C3  UNL     1     -31.984  18.272  -1.254  1.00 20.00     0.005 C 
HETATM    8  C2  UNL     1     -32.872  18.718  -0.074  1.00 20.00     0.001 C 
HETATM    9  C4  UNL     1     -33.884  17.644  -0.520  1.00 20.00     0.005 C 
ENDBRANCH   5   6
ENDBRANCH   1   5
BRANCH   1  10
HETATM   10  C9  UNL     1     -34.169  17.582  -4.804  1.00 20.00     0.007 C 
HETATM   11  C7  UNL     1     -35.480  18.361  -4.834  1.00 20.00     0.006 C 
ENDBRANCH   1  10
TORSDOF 4
ENDMDL
MODEL 8
REMARK VINA RESULT:      -3.8     12.032     13.461
REMARK  4 active torsions:
REMARK  status: ('A' for Active; 'I' for Inactive)
REMARK    1  A    between atoms: C1_1  and  C10_10 
REMARK    2  A    between atoms: C5_5  and  C8_8 
REMARK    3  A    between atoms: C8_8  and  C10_10 
REMARK    4  A    between atoms: C9_9  and  C10_10 
ROOT
HETATM    1  C10 UNL     1     -34.621  15.764  -5.467  1.00 20.00     0.055 C 
ENDROOT
BRANCH   1   2
HETATM    2  C1  UNL     1     -36.105  15.400  -5.483  1.00 20.00     0.127 C 
HETATM    3  C6  UNL     1     -37.083  16.541  -5.594  1.00 20.00     0.091 C 
HETATM    4  O11 UNL     1     -36.494  14.235  -5.406  1.00 20.00    -0.298 OA
ENDBRANCH   1   2
BRANCH   1   5
HETATM    5  C8  UNL     1     -33.971  15.259  -4.168  1.00 20.00     0.016 C 
BRANCH   5   6
HETATM    6  C5  UNL     1     -33.123  16.313  -3.486  1.00 20.00    -0.014 C 
HETATM    7  C3  UNL     1     -33.529  16.705  -2.042  1.00 20.00     0.005 C 
HETATM    8  C2  UNL     1     -33.127  18.150  -2.400  1.00 20.00     0.001 C 
HETATM    9  C4  UNL     1     -33.407  17.788  -3.873  1.00 20.00     0.005 C 
ENDBRANCH   5   6
ENDBRANCH   1   5
BRANCH   1  10
HETATM   10  C9  UNL     1     -33.920  15.154  -6.691  1.00 20.00     0.007 C 
HETATM   11  C7  UNL     1     -34.066  16.051  -7.917  1.00 20.00     0.006 C 
ENDBRANCH   1  10
TORSDOF 4
ENDMDL
MODEL 9
REMARK VINA RESULT:      -3.8     10.161     11.317
REMARK  4 active torsions:
REMARK  status: ('A' for Active; 'I' for Inactive)
REMARK    1  A    between atoms: C1_1  and  C10_10 
REMARK    2  A    between atoms: C5_5  and  C8_8 
REMARK    3  A    between atoms: C8_8  and  C10_10 
REMARK    4  A    between atoms: C9_9  and  C10_10 
ROOT
HETATM    1  C10 UNL     1     -40.698  13.568   6.530  1.00 20.00     0.055 C 
ENDROOT
BRANCH   1   2
HETATM    2  C1  UNL     1     -39.716  12.440   6.220  1.00 20.00     0.127 C 
HETATM    3  C6  UNL     1     -39.649  11.973   4.789  1.00 20.00     0.091 C 
HETATM    4  O11 UNL     1     -39.011  11.928   7.089  1.00 20.00    -0.298 OA
ENDBRANCH   1   2
BRANCH   1   5
HETATM    5  C8  UNL     1     -42.141  13.044   6.456  1.00 20.00     0.016 C 
BRANCH   5   6
HETATM    6  C5  UNL     1     -43.012  13.850   5.515  1.00 20.00    -0.014 C 
HETATM    7  C3  UNL     1     -42.297  14.541   4.325  1.00 20.00     0.005 C 
HETATM    8  C2  UNL     1     -43.274  15.719   4.518  1.00 20.00     0.001 C 
HETATM    9  C4  UNL     1     -43.412  15.273   5.987  1.00 20.00     0.005 C 
ENDBRANCH   5   6
ENDBRANCH   1   5
BRANCH   1  10
HETATM   10  C9  UNL     1     -40.407  14.146   7.925  1.00 20.00     0.007 C 
HETATM   11  C7  UNL     1     -40.335  15.669   7.890  1.00 20.00     0.006 C 
ENDBRANCH   1  10
TORSDOF 4
ENDMDL
