MODEL 1
REMARK VINA RESULT:      -5.0      0.000      0.000
REMARK  3 active torsions:
REMARK  status: ('A' for Active; 'I' for Inactive)
REMARK    1  A    between atoms: C7_7  and  C9_9 
REMARK    2  A    between atoms: C8_8  and  C10_10 
REMARK    3  A    between atoms: C9_9  and  C10_10 
ROOT
HETATM    1  C1  UNL     1     -34.094   6.882   5.920  1.00 20.00     0.131 C 
HETATM    2  C2  UNL     1     -34.478   5.476   6.309  1.00 20.00     0.079 C 
HETATM    3  C3  UNL     1     -34.864   4.870   4.965  1.00 20.00     0.008 C 
HETATM    4  C4  UNL     1     -33.975   5.589   3.957  1.00 20.00     0.013 C 
HETATM    5  C7  UNL     1     -33.993   7.048   4.418  1.00 20.00     0.055 C 
HETATM    6  O11 UNL     1     -33.889   7.776   6.731  1.00 20.00    -0.298 OA
ENDROOT
BRANCH   5   7
HETATM    7  C9  UNL     1     -32.760   7.818   3.989  1.00 20.00     0.012 C 
BRANCH   7   8
HETATM    8  C10 UNL     1     -32.259   7.363   2.618  1.00 20.00     0.005 C 
BRANCH   8   9
HETATM    9  C8  UNL     1     -31.935   8.546   1.718  1.00 20.00    -0.014 A 
HETATM   10  C5  UNL     1     -32.601   8.681   0.377  1.00 20.00     0.005 A 
HETATM   11  C6  UNL     1     -32.957   9.624   1.491  1.00 20.00     0.005 A 
ENDBRANCH   8   9
ENDBRANCH   7   8
ENDBRANCH   5   7
TORSDOF 3
ENDMDL
MODEL 2
REMARK VINA RESULT:      -4.7      1.446      1.959
REMARK  3 active torsions:
REMARK  status: ('A' for Active; 'I' for Inactive)
REMARK    1  A    between atoms: C7_7  and  C9_9 
REMARK    2  A    between atoms: C8_8  and  C10_10 
REMARK    3  A    between atoms: C9_9  and  C10_10 
ROOT
HETATM    1  C1  UNL     1     -33.887   5.787   4.307  1.00 20.00     0.131 C 
HETATM    2  C2  UNL     1     -34.809   5.008   5.212  1.00 20.00     0.079 C 
HETATM    3  C3  UNL     1     -34.521   5.633   6.571  1.00 20.00     0.008 C 
HETATM    4  C4  UNL     1     -34.163   7.080   6.254  1.00 20.00     0.013 C 
HETATM    5  C7  UNL     1     -33.277   6.981   5.011  1.00 20.00     0.055 C 
HETATM    6  O11 UNL     1     -33.666   5.482   3.142  1.00 20.00    -0.298 OA
ENDROOT
BRANCH   5   7
HETATM    7  C9  UNL     1     -33.299   8.241   4.168  1.00 20.00     0.012 C 
BRANCH   7   8
HETATM    8  C10 UNL     1     -32.172   8.249   3.135  1.00 20.00     0.005 C 
BRANCH   8   9
HETATM    9  C8  UNL     1     -32.713   8.240   1.713  1.00 20.00    -0.014 A 
HETATM   10  C5  UNL     1     -32.751   9.510   0.910  1.00 20.00     0.005 A 
HETATM   11  C6  UNL     1     -31.780   8.421   0.549  1.00 20.00     0.005 A 
ENDBRANCH   8   9
ENDBRANCH   7   8
ENDBRANCH   5   7
TORSDOF 3
ENDMDL
MODEL 3
REMARK VINA RESULT:      -4.6     11.204     12.172
REMARK  3 active torsions:
REMARK  status: ('A' for Active; 'I' for Inactive)
REMARK    1  A    between atoms: C7_7  and  C9_9 
REMARK    2  A    between atoms: C8_8  and  C10_10 
REMARK    3  A    between atoms: C9_9  and  C10_10 
ROOT
HETATM    1  C1  UNL     1     -31.857  18.699  -0.333  1.00 20.00     0.131 C 
HETATM    2  C2  UNL     1     -32.339  18.511   1.083  1.00 20.00     0.079 C 
HETATM    3  C3  UNL     1     -33.804  18.918   0.977  1.00 20.00     0.008 C 
HETATM    4  C4  UNL     1     -34.202  18.528  -0.442  1.00 20.00     0.013 C 
HETATM    5  C7  UNL     1     -33.001  18.945  -1.294  1.00 20.00     0.055 C 
HETATM    6  O11 UNL     1     -30.677  18.656  -0.657  1.00 20.00    -0.298 OA
ENDROOT
BRANCH   5   7
HETATM    7  C9  UNL     1     -32.881  18.145  -2.576  1.00 20.00     0.012 C 
BRANCH   7   8
HETATM    8  C10 UNL     1     -33.349  16.702  -2.388  1.00 20.00     0.005 C 
BRANCH   8   9
HETATM    9  C8  UNL     1     -33.147  15.877  -3.651  1.00 20.00    -0.014 A 
HETATM   10  C5  UNL     1     -34.035  14.698  -3.934  1.00 20.00     0.005 A 
HETATM   11  C6  UNL     1     -34.153  15.945  -4.765  1.00 20.00     0.005 A 
ENDBRANCH   8   9
ENDBRANCH   7   8
ENDBRANCH   5   7
TORSDOF 3
ENDMDL
MODEL 4
REMARK VINA RESULT:      -4.5      1.674      4.876
REMARK  3 active torsions:
REMARK  status: ('A' for Active; 'I' for Inactive)
REMARK    1  A    between atoms: C7_7  and  C9_9 
REMARK    2  A    between atoms: C8_8  and  C10_10 
REMARK    3  A    between atoms: C9_9  and  C10_10 
ROOT
HETATM    1  C1  UNL     1     -32.377   7.490   2.269  1.00 20.00     0.131 C 
HETATM    2  C2  UNL     1     -32.012   8.084   0.932  1.00 20.00     0.079 C 
HETATM    3  C3  UNL     1     -32.756   9.413   0.961  1.00 20.00     0.008 C 
HETATM    4  C4  UNL     1     -32.773   9.804   2.434  1.00 20.00     0.013 C 
HETATM    5  C7  UNL     1     -33.073   8.494   3.165  1.00 20.00     0.055 C 
HETATM    6  O11 UNL     1     -32.134   6.332   2.584  1.00 20.00    -0.298 OA
ENDROOT
BRANCH   5   7
HETATM    7  C9  UNL     1     -32.553   8.478   4.589  1.00 20.00     0.012 C 
BRANCH   7   8
HETATM    8  C10 UNL     1     -33.612   7.979   5.572  1.00 20.00     0.005 C 
BRANCH   8   9
HETATM    9  C8  UNL     1     -33.777   6.468   5.499  1.00 20.00    -0.014 A 
HETATM   10  C5  UNL     1     -34.747   5.768   6.410  1.00 20.00     0.005 A 
HETATM   11  C6  UNL     1     -35.038   5.872   4.939  1.00 20.00     0.005 A 
ENDBRANCH   8   9
ENDBRANCH   7   8
ENDBRANCH   5   7
TORSDOF 3
ENDMDL
MODEL 5
REMARK VINA RESULT:      -4.2      9.824     10.707
REMARK  3 active torsions:
REMARK  status: ('A' for Active; 'I' for Inactive)
REMARK    1  A    between atoms: C7_7  and  C9_9 
REMARK    2  A    between atoms: C8_8  and  C10_10 
REMARK    3  A    between atoms: C9_9  and  C10_10 
ROOT
HETATM    1  C1  UNL     1     -40.528  14.662   8.827  1.00 20.00     0.131 C 
HETATM    2  C2  UNL     1     -40.797  16.026   9.413  1.00 20.00     0.079 C 
HETATM    3  C3  UNL     1     -40.746  16.917   8.178  1.00 20.00     0.008 C 
HETATM    4  C4  UNL     1     -41.244  16.025   7.047  1.00 20.00     0.013 C 
HETATM    5  C7  UNL     1     -40.574  14.676   7.314  1.00 20.00     0.055 C 
HETATM    6  O11 UNL     1     -40.299  13.668   9.505  1.00 20.00    -0.298 OA
ENDROOT
BRANCH   5   7
HETATM    7  C9  UNL     1     -41.347  13.507   6.734  1.00 20.00     0.012 C 
BRANCH   7   8
HETATM    8  C10 UNL     1     -40.867  13.155   5.326  1.00 20.00     0.005 C 
BRANCH   8   9
HETATM    9  C8  UNL     1     -39.968  11.928   5.330  1.00 20.00    -0.014 A 
HETATM   10  C5  UNL     1     -39.051  11.658   4.170  1.00 20.00     0.005 A 
HETATM   11  C6  UNL     1     -38.482  12.082   5.496  1.00 20.00     0.005 A 
ENDBRANCH   8   9
ENDBRANCH   7   8
ENDBRANCH   5   7
TORSDOF 3
ENDMDL
MODEL 6
REMARK VINA RESULT:      -4.2      9.958     10.837
REMARK  3 active torsions:
REMARK  status: ('A' for Active; 'I' for Inactive)
REMARK    1  A    between atoms: C7_7  and  C9_9 
REMARK    2  A    between atoms: C8_8  and  C10_10 
REMARK    3  A    between atoms: C9_9  and  C10_10 
ROOT
HETATM    1  C1  UNL     1     -42.121  15.341   7.104  1.00 20.00     0.131 C 
HETATM    2  C2  UNL     1     -41.142  16.383   7.584  1.00 20.00     0.079 C 
HETATM    3  C3  UNL     1     -40.354  15.617   8.639  1.00 20.00     0.008 C 
HETATM    4  C4  UNL     1     -40.358  14.176   8.142  1.00 20.00     0.013 C 
HETATM    5  C7  UNL     1     -41.785  13.962   7.633  1.00 20.00     0.055 C 
HETATM    6  O11 UNL     1     -43.072  15.590   6.375  1.00 20.00    -0.298 OA
ENDROOT
BRANCH   5   7
HETATM    7  C9  UNL     1     -41.878  12.882   6.572  1.00 20.00     0.012 C 
BRANCH   7   8
HETATM    8  C10 UNL     1     -40.829  13.076   5.476  1.00 20.00     0.005 C 
BRANCH   8   9
HETATM    9  C8  UNL     1     -39.915  11.866   5.354  1.00 20.00    -0.014 A 
HETATM   10  C5  UNL     1     -39.047  11.693   4.139  1.00 20.00     0.005 A 
HETATM   11  C6  UNL     1     -38.426  12.030   5.466  1.00 20.00     0.005 A 
ENDBRANCH   8   9
ENDBRANCH   7   8
ENDBRANCH   5   7
TORSDOF 3
ENDMDL
MODEL 7
REMARK VINA RESULT:      -4.2     11.537     12.621
REMARK  3 active torsions:
REMARK  status: ('A' for Active; 'I' for Inactive)
REMARK    1  A    between atoms: C7_7  and  C9_9 
REMARK    2  A    between atoms: C8_8  and  C10_10 
REMARK    3  A    between atoms: C9_9  and  C10_10 
ROOT
HETATM    1  C1  UNL     1     -33.805  15.028  -4.743  1.00 20.00     0.131 C 
HETATM    2  C2  UNL     1     -34.135  15.189  -6.206  1.00 20.00     0.079 C 
HETATM    3  C3  UNL     1     -34.940  16.483  -6.209  1.00 20.00     0.008 C 
HETATM    4  C4  UNL     1     -34.356  17.295  -5.059  1.00 20.00     0.013 C 
HETATM    5  C7  UNL     1     -34.151  16.267  -3.944  1.00 20.00     0.055 C 
HETATM    6  O11 UNL     1     -33.316  14.011  -4.268  1.00 20.00    -0.298 OA
ENDROOT
BRANCH   5   7
HETATM    7  C9  UNL     1     -33.062  16.665  -2.967  1.00 20.00     0.012 C 
BRANCH   7   8
HETATM    8  C10 UNL     1     -33.641  17.071  -1.611  1.00 20.00     0.005 C 
BRANCH   8   9
HETATM    9  C8  UNL     1     -33.036  18.373  -1.109  1.00 20.00    -0.014 A 
HETATM   10  C5  UNL     1     -32.689  18.536   0.344  1.00 20.00     0.005 A 
HETATM   11  C6  UNL     1     -31.596  18.421  -0.681  1.00 20.00     0.005 A 
ENDBRANCH   8   9
ENDBRANCH   7   8
ENDBRANCH   5   7
TORSDOF 3
ENDMDL
MODEL 8
REMARK VINA RESULT:      -4.2     11.182     11.930
REMARK  3 active torsions:
REMARK  status: ('A' for Active; 'I' for Inactive)
REMARK    1  A    between atoms: C7_7  and  C9_9 
REMARK    2  A    between atoms: C8_8  and  C10_10 
REMARK    3  A    between atoms: C9_9  and  C10_10 
ROOT
HETATM    1  C1  UNL     1     -33.574  18.250   0.371  1.00 20.00     0.131 C 
HETATM    2  C2  UNL     1     -32.412  18.931   1.049  1.00 20.00     0.079 C 
HETATM    3  C3  UNL     1     -31.251  18.565   0.132  1.00 20.00     0.008 C 
HETATM    4  C4  UNL     1     -31.882  18.457  -1.252  1.00 20.00     0.013 C 
HETATM    5  C7  UNL     1     -33.204  17.729  -1.002  1.00 20.00     0.055 C 
HETATM    6  O11 UNL     1     -34.682  18.136   0.880  1.00 20.00    -0.298 OA
ENDROOT
BRANCH   5   7
HETATM    7  C9  UNL     1     -34.254  18.034  -2.053  1.00 20.00     0.012 C 
BRANCH   7   8
HETATM    8  C10 UNL     1     -33.940  17.342  -3.381  1.00 20.00     0.005 C 
BRANCH   8   9
HETATM    9  C8  UNL     1     -33.562  15.883  -3.178  1.00 20.00    -0.014 A 
HETATM   10  C5  UNL     1     -34.161  14.818  -4.053  1.00 20.00     0.005 A 
HETATM   11  C6  UNL     1     -32.708  15.176  -4.193  1.00 20.00     0.005 A 
ENDBRANCH   8   9
ENDBRANCH   7   8
ENDBRANCH   5   7
TORSDOF 3
ENDMDL
MODEL 9
REMARK VINA RESULT:      -4.1     11.709     12.643
REMARK  3 active torsions:
REMARK  status: ('A' for Active; 'I' for Inactive)
REMARK    1  A    between atoms: C7_7  and  C9_9 
REMARK    2  A    between atoms: C8_8  and  C10_10 
REMARK    3  A    between atoms: C9_9  and  C10_10 
ROOT
HETATM    1  C1  UNL     1     -34.894  16.706  -4.824  1.00 20.00     0.131 C 
HETATM    2  C2  UNL     1     -34.906  15.244  -5.194  1.00 20.00     0.079 C 
HETATM    3  C3  UNL     1     -33.579  14.761  -4.621  1.00 20.00     0.008 C 
HETATM    4  C4  UNL     1     -33.352  15.643  -3.398  1.00 20.00     0.013 C 
HETATM    5  C7  UNL     1     -33.772  17.039  -3.863  1.00 20.00     0.055 C 
HETATM    6  O11 UNL     1     -35.701  17.520  -5.255  1.00 20.00    -0.298 OA
ENDROOT
BRANCH   5   7
HETATM    7  C9  UNL     1     -34.215  17.933  -2.721  1.00 20.00     0.012 C 
BRANCH   7   8
HETATM    8  C10 UNL     1     -33.594  17.502  -1.392  1.00 20.00     0.005 C 
BRANCH   8   9
HETATM    9  C8  UNL     1     -32.824  18.639  -0.738  1.00 20.00    -0.014 A 
HETATM   10  C5  UNL     1     -32.373  18.523   0.691  1.00 20.00     0.005 A 
HETATM   11  C6  UNL     1     -31.364  18.479  -0.422  1.00 20.00     0.005 A 
ENDBRANCH   8   9
ENDBRANCH   7   8
ENDBRANCH   5   7
TORSDOF 3
ENDMDL
