MODEL 1
REMARK VINA RESULT:      -3.9      0.000      0.000
REMARK  4 active torsions:
REMARK  status: ('A' for Active; 'I' for Inactive)
REMARK    1  A    between atoms: C1_1  and  C9_9 
REMARK    2  A    between atoms: C4_4  and  C8_8 
REMARK    3  A    between atoms: C8_8  and  C9_9 
REMARK    4  A    between atoms: C9_9  and  C10_10 
ROOT
HETATM    1  C9  UNL     1     -41.125  13.799   5.919  1.00 20.00     0.058 C 
ENDROOT
BRANCH   1   2
HETATM    2  C1  UNL     1     -41.960  14.263   4.720  1.00 20.00     0.127 C 
HETATM    3  C5  UNL     1     -43.208  15.052   5.026  1.00 20.00     0.091 C 
HETATM    4  O11 UNL     1     -41.633  14.026   3.556  1.00 20.00    -0.298 OA
ENDBRANCH   1   2
BRANCH   1   5
HETATM    5  C8  UNL     1     -41.263  12.281   6.137  1.00 20.00     0.017 C 
BRANCH   5   6
HETATM    6  C4  UNL     1     -39.941  11.568   5.856  1.00 20.00    -0.014 A 
HETATM    7  C2  UNL     1     -39.322  11.631   4.487  1.00 20.00     0.005 A 
HETATM    8  C3  UNL     1     -38.684  12.364   5.635  1.00 20.00     0.005 A 
ENDBRANCH   5   6
ENDBRANCH   1   5
BRANCH   1   9
HETATM    9  C10 UNL     1     -41.491  14.654   7.161  1.00 20.00    -0.012 C 
HETATM   10  C6  UNL     1     -40.316  15.466   7.714  1.00 20.00     0.010 C 
HETATM   11  C7  UNL     1     -42.092  13.790   8.274  1.00 20.00     0.010 C 
ENDBRANCH   1   9
TORSDOF 4
ENDMDL
MODEL 2
REMARK VINA RESULT:      -3.8     11.214     12.309
REMARK  4 active torsions:
REMARK  status: ('A' for Active; 'I' for Inactive)
REMARK    1  A    between atoms: C1_1  and  C9_9 
REMARK    2  A    between atoms: C4_4  and  C8_8 
REMARK    3  A    between atoms: C8_8  and  C9_9 
REMARK    4  A    between atoms: C9_9  and  C10_10 
ROOT
HETATM    1  C9  UNL     1     -32.844  17.806  -2.460  1.00 20.00     0.058 C 
ENDROOT
BRANCH   1   2
HETATM    2  C1  UNL     1     -33.405  18.796  -3.488  1.00 20.00     0.127 C 
HETATM    3  C5  UNL     1     -34.849  19.199  -3.324  1.00 20.00     0.091 C 
HETATM    4  O11 UNL     1     -32.719  19.263  -4.398  1.00 20.00    -0.298 OA
ENDBRANCH   1   2
BRANCH   1   5
HETATM    5  C8  UNL     1     -33.607  16.469  -2.506  1.00 20.00     0.017 C 
BRANCH   5   6
HETATM    6  C4  UNL     1     -33.266  15.690  -3.776  1.00 20.00    -0.014 A 
HETATM    7  C2  UNL     1     -33.964  14.393  -4.080  1.00 20.00     0.005 A 
HETATM    8  C3  UNL     1     -34.255  15.616  -4.907  1.00 20.00     0.005 A 
ENDBRANCH   5   6
ENDBRANCH   1   5
BRANCH   1   9
HETATM    9  C10 UNL     1     -32.821  18.475  -1.061  1.00 20.00    -0.012 C 
HETATM   10  C6  UNL     1     -31.423  18.551  -0.441  1.00 20.00     0.010 C 
HETATM   11  C7  UNL     1     -33.780  17.774  -0.093  1.00 20.00     0.010 C 
ENDBRANCH   1   9
TORSDOF 4
ENDMDL
MODEL 3
REMARK VINA RESULT:      -3.7      1.830      2.924
REMARK  4 active torsions:
REMARK  status: ('A' for Active; 'I' for Inactive)
REMARK    1  A    between atoms: C1_1  and  C9_9 
REMARK    2  A    between atoms: C4_4  and  C8_8 
REMARK    3  A    between atoms: C8_8  and  C9_9 
REMARK    4  A    between atoms: C9_9  and  C10_10 
ROOT
HETATM    1  C9  UNL     1     -41.209  13.360   7.193  1.00 20.00     0.058 C 
ENDROOT
BRANCH   1   2
HETATM    2  C1  UNL     1     -40.755  14.575   8.009  1.00 20.00     0.127 C 
HETATM    3  C5  UNL     1     -41.049  14.549   9.488  1.00 20.00     0.091 C 
HETATM    4  O11 UNL     1     -40.161  15.527   7.501  1.00 20.00    -0.298 OA
ENDBRANCH   1   2
BRANCH   1   5
HETATM    5  C8  UNL     1     -40.528  13.333   5.812  1.00 20.00     0.017 C 
BRANCH   5   6
HETATM    6  C4  UNL     1     -39.806  12.005   5.587  1.00 20.00    -0.014 A 
HETATM    7  C2  UNL     1     -39.221  11.681   4.240  1.00 20.00     0.005 A 
HETATM    8  C3  UNL     1     -38.314  11.977   5.402  1.00 20.00     0.005 A 
ENDBRANCH   5   6
ENDBRANCH   1   5
BRANCH   1   9
HETATM    9  C10 UNL     1     -42.760  13.330   7.136  1.00 20.00    -0.012 C 
HETATM   10  C6  UNL     1     -43.351  11.925   7.287  1.00 20.00     0.010 C 
HETATM   11  C7  UNL     1     -43.282  13.977   5.850  1.00 20.00     0.010 C 
ENDBRANCH   1   9
TORSDOF 4
ENDMDL
MODEL 4
REMARK VINA RESULT:      -3.7      1.829      4.053
REMARK  4 active torsions:
REMARK  status: ('A' for Active; 'I' for Inactive)
REMARK    1  A    between atoms: C1_1  and  C9_9 
REMARK    2  A    between atoms: C4_4  and  C8_8 
REMARK    3  A    between atoms: C8_8  and  C9_9 
REMARK    4  A    between atoms: C9_9  and  C10_10 
ROOT
HETATM    1  C9  UNL     1     -40.442  13.617   6.225  1.00 20.00     0.058 C 
ENDROOT
BRANCH   1   2
HETATM    2  C1  UNL     1     -39.558  12.373   6.081  1.00 20.00     0.127 C 
HETATM    3  C5  UNL     1     -39.409  11.803   4.694  1.00 20.00     0.091 C 
HETATM    4  O11 UNL     1     -38.977  11.862   7.039  1.00 20.00    -0.298 OA
ENDBRANCH   1   2
BRANCH   1   5
HETATM    5  C8  UNL     1     -40.500  14.090   7.689  1.00 20.00     0.017 C 
BRANCH   5   6
HETATM    6  C4  UNL     1     -40.376  15.610   7.777  1.00 20.00    -0.014 A 
HETATM    7  C2  UNL     1     -41.609  16.471   7.789  1.00 20.00     0.005 A 
HETATM    8  C3  UNL     1     -40.777  16.331   9.034  1.00 20.00     0.005 A 
ENDBRANCH   5   6
ENDBRANCH   1   5
BRANCH   1   9
HETATM    9  C10 UNL     1     -41.831  13.337   5.593  1.00 20.00    -0.012 C 
HETATM   10  C6  UNL     1     -42.340  14.473   4.702  1.00 20.00     0.010 C 
HETATM   11  C7  UNL     1     -42.875  13.012   6.666  1.00 20.00     0.010 C 
ENDBRANCH   1   9
TORSDOF 4
ENDMDL
MODEL 5
REMARK VINA RESULT:      -3.6     12.006     13.440
REMARK  4 active torsions:
REMARK  status: ('A' for Active; 'I' for Inactive)
REMARK    1  A    between atoms: C1_1  and  C9_9 
REMARK    2  A    between atoms: C4_4  and  C8_8 
REMARK    3  A    between atoms: C8_8  and  C9_9 
REMARK    4  A    between atoms: C9_9  and  C10_10 
ROOT
HETATM    1  C9  UNL     1     -34.643  15.658  -5.628  1.00 20.00     0.058 C 
ENDROOT
BRANCH   1   2
HETATM    2  C1  UNL     1     -34.118  15.836  -7.057  1.00 20.00     0.127 C 
HETATM    3  C5  UNL     1     -34.358  17.175  -7.707  1.00 20.00     0.091 C 
HETATM    4  O11 UNL     1     -33.513  14.945  -7.654  1.00 20.00    -0.298 OA
ENDBRANCH   1   2
BRANCH   1   5
HETATM    5  C8  UNL     1     -33.610  14.936  -4.744  1.00 20.00     0.017 C 
BRANCH   5   6
HETATM    6  C4  UNL     1     -32.924  15.918  -3.794  1.00 20.00    -0.014 A 
HETATM    7  C2  UNL     1     -33.432  17.328  -3.667  1.00 20.00     0.005 A 
HETATM    8  C3  UNL     1     -33.613  16.357  -2.532  1.00 20.00     0.005 A 
ENDBRANCH   5   6
ENDBRANCH   1   5
BRANCH   1   9
HETATM    9  C10 UNL     1     -36.032  14.969  -5.672  1.00 20.00    -0.012 C 
HETATM   10  C6  UNL     1     -37.200  15.925  -5.413  1.00 20.00     0.010 C 
HETATM   11  C7  UNL     1     -36.101  13.791  -4.695  1.00 20.00     0.010 C 
ENDBRANCH   1   9
TORSDOF 4
ENDMDL
MODEL 6
REMARK VINA RESULT:      -3.6      8.929     10.590
REMARK  4 active torsions:
REMARK  status: ('A' for Active; 'I' for Inactive)
REMARK    1  A    between atoms: C1_1  and  C9_9 
REMARK    2  A    between atoms: C4_4  and  C8_8 
REMARK    3  A    between atoms: C8_8  and  C9_9 
REMARK    4  A    between atoms: C9_9  and  C10_10 
ROOT
HETATM    1  C9  UNL     1     -33.416   6.844   4.176  1.00 20.00     0.058 C 
ENDROOT
BRANCH   1   2
HETATM    2  C1  UNL     1     -32.741   6.519   2.839  1.00 20.00     0.127 C 
HETATM    3  C5  UNL     1     -32.801   5.085   2.378  1.00 20.00     0.091 C 
HETATM    4  O11 UNL     1     -32.188   7.379   2.152  1.00 20.00    -0.298 OA
ENDBRANCH   1   2
BRANCH   1   5
HETATM    5  C8  UNL     1     -34.886   6.385   4.180  1.00 20.00     0.017 C 
BRANCH   5   6
HETATM    6  C4  UNL     1     -35.116   5.300   5.232  1.00 20.00    -0.014 A 
HETATM    7  C2  UNL     1     -33.947   4.567   5.830  1.00 20.00     0.005 A 
HETATM    8  C3  UNL     1     -34.730   5.542   6.665  1.00 20.00     0.005 A 
ENDBRANCH   5   6
ENDBRANCH   1   5
BRANCH   1   9
HETATM    9  C10 UNL     1     -33.221   8.348   4.499  1.00 20.00    -0.012 C 
HETATM   10  C6  UNL     1     -31.762   8.734   4.764  1.00 20.00     0.010 C 
HETATM   11  C7  UNL     1     -34.094   8.782   5.681  1.00 20.00     0.010 C 
ENDBRANCH   1   9
TORSDOF 4
ENDMDL
MODEL 7
REMARK VINA RESULT:      -3.5     11.137     12.184
REMARK  4 active torsions:
REMARK  status: ('A' for Active; 'I' for Inactive)
REMARK    1  A    between atoms: C1_1  and  C9_9 
REMARK    2  A    between atoms: C4_4  and  C8_8 
REMARK    3  A    between atoms: C8_8  and  C9_9 
REMARK    4  A    between atoms: C9_9  and  C10_10 
ROOT
HETATM    1  C9  UNL     1     -33.955  17.615  -1.889  1.00 20.00     0.058 C 
ENDROOT
BRANCH   1   2
HETATM    2  C1  UNL     1     -33.290  18.020  -0.569  1.00 20.00     0.127 C 
HETATM    3  C5  UNL     1     -31.839  18.424  -0.635  1.00 20.00     0.091 C 
HETATM    4  O11 UNL     1     -33.901  18.039   0.501  1.00 20.00    -0.298 OA
ENDBRANCH   1   2
BRANCH   1   5
HETATM    5  C8  UNL     1     -33.016  16.733  -2.734  1.00 20.00     0.017 C 
BRANCH   5   6
HETATM    6  C4  UNL     1     -33.783  15.576  -3.372  1.00 20.00    -0.014 A 
HETATM    7  C2  UNL     1     -34.299  15.694  -4.779  1.00 20.00     0.005 A 
HETATM    8  C3  UNL     1     -33.154  14.768  -4.473  1.00 20.00     0.005 A 
ENDBRANCH   5   6
ENDBRANCH   1   5
BRANCH   1   9
HETATM    9  C10 UNL     1     -34.461  18.885  -2.621  1.00 20.00    -0.012 C 
HETATM   10  C6  UNL     1     -35.909  18.776  -3.108  1.00 20.00     0.010 C 
HETATM   11  C7  UNL     1     -33.547  19.254  -3.794  1.00 20.00     0.010 C 
ENDBRANCH   1   9
TORSDOF 4
ENDMDL
MODEL 8
REMARK VINA RESULT:      -3.4     11.730     13.395
REMARK  4 active torsions:
REMARK  status: ('A' for Active; 'I' for Inactive)
REMARK    1  A    between atoms: C1_1  and  C9_9 
REMARK    2  A    between atoms: C4_4  and  C8_8 
REMARK    3  A    between atoms: C8_8  and  C9_9 
REMARK    4  A    between atoms: C9_9  and  C10_10 
ROOT
HETATM    1  C9  UNL     1     -34.135  15.866  -5.235  1.00 20.00     0.058 C 
ENDROOT
BRANCH   1   2
HETATM    2  C1  UNL     1     -34.830  14.584  -4.761  1.00 20.00     0.127 C 
HETATM    3  C5  UNL     1     -36.237  14.354  -5.252  1.00 20.00     0.091 C 
HETATM    4  O11 UNL     1     -34.275  13.762  -4.031  1.00 20.00    -0.298 OA
ENDBRANCH   1   2
BRANCH   1   5
HETATM    5  C8  UNL     1     -34.323  17.006  -4.217  1.00 20.00     0.017 C 
BRANCH   5   6
HETATM    6  C4  UNL     1     -33.261  16.939  -3.121  1.00 20.00    -0.014 A 
HETATM    7  C2  UNL     1     -32.874  18.180  -2.365  1.00 20.00     0.005 A 
HETATM    8  C3  UNL     1     -33.653  17.093  -1.677  1.00 20.00     0.005 A 
ENDBRANCH   5   6
ENDBRANCH   1   5
BRANCH   1   9
HETATM    9  C10 UNL     1     -34.614  16.210  -6.670  1.00 20.00    -0.012 C 
HETATM   10  C6  UNL     1     -33.785  15.540  -7.770  1.00 20.00     0.010 C 
HETATM   11  C7  UNL     1     -34.648  17.725  -6.897  1.00 20.00     0.010 C 
ENDBRANCH   1   9
TORSDOF 4
ENDMDL
MODEL 9
REMARK VINA RESULT:      -3.4     11.591     12.823
REMARK  4 active torsions:
REMARK  status: ('A' for Active; 'I' for Inactive)
REMARK    1  A    between atoms: C1_1  and  C9_9 
REMARK    2  A    between atoms: C4_4  and  C8_8 
REMARK    3  A    between atoms: C8_8  and  C9_9 
REMARK    4  A    between atoms: C9_9  and  C10_10 
ROOT
HETATM    1  C9  UNL     1     -33.679  16.630  -4.047  1.00 20.00     0.058 C 
ENDROOT
BRANCH   1   2
HETATM    2  C1  UNL     1     -33.919  15.219  -4.594  1.00 20.00     0.127 C 
HETATM    3  C5  UNL     1     -34.046  15.082  -6.090  1.00 20.00     0.091 C 
HETATM    4  O11 UNL     1     -33.989  14.230  -3.863  1.00 20.00    -0.298 OA
ENDBRANCH   1   2
BRANCH   1   5
HETATM    5  C8  UNL     1     -33.775  16.653  -2.510  1.00 20.00     0.017 C 
BRANCH   5   6
HETATM    6  C4  UNL     1     -32.602  17.422  -1.903  1.00 20.00    -0.014 A 
HETATM    7  C2  UNL     1     -32.593  18.925  -1.918  1.00 20.00     0.005 A 
HETATM    8  C3  UNL     1     -32.783  18.188  -0.622  1.00 20.00     0.005 A 
ENDBRANCH   5   6
ENDBRANCH   1   5
BRANCH   1   9
HETATM    9  C10 UNL     1     -34.635  17.626  -4.757  1.00 20.00    -0.012 C 
HETATM   10  C6  UNL     1     -33.915  18.819  -5.392  1.00 20.00     0.010 C 
HETATM   11  C7  UNL     1     -35.726  18.125  -3.805  1.00 20.00     0.010 C 
ENDBRANCH   1   9
TORSDOF 4
ENDMDL
