MODEL 1
REMARK VINA RESULT:      -4.1      0.000      0.000
REMARK  5 active torsions:
REMARK  status: ('A' for Active; 'I' for Inactive)
REMARK    1  A    between atoms: C1_1  and  C10_10 
REMARK    2  A    between atoms: C4_4  and  C8_8 
REMARK    3  A    between atoms: C8_8  and  C9_9 
REMARK    4  A    between atoms: C9_9  and  C10_10 
REMARK    5  A    between atoms: C10_10  and  C11_11 
ROOT
HETATM    1  C10 UNL     1     -34.223  16.332  -4.044  1.00 20.00     0.058 C 
ENDROOT
BRANCH   1   2
HETATM    2  C1  UNL     1     -33.862  15.067  -4.830  1.00 20.00     0.127 C 
HETATM    3  C5  UNL     1     -34.046  15.121  -6.326  1.00 20.00     0.091 C 
HETATM    4  O12 UNL     1     -33.460  14.042  -4.282  1.00 20.00    -0.298 OA
ENDBRANCH   1   2
BRANCH   1   5
HETATM    5  C9  UNL     1     -33.072  16.751  -3.109  1.00 20.00     0.013 C 
BRANCH   5   6
HETATM    6  C8  UNL     1     -33.554  17.019  -1.677  1.00 20.00     0.005 C 
BRANCH   6   7
HETATM    7  C4  UNL     1     -33.039  18.326  -1.156  1.00 20.00    -0.014 A 
HETATM    8  C2  UNL     1     -32.816  18.519   0.319  1.00 20.00     0.005 A 
HETATM    9  C3  UNL     1     -31.640  18.425  -0.614  1.00 20.00     0.005 A 
ENDBRANCH   6   7
ENDBRANCH   5   6
ENDBRANCH   1   5
BRANCH   1  10
HETATM   10  C11 UNL     1     -34.672  17.440  -5.033  1.00 20.00    -0.012 C 
HETATM   11  C6  UNL     1     -36.154  17.808  -4.913  1.00 20.00     0.010 C 
HETATM   12  C7  UNL     1     -33.813  18.699  -4.887  1.00 20.00     0.010 C 
ENDBRANCH   1  10
TORSDOF 5
ENDMDL
MODEL 2
REMARK VINA RESULT:      -4.0      2.095      2.949
REMARK  5 active torsions:
REMARK  status: ('A' for Active; 'I' for Inactive)
REMARK    1  A    between atoms: C1_1  and  C10_10 
REMARK    2  A    between atoms: C4_4  and  C8_8 
REMARK    3  A    between atoms: C8_8  and  C9_9 
REMARK    4  A    between atoms: C9_9  and  C10_10 
REMARK    5  A    between atoms: C10_10  and  C11_11 
ROOT
HETATM    1  C10 UNL     1     -34.911  15.796  -5.519  1.00 20.00     0.058 C 
ENDROOT
BRANCH   1   2
HETATM    2  C1  UNL     1     -36.200  14.973  -5.432  1.00 20.00     0.127 C 
HETATM    3  C5  UNL     1     -36.131  13.682  -4.655  1.00 20.00     0.091 C 
HETATM    4  O12 UNL     1     -37.244  15.321  -5.982  1.00 20.00    -0.298 OA
ENDBRANCH   1   2
BRANCH   1   5
HETATM    5  C9  UNL     1     -33.687  14.954  -5.108  1.00 20.00     0.013 C 
BRANCH   5   6
HETATM    6  C8  UNL     1     -32.948  15.552  -3.904  1.00 20.00     0.005 C 
BRANCH   6   7
HETATM    7  C4  UNL     1     -33.723  16.671  -3.278  1.00 20.00    -0.014 A 
HETATM    8  C2  UNL     1     -33.509  17.027  -1.833  1.00 20.00     0.005 A 
HETATM    9  C3  UNL     1     -33.035  17.957  -2.914  1.00 20.00     0.005 A 
ENDBRANCH   6   7
ENDBRANCH   5   6
ENDBRANCH   1   5
BRANCH   1  10
HETATM   10  C11 UNL     1     -34.801  16.431  -6.930  1.00 20.00    -0.012 C 
HETATM   11  C6  UNL     1     -34.367  17.899  -6.912  1.00 20.00     0.010 C 
HETATM   12  C7  UNL     1     -33.860  15.625  -7.831  1.00 20.00     0.010 C 
ENDBRANCH   1  10
TORSDOF 5
ENDMDL
MODEL 3
REMARK VINA RESULT:      -3.9      2.121      4.761
REMARK  5 active torsions:
REMARK  status: ('A' for Active; 'I' for Inactive)
REMARK    1  A    between atoms: C1_1  and  C10_10 
REMARK    2  A    between atoms: C4_4  and  C8_8 
REMARK    3  A    between atoms: C8_8  and  C9_9 
REMARK    4  A    between atoms: C9_9  and  C10_10 
REMARK    5  A    between atoms: C10_10  and  C11_11 
ROOT
HETATM    1  C10 UNL     1     -32.935  17.887  -2.603  1.00 20.00     0.058 C 
ENDROOT
BRANCH   1   2
HETATM    2  C1  UNL     1     -32.451  18.338  -1.221  1.00 20.00     0.127 C 
HETATM    3  C5  UNL     1     -33.397  18.123  -0.066  1.00 20.00     0.091 C 
HETATM    4  O12 UNL     1     -31.356  18.870  -1.046  1.00 20.00    -0.298 OA
ENDBRANCH   1   2
BRANCH   1   5
HETATM    5  C9  UNL     1     -33.637  16.518  -2.525  1.00 20.00     0.013 C 
BRANCH   5   6
HETATM    6  C8  UNL     1     -33.294  15.620  -3.720  1.00 20.00     0.005 C 
BRANCH   6   7
HETATM    7  C4  UNL     1     -34.300  15.760  -4.823  1.00 20.00    -0.014 A 
HETATM    8  C2  UNL     1     -34.050  15.122  -6.162  1.00 20.00     0.005 A 
HETATM    9  C3  UNL     1     -35.118  14.575  -5.256  1.00 20.00     0.005 A 
ENDBRANCH   6   7
ENDBRANCH   5   6
ENDBRANCH   1   5
BRANCH   1  10
HETATM   10  C11 UNL     1     -33.801  19.010  -3.234  1.00 20.00    -0.012 C 
HETATM   11  C6  UNL     1     -33.497  19.263  -4.713  1.00 20.00     0.010 C 
HETATM   12  C7  UNL     1     -35.296  18.728  -3.054  1.00 20.00     0.010 C 
ENDBRANCH   1  10
TORSDOF 5
ENDMDL
MODEL 4
REMARK VINA RESULT:      -3.8     12.300     13.671
REMARK  5 active torsions:
REMARK  status: ('A' for Active; 'I' for Inactive)
REMARK    1  A    between atoms: C1_1  and  C10_10 
REMARK    2  A    between atoms: C4_4  and  C8_8 
REMARK    3  A    between atoms: C8_8  and  C9_9 
REMARK    4  A    between atoms: C9_9  and  C10_10 
REMARK    5  A    between atoms: C10_10  and  C11_11 
ROOT
HETATM    1  C10 UNL     1     -40.866  13.325   7.031  1.00 20.00     0.058 C 
ENDROOT
BRANCH   1   2
HETATM    2  C1  UNL     1     -39.794  12.450   6.371  1.00 20.00     0.127 C 
HETATM    3  C5  UNL     1     -39.905  12.249   4.881  1.00 20.00     0.091 C 
HETATM    4  O12 UNL     1     -38.893  11.913   7.014  1.00 20.00    -0.298 OA
ENDBRANCH   1   2
BRANCH   1   5
HETATM    5  C9  UNL     1     -40.487  14.817   6.955  1.00 20.00     0.013 C 
BRANCH   5   6
HETATM    6  C8  UNL     1     -40.438  15.476   8.339  1.00 20.00     0.005 C 
BRANCH   6   7
HETATM    7  C4  UNL     1     -40.474  14.458   9.438  1.00 20.00    -0.014 A 
HETATM    8  C2  UNL     1     -40.292  14.881  10.870  1.00 20.00     0.005 A 
HETATM    9  C3  UNL     1     -41.637  14.412  10.390  1.00 20.00     0.005 A 
ENDBRANCH   6   7
ENDBRANCH   5   6
ENDBRANCH   1   5
BRANCH   1  10
HETATM   10  C11 UNL     1     -42.251  12.989   6.418  1.00 20.00    -0.012 C 
HETATM   11  C6  UNL     1     -43.182  12.241   7.376  1.00 20.00     0.010 C 
HETATM   12  C7  UNL     1     -42.949  14.248   5.896  1.00 20.00     0.010 C 
ENDBRANCH   1  10
TORSDOF 5
ENDMDL
MODEL 5
REMARK VINA RESULT:      -3.8     12.439     14.158
REMARK  5 active torsions:
REMARK  status: ('A' for Active; 'I' for Inactive)
REMARK    1  A    between atoms: C1_1  and  C10_10 
REMARK    2  A    between atoms: C4_4  and  C8_8 
REMARK    3  A    between atoms: C8_8  and  C9_9 
REMARK    4  A    between atoms: C9_9  and  C10_10 
REMARK    5  A    between atoms: C10_10  and  C11_11 
ROOT
HETATM    1  C10 UNL     1     -42.125  14.083   7.460  1.00 20.00     0.058 C 
ENDROOT
BRANCH   1   2
HETATM    2  C1  UNL     1     -40.821  14.446   8.178  1.00 20.00     0.127 C 
HETATM    3  C5  UNL     1     -40.255  15.817   7.906  1.00 20.00     0.091 C 
HETATM    4  O12 UNL     1     -40.238  13.662   8.926  1.00 20.00    -0.298 OA
ENDBRANCH   1   2
BRANCH   1   5
HETATM    5  C9  UNL     1     -41.956  12.803   6.619  1.00 20.00     0.013 C 
BRANCH   5   6
HETATM    6  C8  UNL     1     -40.943  12.984   5.482  1.00 20.00     0.005 C 
BRANCH   6   7
HETATM    7  C4  UNL     1     -39.963  11.851   5.430  1.00 20.00    -0.014 A 
HETATM    8  C2  UNL     1     -39.044  11.697   4.249  1.00 20.00     0.005 A 
HETATM    9  C3  UNL     1     -38.491  12.117   5.582  1.00 20.00     0.005 A 
ENDBRANCH   6   7
ENDBRANCH   5   6
ENDBRANCH   1   5
BRANCH   1  10
HETATM   10  C11 UNL     1     -43.279  14.016   8.495  1.00 20.00    -0.012 C 
HETATM   11  C6  UNL     1     -43.417  12.651   9.176  1.00 20.00     0.010 C 
HETATM   12  C7  UNL     1     -43.140  15.111   9.557  1.00 20.00     0.010 C 
ENDBRANCH   1  10
TORSDOF 5
ENDMDL
MODEL 6
REMARK VINA RESULT:      -3.8      1.780      2.255
REMARK  5 active torsions:
REMARK  status: ('A' for Active; 'I' for Inactive)
REMARK    1  A    between atoms: C1_1  and  C10_10 
REMARK    2  A    between atoms: C4_4  and  C8_8 
REMARK    3  A    between atoms: C8_8  and  C9_9 
REMARK    4  A    between atoms: C9_9  and  C10_10 
REMARK    5  A    between atoms: C10_10  and  C11_11 
ROOT
HETATM    1  C10 UNL     1     -35.226  15.940  -5.168  1.00 20.00     0.058 C 
ENDROOT
BRANCH   1   2
HETATM    2  C1  UNL     1     -35.777  14.594  -5.650  1.00 20.00     0.127 C 
HETATM    3  C5  UNL     1     -35.996  13.535  -4.599  1.00 20.00     0.091 C 
HETATM    4  O12 UNL     1     -36.016  14.364  -6.834  1.00 20.00    -0.298 OA
ENDBRANCH   1   2
BRANCH   1   5
HETATM    5  C9  UNL     1     -33.702  15.868  -4.949  1.00 20.00     0.013 C 
BRANCH   5   6
HETATM    6  C8  UNL     1     -33.326  15.907  -3.462  1.00 20.00     0.005 C 
BRANCH   6   7
HETATM    7  C4  UNL     1     -33.817  17.159  -2.800  1.00 20.00    -0.014 A 
HETATM    8  C2  UNL     1     -33.645  17.350  -1.319  1.00 20.00     0.005 A 
HETATM    9  C3  UNL     1     -32.837  18.174  -2.282  1.00 20.00     0.005 A 
ENDBRANCH   6   7
ENDBRANCH   5   6
ENDBRANCH   1   5
BRANCH   1  10
HETATM   10  C11 UNL     1     -35.675  17.058  -6.145  1.00 20.00    -0.012 C 
HETATM   11  C6  UNL     1     -36.401  18.219  -5.461  1.00 20.00     0.010 C 
HETATM   12  C7  UNL     1     -34.493  17.595  -6.959  1.00 20.00     0.010 C 
ENDBRANCH   1  10
TORSDOF 5
ENDMDL
MODEL 7
REMARK VINA RESULT:      -3.8     11.744     13.226
REMARK  5 active torsions:
REMARK  status: ('A' for Active; 'I' for Inactive)
REMARK    1  A    between atoms: C1_1  and  C10_10 
REMARK    2  A    between atoms: C4_4  and  C8_8 
REMARK    3  A    between atoms: C8_8  and  C9_9 
REMARK    4  A    between atoms: C9_9  and  C10_10 
REMARK    5  A    between atoms: C10_10  and  C11_11 
ROOT
HETATM    1  C10 UNL     1     -40.845  13.559   6.548  1.00 20.00     0.058 C 
ENDROOT
BRANCH   1   2
HETATM    2  C1  UNL     1     -39.783  12.483   6.299  1.00 20.00     0.127 C 
HETATM    3  C5  UNL     1     -39.654  11.970   4.887  1.00 20.00     0.091 C 
HETATM    4  O12 UNL     1     -39.075  12.033   7.199  1.00 20.00    -0.298 OA
ENDBRANCH   1   2
BRANCH   1   5
HETATM    5  C9  UNL     1     -42.260  12.947   6.567  1.00 20.00     0.013 C 
BRANCH   5   6
HETATM    6  C8  UNL     1     -43.242  13.727   5.683  1.00 20.00     0.005 C 
BRANCH   6   7
HETATM    7  C4  UNL     1     -42.529  14.519   4.629  1.00 20.00    -0.014 A 
HETATM    8  C2  UNL     1     -43.274  15.012   3.420  1.00 20.00     0.005 A 
HETATM    9  C3  UNL     1     -42.811  15.987   4.466  1.00 20.00     0.005 A 
ENDBRANCH   6   7
ENDBRANCH   5   6
ENDBRANCH   1   5
BRANCH   1  10
HETATM   10  C11 UNL     1     -40.480  14.355   7.829  1.00 20.00    -0.012 C 
HETATM   11  C6  UNL     1     -40.339  15.862   7.599  1.00 20.00     0.010 C 
HETATM   12  C7  UNL     1     -41.488  14.095   8.952  1.00 20.00     0.010 C 
ENDBRANCH   1  10
TORSDOF 5
ENDMDL
MODEL 8
REMARK VINA RESULT:      -3.7      1.337      1.518
REMARK  5 active torsions:
REMARK  status: ('A' for Active; 'I' for Inactive)
REMARK    1  A    between atoms: C1_1  and  C10_10 
REMARK    2  A    between atoms: C4_4  and  C8_8 
REMARK    3  A    between atoms: C8_8  and  C9_9 
REMARK    4  A    between atoms: C9_9  and  C10_10 
REMARK    5  A    between atoms: C10_10  and  C11_11 
ROOT
HETATM    1  C10 UNL     1     -35.047  16.313  -4.784  1.00 20.00     0.058 C 
ENDROOT
BRANCH   1   2
HETATM    2  C1  UNL     1     -35.207  15.331  -5.949  1.00 20.00     0.127 C 
HETATM    3  C5  UNL     1     -34.067  15.253  -6.933  1.00 20.00     0.091 C 
HETATM    4  O12 UNL     1     -36.219  14.648  -6.103  1.00 20.00    -0.298 OA
ENDBRANCH   1   2
BRANCH   1   5
HETATM    5  C9  UNL     1     -33.590  16.343  -4.282  1.00 20.00     0.013 C 
BRANCH   5   6
HETATM    6  C8  UNL     1     -33.499  16.257  -2.753  1.00 20.00     0.005 C 
BRANCH   6   7
HETATM    7  C4  UNL     1     -33.546  17.614  -2.119  1.00 20.00    -0.014 A 
HETATM    8  C2  UNL     1     -33.794  17.752  -0.642  1.00 20.00     0.005 A 
HETATM    9  C3  UNL     1     -32.437  18.062  -1.208  1.00 20.00     0.005 A 
ENDBRANCH   6   7
ENDBRANCH   5   6
ENDBRANCH   1   5
BRANCH   1  10
HETATM   10  C11 UNL     1     -35.605  17.699  -5.199  1.00 20.00    -0.012 C 
HETATM   11  C6  UNL     1     -36.554  18.315  -4.168  1.00 20.00     0.010 C 
HETATM   12  C7  UNL     1     -34.474  18.684  -5.514  1.00 20.00     0.010 C 
ENDBRANCH   1  10
TORSDOF 5
ENDMDL
MODEL 9
REMARK VINA RESULT:      -3.7     11.882     13.598
REMARK  5 active torsions:
REMARK  status: ('A' for Active; 'I' for Inactive)
REMARK    1  A    between atoms: C1_1  and  C10_10 
REMARK    2  A    between atoms: C4_4  and  C8_8 
REMARK    3  A    between atoms: C8_8  and  C9_9 
REMARK    4  A    between atoms: C9_9  and  C10_10 
REMARK    5  A    between atoms: C10_10  and  C11_11 
ROOT
HETATM    1  C10 UNL     1     -41.287  14.795   7.194  1.00 20.00     0.058 C 
ENDROOT
BRANCH   1   2
HETATM    2  C1  UNL     1     -41.180  14.353   8.657  1.00 20.00     0.127 C 
HETATM    3  C5  UNL     1     -42.406  14.544   9.515  1.00 20.00     0.091 C 
HETATM    4  O12 UNL     1     -40.147  13.884   9.132  1.00 20.00    -0.298 OA
ENDBRANCH   1   2
BRANCH   1   5
HETATM    5  C9  UNL     1     -42.129  13.799   6.374  1.00 20.00     0.013 C 
BRANCH   5   6
HETATM    6  C8  UNL     1     -41.384  12.485   6.112  1.00 20.00     0.005 C 
BRANCH   6   7
HETATM    7  C4  UNL     1     -40.060  12.723   5.451  1.00 20.00    -0.014 A 
HETATM    8  C2  UNL     1     -38.827  12.022   5.950  1.00 20.00     0.005 A 
HETATM    9  C3  UNL     1     -39.422  11.641   4.623  1.00 20.00     0.005 A 
ENDBRANCH   6   7
ENDBRANCH   5   6
ENDBRANCH   1   5
BRANCH   1  10
HETATM   10  C11 UNL     1     -41.798  16.259   7.136  1.00 20.00    -0.012 C 
HETATM   11  C6  UNL     1     -40.715  17.302   7.424  1.00 20.00     0.010 C 
HETATM   12  C7  UNL     1     -42.464  16.563   5.790  1.00 20.00     0.010 C 
ENDBRANCH   1  10
TORSDOF 5
ENDMDL
