MODEL 1
REMARK VINA RESULT:      -4.5      0.000      0.000
REMARK  2 active torsions:
REMARK  status: ('A' for Active; 'I' for Inactive)
REMARK    1  A    between atoms: C1_1  and  C9_9 
REMARK    2  A    between atoms: C6_6  and  C9_9 
ROOT
HETATM    1  C2  UNL     1     -33.580  19.142  -2.870  1.00 20.00     0.031 C 
HETATM    2  C3  UNL     1     -33.424  16.805  -1.972  1.00 20.00     0.031 C 
HETATM    3  C4  UNL     1     -33.630  18.528  -4.263  1.00 20.00     0.168 C 
HETATM    4  C5  UNL     1     -33.484  16.321  -3.417  1.00 20.00     0.168 C 
HETATM    5  C6  UNL     1     -32.836  18.219  -1.899  1.00 20.00     0.000 C 
HETATM    6  O11 UNL     1     -34.227  17.233  -4.225  1.00 20.00    -0.391 OA
ENDROOT
BRANCH   5   7
HETATM    7  C9  UNL     1     -32.887  18.762  -0.473  1.00 20.00     0.055 C 
HETATM    8  C8  UNL     1     -33.970  18.055   0.337  1.00 20.00     0.018 C 
BRANCH   7   9
HETATM    9  C1  UNL     1     -31.521  18.611   0.188  1.00 20.00     0.127 C 
HETATM   10  C7  UNL     1     -31.504  18.426   1.685  1.00 20.00     0.091 C 
HETATM   11  O10 UNL     1     -30.470  18.663  -0.451  1.00 20.00    -0.298 OA
ENDBRANCH   7   9
ENDBRANCH   5   7
TORSDOF 2
ENDMDL
MODEL 2
REMARK VINA RESULT:      -4.1     12.044     13.007
REMARK  2 active torsions:
REMARK  status: ('A' for Active; 'I' for Inactive)
REMARK    1  A    between atoms: C1_1  and  C9_9 
REMARK    2  A    between atoms: C6_6  and  C9_9 
ROOT
HETATM    1  C2  UNL     1     -34.014   5.984   3.744  1.00 20.00     0.031 C 
HETATM    2  C3  UNL     1     -34.062   6.984   6.044  1.00 20.00     0.031 C 
HETATM    3  C4  UNL     1     -34.303   4.639   4.400  1.00 20.00     0.168 C 
HETATM    4  C5  UNL     1     -34.348   5.583   6.572  1.00 20.00     0.168 C 
HETATM    5  C6  UNL     1     -33.291   6.918   4.721  1.00 20.00     0.000 C 
HETATM    6  O11 UNL     1     -35.055   4.812   5.600  1.00 20.00    -0.391 OA
ENDROOT
BRANCH   5   7
HETATM    7  C9  UNL     1     -33.108   8.309   4.121  1.00 20.00     0.055 C 
HETATM    8  C8  UNL     1     -32.223   9.173   5.014  1.00 20.00     0.018 C 
BRANCH   7   9
HETATM    9  C1  UNL     1     -32.525   8.195   2.716  1.00 20.00     0.127 C 
HETATM   10  C7  UNL     1     -32.844   9.311   1.753  1.00 20.00     0.091 C 
HETATM   11  O10 UNL     1     -31.847   7.232   2.360  1.00 20.00    -0.298 OA
ENDBRANCH   7   9
ENDBRANCH   5   7
TORSDOF 2
ENDMDL
MODEL 3
REMARK VINA RESULT:      -4.1     11.893     12.928
REMARK  2 active torsions:
REMARK  status: ('A' for Active; 'I' for Inactive)
REMARK    1  A    between atoms: C1_1  and  C9_9 
REMARK    2  A    between atoms: C6_6  and  C9_9 
ROOT
HETATM    1  C2  UNL     1     -33.346   7.190   5.884  1.00 20.00     0.031 C 
HETATM    2  C3  UNL     1     -34.014   5.572   4.087  1.00 20.00     0.031 C 
HETATM    3  C4  UNL     1     -34.516   6.657   6.701  1.00 20.00     0.168 C 
HETATM    4  C5  UNL     1     -35.148   5.129   5.005  1.00 20.00     0.168 C 
HETATM    5  C6  UNL     1     -33.612   7.022   4.384  1.00 20.00     0.000 C 
HETATM    6  O11 UNL     1     -34.782   5.293   6.375  1.00 20.00    -0.391 OA
ENDROOT
BRANCH   5   7
HETATM    7  C9  UNL     1     -32.397   7.435   3.559  1.00 20.00     0.055 C 
HETATM    8  C8  UNL     1     -32.295   6.598   2.287  1.00 20.00     0.018 C 
BRANCH   7   9
HETATM    9  C1  UNL     1     -32.474   8.923   3.232  1.00 20.00     0.127 C 
HETATM   10  C7  UNL     1     -32.804   9.292   1.807  1.00 20.00     0.091 C 
HETATM   11  O10 UNL     1     -32.256   9.795   4.072  1.00 20.00    -0.298 OA
ENDBRANCH   7   9
ENDBRANCH   5   7
TORSDOF 2
ENDMDL
MODEL 4
REMARK VINA RESULT:      -3.9      1.852      3.107
REMARK  2 active torsions:
REMARK  status: ('A' for Active; 'I' for Inactive)
REMARK    1  A    between atoms: C1_1  and  C9_9 
REMARK    2  A    between atoms: C6_6  and  C9_9 
ROOT
HETATM    1  C2  UNL     1     -33.115  15.521  -3.779  1.00 20.00     0.031 C 
HETATM    2  C3  UNL     1     -34.585  17.329  -4.706  1.00 20.00     0.031 C 
HETATM    3  C4  UNL     1     -34.058  14.517  -4.430  1.00 20.00     0.168 C 
HETATM    4  C5  UNL     1     -35.447  16.224  -5.306  1.00 20.00     0.168 C 
HETATM    5  C6  UNL     1     -33.851  16.826  -3.458  1.00 20.00     0.000 C 
HETATM    6  O11 UNL     1     -34.658  15.072  -5.600  1.00 20.00    -0.391 OA
ENDROOT
BRANCH   5   7
HETATM    7  C9  UNL     1     -32.891  17.884  -2.922  1.00 20.00     0.055 C 
HETATM    8  C8  UNL     1     -33.241  19.263  -3.472  1.00 20.00     0.018 C 
BRANCH   7   9
HETATM    9  C1  UNL     1     -32.914  17.879  -1.396  1.00 20.00     0.127 C 
HETATM   10  C7  UNL     1     -31.714  18.463  -0.694  1.00 20.00     0.091 C 
HETATM   11  O10 UNL     1     -33.848  17.401  -0.753  1.00 20.00    -0.298 OA
ENDBRANCH   7   9
ENDBRANCH   5   7
TORSDOF 2
ENDMDL
MODEL 5
REMARK VINA RESULT:      -3.8     11.475     13.234
REMARK  2 active torsions:
REMARK  status: ('A' for Active; 'I' for Inactive)
REMARK    1  A    between atoms: C1_1  and  C9_9 
REMARK    2  A    between atoms: C6_6  and  C9_9 
ROOT
HETATM    1  C2  UNL     1     -42.404  13.692   8.174  1.00 20.00     0.031 C 
HETATM    2  C3  UNL     1     -40.509  15.060   7.261  1.00 20.00     0.031 C 
HETATM    3  C4  UNL     1     -42.372  14.595   9.400  1.00 20.00     0.168 C 
HETATM    4  C5  UNL     1     -40.583  15.888   8.540  1.00 20.00     0.168 C 
HETATM    5  C6  UNL     1     -41.025  13.637   7.506  1.00 20.00     0.000 C 
HETATM    6  O11 UNL     1     -41.914  15.902   9.055  1.00 20.00    -0.391 OA
ENDROOT
BRANCH   5   7
HETATM    7  C9  UNL     1     -41.073  12.839   6.207  1.00 20.00     0.055 C 
HETATM    8  C8  UNL     1     -41.437  13.739   5.030  1.00 20.00     0.018 C 
BRANCH   7   9
HETATM    9  C1  UNL     1     -39.733  12.147   5.974  1.00 20.00     0.127 C 
HETATM   10  C7  UNL     1     -39.372  11.822   4.546  1.00 20.00     0.091 C 
HETATM   11  O10 UNL     1     -38.981  11.839   6.899  1.00 20.00    -0.298 OA
ENDBRANCH   7   9
ENDBRANCH   5   7
TORSDOF 2
ENDMDL
MODEL 6
REMARK VINA RESULT:      -3.7     11.513     12.954
REMARK  2 active torsions:
REMARK  status: ('A' for Active; 'I' for Inactive)
REMARK    1  A    between atoms: C1_1  and  C9_9 
REMARK    2  A    between atoms: C6_6  and  C9_9 
ROOT
HETATM    1  C2  UNL     1     -40.593  14.208   8.872  1.00 20.00     0.031 C 
HETATM    2  C3  UNL     1     -41.163  15.762   6.988  1.00 20.00     0.031 C 
HETATM    3  C4  UNL     1     -40.198  15.440   9.676  1.00 20.00     0.168 C 
HETATM    4  C5  UNL     1     -40.736  16.909   7.897  1.00 20.00     0.168 C 
HETATM    5  C6  UNL     1     -40.436  14.468   7.370  1.00 20.00     0.000 C 
HETATM    6  O11 UNL     1     -40.958  16.576   9.267  1.00 20.00    -0.391 OA
ENDROOT
BRANCH   5   7
HETATM    7  C9  UNL     1     -40.948  13.287   6.549  1.00 20.00     0.055 C 
HETATM    8  C8  UNL     1     -41.699  13.772   5.313  1.00 20.00     0.018 C 
BRANCH   7   9
HETATM    9  C1  UNL     1     -39.783  12.381   6.164  1.00 20.00     0.127 C 
HETATM   10  C7  UNL     1     -39.629  12.053   4.700  1.00 20.00     0.091 C 
HETATM   11  O10 UNL     1     -39.011  11.909   6.998  1.00 20.00    -0.298 OA
ENDBRANCH   7   9
ENDBRANCH   5   7
TORSDOF 2
ENDMDL
MODEL 7
REMARK VINA RESULT:      -3.7      2.811      6.032
REMARK  2 active torsions:
REMARK  status: ('A' for Active; 'I' for Inactive)
REMARK    1  A    between atoms: C1_1  and  C9_9 
REMARK    2  A    between atoms: C6_6  and  C9_9 
ROOT
HETATM    1  C2  UNL     1     -33.462  16.049  -3.358  1.00 20.00     0.031 C 
HETATM    2  C3  UNL     1     -35.392  16.998  -4.649  1.00 20.00     0.031 C 
HETATM    3  C4  UNL     1     -33.341  17.407  -2.677  1.00 20.00     0.168 C 
HETATM    4  C5  UNL     1     -35.163  18.304  -3.896  1.00 20.00     0.168 C 
HETATM    5  C6  UNL     1     -34.090  16.195  -4.748  1.00 20.00     0.000 C 
HETATM    6  O11 UNL     1     -34.612  18.051  -2.604  1.00 20.00    -0.391 OA
ENDROOT
BRANCH   5   7
HETATM    7  C9  UNL     1     -34.333  14.832  -5.390  1.00 20.00     0.055 C 
HETATM    8  C8  UNL     1     -35.285  13.995  -4.541  1.00 20.00     0.018 C 
BRANCH   7   9
HETATM    9  C1  UNL     1     -34.875  15.014  -6.804  1.00 20.00     0.127 C 
HETATM   10  C7  UNL     1     -34.011  15.784  -7.771  1.00 20.00     0.091 C 
HETATM   11  O10 UNL     1     -35.975  14.582  -7.150  1.00 20.00    -0.298 OA
ENDBRANCH   7   9
ENDBRANCH   5   7
TORSDOF 2
ENDMDL
MODEL 8
REMARK VINA RESULT:      -3.6      2.270      5.325
REMARK  2 active torsions:
REMARK  status: ('A' for Active; 'I' for Inactive)
REMARK    1  A    between atoms: C1_1  and  C9_9 
REMARK    2  A    between atoms: C6_6  and  C9_9 
ROOT
HETATM    1  C2  UNL     1     -33.583  18.167  -4.498  1.00 20.00     0.031 C 
HETATM    2  C3  UNL     1     -33.468  16.371  -2.751  1.00 20.00     0.031 C 
HETATM    3  C4  UNL     1     -33.394  19.176  -3.373  1.00 20.00     0.168 C 
HETATM    4  C5  UNL     1     -33.286  17.481  -1.722  1.00 20.00     0.168 C 
HETATM    5  C6  UNL     1     -34.239  16.886  -3.972  1.00 20.00     0.000 C 
HETATM    6  O11 UNL     1     -32.635  18.609  -2.306  1.00 20.00    -0.391 OA
ENDROOT
BRANCH   5   7
HETATM    7  C9  UNL     1     -34.318  15.820  -5.061  1.00 20.00     0.055 C 
HETATM    8  C8  UNL     1     -33.665  14.522  -4.597  1.00 20.00     0.018 C 
BRANCH   7   9
HETATM    9  C1  UNL     1     -35.774  15.591  -5.456  1.00 20.00     0.127 C 
HETATM   10  C7  UNL     1     -36.709  16.767  -5.327  1.00 20.00     0.091 C 
HETATM   11  O10 UNL     1     -36.189  14.497  -5.840  1.00 20.00    -0.298 OA
ENDBRANCH   7   9
ENDBRANCH   5   7
TORSDOF 2
ENDMDL
MODEL 9
REMARK VINA RESULT:      -3.6      2.966      4.673
REMARK  2 active torsions:
REMARK  status: ('A' for Active; 'I' for Inactive)
REMARK    1  A    between atoms: C1_1  and  C9_9 
REMARK    2  A    between atoms: C6_6  and  C9_9 
ROOT
HETATM    1  C2  UNL     1     -36.229  16.404  -5.301  1.00 20.00     0.031 C 
HETATM    2  C3  UNL     1     -34.389  15.196  -6.505  1.00 20.00     0.031 C 
HETATM    3  C4  UNL     1     -36.871  16.638  -6.663  1.00 20.00     0.168 C 
HETATM    4  C5  UNL     1     -35.134  15.498  -7.801  1.00 20.00     0.168 C 
HETATM    5  C6  UNL     1     -34.711  16.249  -5.438  1.00 20.00     0.000 C 
HETATM    6  O11 UNL     1     -36.539  15.584  -7.567  1.00 20.00    -0.391 OA
ENDROOT
BRANCH   5   7
HETATM    7  C9  UNL     1     -34.070  15.889  -4.101  1.00 20.00     0.055 C 
HETATM    8  C8  UNL     1     -32.964  14.856  -4.290  1.00 20.00     0.018 C 
BRANCH   7   9
HETATM    9  C1  UNL     1     -33.535  17.149  -3.427  1.00 20.00     0.127 C 
HETATM   10  C7  UNL     1     -33.341  17.093  -1.932  1.00 20.00     0.091 C 
HETATM   11  O10 UNL     1     -33.292  18.180  -4.054  1.00 20.00    -0.298 OA
ENDBRANCH   7   9
ENDBRANCH   5   7
TORSDOF 2
ENDMDL
