MODEL 1
REMARK VINA RESULT:      -4.1      0.000      0.000
REMARK  2 active torsions:
REMARK  status: ('A' for Active; 'I' for Inactive)
REMARK    1  A    between atoms: C5_5  and  C11_11 
REMARK    2  A    between atoms: C6_6  and  C10_10 
ROOT
HETATM    1  C1  UNL     1     -34.448  15.269  -5.772  1.00 20.00     0.131 C 
HETATM    2  C2  UNL     1     -33.706  14.493  -4.707  1.00 20.00     0.079 C 
HETATM    3  C3  UNL     1     -32.938  15.438  -3.794  1.00 20.00     0.012 C 
HETATM    4  C4  UNL     1     -34.521  17.319  -4.348  1.00 20.00     0.017 C 
HETATM    5  C5  UNL     1     -35.332  16.407  -5.274  1.00 20.00     0.059 C 
HETATM    6  C6  UNL     1     -33.848  16.530  -3.214  1.00 20.00    -0.014 C 
HETATM    7  O12 UNL     1     -34.400  14.928  -6.953  1.00 20.00    -0.298 OA
ENDROOT
BRANCH   5   8
HETATM    8  C11 UNL     1     -35.931  17.205  -6.429  1.00 20.00    -0.011 C 
HETATM    9  C8  UNL     1     -37.386  17.563  -6.137  1.00 20.00     0.010 C 
HETATM   10  C9  UNL     1     -35.110  18.465  -6.694  1.00 20.00     0.010 C 
ENDBRANCH   5   8
BRANCH   6  11
HETATM   11  C10 UNL     1     -33.050  17.467  -2.307  1.00 20.00     0.000 C 
HETATM   12  C7  UNL     1     -33.700  17.626  -0.972  1.00 20.00     0.005 C 
ENDBRANCH   6  11
TORSDOF 2
ENDMDL
MODEL 2
REMARK VINA RESULT:      -4.0      1.803      3.213
REMARK  2 active torsions:
REMARK  status: ('A' for Active; 'I' for Inactive)
REMARK    1  A    between atoms: C5_5  and  C11_11 
REMARK    2  A    between atoms: C6_6  and  C10_10 
ROOT
HETATM    1  C1  UNL     1     -35.363  17.764  -4.445  1.00 20.00     0.131 C 
HETATM    2  C2  UNL     1     -35.109  19.121  -3.827  1.00 20.00     0.079 C 
HETATM    3  C3  UNL     1     -34.463  18.972  -2.457  1.00 20.00     0.012 C 
HETATM    4  C4  UNL     1     -33.545  16.714  -3.093  1.00 20.00     0.017 C 
HETATM    5  C5  UNL     1     -34.168  16.817  -4.489  1.00 20.00     0.059 C 
HETATM    6  C6  UNL     1     -33.204  18.097  -2.515  1.00 20.00    -0.014 C 
HETATM    7  O12 UNL     1     -36.447  17.494  -4.958  1.00 20.00    -0.298 OA
ENDROOT
BRANCH   5   8
HETATM    8  C11 UNL     1     -34.560  15.437  -5.008  1.00 20.00    -0.011 C 
HETATM    9  C8  UNL     1     -34.088  15.250  -6.448  1.00 20.00     0.010 C 
HETATM   10  C9  UNL     1     -33.990  14.341  -4.109  1.00 20.00     0.010 C 
ENDBRANCH   5   8
BRANCH   6  11
HETATM   11  C10 UNL     1     -32.581  17.960  -1.126  1.00 20.00     0.000 C 
HETATM   12  C7  UNL     1     -33.614  18.027  -0.050  1.00 20.00     0.005 C 
ENDBRANCH   6  11
TORSDOF 2
ENDMDL
MODEL 3
REMARK VINA RESULT:      -4.0     11.947     14.066
REMARK  2 active torsions:
REMARK  status: ('A' for Active; 'I' for Inactive)
REMARK    1  A    between atoms: C5_5  and  C11_11 
REMARK    2  A    between atoms: C6_6  and  C10_10 
ROOT
HETATM    1  C1  UNL     1     -42.103  15.290   6.274  1.00 20.00     0.131 C 
HETATM    2  C2  UNL     1     -42.353  14.366   5.102  1.00 20.00     0.079 C 
HETATM    3  C3  UNL     1     -41.168  13.435   4.892  1.00 20.00     0.012 C 
HETATM    4  C4  UNL     1     -40.500  13.679   7.310  1.00 20.00     0.017 C 
HETATM    5  C5  UNL     1     -41.683  14.616   7.576  1.00 20.00     0.059 C 
HETATM    6  C6  UNL     1     -40.803  12.683   6.179  1.00 20.00    -0.014 C 
HETATM    7  O12 UNL     1     -42.320  16.497   6.186  1.00 20.00    -0.298 OA
ENDROOT
BRANCH   5   8
HETATM    8  C11 UNL     1     -41.330  15.638   8.652  1.00 20.00    -0.011 C 
HETATM    9  C8  UNL     1     -42.502  15.834   9.612  1.00 20.00     0.010 C 
HETATM   10  C9  UNL     1     -40.078  15.207   9.414  1.00 20.00     0.010 C 
ENDBRANCH   5   8
BRANCH   6  11
HETATM   11  C10 UNL     1     -39.607  11.761   5.941  1.00 20.00     0.000 C 
HETATM   12  C7  UNL     1     -39.204  11.741   4.503  1.00 20.00     0.005 C 
ENDBRANCH   6  11
TORSDOF 2
ENDMDL
MODEL 4
REMARK VINA RESULT:      -3.9     11.942     13.718
REMARK  2 active torsions:
REMARK  status: ('A' for Active; 'I' for Inactive)
REMARK    1  A    between atoms: C5_5  and  C11_11 
REMARK    2  A    between atoms: C6_6  and  C10_10 
ROOT
HETATM    1  C1  UNL     1     -33.435   7.380   5.604  1.00 20.00     0.131 C 
HETATM    2  C2  UNL     1     -32.798   8.714   5.282  1.00 20.00     0.079 C 
HETATM    3  C3  UNL     1     -31.988   8.623   3.996  1.00 20.00     0.012 C 
HETATM    4  C4  UNL     1     -33.390   6.683   3.207  1.00 20.00     0.017 C 
HETATM    5  C5  UNL     1     -34.240   6.737   4.481  1.00 20.00     0.059 C 
HETATM    6  C6  UNL     1     -32.825   8.064   2.838  1.00 20.00    -0.014 C 
HETATM    7  O12 UNL     1     -33.373   6.906   6.737  1.00 20.00    -0.298 OA
ENDROOT
BRANCH   5   8
HETATM    8  C11 UNL     1     -34.729   5.343   4.863  1.00 20.00    -0.011 C 
HETATM    9  C8  UNL     1     -33.815   4.272   4.272  1.00 20.00     0.010 C 
HETATM   10  C9  UNL     1     -34.812   5.199   6.381  1.00 20.00     0.010 C 
ENDBRANCH   5   8
BRANCH   6  11
HETATM   11  C10 UNL     1     -31.986   7.978   1.563  1.00 20.00     0.000 C 
HETATM   12  C7  UNL     1     -32.484   8.915   0.512  1.00 20.00     0.005 C 
ENDBRANCH   6  11
TORSDOF 2
ENDMDL
MODEL 5
REMARK VINA RESULT:      -3.8     12.092     13.925
REMARK  2 active torsions:
REMARK  status: ('A' for Active; 'I' for Inactive)
REMARK    1  A    between atoms: C5_5  and  C11_11 
REMARK    2  A    between atoms: C6_6  and  C10_10 
ROOT
HETATM    1  C1  UNL     1     -42.346  12.821   6.815  1.00 20.00     0.131 C 
HETATM    2  C2  UNL     1     -43.288  13.952   7.166  1.00 20.00     0.079 C 
HETATM    3  C3  UNL     1     -42.543  15.060   7.898  1.00 20.00     0.012 C 
HETATM    4  C4  UNL     1     -40.369  14.346   6.844  1.00 20.00     0.017 C 
HETATM    5  C5  UNL     1     -41.071  13.219   6.079  1.00 20.00     0.059 C 
HETATM    6  C6  UNL     1     -41.311  15.530   7.113  1.00 20.00    -0.014 C 
HETATM    7  O12 UNL     1     -42.652  11.651   7.035  1.00 20.00    -0.298 OA
ENDROOT
BRANCH   5   8
HETATM    8  C11 UNL     1     -40.134  12.030   5.889  1.00 20.00    -0.011 C 
HETATM    9  C8  UNL     1     -39.628  11.970   4.450  1.00 20.00     0.010 C 
HETATM   10  C9  UNL     1     -38.964  12.105   6.867  1.00 20.00     0.010 C 
ENDBRANCH   5   8
BRANCH   6  11
HETATM   11  C10 UNL     1     -40.580  16.637   7.872  1.00 20.00     0.000 C 
HETATM   12  C7  UNL     1     -40.674  17.947   7.162  1.00 20.00     0.005 C 
ENDBRANCH   6  11
TORSDOF 2
ENDMDL
MODEL 6
REMARK VINA RESULT:      -3.7      2.317      3.556
REMARK  2 active torsions:
REMARK  status: ('A' for Active; 'I' for Inactive)
REMARK    1  A    between atoms: C5_5  and  C11_11 
REMARK    2  A    between atoms: C6_6  and  C10_10 
ROOT
HETATM    1  C1  UNL     1     -35.188  18.630  -2.517  1.00 20.00     0.131 C 
HETATM    2  C2  UNL     1     -33.966  18.214  -1.728  1.00 20.00     0.079 C 
HETATM    3  C3  UNL     1     -33.540  16.803  -2.107  1.00 20.00     0.012 C 
HETATM    4  C4  UNL     1     -34.650  17.031  -4.357  1.00 20.00     0.017 C 
HETATM    5  C5  UNL     1     -35.096  18.460  -4.029  1.00 20.00     0.059 C 
HETATM    6  C6  UNL     1     -33.353  16.654  -3.623  1.00 20.00    -0.014 C 
HETATM    7  O12 UNL     1     -36.150  19.157  -1.961  1.00 20.00    -0.298 OA
ENDROOT
BRANCH   5   8
HETATM    8  C11 UNL     1     -36.420  18.783  -4.715  1.00 20.00    -0.011 C 
HETATM    9  C8  UNL     1     -36.182  19.259  -6.146  1.00 20.00     0.010 C 
HETATM   10  C9  UNL     1     -37.344  17.566  -4.701  1.00 20.00     0.010 C 
ENDBRANCH   5   8
BRANCH   6  11
HETATM   11  C10 UNL     1     -32.933  15.227  -3.974  1.00 20.00     0.000 C 
HETATM   12  C7  UNL     1     -34.113  14.358  -4.258  1.00 20.00     0.005 C 
ENDBRANCH   6  11
TORSDOF 2
ENDMDL
MODEL 7
REMARK VINA RESULT:      -3.6     25.131     26.633
REMARK  2 active torsions:
REMARK  status: ('A' for Active; 'I' for Inactive)
REMARK    1  A    between atoms: C5_5  and  C11_11 
REMARK    2  A    between atoms: C6_6  and  C10_10 
ROOT
HETATM    1  C1  UNL     1     -24.932  -1.480  11.858  1.00 20.00     0.131 C 
HETATM    2  C2  UNL     1     -26.278  -0.978  12.332  1.00 20.00     0.079 C 
HETATM    3  C3  UNL     1     -27.337  -1.194  11.260  1.00 20.00     0.012 C 
HETATM    4  C4  UNL     1     -25.994  -3.078  10.261  1.00 20.00     0.017 C 
HETATM    5  C5  UNL     1     -24.903  -2.907  11.322  1.00 20.00     0.059 C 
HETATM    6  C6  UNL     1     -27.375  -2.654  10.786  1.00 20.00    -0.014 C 
HETATM    7  O12 UNL     1     -23.919  -0.796  11.991  1.00 20.00    -0.298 OA
ENDROOT
BRANCH   5   8
HETATM    8  C11 UNL     1     -23.534  -3.269  10.752  1.00 20.00    -0.011 C 
HETATM    9  C8  UNL     1     -22.959  -4.489  11.466  1.00 20.00     0.010 C 
HETATM   10  C9  UNL     1     -23.627  -3.521   9.248  1.00 20.00     0.010 C 
ENDBRANCH   5   8
BRANCH   6  11
HETATM   11  C10 UNL     1     -28.441  -2.840   9.707  1.00 20.00     0.000 C 
HETATM   12  C7  UNL     1     -29.259  -4.067   9.946  1.00 20.00     0.005 C 
ENDBRANCH   6  11
TORSDOF 2
ENDMDL
MODEL 8
REMARK VINA RESULT:      -3.6     13.081     14.578
REMARK  2 active torsions:
REMARK  status: ('A' for Active; 'I' for Inactive)
REMARK    1  A    between atoms: C5_5  and  C11_11 
REMARK    2  A    between atoms: C6_6  and  C10_10 
ROOT
HETATM    1  C1  UNL     1     -41.476  15.703   6.612  1.00 20.00     0.131 C 
HETATM    2  C2  UNL     1     -41.021  16.919   7.388  1.00 20.00     0.079 C 
HETATM    3  C3  UNL     1     -41.000  16.623   8.881  1.00 20.00     0.012 C 
HETATM    4  C4  UNL     1     -40.731  14.159   8.428  1.00 20.00     0.017 C 
HETATM    5  C5  UNL     1     -40.739  14.403   6.915  1.00 20.00     0.059 C 
HETATM    6  C6  UNL     1     -40.177  15.367   9.199  1.00 20.00    -0.014 C 
HETATM    7  O12 UNL     1     -42.328  15.798   5.730  1.00 20.00    -0.298 OA
ENDROOT
BRANCH   5   8
HETATM    8  C11 UNL     1     -41.358  13.218   6.180  1.00 20.00    -0.011 C 
HETATM    9  C8  UNL     1     -40.289  12.187   5.825  1.00 20.00     0.010 C 
HETATM   10  C9  UNL     1     -42.461  12.579   7.023  1.00 20.00     0.010 C 
ENDBRANCH   5   8
BRANCH   6  11
HETATM   11  C10 UNL     1     -40.179  15.091  10.703  1.00 20.00     0.000 C 
HETATM   12  C7  UNL     1     -41.168  14.034  11.068  1.00 20.00     0.005 C 
ENDBRANCH   6  11
TORSDOF 2
ENDMDL
MODEL 9
REMARK VINA RESULT:      -3.4      1.383      4.212
REMARK  2 active torsions:
REMARK  status: ('A' for Active; 'I' for Inactive)
REMARK    1  A    between atoms: C5_5  and  C11_11 
REMARK    2  A    between atoms: C6_6  and  C10_10 
ROOT
HETATM    1  C1  UNL     1     -34.393  15.894  -6.922  1.00 20.00     0.131 C 
HETATM    2  C2  UNL     1     -35.227  16.671  -7.918  1.00 20.00     0.079 C 
HETATM    3  C3  UNL     1     -36.671  16.769  -7.445  1.00 20.00     0.012 C 
HETATM    4  C4  UNL     1     -35.946  16.460  -5.051  1.00 20.00     0.017 C 
HETATM    5  C5  UNL     1     -34.477  16.362  -5.474  1.00 20.00     0.059 C 
HETATM    6  C6  UNL     1     -36.763  17.331  -6.019  1.00 20.00    -0.014 C 
HETATM    7  O12 UNL     1     -33.632  15.003  -7.294  1.00 20.00    -0.298 OA
ENDROOT
BRANCH   5   8
HETATM    8  C11 UNL     1     -33.707  15.437  -4.536  1.00 20.00    -0.011 C 
HETATM    9  C8  UNL     1     -33.273  16.186  -3.278  1.00 20.00     0.010 C 
HETATM   10  C9  UNL     1     -34.550  14.217  -4.171  1.00 20.00     0.010 C 
ENDBRANCH   5   8
BRANCH   6  11
HETATM   11  C10 UNL     1     -38.222  17.413  -5.568  1.00 20.00     0.000 C 
HETATM   12  C7  UNL     1     -38.665  16.151  -4.904  1.00 20.00     0.005 C 
ENDBRANCH   6  11
TORSDOF 2
ENDMDL
