MODEL 1
REMARK VINA RESULT:      -3.9      0.000      0.000
REMARK  4 active torsions:
REMARK  status: ('A' for Active; 'I' for Inactive)
REMARK    1  A    between atoms: C1_1  and  C10_10 
REMARK    2  A    between atoms: C5_5  and  C9_9 
REMARK    3  A    between atoms: C9_9  and  C10_10 
REMARK    4  A    between atoms: C10_10  and  C11_11 
ROOT
HETATM    1  C10 UNL     1     -41.326  13.979   5.949  1.00 20.00     0.058 C 
ENDROOT
BRANCH   1   2
HETATM    2  C1  UNL     1     -42.212  14.500   4.811  1.00 20.00     0.127 C 
HETATM    3  C6  UNL     1     -43.375  15.377   5.203  1.00 20.00     0.091 C 
HETATM    4  O12 UNL     1     -41.988  14.242   3.628  1.00 20.00    -0.298 OA
ENDBRANCH   1   2
BRANCH   1   5
HETATM    5  C9  UNL     1     -41.512  12.463   6.146  1.00 20.00     0.017 C 
BRANCH   5   6
HETATM    6  C5  UNL     1     -40.225  11.719   5.858  1.00 20.00    -0.014 C 
HETATM    7  C3  UNL     1     -38.937  12.273   6.524  1.00 20.00     0.005 C 
HETATM    8  C2  UNL     1     -38.192  11.886   5.230  1.00 20.00     0.001 C 
HETATM    9  C4  UNL     1     -39.543  12.013   4.497  1.00 20.00     0.005 C 
ENDBRANCH   5   6
ENDBRANCH   1   5
BRANCH   1  10
HETATM   10  C11 UNL     1     -41.581  14.822   7.226  1.00 20.00    -0.012 C 
HETATM   11  C7  UNL     1     -40.368  15.644   7.671  1.00 20.00     0.010 C 
HETATM   12  C8  UNL     1     -42.064  13.944   8.386  1.00 20.00     0.010 C 
ENDBRANCH   1  10
TORSDOF 4
ENDMDL
MODEL 2
REMARK VINA RESULT:      -3.8      1.990      2.601
REMARK  4 active torsions:
REMARK  status: ('A' for Active; 'I' for Inactive)
REMARK    1  A    between atoms: C1_1  and  C10_10 
REMARK    2  A    between atoms: C5_5  and  C9_9 
REMARK    3  A    between atoms: C9_9  and  C10_10 
REMARK    4  A    between atoms: C10_10  and  C11_11 
ROOT
HETATM    1  C10 UNL     1     -41.529  13.853   7.022  1.00 20.00     0.058 C 
ENDROOT
BRANCH   1   2
HETATM    2  C1  UNL     1     -42.469  13.009   7.890  1.00 20.00     0.127 C 
HETATM    3  C6  UNL     1     -43.412  12.081   7.166  1.00 20.00     0.091 C 
HETATM    4  O12 UNL     1     -42.453  13.058   9.120  1.00 20.00    -0.298 OA
ENDBRANCH   1   2
BRANCH   1   5
HETATM    5  C9  UNL     1     -40.081  13.336   7.106  1.00 20.00     0.017 C 
BRANCH   5   6
HETATM    6  C5  UNL     1     -39.842  12.233   6.097  1.00 20.00    -0.014 C 
HETATM    7  C3  UNL     1     -38.387  12.060   5.586  1.00 20.00     0.005 C 
HETATM    8  C2  UNL     1     -38.991  11.722   4.207  1.00 20.00     0.001 C 
HETATM    9  C4  UNL     1     -40.229  12.540   4.627  1.00 20.00     0.005 C 
ENDBRANCH   5   6
ENDBRANCH   1   5
BRANCH   1  10
HETATM   10  C11 UNL     1     -41.691  15.351   7.395  1.00 20.00    -0.012 C 
HETATM   11  C7  UNL     1     -42.341  16.191   6.291  1.00 20.00     0.010 C 
HETATM   12  C8  UNL     1     -40.350  15.973   7.797  1.00 20.00     0.010 C 
ENDBRANCH   1  10
TORSDOF 4
ENDMDL
MODEL 3
REMARK VINA RESULT:      -3.8      1.876      4.321
REMARK  4 active torsions:
REMARK  status: ('A' for Active; 'I' for Inactive)
REMARK    1  A    between atoms: C1_1  and  C10_10 
REMARK    2  A    between atoms: C5_5  and  C9_9 
REMARK    3  A    between atoms: C9_9  and  C10_10 
REMARK    4  A    between atoms: C10_10  and  C11_11 
ROOT
HETATM    1  C10 UNL     1     -40.517  13.630   6.192  1.00 20.00     0.058 C 
ENDROOT
BRANCH   1   2
HETATM    2  C1  UNL     1     -39.628  12.389   6.058  1.00 20.00     0.127 C 
HETATM    3  C6  UNL     1     -39.465  11.815   4.673  1.00 20.00     0.091 C 
HETATM    4  O12 UNL     1     -39.051  11.882   7.022  1.00 20.00    -0.298 OA
ENDBRANCH   1   2
BRANCH   1   5
HETATM    5  C9  UNL     1     -40.684  14.037   7.667  1.00 20.00     0.017 C 
BRANCH   5   6
HETATM    6  C5  UNL     1     -40.358  15.501   7.865  1.00 20.00    -0.014 C 
HETATM    7  C3  UNL     1     -40.565  16.075   9.292  1.00 20.00     0.005 C 
HETATM    8  C2  UNL     1     -41.044  17.378   8.619  1.00 20.00     0.001 C 
HETATM    9  C4  UNL     1     -41.427  16.521   7.395  1.00 20.00     0.005 C 
ENDBRANCH   5   6
ENDBRANCH   1   5
BRANCH   1  10
HETATM   10  C11 UNL     1     -41.854  13.388   5.444  1.00 20.00    -0.012 C 
HETATM   11  C7  UNL     1     -42.179  14.464   4.403  1.00 20.00     0.010 C 
HETATM   12  C8  UNL     1     -43.023  13.247   6.425  1.00 20.00     0.010 C 
ENDBRANCH   1  10
TORSDOF 4
ENDMDL
MODEL 4
REMARK VINA RESULT:      -3.7     11.710     13.428
REMARK  4 active torsions:
REMARK  status: ('A' for Active; 'I' for Inactive)
REMARK    1  A    between atoms: C1_1  and  C10_10 
REMARK    2  A    between atoms: C5_5  and  C9_9 
REMARK    3  A    between atoms: C9_9  and  C10_10 
REMARK    4  A    between atoms: C10_10  and  C11_11 
ROOT
HETATM    1  C10 UNL     1     -34.130  15.972  -5.282  1.00 20.00     0.058 C 
ENDROOT
BRANCH   1   2
HETATM    2  C1  UNL     1     -34.707  14.644  -4.778  1.00 20.00     0.127 C 
HETATM    3  C6  UNL     1     -36.097  14.288  -5.242  1.00 20.00     0.091 C 
HETATM    4  O12 UNL     1     -34.073  13.883  -4.046  1.00 20.00    -0.298 OA
ENDBRANCH   1   2
BRANCH   1   5
HETATM    5  C9  UNL     1     -34.384  17.106  -4.272  1.00 20.00     0.017 C 
BRANCH   5   6
HETATM    6  C5  UNL     1     -33.237  17.223  -3.291  1.00 20.00    -0.014 C 
HETATM    7  C3  UNL     1     -33.555  16.900  -1.807  1.00 20.00     0.005 C 
HETATM    8  C2  UNL     1     -32.583  18.037  -1.429  1.00 20.00     0.001 C 
HETATM    9  C4  UNL     1     -32.877  18.653  -2.812  1.00 20.00     0.005 C 
ENDBRANCH   5   6
ENDBRANCH   1   5
BRANCH   1  10
HETATM   10  C11 UNL     1     -34.669  16.258  -6.708  1.00 20.00    -0.012 C 
HETATM   11  C7  UNL     1     -33.830  15.621  -7.820  1.00 20.00     0.010 C 
HETATM   12  C8  UNL     1     -34.804  17.764  -6.960  1.00 20.00     0.010 C 
ENDBRANCH   1  10
TORSDOF 4
ENDMDL
MODEL 5
REMARK VINA RESULT:      -3.7     11.905     13.325
REMARK  4 active torsions:
REMARK  status: ('A' for Active; 'I' for Inactive)
REMARK    1  A    between atoms: C1_1  and  C10_10 
REMARK    2  A    between atoms: C5_5  and  C9_9 
REMARK    3  A    between atoms: C9_9  and  C10_10 
REMARK    4  A    between atoms: C10_10  and  C11_11 
ROOT
HETATM    1  C10 UNL     1     -34.803  15.938  -5.663  1.00 20.00     0.058 C 
ENDROOT
BRANCH   1   2
HETATM    2  C1  UNL     1     -34.171  15.925  -7.059  1.00 20.00     0.127 C 
HETATM    3  C6  UNL     1     -34.261  17.201  -7.857  1.00 20.00     0.091 C 
HETATM    4  O12 UNL     1     -33.596  14.936  -7.515  1.00 20.00    -0.298 OA
ENDBRANCH   1   2
BRANCH   1   5
HETATM    5  C9  UNL     1     -33.774  15.555  -4.584  1.00 20.00     0.017 C 
BRANCH   5   6
HETATM    6  C5  UNL     1     -33.415  16.752  -3.731  1.00 20.00    -0.014 C 
HETATM    7  C3  UNL     1     -33.506  16.564  -2.193  1.00 20.00     0.005 C 
HETATM    8  C2  UNL     1     -34.018  18.018  -2.120  1.00 20.00     0.001 C 
HETATM    9  C4  UNL     1     -34.504  17.845  -3.574  1.00 20.00     0.005 C 
ENDBRANCH   5   6
ENDBRANCH   1   5
BRANCH   1  10
HETATM   10  C11 UNL     1     -36.077  15.053  -5.668  1.00 20.00    -0.012 C 
HETATM   11  C7  UNL     1     -37.361  15.823  -5.343  1.00 20.00     0.010 C 
HETATM   12  C8  UNL     1     -35.933  13.863  -4.712  1.00 20.00     0.010 C 
ENDBRANCH   1  10
TORSDOF 4
ENDMDL
MODEL 6
REMARK VINA RESULT:      -3.5     11.090     12.616
REMARK  4 active torsions:
REMARK  status: ('A' for Active; 'I' for Inactive)
REMARK    1  A    between atoms: C1_1  and  C10_10 
REMARK    2  A    between atoms: C5_5  and  C9_9 
REMARK    3  A    between atoms: C9_9  and  C10_10 
REMARK    4  A    between atoms: C10_10  and  C11_11 
ROOT
HETATM    1  C10 UNL     1     -34.178  17.066  -3.569  1.00 20.00     0.058 C 
ENDROOT
BRANCH   1   2
HETATM    2  C1  UNL     1     -34.213  18.472  -4.179  1.00 20.00     0.127 C 
HETATM    3  C6  UNL     1     -35.483  19.263  -3.990  1.00 20.00     0.091 C 
HETATM    4  O12 UNL     1     -33.254  18.955  -4.781  1.00 20.00    -0.298 OA
ENDBRANCH   1   2
BRANCH   1   5
HETATM    5  C9  UNL     1     -33.040  16.937  -2.540  1.00 20.00     0.017 C 
BRANCH   5   6
HETATM    6  C5  UNL     1     -33.075  18.081  -1.550  1.00 20.00    -0.014 C 
HETATM    7  C3  UNL     1     -31.784  18.326  -0.723  1.00 20.00     0.005 C 
HETATM    8  C2  UNL     1     -32.702  18.686   0.464  1.00 20.00     0.001 C 
HETATM    9  C4  UNL     1     -33.784  17.809  -0.198  1.00 20.00     0.005 C 
ENDBRANCH   5   6
ENDBRANCH   1   5
BRANCH   1  10
HETATM   10  C11 UNL     1     -34.127  16.013  -4.708  1.00 20.00    -0.012 C 
HETATM   11  C7  UNL     1     -35.477  15.788  -5.395  1.00 20.00     0.010 C 
HETATM   12  C8  UNL     1     -33.574  14.675  -4.205  1.00 20.00     0.010 C 
ENDBRANCH   1  10
TORSDOF 4
ENDMDL
MODEL 7
REMARK VINA RESULT:      -3.5      9.646     10.878
REMARK  4 active torsions:
REMARK  status: ('A' for Active; 'I' for Inactive)
REMARK    1  A    between atoms: C1_1  and  C10_10 
REMARK    2  A    between atoms: C5_5  and  C9_9 
REMARK    3  A    between atoms: C9_9  and  C10_10 
REMARK    4  A    between atoms: C10_10  and  C11_11 
ROOT
HETATM    1  C10 UNL     1     -32.760   6.983   4.259  1.00 20.00     0.058 C 
ENDROOT
BRANCH   1   2
HETATM    2  C1  UNL     1     -33.536   7.692   5.376  1.00 20.00     0.127 C 
HETATM    3  C6  UNL     1     -33.850   6.879   6.606  1.00 20.00     0.091 C 
HETATM    4  O12 UNL     1     -33.876   8.872   5.297  1.00 20.00    -0.298 OA
ENDBRANCH   1   2
BRANCH   1   5
HETATM    5  C9  UNL     1     -31.988   7.995   3.392  1.00 20.00     0.017 C 
BRANCH   5   6
HETATM    6  C5  UNL     1     -32.733   8.283   2.106  1.00 20.00    -0.014 C 
HETATM    7  C3  UNL     1     -31.915   8.183   0.791  1.00 20.00     0.005 C 
HETATM    8  C2  UNL     1     -32.737   9.384   0.277  1.00 20.00     0.001 C 
HETATM    9  C4  UNL     1     -32.955   9.776   1.752  1.00 20.00     0.005 C 
ENDBRANCH   5   6
ENDBRANCH   1   5
BRANCH   1  10
HETATM   10  C11 UNL     1     -33.727   6.070   3.461  1.00 20.00    -0.012 C 
HETATM   11  C7  UNL     1     -34.802   5.408   4.329  1.00 20.00     0.010 C 
HETATM   12  C8  UNL     1     -32.962   4.997   2.678  1.00 20.00     0.010 C 
ENDBRANCH   1  10
TORSDOF 4
ENDMDL
MODEL 8
REMARK VINA RESULT:      -3.5      1.334      1.414
REMARK  4 active torsions:
REMARK  status: ('A' for Active; 'I' for Inactive)
REMARK    1  A    between atoms: C1_1  and  C10_10 
REMARK    2  A    between atoms: C5_5  and  C9_9 
REMARK    3  A    between atoms: C9_9  and  C10_10 
REMARK    4  A    between atoms: C10_10  and  C11_11 
ROOT
HETATM    1  C10 UNL     1     -41.403  14.198   6.934  1.00 20.00     0.058 C 
ENDROOT
BRANCH   1   2
HETATM    2  C1  UNL     1     -42.026  15.282   6.046  1.00 20.00     0.127 C 
HETATM    3  C6  UNL     1     -42.783  14.811   4.830  1.00 20.00     0.091 C 
HETATM    4  O12 UNL     1     -41.940  16.481   6.309  1.00 20.00    -0.298 OA
ENDBRANCH   1   2
BRANCH   1   5
HETATM    5  C9  UNL     1     -41.824  12.792   6.471  1.00 20.00     0.017 C 
BRANCH   5   6
HETATM    6  C5  UNL     1     -40.621  11.985   6.030  1.00 20.00    -0.014 C 
HETATM    7  C3  UNL     1     -39.262  12.347   6.687  1.00 20.00     0.005 C 
HETATM    8  C2  UNL     1     -38.609  12.060   5.319  1.00 20.00     0.001 C 
HETATM    9  C4  UNL     1     -39.974  12.385   4.678  1.00 20.00     0.005 C 
ENDBRANCH   5   6
ENDBRANCH   1   5
BRANCH   1  10
HETATM   10  C11 UNL     1     -41.728  14.502   8.420  1.00 20.00    -0.012 C 
HETATM   11  C7  UNL     1     -40.492  14.541   9.323  1.00 20.00     0.010 C 
HETATM   12  C8  UNL     1     -42.747  13.504   8.982  1.00 20.00     0.010 C 
ENDBRANCH   1  10
TORSDOF 4
ENDMDL
MODEL 9
REMARK VINA RESULT:      -3.5     11.087     12.720
REMARK  4 active torsions:
REMARK  status: ('A' for Active; 'I' for Inactive)
REMARK    1  A    between atoms: C1_1  and  C10_10 
REMARK    2  A    between atoms: C5_5  and  C9_9 
REMARK    3  A    between atoms: C9_9  and  C10_10 
REMARK    4  A    between atoms: C10_10  and  C11_11 
ROOT
HETATM    1  C10 UNL     1     -33.670  16.478  -4.081  1.00 20.00     0.058 C 
ENDROOT
BRANCH   1   2
HETATM    2  C1  UNL     1     -34.017  15.123  -4.708  1.00 20.00     0.127 C 
HETATM    3  C6  UNL     1     -33.897  15.017  -6.207  1.00 20.00     0.091 C 
HETATM    4  O12 UNL     1     -34.359  14.151  -4.033  1.00 20.00    -0.298 OA
ENDBRANCH   1   2
BRANCH   1   5
HETATM    5  C9  UNL     1     -33.408  16.340  -2.571  1.00 20.00     0.017 C 
BRANCH   5   6
HETATM    6  C5  UNL     1     -33.408  17.695  -1.896  1.00 20.00    -0.014 C 
HETATM    7  C3  UNL     1     -32.052  18.188  -1.324  1.00 20.00     0.005 C 
HETATM    8  C2  UNL     1     -32.853  18.802  -0.156  1.00 20.00     0.001 C 
HETATM    9  C4  UNL     1     -33.941  17.746  -0.441  1.00 20.00     0.005 C 
ENDBRANCH   5   6
ENDBRANCH   1   5
BRANCH   1  10
HETATM   10  C11 UNL     1     -34.773  17.508  -4.443  1.00 20.00    -0.012 C 
HETATM   11  C7  UNL     1     -36.042  16.871  -5.019  1.00 20.00     0.010 C 
HETATM   12  C8  UNL     1     -34.245  18.574  -5.409  1.00 20.00     0.010 C 
ENDBRANCH   1  10
TORSDOF 4
ENDMDL
