MODEL 1
REMARK VINA RESULT:      -4.5      0.000      0.000
REMARK  3 active torsions:
REMARK  status: ('A' for Active; 'I' for Inactive)
REMARK    1  A    between atoms: C1_1  and  C5_5 
REMARK    2  A    between atoms: C2_2  and  C7_7 
REMARK    3  A    between atoms: C5_5  and  C6_6 
ROOT
HETATM    1  C1  UNL     1     -33.094   7.441   5.183  1.00 20.00    -0.029 C 
HETATM    2  C2  UNL     1     -34.289   6.991   4.776  1.00 20.00    -0.027 C 
ENDROOT
BRANCH   1   3
HETATM    3  C5  UNL     1     -32.532   8.781   4.800  1.00 20.00     0.042 C 
BRANCH   3   4
HETATM    4  C6  UNL     1     -32.495   8.993   3.290  1.00 20.00     0.118 C 
HETATM    5 CL8  UNL     1     -32.072   7.494   2.425  1.00 20.00    -0.130 Cl
ENDBRANCH   3   4
ENDBRANCH   1   3
BRANCH   2   6
HETATM    6  C7  UNL     1     -34.854   5.647   5.161  1.00 20.00    -0.001 C 
HETATM    7  C3  UNL     1     -34.649   5.396   6.654  1.00 20.00     0.013 C 
HETATM    8  C4  UNL     1     -34.193   4.543   4.335  1.00 20.00     0.013 C 
ENDBRANCH   2   6
TORSDOF 3
ENDMDL
MODEL 2
REMARK VINA RESULT:      -4.3      1.083      1.091
REMARK  3 active torsions:
REMARK  status: ('A' for Active; 'I' for Inactive)
REMARK    1  A    between atoms: C1_1  and  C5_5 
REMARK    2  A    between atoms: C2_2  and  C7_7 
REMARK    3  A    between atoms: C5_5  and  C6_6 
ROOT
HETATM    1  C1  UNL     1     -33.102   7.760   4.807  1.00 20.00    -0.029 C 
HETATM    2  C2  UNL     1     -34.052   6.950   4.317  1.00 20.00    -0.027 C 
ENDROOT
BRANCH   1   3
HETATM    3  C5  UNL     1     -32.377   8.787   3.986  1.00 20.00     0.042 C 
BRANCH   3   4
HETATM    4  C6  UNL     1     -32.286   8.407   2.512  1.00 20.00     0.118 C 
HETATM    5 CL8  UNL     1     -32.893   9.708   1.458  1.00 20.00    -0.130 Cl
ENDBRANCH   3   4
ENDBRANCH   1   3
BRANCH   2   6
HETATM    6  C7  UNL     1     -34.781   5.919   5.140  1.00 20.00    -0.001 C 
HETATM    7  C3  UNL     1     -34.500   6.135   6.626  1.00 20.00     0.013 C 
HETATM    8  C4  UNL     1     -34.362   4.513   4.712  1.00 20.00     0.013 C 
ENDBRANCH   2   6
TORSDOF 3
ENDMDL
MODEL 3
REMARK VINA RESULT:      -4.3      1.925      3.988
REMARK  3 active torsions:
REMARK  status: ('A' for Active; 'I' for Inactive)
REMARK    1  A    between atoms: C1_1  and  C5_5 
REMARK    2  A    between atoms: C2_2  and  C7_7 
REMARK    3  A    between atoms: C5_5  and  C6_6 
ROOT
HETATM    1  C1  UNL     1     -33.730   7.326   4.968  1.00 20.00    -0.029 C 
HETATM    2  C2  UNL     1     -32.598   8.007   4.737  1.00 20.00    -0.027 C 
ENDROOT
BRANCH   1   3
HETATM    3  C5  UNL     1     -34.226   6.974   6.342  1.00 20.00     0.042 C 
BRANCH   3   4
HETATM    4  C6  UNL     1     -34.632   5.509   6.463  1.00 20.00     0.118 C 
HETATM    5 CL8  UNL     1     -34.500   4.658   4.903  1.00 20.00    -0.130 Cl
ENDBRANCH   3   4
ENDBRANCH   1   3
BRANCH   2   6
HETATM    6  C7  UNL     1     -32.100   8.361   3.359  1.00 20.00    -0.001 C 
HETATM    7  C3  UNL     1     -32.930   9.502   2.774  1.00 20.00     0.013 C 
HETATM    8  C4  UNL     1     -32.155   7.134   2.449  1.00 20.00     0.013 C 
ENDBRANCH   2   6
TORSDOF 3
ENDMDL
MODEL 4
REMARK VINA RESULT:      -4.3      1.754      4.024
REMARK  3 active torsions:
REMARK  status: ('A' for Active; 'I' for Inactive)
REMARK    1  A    between atoms: C1_1  and  C5_5 
REMARK    2  A    between atoms: C2_2  and  C7_7 
REMARK    3  A    between atoms: C5_5  and  C6_6 
ROOT
HETATM    1  C1  UNL     1     -33.616   7.108   5.823  1.00 20.00    -0.029 C 
HETATM    2  C2  UNL     1     -33.763   7.519   4.556  1.00 20.00    -0.027 C 
ENDROOT
BRANCH   1   3
HETATM    3  C5  UNL     1     -34.483   6.064   6.468  1.00 20.00     0.042 C 
BRANCH   3   4
HETATM    4  C6  UNL     1     -35.172   5.161   5.450  1.00 20.00     0.118 C 
HETATM    5 CL8  UNL     1     -33.992   4.243   4.480  1.00 20.00    -0.130 Cl
ENDBRANCH   3   4
ENDBRANCH   1   3
BRANCH   2   6
HETATM    6  C7  UNL     1     -32.892   8.566   3.908  1.00 20.00    -0.001 C 
HETATM    7  C3  UNL     1     -32.054   7.941   2.794  1.00 20.00     0.013 C 
HETATM    8  C4  UNL     1     -31.992   9.221   4.955  1.00 20.00     0.013 C 
ENDBRANCH   2   6
TORSDOF 3
ENDMDL
MODEL 5
REMARK VINA RESULT:      -4.0      2.196      4.254
REMARK  3 active torsions:
REMARK  status: ('A' for Active; 'I' for Inactive)
REMARK    1  A    between atoms: C1_1  and  C5_5 
REMARK    2  A    between atoms: C2_2  and  C7_7 
REMARK    3  A    between atoms: C5_5  and  C6_6 
ROOT
HETATM    1  C1  UNL     1     -33.780   6.426   4.073  1.00 20.00    -0.029 C 
HETATM    2  C2  UNL     1     -32.691   6.457   3.292  1.00 20.00    -0.027 C 
ENDROOT
BRANCH   1   3
HETATM    3  C5  UNL     1     -34.479   5.160   4.481  1.00 20.00     0.042 C 
BRANCH   3   4
HETATM    4  C6  UNL     1     -34.804   5.121   5.971  1.00 20.00     0.118 C 
HETATM    5 CL8  UNL     1     -34.426   6.669   6.767  1.00 20.00    -0.130 Cl
ENDBRANCH   3   4
ENDBRANCH   1   3
BRANCH   2   6
HETATM    6  C7  UNL     1     -31.988   7.727   2.884  1.00 20.00    -0.001 C 
HETATM    7  C3  UNL     1     -32.395   8.876   3.804  1.00 20.00     0.013 C 
HETATM    8  C4  UNL     1     -32.314   8.063   1.428  1.00 20.00     0.013 C 
ENDBRANCH   2   6
TORSDOF 3
ENDMDL
MODEL 6
REMARK VINA RESULT:      -4.0      1.377      1.910
REMARK  3 active torsions:
REMARK  status: ('A' for Active; 'I' for Inactive)
REMARK    1  A    between atoms: C1_1  and  C5_5 
REMARK    2  A    between atoms: C2_2  and  C7_7 
REMARK    3  A    between atoms: C5_5  and  C6_6 
ROOT
HETATM    1  C1  UNL     1     -32.785   8.033   4.344  1.00 20.00    -0.029 C 
HETATM    2  C2  UNL     1     -33.569   6.951   4.232  1.00 20.00    -0.027 C 
ENDROOT
BRANCH   1   3
HETATM    3  C5  UNL     1     -32.394   8.904   3.185  1.00 20.00     0.042 C 
BRANCH   3   4
HETATM    4  C6  UNL     1     -32.251   8.123   1.883  1.00 20.00     0.118 C 
HETATM    5 CL8  UNL     1     -32.605   9.139   0.464  1.00 20.00    -0.130 Cl
ENDBRANCH   3   4
ENDBRANCH   1   3
BRANCH   2   6
HETATM    6  C7  UNL     1     -33.963   6.077   5.395  1.00 20.00    -0.001 C 
HETATM    7  C3  UNL     1     -35.159   5.205   5.020  1.00 20.00     0.013 C 
HETATM    8  C4  UNL     1     -34.288   6.940   6.614  1.00 20.00     0.013 C 
ENDBRANCH   2   6
TORSDOF 3
ENDMDL
MODEL 7
REMARK VINA RESULT:      -3.9      1.442      1.586
REMARK  3 active torsions:
REMARK  status: ('A' for Active; 'I' for Inactive)
REMARK    1  A    between atoms: C1_1  and  C5_5 
REMARK    2  A    between atoms: C2_2  and  C7_7 
REMARK    3  A    between atoms: C5_5  and  C6_6 
ROOT
HETATM    1  C1  UNL     1     -32.920   6.434   3.443  1.00 20.00    -0.029 C 
HETATM    2  C2  UNL     1     -33.968   6.617   4.259  1.00 20.00    -0.027 C 
ENDROOT
BRANCH   1   3
HETATM    3  C5  UNL     1     -32.194   7.553   2.754  1.00 20.00     0.042 C 
BRANCH   3   4
HETATM    4  C6  UNL     1     -32.598   8.928   3.277  1.00 20.00     0.118 C 
HETATM    5 CL8  UNL     1     -32.164   9.132   4.993  1.00 20.00    -0.130 Cl
ENDBRANCH   3   4
ENDBRANCH   1   3
BRANCH   2   6
HETATM    6  C7  UNL     1     -34.697   5.494   4.952  1.00 20.00    -0.001 C 
HETATM    7  C3  UNL     1     -34.647   5.686   6.467  1.00 20.00     0.013 C 
HETATM    8  C4  UNL     1     -34.085   4.150   4.560  1.00 20.00     0.013 C 
ENDBRANCH   2   6
TORSDOF 3
ENDMDL
MODEL 8
REMARK VINA RESULT:      -3.7     12.044     12.607
REMARK  3 active torsions:
REMARK  status: ('A' for Active; 'I' for Inactive)
REMARK    1  A    between atoms: C1_1  and  C5_5 
REMARK    2  A    between atoms: C2_2  and  C7_7 
REMARK    3  A    between atoms: C5_5  and  C6_6 
ROOT
HETATM    1  C1  UNL     1     -33.492  17.800  -1.468  1.00 20.00    -0.029 C 
HETATM    2  C2  UNL     1     -33.556  16.622  -2.106  1.00 20.00    -0.027 C 
ENDROOT
BRANCH   1   3
HETATM    3  C5  UNL     1     -33.749  17.968   0.002  1.00 20.00     0.042 C 
BRANCH   3   4
HETATM    4  C6  UNL     1     -32.577  18.616   0.734  1.00 20.00     0.118 C 
HETATM    5 CL8  UNL     1     -31.066  18.485  -0.199  1.00 20.00    -0.130 Cl
ENDBRANCH   3   4
ENDBRANCH   1   3
BRANCH   2   6
HETATM    6  C7  UNL     1     -33.298  16.453  -3.582  1.00 20.00    -0.001 C 
HETATM    7  C3  UNL     1     -34.144  17.441  -4.383  1.00 20.00     0.013 C 
HETATM    8  C4  UNL     1     -33.602  15.017  -4.007  1.00 20.00     0.013 C 
ENDBRANCH   2   6
TORSDOF 3
ENDMDL
MODEL 9
REMARK VINA RESULT:      -3.7     12.163     12.774
REMARK  3 active torsions:
REMARK  status: ('A' for Active; 'I' for Inactive)
REMARK    1  A    between atoms: C1_1  and  C5_5 
REMARK    2  A    between atoms: C2_2  and  C7_7 
REMARK    3  A    between atoms: C5_5  and  C6_6 
ROOT
HETATM    1  C1  UNL     1     -33.174  16.812  -2.973  1.00 20.00    -0.029 C 
HETATM    2  C2  UNL     1     -33.545  16.994  -1.697  1.00 20.00    -0.027 C 
ENDROOT
BRANCH   1   3
HETATM    3  C5  UNL     1     -33.475  15.570  -3.761  1.00 20.00     0.042 C 
BRANCH   3   4
HETATM    4  C6  UNL     1     -34.461  15.818  -4.898  1.00 20.00     0.118 C 
HETATM    5 CL8  UNL     1     -33.926  15.047  -6.412  1.00 20.00    -0.130 Cl
ENDBRANCH   3   4
ENDBRANCH   1   3
BRANCH   2   6
HETATM    6  C7  UNL     1     -33.244  18.241  -0.906  1.00 20.00    -0.001 C 
HETATM    7  C3  UNL     1     -31.734  18.439  -0.785  1.00 20.00     0.013 C 
HETATM    8  C4  UNL     1     -33.887  18.153   0.478  1.00 20.00     0.013 C 
ENDBRANCH   2   6
TORSDOF 3
ENDMDL
