MODEL 1
REMARK VINA RESULT:      -4.8      0.000      0.000
REMARK  3 active torsions:
REMARK  status: ('A' for Active; 'I' for Inactive)
REMARK    1  A    between atoms: C1_1  and  C10_10 
REMARK    2  A    between atoms: C8_8  and  C11_11 
REMARK    3  A    between atoms: C10_10  and  C11_11 
ROOT
HETATM    1  C2  UNL     1     -34.475   4.938   5.742  1.00 20.00     0.005 C 
HETATM    2  C3  UNL     1     -34.226   6.222   6.547  1.00 20.00     0.005 C 
HETATM    3  C4  UNL     1     -35.326   6.799   4.526  1.00 20.00     0.009 C 
HETATM    4  C5  UNL     1     -33.255   5.902   3.774  1.00 20.00     0.009 C 
HETATM    5  C6  UNL     1     -34.630   5.457   4.303  1.00 20.00    -0.014 C 
HETATM    6  C7  UNL     1     -34.232   7.316   5.463  1.00 20.00    -0.010 C 
HETATM    7  C8  UNL     1     -32.949   7.162   4.612  1.00 20.00    -0.010 C 
ENDROOT
BRANCH   7   8
HETATM    8  C11 UNL     1     -32.665   8.381   3.741  1.00 20.00     0.012 C 
BRANCH   8   9
HETATM    9  C10 UNL     1     -32.261   7.974   2.330  1.00 20.00     0.078 C 
BRANCH   9  10
HETATM   10  C1  UNL     1     -32.648   9.015   1.294  1.00 20.00     0.123 C 
HETATM   11  C9  UNL     1     -32.584   8.573  -0.145  1.00 20.00     0.091 C 
HETATM   12  O12 UNL     1     -32.995  10.156   1.593  1.00 20.00    -0.298 OA
ENDBRANCH   9  10
ENDBRANCH   8   9
ENDBRANCH   7   8
TORSDOF 3
ENDMDL
MODEL 2
REMARK VINA RESULT:      -4.4     11.474     12.685
REMARK  3 active torsions:
REMARK  status: ('A' for Active; 'I' for Inactive)
REMARK    1  A    between atoms: C1_1  and  C10_10 
REMARK    2  A    between atoms: C8_8  and  C11_11 
REMARK    3  A    between atoms: C10_10  and  C11_11 
ROOT
HETATM    1  C2  UNL     1     -32.394  18.242  -1.264  1.00 20.00     0.005 C 
HETATM    2  C3  UNL     1     -32.557  19.227  -2.431  1.00 20.00     0.005 C 
HETATM    3  C4  UNL     1     -34.679  18.294  -1.928  1.00 20.00     0.009 C 
HETATM    4  C5  UNL     1     -33.415  16.406  -2.633  1.00 20.00     0.009 C 
HETATM    5  C6  UNL     1     -33.618  17.323  -1.414  1.00 20.00    -0.014 C 
HETATM    6  C7  UNL     1     -33.835  18.726  -3.130  1.00 20.00    -0.010 C 
HETATM    7  C8  UNL     1     -33.512  17.382  -3.825  1.00 20.00    -0.010 C 
ENDROOT
BRANCH   7   8
HETATM    8  C11 UNL     1     -34.580  16.964  -4.830  1.00 20.00     0.012 C 
BRANCH   8   9
HETATM    9  C10 UNL     1     -34.614  15.451  -5.007  1.00 20.00     0.078 C 
BRANCH   9  10
HETATM   10  C1  UNL     1     -34.968  15.042  -6.426  1.00 20.00     0.123 C 
HETATM   11  C9  UNL     1     -34.081  15.589  -7.514  1.00 20.00     0.091 C 
HETATM   12  O12 UNL     1     -35.920  14.310  -6.691  1.00 20.00    -0.298 OA
ENDBRANCH   9  10
ENDBRANCH   8   9
ENDBRANCH   7   8
TORSDOF 3
ENDMDL
MODEL 3
REMARK VINA RESULT:      -4.3     11.146     12.270
REMARK  3 active torsions:
REMARK  status: ('A' for Active; 'I' for Inactive)
REMARK    1  A    between atoms: C1_1  and  C10_10 
REMARK    2  A    between atoms: C8_8  and  C11_11 
REMARK    3  A    between atoms: C10_10  and  C11_11 
ROOT
HETATM    1  C2  UNL     1     -34.630  19.031  -1.030  1.00 20.00     0.005 C 
HETATM    2  C3  UNL     1     -33.775  17.901  -0.436  1.00 20.00     0.005 C 
HETATM    3  C4  UNL     1     -32.636  18.806  -2.311  1.00 20.00     0.009 C 
HETATM    4  C5  UNL     1     -34.616  17.903  -3.270  1.00 20.00     0.009 C 
HETATM    5  C6  UNL     1     -34.120  19.126  -2.478  1.00 20.00    -0.014 C 
HETATM    6  C7  UNL     1     -32.907  17.462  -1.631  1.00 20.00    -0.010 C 
HETATM    7  C8  UNL     1     -33.816  16.737  -2.651  1.00 20.00    -0.010 C 
ENDROOT
BRANCH   7   8
HETATM    8  C11 UNL     1     -33.028  15.956  -3.697  1.00 20.00     0.012 C 
BRANCH   8   9
HETATM    9  C10 UNL     1     -33.759  14.682  -4.106  1.00 20.00     0.078 C 
BRANCH   9  10
HETATM   10  C1  UNL     1     -34.447  14.818  -5.453  1.00 20.00     0.123 C 
HETATM   11  C9  UNL     1     -35.930  14.550  -5.469  1.00 20.00     0.091 C 
HETATM   12  O12 UNL     1     -33.847  15.126  -6.480  1.00 20.00    -0.298 OA
ENDBRANCH   9  10
ENDBRANCH   8   9
ENDBRANCH   7   8
TORSDOF 3
ENDMDL
MODEL 4
REMARK VINA RESULT:      -4.2      9.869     11.100
REMARK  3 active torsions:
REMARK  status: ('A' for Active; 'I' for Inactive)
REMARK    1  A    between atoms: C1_1  and  C10_10 
REMARK    2  A    between atoms: C8_8  and  C11_11 
REMARK    3  A    between atoms: C10_10  and  C11_11 
ROOT
HETATM    1  C2  UNL     1     -41.541  16.473   9.215  1.00 20.00     0.005 C 
HETATM    2  C3  UNL     1     -42.424  15.309   9.690  1.00 20.00     0.005 C 
HETATM    3  C4  UNL     1     -40.313  14.441   9.046  1.00 20.00     0.009 C 
HETATM    4  C5  UNL     1     -41.170  15.330   7.013  1.00 20.00     0.009 C 
HETATM    5  C6  UNL     1     -40.499  15.775   8.325  1.00 20.00    -0.014 C 
HETATM    6  C7  UNL     1     -41.801  14.092   8.981  1.00 20.00    -0.010 C 
HETATM    7  C8  UNL     1     -42.115  14.197   7.470  1.00 20.00    -0.010 C 
ENDROOT
BRANCH   7   8
HETATM    8  C11 UNL     1     -41.861  12.894   6.720  1.00 20.00     0.012 C 
BRANCH   8   9
HETATM    9  C10 UNL     1     -40.871  13.094   5.579  1.00 20.00     0.078 C 
BRANCH   9  10
HETATM   10  C1  UNL     1     -39.655  12.193   5.703  1.00 20.00     0.123 C 
HETATM   11  C9  UNL     1     -39.068  11.691   4.409  1.00 20.00     0.091 C 
HETATM   12  O12 UNL     1     -39.165  11.880   6.786  1.00 20.00    -0.298 OA
ENDBRANCH   9  10
ENDBRANCH   8   9
ENDBRANCH   7   8
TORSDOF 3
ENDMDL
MODEL 5
REMARK VINA RESULT:      -3.9     11.510     12.599
REMARK  3 active torsions:
REMARK  status: ('A' for Active; 'I' for Inactive)
REMARK    1  A    between atoms: C1_1  and  C10_10 
REMARK    2  A    between atoms: C8_8  and  C11_11 
REMARK    3  A    between atoms: C10_10  and  C11_11 
ROOT
HETATM    1  C2  UNL     1     -35.703  14.813  -6.355  1.00 20.00     0.005 C 
HETATM    2  C3  UNL     1     -36.318  15.835  -5.387  1.00 20.00     0.005 C 
HETATM    3  C4  UNL     1     -34.261  16.700  -6.193  1.00 20.00     0.009 C 
HETATM    4  C5  UNL     1     -33.595  14.754  -4.999  1.00 20.00     0.009 C 
HETATM    5  C6  UNL     1     -34.210  15.181  -6.343  1.00 20.00    -0.014 C 
HETATM    6  C7  UNL     1     -35.093  16.638  -4.910  1.00 20.00    -0.010 C 
HETATM    7  C8  UNL     1     -34.244  15.728  -3.992  1.00 20.00    -0.010 C 
ENDROOT
BRANCH   7   8
HETATM    8  C11 UNL     1     -33.208  16.502  -3.184  1.00 20.00     0.012 C 
BRANCH   8   9
HETATM    9  C10 UNL     1     -33.852  17.634  -2.394  1.00 20.00     0.078 C 
BRANCH   9  10
HETATM   10  C1  UNL     1     -32.938  18.176  -1.309  1.00 20.00     0.123 C 
HETATM   11  C9  UNL     1     -33.483  18.139   0.096  1.00 20.00     0.091 C 
HETATM   12  O12 UNL     1     -31.817  18.623  -1.543  1.00 20.00    -0.298 OA
ENDBRANCH   9  10
ENDBRANCH   8   9
ENDBRANCH   7   8
TORSDOF 3
ENDMDL
MODEL 6
REMARK VINA RESULT:      -3.8     10.211     11.427
REMARK  3 active torsions:
REMARK  status: ('A' for Active; 'I' for Inactive)
REMARK    1  A    between atoms: C1_1  and  C10_10 
REMARK    2  A    between atoms: C8_8  and  C11_11 
REMARK    3  A    between atoms: C10_10  and  C11_11 
ROOT
HETATM    1  C2  UNL     1     -40.849  17.473   8.484  1.00 20.00     0.005 C 
HETATM    2  C3  UNL     1     -41.347  17.299   7.041  1.00 20.00     0.005 C 
HETATM    3  C4  UNL     1     -42.622  15.885   8.456  1.00 20.00     0.009 C 
HETATM    4  C5  UNL     1     -40.421  15.008   8.663  1.00 20.00     0.009 C 
HETATM    5  C6  UNL     1     -41.299  16.169   9.164  1.00 20.00    -0.014 C 
HETATM    6  C7  UNL     1     -41.988  15.899   7.064  1.00 20.00    -0.010 C 
HETATM    7  C8  UNL     1     -40.857  14.850   7.190  1.00 20.00    -0.010 C 
ENDROOT
BRANCH   7   8
HETATM    8  C11 UNL     1     -41.325  13.433   6.874  1.00 20.00     0.012 C 
BRANCH   8   9
HETATM    9  C10 UNL     1     -40.843  12.984   5.499  1.00 20.00     0.078 C 
BRANCH   9  10
HETATM   10  C1  UNL     1     -39.600  12.117   5.578  1.00 20.00     0.123 C 
HETATM   11  C9  UNL     1     -39.051  11.625   4.263  1.00 20.00     0.091 C 
HETATM   12  O12 UNL     1     -39.058  11.821   6.641  1.00 20.00    -0.298 OA
ENDBRANCH   9  10
ENDBRANCH   8   9
ENDBRANCH   7   8
TORSDOF 3
ENDMDL
MODEL 7
REMARK VINA RESULT:      -3.8     11.462     12.916
REMARK  3 active torsions:
REMARK  status: ('A' for Active; 'I' for Inactive)
REMARK    1  A    between atoms: C1_1  and  C10_10 
REMARK    2  A    between atoms: C8_8  and  C11_11 
REMARK    3  A    between atoms: C10_10  and  C11_11 
ROOT
HETATM    1  C2  UNL     1     -33.948  18.235  -1.427  1.00 20.00     0.005 C 
HETATM    2  C3  UNL     1     -33.378  16.924  -1.988  1.00 20.00     0.005 C 
HETATM    3  C4  UNL     1     -33.022  18.646  -3.581  1.00 20.00     0.009 C 
HETATM    4  C5  UNL     1     -35.394  18.510  -3.458  1.00 20.00     0.009 C 
HETATM    5  C6  UNL     1     -34.186  19.078  -2.691  1.00 20.00    -0.014 C 
HETATM    6  C7  UNL     1     -33.396  17.164  -3.510  1.00 20.00    -0.010 C 
HETATM    7  C8  UNL     1     -34.868  17.157  -3.985  1.00 20.00    -0.010 C 
ENDROOT
BRANCH   7   8
HETATM    8  C11 UNL     1     -35.002  17.034  -5.499  1.00 20.00     0.012 C 
BRANCH   8   9
HETATM    9  C10 UNL     1     -34.467  15.696  -5.996  1.00 20.00     0.078 C 
BRANCH   9  10
HETATM   10  C1  UNL     1     -35.570  14.676  -6.213  1.00 20.00     0.123 C 
HETATM   11  C9  UNL     1     -36.031  13.928  -4.989  1.00 20.00     0.091 C 
HETATM   12  O12 UNL     1     -36.071  14.460  -7.315  1.00 20.00    -0.298 OA
ENDBRANCH   9  10
ENDBRANCH   8   9
ENDBRANCH   7   8
TORSDOF 3
ENDMDL
MODEL 8
REMARK VINA RESULT:      -3.7      9.701     10.920
REMARK  3 active torsions:
REMARK  status: ('A' for Active; 'I' for Inactive)
REMARK    1  A    between atoms: C1_1  and  C10_10 
REMARK    2  A    between atoms: C8_8  and  C11_11 
REMARK    3  A    between atoms: C10_10  and  C11_11 
ROOT
HETATM    1  C2  UNL     1     -41.034   8.042   0.071  1.00 20.00     0.005 C 
HETATM    2  C3  UNL     1     -42.471   8.114  -0.465  1.00 20.00     0.005 C 
HETATM    3  C4  UNL     1     -42.368   6.423   1.195  1.00 20.00     0.009 C 
HETATM    4  C5  UNL     1     -40.913   5.602  -0.499  1.00 20.00     0.009 C 
HETATM    5  C6  UNL     1     -40.954   6.621   0.655  1.00 20.00    -0.014 C 
HETATM    6  C7  UNL     1     -43.026   6.711  -0.157  1.00 20.00    -0.010 C 
HETATM    7  C8  UNL     1     -42.333   5.698  -1.099  1.00 20.00    -0.010 C 
ENDROOT
BRANCH   7   8
HETATM    8  C11 UNL     1     -43.038   4.346  -1.137  1.00 20.00     0.012 C 
BRANCH   8   9
HETATM    9  C10 UNL     1     -43.411   3.954  -2.562  1.00 20.00     0.078 C 
BRANCH   9  10
HETATM   10  C1  UNL     1     -42.802   2.626  -2.974  1.00 20.00     0.123 C 
HETATM   11  C9  UNL     1     -41.595   2.701  -3.874  1.00 20.00     0.091 C 
HETATM   12  O12 UNL     1     -43.252   1.543  -2.607  1.00 20.00    -0.298 OA
ENDBRANCH   9  10
ENDBRANCH   8   9
ENDBRANCH   7   8
TORSDOF 3
ENDMDL
MODEL 9
REMARK VINA RESULT:      -3.7     11.551     13.135
REMARK  3 active torsions:
REMARK  status: ('A' for Active; 'I' for Inactive)
REMARK    1  A    between atoms: C1_1  and  C10_10 
REMARK    2  A    between atoms: C8_8  and  C11_11 
REMARK    3  A    between atoms: C10_10  and  C11_11 
ROOT
HETATM    1  C2  UNL     1     -35.768  15.073  -7.203  1.00 20.00     0.005 C 
HETATM    2  C3  UNL     1     -34.348  15.653  -7.122  1.00 20.00     0.005 C 
HETATM    3  C4  UNL     1     -34.947  14.819  -4.984  1.00 20.00     0.009 C 
HETATM    4  C5  UNL     1     -36.518  16.571  -5.336  1.00 20.00     0.009 C 
HETATM    5  C6  UNL     1     -36.241  15.111  -5.740  1.00 20.00    -0.014 C 
HETATM    6  C7  UNL     1     -34.198  15.988  -5.627  1.00 20.00    -0.010 C 
HETATM    7  C8  UNL     1     -35.107  17.198  -5.307  1.00 20.00    -0.010 C 
ENDROOT
BRANCH   7   8
HETATM    8  C11 UNL     1     -34.787  17.841  -3.961  1.00 20.00     0.012 C 
BRANCH   8   9
HETATM    9  C10 UNL     1     -33.286  18.029  -3.779  1.00 20.00     0.078 C 
BRANCH   9  10
HETATM   10  C1  UNL     1     -32.899  18.210  -2.322  1.00 20.00     0.123 C 
HETATM   11  C9  UNL     1     -33.615  17.328  -1.331  1.00 20.00     0.091 C 
HETATM   12  O12 UNL     1     -32.052  19.021  -1.952  1.00 20.00    -0.298 OA
ENDBRANCH   9  10
ENDBRANCH   8   9
ENDBRANCH   7   8
TORSDOF 3
ENDMDL
