MODEL 1
REMARK VINA RESULT:      -4.6      0.000      0.000
REMARK  3 active torsions:
REMARK  status: ('A' for Active; 'I' for Inactive)
REMARK    1  A    between atoms: C7_7  and  C9_9 
REMARK    2  A    between atoms: C9_9  and  N10_10 
REMARK    3  A    between atoms: N10_10  and  O11_11 
ROOT
HETATM    1  C1  UNL     1     -25.861  17.612  12.235  1.00 20.00     0.005 C 
HETATM    2  C2  UNL     1     -24.872  16.441  12.330  1.00 20.00     0.005 C 
HETATM    3  C3  UNL     1     -23.643  18.470  12.332  1.00 20.00     0.010 C 
HETATM    4  C4  UNL     1     -24.685  18.477  10.194  1.00 20.00     0.011 C 
HETATM    5  C5  UNL     1     -24.993  18.754  11.677  1.00 20.00    -0.014 C 
HETATM    6  C6  UNL     1     -23.567  17.045  11.778  1.00 20.00    -0.009 C 
HETATM    7  C7  UNL     1     -23.737  17.260  10.255  1.00 20.00     0.005 C 
ENDROOT
BRANCH   7   8
HETATM    8  C9  UNL     1     -22.416  17.520   9.543  1.00 20.00     0.122 C 
BRANCH   8   9
HETATM    9  N10 UNL     1     -22.152  16.474   8.612  1.00 20.00    -0.206 NA
HETATM   10  H28 UNL     1     -23.026  16.099   8.215  1.00 20.00     0.153 HD
BRANCH   9  11
HETATM   11  O11 UNL     1     -21.600  17.128   7.424  1.00 20.00    -0.311 OA
HETATM   12  C8  UNL     1     -21.848  18.524   7.527  1.00 20.00     0.229 C 
ENDBRANCH   9  11
ENDBRANCH   8   9
ENDBRANCH   7   8
TORSDOF 3
ENDMDL
MODEL 2
REMARK VINA RESULT:      -4.5     15.493     16.119
REMARK  3 active torsions:
REMARK  status: ('A' for Active; 'I' for Inactive)
REMARK    1  A    between atoms: C7_7  and  C9_9 
REMARK    2  A    between atoms: C9_9  and  N10_10 
REMARK    3  A    between atoms: N10_10  and  O11_11 
ROOT
HETATM    1  C1  UNL     1     -34.462   5.170   6.090  1.00 20.00     0.005 C 
HETATM    2  C2  UNL     1     -33.994   6.612   6.336  1.00 20.00     0.005 C 
HETATM    3  C3  UNL     1     -35.327   6.574   4.374  1.00 20.00     0.010 C 
HETATM    4  C4  UNL     1     -33.471   5.210   3.785  1.00 20.00     0.011 C 
HETATM    5  C5  UNL     1     -34.785   5.162   4.585  1.00 20.00    -0.014 C 
HETATM    6  C6  UNL     1     -34.070   7.243   4.933  1.00 20.00    -0.009 C 
HETATM    7  C7  UNL     1     -32.943   6.633   4.065  1.00 20.00     0.005 C 
ENDROOT
BRANCH   7   8
HETATM    8  C9  UNL     1     -32.693   7.419   2.783  1.00 20.00     0.122 C 
BRANCH   8   9
HETATM    9  N10 UNL     1     -32.552   8.805   3.083  1.00 20.00    -0.206 NA
HETATM   10  H28 UNL     1     -31.561   9.066   3.184  1.00 20.00     0.153 HD
BRANCH   9  11
HETATM   11  O11 UNL     1     -32.872   9.514   1.843  1.00 20.00    -0.311 OA
HETATM   12  C8  UNL     1     -32.393   8.743   0.750  1.00 20.00     0.229 C 
ENDBRANCH   9  11
ENDBRANCH   8   9
ENDBRANCH   7   8
TORSDOF 3
ENDMDL
MODEL 3
REMARK VINA RESULT:      -4.4     24.091     24.758
REMARK  3 active torsions:
REMARK  status: ('A' for Active; 'I' for Inactive)
REMARK    1  A    between atoms: C7_7  and  C9_9 
REMARK    2  A    between atoms: C9_9  and  N10_10 
REMARK    3  A    between atoms: N10_10  and  O11_11 
ROOT
HETATM    1  C1  UNL     1     -40.956   8.315  -0.070  1.00 20.00     0.005 C 
HETATM    2  C2  UNL     1     -42.417   8.327  -0.546  1.00 20.00     0.005 C 
HETATM    3  C3  UNL     1     -42.254   6.922   1.358  1.00 20.00     0.010 C 
HETATM    4  C4  UNL     1     -40.890   5.813  -0.243  1.00 20.00     0.011 C 
HETATM    5  C5  UNL     1     -40.864   7.004   0.731  1.00 20.00    -0.014 C 
HETATM    6  C6  UNL     1     -42.972   7.002   0.009  1.00 20.00    -0.009 C 
HETATM    7  C7  UNL     1     -42.335   5.838  -0.787  1.00 20.00     0.005 C 
ENDROOT
BRANCH   7   8
HETATM    8  C9  UNL     1     -43.055   4.512  -0.574  1.00 20.00     0.122 C 
BRANCH   8   9
HETATM    9  N10 UNL     1     -43.417   3.949  -1.833  1.00 20.00    -0.206 NA
HETATM   10  H28 UNL     1     -44.178   4.485  -2.276  1.00 20.00     0.153 HD
BRANCH   9  11
HETATM   11  O11 UNL     1     -42.319   4.275  -2.745  1.00 20.00    -0.311 OA
HETATM   12  C8  UNL     1     -42.058   3.138  -3.555  1.00 20.00     0.229 C 
ENDBRANCH   9  11
ENDBRANCH   8   9
ENDBRANCH   7   8
TORSDOF 3
ENDMDL
MODEL 4
REMARK VINA RESULT:      -4.1     13.994     15.069
REMARK  3 active torsions:
REMARK  status: ('A' for Active; 'I' for Inactive)
REMARK    1  A    between atoms: C7_7  and  C9_9 
REMARK    2  A    between atoms: C9_9  and  N10_10 
REMARK    3  A    between atoms: N10_10  and  O11_11 
ROOT
HETATM    1  C1  UNL     1     -33.680  17.365  -3.850  1.00 20.00     0.005 C 
HETATM    2  C2  UNL     1     -33.397  16.415  -2.676  1.00 20.00     0.005 C 
HETATM    3  C3  UNL     1     -34.619  18.277  -1.862  1.00 20.00     0.010 C 
HETATM    4  C4  UNL     1     -32.588  19.258  -2.617  1.00 20.00     0.011 C 
HETATM    5  C5  UNL     1     -33.926  18.713  -3.151  1.00 20.00    -0.014 C 
HETATM    6  C6  UNL     1     -33.478  17.345  -1.451  1.00 20.00    -0.009 C 
HETATM    7  C7  UNL     1     -32.246  18.281  -1.471  1.00 20.00     0.005 C 
ENDROOT
BRANCH   7   8
HETATM    8  C9  UNL     1     -32.028  19.000  -0.145  1.00 20.00     0.122 C 
BRANCH   8   9
HETATM    9  N10 UNL     1     -30.678  18.830   0.282  1.00 20.00    -0.206 NA
HETATM   10  H28 UNL     1     -30.279  19.718   0.618  1.00 20.00     0.153 HD
BRANCH   9  11
HETATM   11  O11 UNL     1     -30.751  18.095   1.545  1.00 20.00    -0.311 OA
HETATM   12  C8  UNL     1     -29.995  18.803   2.518  1.00 20.00     0.229 C 
ENDBRANCH   9  11
ENDBRANCH   8   9
ENDBRANCH   7   8
TORSDOF 3
ENDMDL
MODEL 5
REMARK VINA RESULT:      -4.1     16.986     17.984
REMARK  3 active torsions:
REMARK  status: ('A' for Active; 'I' for Inactive)
REMARK    1  A    between atoms: C7_7  and  C9_9 
REMARK    2  A    between atoms: C9_9  and  N10_10 
REMARK    3  A    between atoms: N10_10  and  O11_11 
ROOT
HETATM    1  C1  UNL     1     -32.970  18.993  -2.389  1.00 20.00     0.005 C 
HETATM    2  C2  UNL     1     -32.919  18.951  -3.923  1.00 20.00     0.005 C 
HETATM    3  C3  UNL     1     -35.009  18.083  -3.212  1.00 20.00     0.010 C 
HETATM    4  C4  UNL     1     -33.450  16.532  -2.309  1.00 20.00     0.011 C 
HETATM    5  C5  UNL     1     -34.032  17.933  -2.049  1.00 20.00    -0.014 C 
HETATM    6  C6  UNL     1     -33.932  17.844  -4.272  1.00 20.00    -0.009 C 
HETATM    7  C7  UNL     1     -33.329  16.484  -3.847  1.00 20.00     0.005 C 
ENDROOT
BRANCH   7   8
HETATM    8  C9  UNL     1     -34.069  15.295  -4.448  1.00 20.00     0.122 C 
BRANCH   8   9
HETATM    9  N10 UNL     1     -33.330  14.769  -5.547  1.00 20.00    -0.206 NA
HETATM   10  H28 UNL     1     -33.227  13.747  -5.473  1.00 20.00     0.153 HD
BRANCH   9  11
HETATM   11  O11 UNL     1     -34.227  14.845  -6.702  1.00 20.00    -0.311 OA
HETATM   12  C8  UNL     1     -35.567  14.786  -6.232  1.00 20.00     0.229 C 
ENDBRANCH   9  11
ENDBRANCH   8   9
ENDBRANCH   7   8
TORSDOF 3
ENDMDL
MODEL 6
REMARK VINA RESULT:      -4.0     16.388     17.336
REMARK  3 active torsions:
REMARK  status: ('A' for Active; 'I' for Inactive)
REMARK    1  A    between atoms: C7_7  and  C9_9 
REMARK    2  A    between atoms: C9_9  and  N10_10 
REMARK    3  A    between atoms: N10_10  and  O11_11 
ROOT
HETATM    1  C1  UNL     1     -32.427  18.334  -1.102  1.00 20.00     0.005 C 
HETATM    2  C2  UNL     1     -32.552  19.263  -2.319  1.00 20.00     0.005 C 
HETATM    3  C3  UNL     1     -34.699  18.393  -1.808  1.00 20.00     0.010 C 
HETATM    4  C4  UNL     1     -33.460  16.450  -2.398  1.00 20.00     0.011 C 
HETATM    5  C5  UNL     1     -33.666  17.430  -1.228  1.00 20.00    -0.014 C 
HETATM    6  C6  UNL     1     -33.827  18.752  -3.014  1.00 20.00    -0.009 C 
HETATM    7  C7  UNL     1     -33.519  17.369  -3.638  1.00 20.00     0.005 C 
ENDROOT
BRANCH   7   8
HETATM    8  C9  UNL     1     -34.578  16.922  -4.638  1.00 20.00     0.122 C 
BRANCH   8   9
HETATM    9  N10 UNL     1     -34.784  15.516  -4.530  1.00 20.00    -0.206 NA
HETATM   10  H28 UNL     1     -35.718  15.248  -4.872  1.00 20.00     0.153 HD
BRANCH   9  11
HETATM   11  O11 UNL     1     -33.953  14.911  -5.572  1.00 20.00    -0.311 OA
HETATM   12  C8  UNL     1     -34.373  15.421  -6.830  1.00 20.00     0.229 C 
ENDBRANCH   9  11
ENDBRANCH   8   9
ENDBRANCH   7   8
TORSDOF 3
ENDMDL
MODEL 7
REMARK VINA RESULT:      -3.8     15.422     16.143
REMARK  3 active torsions:
REMARK  status: ('A' for Active; 'I' for Inactive)
REMARK    1  A    between atoms: C7_7  and  C9_9 
REMARK    2  A    between atoms: C9_9  and  N10_10 
REMARK    3  A    between atoms: N10_10  and  O11_11 
ROOT
HETATM    1  C1  UNL     1     -34.668   5.071   6.348  1.00 20.00     0.005 C 
HETATM    2  C2  UNL     1     -34.228   6.543   6.357  1.00 20.00     0.005 C 
HETATM    3  C3  UNL     1     -35.488   6.143   4.388  1.00 20.00     0.010 C 
HETATM    4  C4  UNL     1     -33.593   4.735   4.106  1.00 20.00     0.011 C 
HETATM    5  C5  UNL     1     -34.935   4.800   4.857  1.00 20.00    -0.014 C 
HETATM    6  C6  UNL     1     -34.261   6.923   4.865  1.00 20.00    -0.009 C 
HETATM    7  C7  UNL     1     -33.095   6.196   4.154  1.00 20.00     0.005 C 
ENDROOT
BRANCH   7   8
HETATM    8  C9  UNL     1     -32.809   6.754   2.765  1.00 20.00     0.122 C 
BRANCH   8   9
HETATM    9  N10 UNL     1     -32.412   8.119   2.864  1.00 20.00    -0.206 NA
HETATM   10  H28 UNL     1     -33.205   8.720   3.129  1.00 20.00     0.153 HD
BRANCH   9  11
HETATM   11  O11 UNL     1     -31.609   8.212   4.084  1.00 20.00    -0.311 OA
HETATM   12  C8  UNL     1     -32.010   9.374   4.796  1.00 20.00     0.229 C 
ENDBRANCH   9  11
ENDBRANCH   8   9
ENDBRANCH   7   8
TORSDOF 3
ENDMDL
MODEL 8
REMARK VINA RESULT:      -3.7     16.844     17.714
REMARK  3 active torsions:
REMARK  status: ('A' for Active; 'I' for Inactive)
REMARK    1  A    between atoms: C7_7  and  C9_9 
REMARK    2  A    between atoms: C9_9  and  N10_10 
REMARK    3  A    between atoms: N10_10  and  O11_11 
ROOT
HETATM    1  C1  UNL     1     -34.738  18.514  -1.750  1.00 20.00     0.005 C 
HETATM    2  C2  UNL     1     -33.784  17.459  -1.170  1.00 20.00     0.005 C 
HETATM    3  C3  UNL     1     -32.831  18.326  -3.162  1.00 20.00     0.010 C 
HETATM    4  C4  UNL     1     -34.823  17.279  -3.932  1.00 20.00     0.011 C 
HETATM    5  C5  UNL     1     -34.338  18.563  -3.235  1.00 20.00    -0.014 C 
HETATM    6  C6  UNL     1     -32.980  17.005  -2.403  1.00 20.00    -0.009 C 
HETATM    7  C7  UNL     1     -33.919  16.186  -3.320  1.00 20.00     0.005 C 
ENDROOT
BRANCH   7   8
HETATM    8  C9  UNL     1     -33.166  15.397  -4.384  1.00 20.00     0.122 C 
BRANCH   8   9
HETATM    9  N10 UNL     1     -34.054  14.489  -5.032  1.00 20.00    -0.206 NA
HETATM   10  H28 UNL     1     -35.037  14.731  -4.846  1.00 20.00     0.153 HD
BRANCH   9  11
HETATM   11  O11 UNL     1     -33.983  14.814  -6.458  1.00 20.00    -0.311 OA
HETATM   12  C8  UNL     1     -35.284  15.176  -6.899  1.00 20.00     0.229 C 
ENDBRANCH   9  11
ENDBRANCH   8   9
ENDBRANCH   7   8
TORSDOF 3
ENDMDL
MODEL 9
REMARK VINA RESULT:      -3.6     17.347     18.374
REMARK  3 active torsions:
REMARK  status: ('A' for Active; 'I' for Inactive)
REMARK    1  A    between atoms: C7_7  and  C9_9 
REMARK    2  A    between atoms: C9_9  and  N10_10 
REMARK    3  A    between atoms: N10_10  and  O11_11 
ROOT
HETATM    1  C1  UNL     1     -42.475  15.624   7.922  1.00 20.00     0.005 C 
HETATM    2  C2  UNL     1     -42.912  15.186   6.516  1.00 20.00     0.005 C 
HETATM    3  C3  UNL     1     -42.781  13.264   7.899  1.00 20.00     0.010 C 
HETATM    4  C4  UNL     1     -40.533  14.038   7.844  1.00 20.00     0.011 C 
HETATM    5  C5  UNL     1     -41.885  14.335   8.518  1.00 20.00    -0.014 C 
HETATM    6  C6  UNL     1     -42.483  13.708   6.466  1.00 20.00    -0.009 C 
HETATM    7  C7  UNL     1     -40.937  13.653   6.405  1.00 20.00     0.005 C 
ENDROOT
BRANCH   7   8
HETATM    8  C9  UNL     1     -40.409  12.281   6.004  1.00 20.00     0.122 C 
BRANCH   8   9
HETATM    9  N10 UNL     1     -39.082  12.110   6.494  1.00 20.00    -0.206 NA
HETATM   10  H28 UNL     1     -38.915  11.137   6.788  1.00 20.00     0.153 HD
BRANCH   9  11
HETATM   11  O11 UNL     1     -38.213  12.168   5.317  1.00 20.00    -0.311 OA
HETATM   12  C8  UNL     1     -38.948  11.698   4.195  1.00 20.00     0.229 C 
ENDBRANCH   9  11
ENDBRANCH   8   9
ENDBRANCH   7   8
TORSDOF 3
ENDMDL
