MODEL 1
REMARK VINA RESULT:      -3.9      0.000      0.000
REMARK  4 active torsions:
REMARK  status: ('A' for Active; 'I' for Inactive)
REMARK    1  A    between atoms: C6_6  and  C7_7 
REMARK    2  A    between atoms: C6_6  and  O10_10 
REMARK    3  A    between atoms: C7_7  and  C8_8 
REMARK    4  A    between atoms: C7_7  and  O9_9 
ROOT
HETATM    1  C7  UNL     1     -23.624  17.690   9.974  1.00 20.00     0.154 C 
ENDROOT
BRANCH   1   2
HETATM    2  C6  UNL     1     -23.140  19.016   9.350  1.00 20.00     0.146 C 
HETATM    3  C1  UNL     1     -21.625  19.059   9.155  1.00 20.00     0.042 C 
BRANCH   2   4
HETATM    4  O10 UNL     1     -23.745  19.241   8.081  1.00 20.00    -0.388 OA
HETATM    5  C5  UNL     1     -25.162  19.263   8.178  1.00 20.00     0.202 C 
ENDBRANCH   2   4
ENDBRANCH   1   2
BRANCH   1   6
HETATM    6  C8  UNL     1     -23.972  17.705  11.499  1.00 20.00    -0.023 C 
HETATM    7  C2  UNL     1     -24.323  16.264  11.936  1.00 20.00     0.017 C 
HETATM    8  C3  UNL     1     -22.766  18.174  12.332  1.00 20.00     0.017 C 
HETATM    9  C4  UNL     1     -25.184  18.596  11.833  1.00 20.00     0.017 C 
ENDBRANCH   1   6
BRANCH   1  10
HETATM   10  O9  UNL     1     -22.639  16.676   9.754  1.00 20.00    -0.392 OA
HETATM   11  H28 UNL     1     -21.972  16.792  10.445  1.00 20.00     0.210 HD
ENDBRANCH   1  10
TORSDOF 4
ENDMDL
MODEL 2
REMARK VINA RESULT:      -3.9     15.396     16.375
REMARK  4 active torsions:
REMARK  status: ('A' for Active; 'I' for Inactive)
REMARK    1  A    between atoms: C6_6  and  C7_7 
REMARK    2  A    between atoms: C6_6  and  O10_10 
REMARK    3  A    between atoms: C7_7  and  C8_8 
REMARK    4  A    between atoms: C7_7  and  O9_9 
ROOT
HETATM    1  C7  UNL     1     -33.437   6.791   5.375  1.00 20.00     0.154 C 
ENDROOT
BRANCH   1   2
HETATM    2  C6  UNL     1     -33.080   7.744   4.215  1.00 20.00     0.146 C 
HETATM    3  C1  UNL     1     -32.363   9.008   4.688  1.00 20.00     0.042 C 
BRANCH   2   4
HETATM    4  O10 UNL     1     -32.240   7.103   3.260  1.00 20.00    -0.388 OA
HETATM    5  C5  UNL     1     -32.245   7.793   2.018  1.00 20.00     0.202 C 
ENDBRANCH   2   4
ENDBRANCH   1   2
BRANCH   1   6
HETATM    6  C8  UNL     1     -34.447   5.637   5.064  1.00 20.00    -0.023 C 
HETATM    7  C2  UNL     1     -34.954   5.054   6.404  1.00 20.00     0.017 C 
HETATM    8  C3  UNL     1     -35.664   6.170   4.287  1.00 20.00     0.017 C 
HETATM    9  C4  UNL     1     -33.816   4.480   4.267  1.00 20.00     0.017 C 
ENDBRANCH   1   6
BRANCH   1  10
HETATM   10  O9  UNL     1     -33.956   7.551   6.470  1.00 20.00    -0.392 OA
HETATM   11  H28 UNL     1     -34.403   6.920   7.051  1.00 20.00     0.210 HD
ENDBRANCH   1  10
TORSDOF 4
ENDMDL
MODEL 3
REMARK VINA RESULT:      -3.7     15.409     16.354
REMARK  4 active torsions:
REMARK  status: ('A' for Active; 'I' for Inactive)
REMARK    1  A    between atoms: C6_6  and  C7_7 
REMARK    2  A    between atoms: C6_6  and  O10_10 
REMARK    3  A    between atoms: C7_7  and  C8_8 
REMARK    4  A    between atoms: C7_7  and  O9_9 
ROOT
HETATM    1  C7  UNL     1     -33.371   6.727   5.302  1.00 20.00     0.154 C 
ENDROOT
BRANCH   1   2
HETATM    2  C6  UNL     1     -33.082   7.702   4.141  1.00 20.00     0.146 C 
HETATM    3  C1  UNL     1     -32.397   8.986   4.602  1.00 20.00     0.042 C 
BRANCH   2   4
HETATM    4  O10 UNL     1     -32.250   7.098   3.155  1.00 20.00    -0.388 OA
HETATM    5  C5  UNL     1     -32.243   7.849   1.950  1.00 20.00     0.202 C 
ENDBRANCH   2   4
ENDBRANCH   1   2
BRANCH   1   6
HETATM    6  C8  UNL     1     -34.473   5.642   5.066  1.00 20.00    -0.023 C 
HETATM    7  C2  UNL     1     -33.851   4.479   4.258  1.00 20.00     0.017 C 
HETATM    8  C3  UNL     1     -34.978   5.074   6.404  1.00 20.00     0.017 C 
HETATM    9  C4  UNL     1     -35.677   6.169   4.263  1.00 20.00     0.017 C 
ENDBRANCH   1   6
BRANCH   1  10
HETATM   10  O9  UNL     1     -33.728   7.475   6.469  1.00 20.00    -0.392 OA
HETATM   11  H28 UNL     1     -33.618   8.408   6.237  1.00 20.00     0.210 HD
ENDBRANCH   1  10
TORSDOF 4
ENDMDL
MODEL 4
REMARK VINA RESULT:      -3.4     17.292     18.403
REMARK  4 active torsions:
REMARK  status: ('A' for Active; 'I' for Inactive)
REMARK    1  A    between atoms: C6_6  and  C7_7 
REMARK    2  A    between atoms: C6_6  and  O10_10 
REMARK    3  A    between atoms: C7_7  and  C8_8 
REMARK    4  A    between atoms: C7_7  and  O9_9 
ROOT
HETATM    1  C7  UNL     1     -40.546  13.929   7.381  1.00 20.00     0.154 C 
ENDROOT
BRANCH   1   2
HETATM    2  C6  UNL     1     -41.387  14.496   8.545  1.00 20.00     0.146 C 
HETATM    3  C1  UNL     1     -40.668  14.409   9.890  1.00 20.00     0.042 C 
BRANCH   2   4
HETATM    4  O10 UNL     1     -41.723  15.861   8.322  1.00 20.00    -0.388 OA
HETATM    5  C5  UNL     1     -40.686  16.546   7.634  1.00 20.00     0.202 C 
ENDBRANCH   2   4
ENDBRANCH   1   2
BRANCH   1   6
HETATM    6  C8  UNL     1     -41.303  13.102   6.290  1.00 20.00    -0.023 C 
HETATM    7  C2  UNL     1     -40.342  12.024   5.736  1.00 20.00     0.017 C 
HETATM    8  C3  UNL     1     -42.523  12.386   6.895  1.00 20.00     0.017 C 
HETATM    9  C4  UNL     1     -41.770  13.960   5.098  1.00 20.00     0.017 C 
ENDBRANCH   1   6
BRANCH   1  10
HETATM   10  O9  UNL     1     -39.497  13.111   7.909  1.00 20.00    -0.392 OA
HETATM   11  H28 UNL     1     -39.603  13.123   8.871  1.00 20.00     0.210 HD
ENDBRANCH   1  10
TORSDOF 4
ENDMDL
MODEL 5
REMARK VINA RESULT:      -3.3     16.834     19.164
REMARK  4 active torsions:
REMARK  status: ('A' for Active; 'I' for Inactive)
REMARK    1  A    between atoms: C6_6  and  C7_7 
REMARK    2  A    between atoms: C6_6  and  O10_10 
REMARK    3  A    between atoms: C7_7  and  C8_8 
REMARK    4  A    between atoms: C7_7  and  O9_9 
ROOT
HETATM    1  C7  UNL     1     -34.311  16.088  -5.571  1.00 20.00     0.154 C 
ENDROOT
BRANCH   1   2
HETATM    2  C6  UNL     1     -34.217  16.855  -4.235  1.00 20.00     0.146 C 
HETATM    3  C1  UNL     1     -33.314  16.161  -3.217  1.00 20.00     0.042 C 
BRANCH   2   4
HETATM    4  O10 UNL     1     -33.713  18.173  -4.430  1.00 20.00    -0.388 OA
HETATM    5  C5  UNL     1     -33.015  18.638  -3.284  1.00 20.00     0.202 C 
ENDBRANCH   2   4
ENDBRANCH   1   2
BRANCH   1   6
HETATM    6  C8  UNL     1     -35.688  15.436  -5.923  1.00 20.00    -0.023 C 
HETATM    7  C2  UNL     1     -36.814  16.415  -5.513  1.00 20.00     0.017 C 
HETATM    8  C3  UNL     1     -35.804  15.185  -7.437  1.00 20.00     0.017 C 
HETATM    9  C4  UNL     1     -35.937  14.110  -5.179  1.00 20.00     0.017 C 
ENDBRANCH   1   6
BRANCH   1  10
HETATM   10  O9  UNL     1     -33.314  15.062  -5.598  1.00 20.00    -0.392 OA
HETATM   11  H28 UNL     1     -33.138  14.831  -4.675  1.00 20.00     0.210 HD
ENDBRANCH   1  10
TORSDOF 4
ENDMDL
MODEL 6
REMARK VINA RESULT:      -3.3     13.961     16.532
REMARK  4 active torsions:
REMARK  status: ('A' for Active; 'I' for Inactive)
REMARK    1  A    between atoms: C6_6  and  C7_7 
REMARK    2  A    between atoms: C6_6  and  O10_10 
REMARK    3  A    between atoms: C7_7  and  C8_8 
REMARK    4  A    between atoms: C7_7  and  O9_9 
ROOT
HETATM    1  C7  UNL     1     -33.267  17.520  -2.778  1.00 20.00     0.154 C 
ENDROOT
BRANCH   1   2
HETATM    2  C6  UNL     1     -33.108  18.539  -1.630  1.00 20.00     0.146 C 
HETATM    3  C1  UNL     1     -33.572  17.989  -0.283  1.00 20.00     0.042 C 
BRANCH   2   4
HETATM    4  O10 UNL     1     -31.751  18.946  -1.486  1.00 20.00    -0.388 OA
HETATM    5  C5  UNL     1     -31.224  18.558  -0.226  1.00 20.00     0.202 C 
ENDBRANCH   2   4
ENDBRANCH   1   2
BRANCH   1   6
HETATM    6  C8  UNL     1     -34.223  17.913  -3.953  1.00 20.00    -0.023 C 
HETATM    7  C2  UNL     1     -33.546  19.028  -4.784  1.00 20.00     0.017 C 
HETATM    8  C3  UNL     1     -34.471  16.711  -4.883  1.00 20.00     0.017 C 
HETATM    9  C4  UNL     1     -35.581  18.457  -3.471  1.00 20.00     0.017 C 
ENDBRANCH   1   6
BRANCH   1  10
HETATM   10  O9  UNL     1     -33.714  16.270  -2.243  1.00 20.00    -0.392 OA
HETATM   11  H28 UNL     1     -32.932  15.842  -1.867  1.00 20.00     0.210 HD
ENDBRANCH   1  10
TORSDOF 4
ENDMDL
MODEL 7
REMARK VINA RESULT:      -3.3     16.824     19.155
REMARK  4 active torsions:
REMARK  status: ('A' for Active; 'I' for Inactive)
REMARK    1  A    between atoms: C6_6  and  C7_7 
REMARK    2  A    between atoms: C6_6  and  O10_10 
REMARK    3  A    between atoms: C7_7  and  C8_8 
REMARK    4  A    between atoms: C7_7  and  O9_9 
ROOT
HETATM    1  C7  UNL     1     -34.308  16.108  -5.581  1.00 20.00     0.154 C 
ENDROOT
BRANCH   1   2
HETATM    2  C6  UNL     1     -34.214  16.860  -4.237  1.00 20.00     0.146 C 
HETATM    3  C1  UNL     1     -33.322  16.148  -3.222  1.00 20.00     0.042 C 
BRANCH   2   4
HETATM    4  O10 UNL     1     -33.699  18.176  -4.416  1.00 20.00    -0.388 OA
HETATM    5  C5  UNL     1     -33.020  18.631  -3.255  1.00 20.00     0.202 C 
ENDBRANCH   2   4
ENDBRANCH   1   2
BRANCH   1   6
HETATM    6  C8  UNL     1     -35.701  15.511  -5.968  1.00 20.00    -0.023 C 
HETATM    7  C2  UNL     1     -35.883  14.167  -5.225  1.00 20.00     0.017 C 
HETATM    8  C3  UNL     1     -36.840  16.452  -5.536  1.00 20.00     0.017 C 
HETATM    9  C4  UNL     1     -35.837  15.225  -7.476  1.00 20.00     0.017 C 
ENDBRANCH   1   6
BRANCH   1  10
HETATM   10  O9  UNL     1     -33.350  15.045  -5.596  1.00 20.00    -0.392 OA
HETATM   11  H28 UNL     1     -32.912  15.087  -6.458  1.00 20.00     0.210 HD
ENDBRANCH   1  10
TORSDOF 4
ENDMDL
MODEL 8
REMARK VINA RESULT:      -3.2     18.875     20.468
REMARK  4 active torsions:
REMARK  status: ('A' for Active; 'I' for Inactive)
REMARK    1  A    between atoms: C6_6  and  C7_7 
REMARK    2  A    between atoms: C6_6  and  O10_10 
REMARK    3  A    between atoms: C7_7  and  C8_8 
REMARK    4  A    between atoms: C7_7  and  O9_9 
ROOT
HETATM    1  C7  UNL     1     -35.913  14.866  -5.537  1.00 20.00     0.154 C 
ENDROOT
BRANCH   1   2
HETATM    2  C6  UNL     1     -37.022  15.938  -5.562  1.00 20.00     0.146 C 
HETATM    3  C1  UNL     1     -37.285  16.485  -6.964  1.00 20.00     0.042 C 
BRANCH   2   4
HETATM    4  O10 UNL     1     -38.252  15.420  -5.063  1.00 20.00    -0.388 OA
HETATM    5  C5  UNL     1     -39.203  16.454  -4.852  1.00 20.00     0.202 C 
ENDBRANCH   2   4
ENDBRANCH   1   2
BRANCH   1   6
HETATM    6  C8  UNL     1     -34.440  15.368  -5.375  1.00 20.00    -0.023 C 
HETATM    7  C2  UNL     1     -33.744  15.300  -6.754  1.00 20.00     0.017 C 
HETATM    8  C3  UNL     1     -34.409  16.831  -4.898  1.00 20.00     0.017 C 
HETATM    9  C4  UNL     1     -33.613  14.509  -4.399  1.00 20.00     0.017 C 
ENDBRANCH   1   6
BRANCH   1  10
HETATM   10  O9  UNL     1     -35.985  14.082  -6.731  1.00 20.00    -0.392 OA
HETATM   11  H28 UNL     1     -35.142  13.611  -6.798  1.00 20.00     0.210 HD
ENDBRANCH   1  10
TORSDOF 4
ENDMDL
MODEL 9
REMARK VINA RESULT:      -3.2     17.804     18.961
REMARK  4 active torsions:
REMARK  status: ('A' for Active; 'I' for Inactive)
REMARK    1  A    between atoms: C6_6  and  C7_7 
REMARK    2  A    between atoms: C6_6  and  O10_10 
REMARK    3  A    between atoms: C7_7  and  C8_8 
REMARK    4  A    between atoms: C7_7  and  O9_9 
ROOT
HETATM    1  C7  UNL     1     -41.944  13.254   6.613  1.00 20.00     0.154 C 
ENDROOT
BRANCH   1   2
HETATM    2  C6  UNL     1     -40.727  13.248   5.664  1.00 20.00     0.146 C 
HETATM    3  C1  UNL     1     -39.939  11.941   5.722  1.00 20.00     0.042 C 
BRANCH   2   4
HETATM    4  O10 UNL     1     -41.126  13.451   4.312  1.00 20.00    -0.388 OA
HETATM    5  C5  UNL     1     -42.170  14.409   4.217  1.00 20.00     0.202 C 
ENDBRANCH   2   4
ENDBRANCH   1   2
BRANCH   1   6
HETATM    6  C8  UNL     1     -41.845  14.148   7.893  1.00 20.00    -0.023 C 
HETATM    7  C2  UNL     1     -42.399  15.552   7.555  1.00 20.00     0.017 C 
HETATM    8  C3  UNL     1     -42.695  13.564   9.036  1.00 20.00     0.017 C 
HETATM    9  C4  UNL     1     -40.399  14.331   8.392  1.00 20.00     0.017 C 
ENDBRANCH   1   6
BRANCH   1  10
HETATM   10  O9  UNL     1     -42.227  11.915   7.029  1.00 20.00    -0.392 OA
HETATM   11  H28 UNL     1     -41.716  11.336   6.445  1.00 20.00     0.210 HD
ENDBRANCH   1  10
TORSDOF 4
ENDMDL
