MODEL 1
REMARK VINA RESULT:      -3.6      0.000      0.000
REMARK  4 active torsions:
REMARK  status: ('A' for Active; 'I' for Inactive)
REMARK    1  A    between atoms: C4_4  and  C6_6 
REMARK    2  A    between atoms: C4_4  and  C7_7 
REMARK    3  A    between atoms: C5_5  and  C6_6 
REMARK    4  A    between atoms: C5_5  and  O8_8 
ROOT
HETATM    1  C1  UNL     1     -34.081   6.901   6.639  1.00 20.00     0.012 C 
HETATM    2  C6  UNL     1     -34.093   6.709   5.122  1.00 20.00     0.007 C 
ENDROOT
BRANCH   2   3
HETATM    3  C4  UNL     1     -34.169   8.054   4.359  1.00 20.00     0.026 C 
BRANCH   3   4
HETATM    4  C7  UNL     1     -32.847   8.564   3.763  1.00 20.00     0.078 C 
HETATM    5  C2  UNL     1     -32.061   7.424   3.127  1.00 20.00     0.026 C 
HETATM    6 CL9  UNL     1     -31.830   9.335   5.017  1.00 20.00    -0.125 Cl
ENDBRANCH   3   4
ENDBRANCH   2   3
BRANCH   2   7
HETATM    7  C5  UNL     1     -35.273   5.807   4.730  1.00 20.00     0.171 C 
BRANCH   7   8
HETATM    8  O8  UNL     1     -34.879   4.442   4.777  1.00 20.00    -0.396 OA
HETATM    9  C3  UNL     1     -33.707   4.209   4.008  1.00 20.00     0.201 C 
ENDBRANCH   7   8
ENDBRANCH   2   7
TORSDOF 4
ENDMDL
MODEL 2
REMARK VINA RESULT:      -3.5      3.108      4.425
REMARK  4 active torsions:
REMARK  status: ('A' for Active; 'I' for Inactive)
REMARK    1  A    between atoms: C4_4  and  C6_6 
REMARK    2  A    between atoms: C4_4  and  C7_7 
REMARK    3  A    between atoms: C5_5  and  C6_6 
REMARK    4  A    between atoms: C5_5  and  O8_8 
ROOT
HETATM    1  C1  UNL     1     -32.142   9.125   4.829  1.00 20.00     0.012 C 
HETATM    2  C6  UNL     1     -32.957   8.313   3.822  1.00 20.00     0.007 C 
ENDROOT
BRANCH   2   3
HETATM    3  C4  UNL     1     -33.090   6.827   4.234  1.00 20.00     0.026 C 
BRANCH   3   4
HETATM    4  C7  UNL     1     -34.367   6.454   5.005  1.00 20.00     0.078 C 
HETATM    5  C2  UNL     1     -34.223   6.780   6.487  1.00 20.00     0.026 C 
HETATM    6 CL9  UNL     1     -34.739   4.713   4.831  1.00 20.00    -0.125 Cl
ENDBRANCH   3   4
ENDBRANCH   2   3
BRANCH   2   7
HETATM    7  C5  UNL     1     -32.313   8.425   2.433  1.00 20.00     0.171 C 
BRANCH   7   8
HETATM    8  O8  UNL     1     -32.852   9.539   1.733  1.00 20.00    -0.396 OA
HETATM    9  C3  UNL     1     -32.733   9.380   0.327  1.00 20.00     0.201 C 
ENDBRANCH   7   8
ENDBRANCH   2   7
TORSDOF 4
ENDMDL
MODEL 3
REMARK VINA RESULT:      -3.5      2.850      4.315
REMARK  4 active torsions:
REMARK  status: ('A' for Active; 'I' for Inactive)
REMARK    1  A    between atoms: C4_4  and  C6_6 
REMARK    2  A    between atoms: C4_4  and  C7_7 
REMARK    3  A    between atoms: C5_5  and  C6_6 
REMARK    4  A    between atoms: C5_5  and  O8_8 
ROOT
HETATM    1  C1  UNL     1     -32.497   6.168   2.677  1.00 20.00     0.012 C 
HETATM    2  C6  UNL     1     -32.469   7.378   3.611  1.00 20.00     0.007 C 
ENDROOT
BRANCH   2   3
HETATM    3  C4  UNL     1     -33.625   7.355   4.640  1.00 20.00     0.026 C 
BRANCH   3   4
HETATM    4  C7  UNL     1     -34.288   5.987   4.876  1.00 20.00     0.078 C 
HETATM    5  C2  UNL     1     -35.708   5.969   4.322  1.00 20.00     0.026 C 
HETATM    6 CL9  UNL     1     -34.345   5.591   6.619  1.00 20.00    -0.125 Cl
ENDBRANCH   3   4
ENDBRANCH   2   3
BRANCH   2   7
HETATM    7  C5  UNL     1     -32.522   8.668   2.779  1.00 20.00     0.171 C 
BRANCH   7   8
HETATM    8  O8  UNL     1     -32.204   8.387   1.423  1.00 20.00    -0.396 OA
HETATM    9  C3  UNL     1     -32.758   9.356   0.544  1.00 20.00     0.201 C 
ENDBRANCH   7   8
ENDBRANCH   2   7
TORSDOF 4
ENDMDL
MODEL 4
REMARK VINA RESULT:      -3.5      2.655      4.113
REMARK  4 active torsions:
REMARK  status: ('A' for Active; 'I' for Inactive)
REMARK    1  A    between atoms: C4_4  and  C6_6 
REMARK    2  A    between atoms: C4_4  and  C7_7 
REMARK    3  A    between atoms: C5_5  and  C6_6 
REMARK    4  A    between atoms: C5_5  and  O8_8 
ROOT
HETATM    1  C1  UNL     1     -32.984   5.157   2.469  1.00 20.00     0.012 C 
HETATM    2  C6  UNL     1     -32.975   6.192   3.594  1.00 20.00     0.007 C 
ENDROOT
BRANCH   2   3
HETATM    3  C4  UNL     1     -34.402   6.557   4.070  1.00 20.00     0.026 C 
BRANCH   3   4
HETATM    4  C7  UNL     1     -34.789   6.065   5.474  1.00 20.00     0.078 C 
HETATM    5  C2  UNL     1     -34.231   6.993   6.548  1.00 20.00     0.026 C 
HETATM    6 CL9  UNL     1     -34.178   4.411   5.769  1.00 20.00    -0.125 Cl
ENDBRANCH   3   4
ENDBRANCH   2   3
BRANCH   2   7
HETATM    7  C5  UNL     1     -32.231   7.451   3.124  1.00 20.00     0.171 C 
BRANCH   7   8
HETATM    8  O8  UNL     1     -32.845   8.612   3.670  1.00 20.00    -0.396 OA
HETATM    9  C3  UNL     1     -32.109   9.121   4.774  1.00 20.00     0.201 C 
ENDBRANCH   7   8
ENDBRANCH   2   7
TORSDOF 4
ENDMDL
MODEL 5
REMARK VINA RESULT:      -3.4      2.323      3.401
REMARK  4 active torsions:
REMARK  status: ('A' for Active; 'I' for Inactive)
REMARK    1  A    between atoms: C4_4  and  C6_6 
REMARK    2  A    between atoms: C4_4  and  C7_7 
REMARK    3  A    between atoms: C5_5  and  C6_6 
REMARK    4  A    between atoms: C5_5  and  O8_8 
ROOT
HETATM    1  C1  UNL     1     -32.630   9.299   4.478  1.00 20.00     0.012 C 
HETATM    2  C6  UNL     1     -33.174   7.874   4.385  1.00 20.00     0.007 C 
ENDROOT
BRANCH   2   3
HETATM    3  C4  UNL     1     -33.419   7.244   5.777  1.00 20.00     0.026 C 
BRANCH   3   4
HETATM    4  C7  UNL     1     -34.659   6.343   5.900  1.00 20.00     0.078 C 
HETATM    5  C2  UNL     1     -34.260   4.913   6.245  1.00 20.00     0.026 C 
HETATM    6 CL9  UNL     1     -35.597   6.328   4.378  1.00 20.00    -0.125 Cl
ENDBRANCH   3   4
ENDBRANCH   2   3
BRANCH   2   7
HETATM    7  C5  UNL     1     -32.201   7.007   3.571  1.00 20.00     0.171 C 
BRANCH   7   8
HETATM    8  O8  UNL     1     -32.889   6.378   2.498  1.00 20.00    -0.396 OA
HETATM    9  C3  UNL     1     -32.866   4.963   2.620  1.00 20.00     0.201 C 
ENDBRANCH   7   8
ENDBRANCH   2   7
TORSDOF 4
ENDMDL
MODEL 6
REMARK VINA RESULT:      -3.2     12.449     12.926
REMARK  4 active torsions:
REMARK  status: ('A' for Active; 'I' for Inactive)
REMARK    1  A    between atoms: C4_4  and  C6_6 
REMARK    2  A    between atoms: C4_4  and  C7_7 
REMARK    3  A    between atoms: C5_5  and  C6_6 
REMARK    4  A    between atoms: C5_5  and  O8_8 
ROOT
HETATM    1  C1  UNL     1     -33.430  18.451   0.803  1.00 20.00     0.012 C 
HETATM    2  C6  UNL     1     -32.301  18.909  -0.119  1.00 20.00     0.007 C 
ENDROOT
BRANCH   2   3
HETATM    3  C4  UNL     1     -32.462  18.368  -1.560  1.00 20.00     0.026 C 
BRANCH   3   4
HETATM    4  C7  UNL     1     -33.683  17.467  -1.808  1.00 20.00     0.078 C 
HETATM    5  C2  UNL     1     -33.357  16.375  -2.821  1.00 20.00     0.026 C 
HETATM    6 CL9  UNL     1     -35.072  18.417  -2.414  1.00 20.00    -0.125 Cl
ENDBRANCH   3   4
ENDBRANCH   2   3
BRANCH   2   7
HETATM    7  C5  UNL     1     -30.951  18.470   0.467  1.00 20.00     0.171 C 
BRANCH   7   8
HETATM    8  O8  UNL     1     -31.093  18.176   1.851  1.00 20.00    -0.396 OA
HETATM    9  C3  UNL     1     -30.046  18.754   2.618  1.00 20.00     0.201 C 
ENDBRANCH   7   8
ENDBRANCH   2   7
TORSDOF 4
ENDMDL
MODEL 7
REMARK VINA RESULT:      -3.1      1.592      2.420
REMARK  4 active torsions:
REMARK  status: ('A' for Active; 'I' for Inactive)
REMARK    1  A    between atoms: C4_4  and  C6_6 
REMARK    2  A    between atoms: C4_4  and  C7_7 
REMARK    3  A    between atoms: C5_5  and  C6_6 
REMARK    4  A    between atoms: C5_5  and  O8_8 
ROOT
HETATM    1  C1  UNL     1     -32.686   5.353   2.601  1.00 20.00     0.012 C 
HETATM    2  C6  UNL     1     -33.906   5.696   3.456  1.00 20.00     0.007 C 
ENDROOT
BRANCH   2   3
HETATM    3  C4  UNL     1     -33.779   7.082   4.134  1.00 20.00     0.026 C 
BRANCH   3   4
HETATM    4  C7  UNL     1     -32.500   7.873   3.812  1.00 20.00     0.078 C 
HETATM    5  C2  UNL     1     -32.137   8.810   4.959  1.00 20.00     0.026 C 
HETATM    6 CL9  UNL     1     -32.699   8.840   2.321  1.00 20.00    -0.125 Cl
ENDBRANCH   3   4
ENDBRANCH   2   3
BRANCH   2   7
HETATM    7  C5  UNL     1     -34.113   4.603   4.515  1.00 20.00     0.171 C 
BRANCH   7   8
HETATM    8  O8  UNL     1     -35.155   4.978   5.406  1.00 20.00    -0.396 OA
HETATM    9  C3  UNL     1     -34.642   5.394   6.664  1.00 20.00     0.201 C 
ENDBRANCH   7   8
ENDBRANCH   2   7
TORSDOF 4
ENDMDL
MODEL 8
REMARK VINA RESULT:      -3.1     12.356     13.249
REMARK  4 active torsions:
REMARK  status: ('A' for Active; 'I' for Inactive)
REMARK    1  A    between atoms: C4_4  and  C6_6 
REMARK    2  A    between atoms: C4_4  and  C7_7 
REMARK    3  A    between atoms: C5_5  and  C6_6 
REMARK    4  A    between atoms: C5_5  and  O8_8 
ROOT
HETATM    1  C1  UNL     1     -33.404  15.542  -3.746  1.00 20.00     0.012 C 
HETATM    2  C6  UNL     1     -33.204  16.936  -3.151  1.00 20.00     0.007 C 
ENDROOT
BRANCH   2   3
HETATM    3  C4  UNL     1     -33.580  16.996  -1.651  1.00 20.00     0.026 C 
BRANCH   3   4
HETATM    4  C7  UNL     1     -33.236  18.307  -0.924  1.00 20.00     0.078 C 
HETATM    5  C2  UNL     1     -31.730  18.443  -0.731  1.00 20.00     0.026 C 
HETATM    6 CL9  UNL     1     -34.030  18.382   0.677  1.00 20.00    -0.125 Cl
ENDBRANCH   3   4
ENDBRANCH   2   3
BRANCH   2   7
HETATM    7  C5  UNL     1     -34.030  17.956  -3.949  1.00 20.00     0.171 C 
BRANCH   7   8
HETATM    8  O8  UNL     1     -34.980  17.283  -4.765  1.00 20.00    -0.396 OA
HETATM    9  C3  UNL     1     -36.278  17.845  -4.627  1.00 20.00     0.201 C 
ENDBRANCH   7   8
ENDBRANCH   2   7
TORSDOF 4
ENDMDL
MODEL 9
REMARK VINA RESULT:      -3.1      9.240     10.185
REMARK  4 active torsions:
REMARK  status: ('A' for Active; 'I' for Inactive)
REMARK    1  A    between atoms: C4_4  and  C6_6 
REMARK    2  A    between atoms: C4_4  and  C7_7 
REMARK    3  A    between atoms: C5_5  and  C6_6 
REMARK    4  A    between atoms: C5_5  and  O8_8 
ROOT
HETATM    1  C1  UNL     1     -42.518  12.227   6.875  1.00 20.00     0.012 C 
HETATM    2  C6  UNL     1     -41.979  13.522   6.266  1.00 20.00     0.007 C 
ENDROOT
BRANCH   2   3
HETATM    3  C4  UNL     1     -40.787  13.272   5.311  1.00 20.00     0.026 C 
BRANCH   3   4
HETATM    4  C7  UNL     1     -40.033  11.946   5.510  1.00 20.00     0.078 C 
HETATM    5  C2  UNL     1     -38.953  12.089   6.576  1.00 20.00     0.026 C 
HETATM    6 CL9  UNL     1     -39.269  11.405   3.986  1.00 20.00    -0.125 Cl
ENDBRANCH   3   4
ENDBRANCH   2   3
BRANCH   2   7
HETATM    7  C5  UNL     1     -41.569  14.484   7.390  1.00 20.00     0.171 C 
BRANCH   7   8
HETATM    8  O8  UNL     1     -41.265  13.753   8.571  1.00 20.00    -0.396 OA
HETATM    9  C3  UNL     1     -40.419  14.493   9.440  1.00 20.00     0.201 C 
ENDBRANCH   7   8
ENDBRANCH   2   7
TORSDOF 4
ENDMDL
