MODEL 1
REMARK VINA RESULT:      -3.9      0.000      0.000
REMARK  2 active torsions:
REMARK  status: ('A' for Active; 'I' for Inactive)
REMARK    1  A    between atoms: C4_4  and  C7_7 
REMARK    2  A    between atoms: C7_7  and  O8_8 
ROOT
HETATM    1  C1  UNL     1     -34.086   6.765   6.622  1.00 20.00     0.008 C 
HETATM    2  C2  UNL     1     -34.644   5.366   6.347  1.00 20.00     0.016 C 
HETATM    3  C3  UNL     1     -34.675   6.715   4.312  1.00 20.00     0.022 C 
HETATM    4  C4  UNL     1     -33.622   7.281   5.263  1.00 20.00     0.011 C 
HETATM    5  C5  UNL     1     -34.931   5.311   4.846  1.00 20.00     0.058 C 
HETATM    6 BR9  UNL     1     -33.725   4.038   3.977  1.00 20.00    -0.091 Br
ENDROOT
BRANCH   4   7
HETATM    7  C7  UNL     1     -33.513   8.795   5.204  1.00 20.00     0.171 C 
BRANCH   7   8
HETATM    8  O8  UNL     1     -32.288   9.142   4.582  1.00 20.00    -0.396 OA
HETATM    9  C6  UNL     1     -31.794   8.085   3.769  1.00 20.00     0.201 C 
ENDBRANCH   7   8
ENDBRANCH   4   7
TORSDOF 2
ENDMDL
MODEL 2
REMARK VINA RESULT:      -3.8      2.509      3.786
REMARK  2 active torsions:
REMARK  status: ('A' for Active; 'I' for Inactive)
REMARK    1  A    between atoms: C4_4  and  C7_7 
REMARK    2  A    between atoms: C7_7  and  O8_8 
ROOT
HETATM    1  C1  UNL     1     -33.648   7.950   5.039  1.00 20.00     0.008 C 
HETATM    2  C2  UNL     1     -32.383   8.492   4.366  1.00 20.00     0.016 C 
HETATM    3  C3  UNL     1     -33.024   6.349   3.386  1.00 20.00     0.022 C 
HETATM    4  C4  UNL     1     -34.257   6.989   4.022  1.00 20.00     0.011 C 
HETATM    5  C5  UNL     1     -32.044   7.507   3.246  1.00 20.00     0.058 C 
HETATM    6 BR9  UNL     1     -32.274   8.367   1.503  1.00 20.00    -0.091 Br
ENDROOT
BRANCH   4   7
HETATM    7  C7  UNL     1     -35.201   5.976   4.649  1.00 20.00     0.171 C 
BRANCH   7   8
HETATM    8  O8  UNL     1     -34.436   4.926   5.214  1.00 20.00    -0.396 OA
HETATM    9  C6  UNL     1     -34.331   5.054   6.626  1.00 20.00     0.201 C 
ENDBRANCH   7   8
ENDBRANCH   4   7
TORSDOF 2
ENDMDL
MODEL 3
REMARK VINA RESULT:      -3.8     12.690     13.665
REMARK  2 active torsions:
REMARK  status: ('A' for Active; 'I' for Inactive)
REMARK    1  A    between atoms: C4_4  and  C7_7 
REMARK    2  A    between atoms: C7_7  and  O8_8 
ROOT
HETATM    1  C1  UNL     1     -33.217  18.135  -3.702  1.00 20.00     0.008 C 
HETATM    2  C2  UNL     1     -33.007  19.243  -2.666  1.00 20.00     0.016 C 
HETATM    3  C3  UNL     1     -33.600  17.144  -1.567  1.00 20.00     0.022 C 
HETATM    4  C4  UNL     1     -33.001  16.832  -2.937  1.00 20.00     0.011 C 
HETATM    5  C5  UNL     1     -33.161  18.579  -1.297  1.00 20.00     0.058 C 
HETATM    6 BR9  UNL     1     -31.448  18.585  -0.350  1.00 20.00    -0.091 Br
ENDROOT
BRANCH   4   7
HETATM    7  C7  UNL     1     -33.644  15.630  -3.611  1.00 20.00     0.171 C 
BRANCH   7   8
HETATM    8  O8  UNL     1     -34.276  16.059  -4.805  1.00 20.00    -0.396 OA
HETATM    9  C6  UNL     1     -34.103  15.118  -5.857  1.00 20.00     0.201 C 
ENDBRANCH   7   8
ENDBRANCH   4   7
TORSDOF 2
ENDMDL
MODEL 4
REMARK VINA RESULT:      -3.7      1.876      2.535
REMARK  2 active torsions:
REMARK  status: ('A' for Active; 'I' for Inactive)
REMARK    1  A    between atoms: C4_4  and  C7_7 
REMARK    2  A    between atoms: C7_7  and  O8_8 
ROOT
HETATM    1  C1  UNL     1     -32.715   8.371   4.743  1.00 20.00     0.008 C 
HETATM    2  C2  UNL     1     -33.713   8.007   5.846  1.00 20.00     0.016 C 
HETATM    3  C3  UNL     1     -34.140   6.689   3.835  1.00 20.00     0.022 C 
HETATM    4  C4  UNL     1     -32.686   7.158   3.818  1.00 20.00     0.011 C 
HETATM    5  C5  UNL     1     -34.562   6.863   5.289  1.00 20.00     0.058 C 
HETATM    6 BR9  UNL     1     -34.208   5.217   6.287  1.00 20.00    -0.091 Br
ENDROOT
BRANCH   4   7
HETATM    7  C7  UNL     1     -32.178   7.482   2.423  1.00 20.00     0.171 C 
BRANCH   7   8
HETATM    8  O8  UNL     1     -32.551   8.810   2.097  1.00 20.00    -0.396 OA
HETATM    9  C6  UNL     1     -32.573   9.019   0.691  1.00 20.00     0.201 C 
ENDBRANCH   7   8
ENDBRANCH   4   7
TORSDOF 2
ENDMDL
MODEL 5
REMARK VINA RESULT:      -3.7     12.633     12.936
REMARK  2 active torsions:
REMARK  status: ('A' for Active; 'I' for Inactive)
REMARK    1  A    between atoms: C4_4  and  C7_7 
REMARK    2  A    between atoms: C7_7  and  O8_8 
ROOT
HETATM    1  C1  UNL     1     -33.175  18.818   1.001  1.00 20.00     0.008 C 
HETATM    2  C2  UNL     1     -34.168  18.624  -0.147  1.00 20.00     0.016 C 
HETATM    3  C3  UNL     1     -31.926  19.049  -1.017  1.00 20.00     0.022 C 
HETATM    4  C4  UNL     1     -31.808  18.496   0.402  1.00 20.00     0.011 C 
HETATM    5  C5  UNL     1     -33.344  18.679  -1.435  1.00 20.00     0.058 C 
HETATM    6 BR9  UNL     1     -33.346  16.928  -2.309  1.00 20.00    -0.091 Br
ENDROOT
BRANCH   4   7
HETATM    7  C7  UNL     1     -30.655  19.101   1.186  1.00 20.00     0.171 C 
BRANCH   7   8
HETATM    8  O8  UNL     1     -30.240  18.177   2.176  1.00 20.00    -0.396 OA
HETATM    9  C6  UNL     1     -29.375  18.781   3.129  1.00 20.00     0.201 C 
ENDBRANCH   7   8
ENDBRANCH   4   7
TORSDOF 2
ENDMDL
MODEL 6
REMARK VINA RESULT:      -3.5     12.484     13.009
REMARK  2 active torsions:
REMARK  status: ('A' for Active; 'I' for Inactive)
REMARK    1  A    between atoms: C4_4  and  C7_7 
REMARK    2  A    between atoms: C7_7  and  O8_8 
ROOT
HETATM    1  C1  UNL     1     -34.421  18.882  -0.470  1.00 20.00     0.008 C 
HETATM    2  C2  UNL     1     -34.651  18.633  -1.962  1.00 20.00     0.016 C 
HETATM    3  C3  UNL     1     -32.287  18.380  -1.408  1.00 20.00     0.022 C 
HETATM    4  C4  UNL     1     -33.116  18.159  -0.144  1.00 20.00     0.011 C 
HETATM    5  C5  UNL     1     -33.296  18.220  -2.538  1.00 20.00     0.058 C 
HETATM    6 BR9  UNL     1     -33.354  16.352  -3.120  1.00 20.00    -0.091 Br
ENDROOT
BRANCH   4   7
HETATM    7  C7  UNL     1     -32.441  18.681   1.114  1.00 20.00     0.171 C 
BRANCH   7   8
HETATM    8  O8  UNL     1     -31.037  18.590   0.950  1.00 20.00    -0.396 OA
HETATM    9  C6  UNL     1     -30.368  18.491   2.201  1.00 20.00     0.201 C 
ENDBRANCH   7   8
ENDBRANCH   4   7
TORSDOF 2
ENDMDL
MODEL 7
REMARK VINA RESULT:      -3.4     12.547     13.298
REMARK  2 active torsions:
REMARK  status: ('A' for Active; 'I' for Inactive)
REMARK    1  A    between atoms: C4_4  and  C7_7 
REMARK    2  A    between atoms: C7_7  and  O8_8 
ROOT
HETATM    1  C1  UNL     1     -33.643  15.255  -3.626  1.00 20.00     0.008 C 
HETATM    2  C2  UNL     1     -34.374  14.551  -4.772  1.00 20.00     0.016 C 
HETATM    3  C3  UNL     1     -34.932  16.928  -4.732  1.00 20.00     0.022 C 
HETATM    4  C4  UNL     1     -33.589  16.725  -4.034  1.00 20.00     0.011 C 
HETATM    5  C5  UNL     1     -35.124  15.646  -5.533  1.00 20.00     0.058 C 
HETATM    6 BR9  UNL     1     -34.365  15.859  -7.324  1.00 20.00    -0.091 Br
ENDROOT
BRANCH   4   7
HETATM    7  C7  UNL     1     -33.379  17.664  -2.858  1.00 20.00     0.171 C 
BRANCH   7   8
HETATM    8  O8  UNL     1     -33.582  16.943  -1.655  1.00 20.00    -0.396 OA
HETATM    9  C6  UNL     1     -33.720  17.814  -0.538  1.00 20.00     0.201 C 
ENDBRANCH   7   8
ENDBRANCH   4   7
TORSDOF 2
ENDMDL
MODEL 8
REMARK VINA RESULT:      -3.4     13.060     13.939
REMARK  2 active torsions:
REMARK  status: ('A' for Active; 'I' for Inactive)
REMARK    1  A    between atoms: C4_4  and  C7_7 
REMARK    2  A    between atoms: C7_7  and  O8_8 
ROOT
HETATM    1  C1  UNL     1     -33.332  15.840  -3.461  1.00 20.00     0.008 C 
HETATM    2  C2  UNL     1     -33.441  17.135  -2.651  1.00 20.00     0.016 C 
HETATM    3  C3  UNL     1     -34.128  17.510  -4.964  1.00 20.00     0.022 C 
HETATM    4  C4  UNL     1     -34.286  16.027  -4.637  1.00 20.00     0.011 C 
HETATM    5  C5  UNL     1     -34.040  18.177  -3.597  1.00 20.00     0.058 C 
HETATM    6 BR9  UNL     1     -35.829  18.687  -2.988  1.00 20.00    -0.091 Br
ENDROOT
BRANCH   4   7
HETATM    7  C7  UNL     1     -33.969  15.118  -5.814  1.00 20.00     0.171 C 
BRANCH   7   8
HETATM    8  O8  UNL     1     -35.185  14.642  -6.364  1.00 20.00    -0.396 OA
HETATM    9  C6  UNL     1     -36.112  14.274  -5.350  1.00 20.00     0.201 C 
ENDBRANCH   7   8
ENDBRANCH   4   7
TORSDOF 2
ENDMDL
MODEL 9
REMARK VINA RESULT:      -3.4      9.438     10.096
REMARK  2 active torsions:
REMARK  status: ('A' for Active; 'I' for Inactive)
REMARK    1  A    between atoms: C4_4  and  C7_7 
REMARK    2  A    between atoms: C7_7  and  O8_8 
ROOT
HETATM    1  C1  UNL     1     -41.824  12.371   6.506  1.00 20.00     0.008 C 
HETATM    2  C2  UNL     1     -42.718  13.459   7.106  1.00 20.00     0.016 C 
HETATM    3  C3  UNL     1     -40.374  13.883   7.646  1.00 20.00     0.022 C 
HETATM    4  C4  UNL     1     -40.442  13.011   6.394  1.00 20.00     0.011 C 
HETATM    5  C5  UNL     1     -41.775  14.474   7.755  1.00 20.00     0.058 C 
HETATM    6 BR9  UNL     1     -41.855  16.176   6.792  1.00 20.00    -0.091 Br
ENDROOT
BRANCH   4   7
HETATM    7  C7  UNL     1     -39.317  11.992   6.312  1.00 20.00     0.171 C 
BRANCH   7   8
HETATM    8  O8  UNL     1     -38.496  12.306   5.201  1.00 20.00    -0.396 OA
HETATM    9  C6  UNL     1     -38.968  11.689   4.009  1.00 20.00     0.201 C 
ENDBRANCH   7   8
ENDBRANCH   4   7
TORSDOF 2
ENDMDL
