MODEL 1
REMARK VINA RESULT:      -4.4      0.000      0.000
REMARK  3 active torsions:
REMARK  status: ('A' for Active; 'I' for Inactive)
REMARK    1  A    between atoms: C3_3  and  C5_5 
REMARK    2  A    between atoms: C6_6  and  C8_8 
REMARK    3  A    between atoms: C8_8  and  C9_9 
ROOT
HETATM    1  C1  UNL     1     -31.063  18.499  -0.002  1.00 20.00     0.026 A 
HETATM    2  C2  UNL     1     -33.324  18.884   0.369  1.00 20.00     0.061 A 
HETATM    3  C3  UNL     1     -32.378  18.490  -0.551  1.00 20.00    -0.029 A 
HETATM    4  C4  UNL     1     -31.053  18.900   1.315  1.00 20.00    -0.021 A 
HETATM    5  C7  UNL     1     -29.897  19.040   2.227  1.00 20.00     0.056 C 
HETATM    6  S10 UNL     1     -32.626  19.263   1.886  1.00 20.00    -0.106 SA
ENDROOT
BRANCH   3   7
HETATM    7  C5  UNL     1     -32.716  18.109  -1.932  1.00 20.00     0.008 C 
HETATM    8  C6  UNL     1     -33.330  16.970  -2.290  1.00 20.00    -0.025 C 
BRANCH   8   9
HETATM    9  C8  UNL     1     -33.648  16.617  -3.716  1.00 20.00     0.042 C 
BRANCH   9  10
HETATM   10  C9  UNL     1     -33.184  15.213  -4.093  1.00 20.00     0.118 C 
HETATM   11 CL11 UNL     1     -34.535  14.052  -4.091  1.00 20.00    -0.130 Cl
ENDBRANCH   9  10
ENDBRANCH   8   9
ENDBRANCH   3   7
TORSDOF 3
ENDMDL
MODEL 2
REMARK VINA RESULT:      -4.3      1.870      2.943
REMARK  3 active torsions:
REMARK  status: ('A' for Active; 'I' for Inactive)
REMARK    1  A    between atoms: C3_3  and  C5_5 
REMARK    2  A    between atoms: C6_6  and  C8_8 
REMARK    3  A    between atoms: C8_8  and  C9_9 
ROOT
HETATM    1  C1  UNL     1     -29.830  18.663   2.146  1.00 20.00     0.026 A 
HETATM    2  C2  UNL     1     -31.794  19.259   3.237  1.00 20.00     0.061 A 
HETATM    3  C3  UNL     1     -31.227  18.923   2.028  1.00 20.00    -0.029 A 
HETATM    4  C4  UNL     1     -29.383  18.813   3.439  1.00 20.00    -0.021 A 
HETATM    5  C7  UNL     1     -28.012  18.635   3.966  1.00 20.00     0.056 C 
HETATM    6  S10 UNL     1     -30.644  19.263   4.507  1.00 20.00    -0.106 SA
ENDROOT
BRANCH   3   7
HETATM    7  C5  UNL     1     -31.999  18.847   0.778  1.00 20.00     0.008 C 
HETATM    8  C6  UNL     1     -31.492  18.532  -0.425  1.00 20.00    -0.025 C 
BRANCH   8   9
HETATM    9  C8  UNL     1     -32.318  18.476  -1.680  1.00 20.00     0.042 C 
BRANCH   9  10
HETATM   10  C9  UNL     1     -33.307  17.314  -1.683  1.00 20.00     0.118 C 
HETATM   11 CL11 UNL     1     -33.392  16.529  -3.280  1.00 20.00    -0.130 Cl
ENDBRANCH   9  10
ENDBRANCH   8   9
ENDBRANCH   3   7
TORSDOF 3
ENDMDL
MODEL 3
REMARK VINA RESULT:      -4.3      3.558      5.966
REMARK  3 active torsions:
REMARK  status: ('A' for Active; 'I' for Inactive)
REMARK    1  A    between atoms: C3_3  and  C5_5 
REMARK    2  A    between atoms: C6_6  and  C8_8 
REMARK    3  A    between atoms: C8_8  and  C9_9 
ROOT
HETATM    1  C1  UNL     1     -33.284  15.992  -3.367  1.00 20.00     0.026 A 
HETATM    2  C2  UNL     1     -34.461  17.996  -3.353  1.00 20.00     0.061 A 
HETATM    3  C3  UNL     1     -33.523  17.228  -2.699  1.00 20.00    -0.029 A 
HETATM    4  C4  UNL     1     -34.049  15.861  -4.505  1.00 20.00    -0.021 A 
HETATM    5  C7  UNL     1     -34.090  14.735  -5.462  1.00 20.00     0.056 C 
HETATM    6  S10 UNL     1     -35.050  17.226  -4.765  1.00 20.00    -0.106 SA
ENDROOT
BRANCH   3   7
HETATM    7  C5  UNL     1     -32.862  17.661  -1.458  1.00 20.00     0.008 C 
HETATM    8  C6  UNL     1     -33.496  18.079  -0.351  1.00 20.00    -0.025 C 
BRANCH   8   9
HETATM    9  C8  UNL     1     -32.778  18.523   0.894  1.00 20.00     0.042 C 
BRANCH   9  10
HETATM   10  C9  UNL     1     -31.281  18.716   0.673  1.00 20.00     0.118 C 
HETATM   11 CL11 UNL     1     -30.343  18.297   2.128  1.00 20.00    -0.130 Cl
ENDBRANCH   9  10
ENDBRANCH   8   9
ENDBRANCH   3   7
TORSDOF 3
ENDMDL
MODEL 4
REMARK VINA RESULT:      -4.2      3.758      6.299
REMARK  3 active torsions:
REMARK  status: ('A' for Active; 'I' for Inactive)
REMARK    1  A    between atoms: C3_3  and  C5_5 
REMARK    2  A    between atoms: C6_6  and  C8_8 
REMARK    3  A    between atoms: C8_8  and  C9_9 
ROOT
HETATM    1  C1  UNL     1     -34.580  17.351  -4.176  1.00 20.00     0.026 A 
HETATM    2  C2  UNL     1     -33.257  15.471  -3.834  1.00 20.00     0.061 A 
HETATM    3  C3  UNL     1     -33.610  16.712  -3.351  1.00 20.00    -0.029 A 
HETATM    4  C4  UNL     1     -34.931  16.576  -5.259  1.00 20.00    -0.021 A 
HETATM    5  C7  UNL     1     -35.896  16.883  -6.337  1.00 20.00     0.056 C 
HETATM    6  S10 UNL     1     -34.094  15.082  -5.278  1.00 20.00    -0.106 SA
ENDROOT
BRANCH   3   7
HETATM    7  C5  UNL     1     -33.035  17.283  -2.123  1.00 20.00     0.008 C 
HETATM    8  C6  UNL     1     -33.736  17.632  -1.033  1.00 20.00    -0.025 C 
BRANCH   8   9
HETATM    9  C8  UNL     1     -33.107  18.222   0.199  1.00 20.00     0.042 C 
BRANCH   9  10
HETATM   10  C9  UNL     1     -31.625  18.534   0.013  1.00 20.00     0.118 C 
HETATM   11 CL11 UNL     1     -30.696  18.220   1.500  1.00 20.00    -0.130 Cl
ENDBRANCH   9  10
ENDBRANCH   8   9
ENDBRANCH   3   7
TORSDOF 3
ENDMDL
MODEL 5
REMARK VINA RESULT:      -4.1      3.707      5.929
REMARK  3 active torsions:
REMARK  status: ('A' for Active; 'I' for Inactive)
REMARK    1  A    between atoms: C3_3  and  C5_5 
REMARK    2  A    between atoms: C6_6  and  C8_8 
REMARK    3  A    between atoms: C8_8  and  C9_9 
ROOT
HETATM    1  C1  UNL     1     -33.218  16.594  -2.324  1.00 20.00     0.026 A 
HETATM    2  C2  UNL     1     -33.406  18.697  -3.294  1.00 20.00     0.061 A 
HETATM    3  C3  UNL     1     -33.064  18.001  -2.156  1.00 20.00    -0.029 A 
HETATM    4  C4  UNL     1     -33.673  16.268  -3.582  1.00 20.00    -0.021 A 
HETATM    5  C7  UNL     1     -33.957  14.929  -4.141  1.00 20.00     0.056 C 
HETATM    6  S10 UNL     1     -33.911  17.656  -4.557  1.00 20.00    -0.106 SA
ENDROOT
BRANCH   3   7
HETATM    7  C5  UNL     1     -32.597  18.660  -0.926  1.00 20.00     0.008 C 
HETATM    8  C6  UNL     1     -31.352  18.579  -0.432  1.00 20.00    -0.025 C 
BRANCH   8   9
HETATM    9  C8  UNL     1     -30.920  19.263   0.835  1.00 20.00     0.042 C 
BRANCH   9  10
HETATM   10  C9  UNL     1     -30.693  18.285   1.984  1.00 20.00     0.118 C 
HETATM   11 CL11 UNL     1     -29.308  18.769   2.995  1.00 20.00    -0.130 Cl
ENDBRANCH   9  10
ENDBRANCH   8   9
ENDBRANCH   3   7
TORSDOF 3
ENDMDL
MODEL 6
REMARK VINA RESULT:      -4.0      1.602      2.408
REMARK  3 active torsions:
REMARK  status: ('A' for Active; 'I' for Inactive)
REMARK    1  A    between atoms: C3_3  and  C5_5 
REMARK    2  A    between atoms: C6_6  and  C8_8 
REMARK    3  A    between atoms: C8_8  and  C9_9 
ROOT
HETATM    1  C1  UNL     1     -34.132  17.984  -0.727  1.00 20.00     0.026 A 
HETATM    2  C2  UNL     1     -31.851  18.379  -0.928  1.00 20.00     0.061 A 
HETATM    3  C3  UNL     1     -32.951  17.777  -1.498  1.00 20.00    -0.029 A 
HETATM    4  C4  UNL     1     -33.890  18.734   0.402  1.00 20.00    -0.021 A 
HETATM    5  C7  UNL     1     -34.845  19.161   1.447  1.00 20.00     0.056 C 
HETATM    6  S10 UNL     1     -32.243  19.188   0.529  1.00 20.00    -0.106 SA
ENDROOT
BRANCH   3   7
HETATM    7  C5  UNL     1     -32.884  17.017  -2.756  1.00 20.00     0.008 C 
HETATM    8  C6  UNL     1     -33.590  15.908  -3.026  1.00 20.00    -0.025 C 
BRANCH   8   9
HETATM    9  C8  UNL     1     -33.482  15.156  -4.324  1.00 20.00     0.042 C 
BRANCH   9  10
HETATM   10  C9  UNL     1     -34.808  15.085  -5.075  1.00 20.00     0.118 C 
HETATM   11 CL11 UNL     1     -35.765  13.664  -4.587  1.00 20.00    -0.130 Cl
ENDBRANCH   9  10
ENDBRANCH   8   9
ENDBRANCH   3   7
TORSDOF 3
ENDMDL
MODEL 7
REMARK VINA RESULT:      -3.6      3.619      5.769
REMARK  3 active torsions:
REMARK  status: ('A' for Active; 'I' for Inactive)
REMARK    1  A    between atoms: C3_3  and  C5_5 
REMARK    2  A    between atoms: C6_6  and  C8_8 
REMARK    3  A    between atoms: C8_8  and  C9_9 
ROOT
HETATM    1  C1  UNL     1     -28.659  19.120   5.166  1.00 20.00     0.026 A 
HETATM    2  C2  UNL     1     -27.596  19.263   3.104  1.00 20.00     0.061 A 
HETATM    3  C3  UNL     1     -28.810  19.182   3.750  1.00 20.00    -0.029 A 
HETATM    4  C4  UNL     1     -27.336  19.155   5.548  1.00 20.00    -0.021 A 
HETATM    5  C7  UNL     1     -26.770  19.111   6.914  1.00 20.00     0.056 C 
HETATM    6  S10 UNL     1     -26.282  19.262   4.203  1.00 20.00    -0.106 SA
ENDROOT
BRANCH   3   7
HETATM    7  C5  UNL     1     -30.096  19.165   3.035  1.00 20.00     0.008 C 
HETATM    8  C6  UNL     1     -30.239  19.243   1.702  1.00 20.00    -0.025 C 
BRANCH   8   9
HETATM    9  C8  UNL     1     -31.575  19.231   1.013  1.00 20.00     0.042 C 
BRANCH   9  10
HETATM   10  C9  UNL     1     -31.534  18.526  -0.339  1.00 20.00     0.118 C 
HETATM   11 CL11 UNL     1     -33.116  17.825  -0.763  1.00 20.00    -0.130 Cl
ENDBRANCH   9  10
ENDBRANCH   8   9
ENDBRANCH   3   7
TORSDOF 3
ENDMDL
MODEL 8
REMARK VINA RESULT:      -3.6      2.498      3.585
REMARK  3 active torsions:
REMARK  status: ('A' for Active; 'I' for Inactive)
REMARK    1  A    between atoms: C3_3  and  C5_5 
REMARK    2  A    between atoms: C6_6  and  C8_8 
REMARK    3  A    between atoms: C8_8  and  C9_9 
ROOT
HETATM    1  C1  UNL     1     -33.663  16.857  -1.639  1.00 20.00     0.026 A 
HETATM    2  C2  UNL     1     -32.894  18.252  -3.332  1.00 20.00     0.061 A 
HETATM    3  C3  UNL     1     -33.380  16.999  -3.029  1.00 20.00    -0.029 A 
HETATM    4  C4  UNL     1     -33.380  18.005  -0.933  1.00 20.00    -0.021 A 
HETATM    5  C7  UNL     1     -33.535  18.255   0.517  1.00 20.00     0.056 C 
HETATM    6  S10 UNL     1     -32.778  19.249  -1.944  1.00 20.00    -0.106 SA
ENDROOT
BRANCH   3   7
HETATM    7  C5  UNL     1     -33.575  15.952  -4.044  1.00 20.00     0.008 C 
HETATM    8  C6  UNL     1     -34.450  16.016  -5.061  1.00 20.00    -0.025 C 
BRANCH   8   9
HETATM    9  C8  UNL     1     -34.623  14.916  -6.071  1.00 20.00     0.042 C 
BRANCH   9  10
HETATM   10  C9  UNL     1     -35.859  15.109  -6.945  1.00 20.00     0.118 C 
HETATM   11 CL11 UNL     1     -36.541  16.745  -6.766  1.00 20.00    -0.130 Cl
ENDBRANCH   9  10
ENDBRANCH   8   9
ENDBRANCH   3   7
TORSDOF 3
ENDMDL
MODEL 9
REMARK VINA RESULT:      -3.5      1.805      2.198
REMARK  3 active torsions:
REMARK  status: ('A' for Active; 'I' for Inactive)
REMARK    1  A    between atoms: C3_3  and  C5_5 
REMARK    2  A    between atoms: C6_6  and  C8_8 
REMARK    3  A    between atoms: C8_8  and  C9_9 
ROOT
HETATM    1  C1  UNL     1     -33.153  18.549   0.526  1.00 20.00     0.026 A 
HETATM    2  C2  UNL     1     -31.075  18.624  -0.512  1.00 20.00     0.061 A 
HETATM    3  C3  UNL     1     -32.416  18.354  -0.678  1.00 20.00    -0.029 A 
HETATM    4  C4  UNL     1     -32.349  18.959   1.566  1.00 20.00    -0.021 A 
HETATM    5  C7  UNL     1     -32.732  19.263   2.962  1.00 20.00     0.056 C 
HETATM    6  S10 UNL     1     -30.711  19.108   1.090  1.00 20.00    -0.106 SA
ENDROOT
BRANCH   3   7
HETATM    7  C5  UNL     1     -32.989  17.919  -1.961  1.00 20.00     0.008 C 
HETATM    8  C6  UNL     1     -33.136  16.641  -2.346  1.00 20.00    -0.025 C 
BRANCH   8   9
HETATM    9  C8  UNL     1     -33.720  16.241  -3.673  1.00 20.00     0.042 C 
BRANCH   9  10
HETATM   10  C9  UNL     1     -34.779  17.220  -4.170  1.00 20.00     0.118 C 
HETATM   11 CL11 UNL     1     -34.080  18.448  -5.256  1.00 20.00    -0.130 Cl
ENDBRANCH   9  10
ENDBRANCH   8   9
ENDBRANCH   3   7
TORSDOF 3
ENDMDL
