MODEL 1
REMARK VINA RESULT:      -4.3      0.000      0.000
REMARK  2 active torsions:
REMARK  status: ('A' for Active; 'I' for Inactive)
REMARK    1  A    between atoms: C7_7  and  C8_8 
REMARK    2  A    between atoms: C8_8  and  S9_9 
ROOT
HETATM    1  C1  UNL     1     -34.031   5.048   6.116  1.00 20.00     0.005 C 
HETATM    2  C2  UNL     1     -34.070   6.578   6.245  1.00 20.00     0.005 C 
HETATM    3  C3  UNL     1     -35.586   5.930   4.544  1.00 20.00     0.009 C 
HETATM    4  C4  UNL     1     -33.468   5.233   3.686  1.00 20.00     0.010 C 
HETATM    5  C5  UNL     1     -34.557   4.809   4.690  1.00 20.00    -0.014 C 
HETATM    6  C6  UNL     1     -34.568   7.029   4.863  1.00 20.00    -0.009 C 
HETATM    7  C7  UNL     1     -33.512   6.773   3.762  1.00 20.00    -0.001 C 
ENDROOT
BRANCH   7   8
HETATM    8  C8  UNL     1     -32.149   7.408   3.992  1.00 20.00     0.075 C 
BRANCH   8   9
HETATM    9  S9  UNL     1     -32.335   9.080   4.667  1.00 20.00    -0.182 SA
HETATM   10  H23 UNL     1     -32.573   9.684   3.495  1.00 20.00     0.101 HD
ENDBRANCH   8   9
ENDBRANCH   7   8
TORSDOF 2
ENDMDL
MODEL 2
REMARK VINA RESULT:      -3.8     15.928     16.908
REMARK  2 active torsions:
REMARK  status: ('A' for Active; 'I' for Inactive)
REMARK    1  A    between atoms: C7_7  and  C8_8 
REMARK    2  A    between atoms: C8_8  and  S9_9 
ROOT
HETATM    1  C1  UNL     1     -24.953  18.872  11.548  1.00 20.00     0.005 C 
HETATM    2  C2  UNL     1     -24.815  18.363  10.106  1.00 20.00     0.005 C 
HETATM    3  C3  UNL     1     -24.067  16.662  11.574  1.00 20.00     0.009 C 
HETATM    4  C4  UNL     1     -22.524  18.443  11.968  1.00 20.00     0.010 C 
HETATM    5  C5  UNL     1     -23.955  17.992  12.320  1.00 20.00    -0.014 C 
HETATM    6  C6  UNL     1     -23.722  17.289  10.220  1.00 20.00    -0.009 C 
HETATM    7  C7  UNL     1     -22.339  17.909  10.532  1.00 20.00    -0.001 C 
ENDROOT
BRANCH   7   8
HETATM    8  C8  UNL     1     -21.850  18.962   9.551  1.00 20.00     0.075 C 
BRANCH   8   9
HETATM    9  S9  UNL     1     -21.628  18.239   7.904  1.00 20.00    -0.182 SA
HETATM   10  H23 UNL     1     -20.648  17.392   8.248  1.00 20.00     0.101 HD
ENDBRANCH   8   9
ENDBRANCH   7   8
TORSDOF 2
ENDMDL
MODEL 3
REMARK VINA RESULT:      -3.8      8.789     10.005
REMARK  2 active torsions:
REMARK  status: ('A' for Active; 'I' for Inactive)
REMARK    1  A    between atoms: C7_7  and  C8_8 
REMARK    2  A    between atoms: C8_8  and  S9_9 
ROOT
HETATM    1  C1  UNL     1     -42.215   8.010  -0.793  1.00 20.00     0.005 C 
HETATM    2  C2  UNL     1     -43.075   7.832   0.468  1.00 20.00     0.005 C 
HETATM    3  C3  UNL     1     -40.797   7.619   1.079  1.00 20.00     0.009 C 
HETATM    4  C4  UNL     1     -41.138   5.785  -0.413  1.00 20.00     0.010 C 
HETATM    5  C5  UNL     1     -40.900   7.307  -0.414  1.00 20.00    -0.014 C 
HETATM    6  C6  UNL     1     -42.166   7.009   1.394  1.00 20.00    -0.009 C 
HETATM    7  C7  UNL     1     -41.968   5.567   0.869  1.00 20.00    -0.001 C 
ENDROOT
BRANCH   7   8
HETATM    8  C8  UNL     1     -43.239   4.766   0.640  1.00 20.00     0.075 C 
BRANCH   8   9
HETATM    9  S9  UNL     1     -43.417   4.347  -1.114  1.00 20.00    -0.182 SA
HETATM   10  H23 UNL     1     -43.296   5.599  -1.576  1.00 20.00     0.101 HD
ENDBRANCH   8   9
ENDBRANCH   7   8
TORSDOF 2
ENDMDL
MODEL 4
REMARK VINA RESULT:      -3.3      8.779     10.187
REMARK  2 active torsions:
REMARK  status: ('A' for Active; 'I' for Inactive)
REMARK    1  A    between atoms: C7_7  and  C8_8 
REMARK    2  A    between atoms: C8_8  and  S9_9 
ROOT
HETATM    1  C1  UNL     1     -40.769   6.810   1.038  1.00 20.00     0.005 C 
HETATM    2  C2  UNL     1     -40.795   6.194  -0.369  1.00 20.00     0.005 C 
HETATM    3  C3  UNL     1     -42.144   8.141  -0.379  1.00 20.00     0.009 C 
HETATM    4  C4  UNL     1     -43.264   6.705   1.168  1.00 20.00     0.010 C 
HETATM    5  C5  UNL     1     -42.055   7.654   1.068  1.00 20.00    -0.014 C 
HETATM    6  C6  UNL     1     -42.115   6.721  -0.953  1.00 20.00    -0.009 C 
HETATM    7  C7  UNL     1     -43.344   6.098  -0.248  1.00 20.00    -0.001 C 
ENDROOT
BRANCH   7   8
HETATM    8  C8  UNL     1     -43.410   4.579  -0.255  1.00 20.00     0.075 C 
BRANCH   8   9
HETATM    9  S9  UNL     1     -43.417   3.938   1.440  1.00 20.00    -0.182 SA
HETATM   10  H23 UNL     1     -43.105   5.097   2.035  1.00 20.00     0.101 HD
ENDBRANCH   8   9
ENDBRANCH   7   8
TORSDOF 2
ENDMDL
MODEL 5
REMARK VINA RESULT:      -3.2     12.568     13.443
REMARK  2 active torsions:
REMARK  status: ('A' for Active; 'I' for Inactive)
REMARK    1  A    between atoms: C7_7  and  C8_8 
REMARK    2  A    between atoms: C8_8  and  S9_9 
ROOT
HETATM    1  C1  UNL     1     -34.161  19.263  -1.932  1.00 20.00     0.005 C 
HETATM    2  C2  UNL     1     -32.677  19.220  -2.322  1.00 20.00     0.005 C 
HETATM    3  C3  UNL     1     -33.383  17.016  -1.820  1.00 20.00     0.009 C 
HETATM    4  C4  UNL     1     -33.653  18.164   0.257  1.00 20.00     0.010 C 
HETATM    5  C5  UNL     1     -34.338  17.975  -1.110  1.00 20.00    -0.014 C 
HETATM    6  C6  UNL     1     -32.175  17.939  -1.636  1.00 20.00    -0.009 C 
HETATM    7  C7  UNL     1     -32.154  18.085  -0.096  1.00 20.00    -0.001 C 
ENDROOT
BRANCH   7   8
HETATM    8  C8  UNL     1     -31.340  19.248   0.447  1.00 20.00     0.075 C 
BRANCH   8   9
HETATM    9  S9  UNL     1     -30.751  18.882   2.122  1.00 20.00    -0.182 SA
HETATM   10  H23 UNL     1     -31.477  19.823   2.740  1.00 20.00     0.101 HD
ENDBRANCH   8   9
ENDBRANCH   7   8
TORSDOF 2
ENDMDL
MODEL 6
REMARK VINA RESULT:      -3.1      1.151      2.186
REMARK  2 active torsions:
REMARK  status: ('A' for Active; 'I' for Inactive)
REMARK    1  A    between atoms: C7_7  and  C8_8 
REMARK    2  A    between atoms: C8_8  and  S9_9 
ROOT
HETATM    1  C1  UNL     1     -35.743   5.679   4.628  1.00 20.00     0.005 C 
HETATM    2  C2  UNL     1     -34.606   6.019   3.652  1.00 20.00     0.005 C 
HETATM    3  C3  UNL     1     -33.720   4.691   5.403  1.00 20.00     0.009 C 
HETATM    4  C4  UNL     1     -34.453   6.666   6.530  1.00 20.00     0.010 C 
HETATM    5  C5  UNL     1     -34.993   5.354   5.931  1.00 20.00    -0.014 C 
HETATM    6  C6  UNL     1     -33.350   5.893   4.528  1.00 20.00    -0.009 C 
HETATM    7  C7  UNL     1     -33.278   7.014   5.592  1.00 20.00    -0.001 C 
ENDROOT
BRANCH   7   8
HETATM    8  C8  UNL     1     -33.327   8.437   5.059  1.00 20.00     0.075 C 
BRANCH   8   9
HETATM    9  S9  UNL     1     -32.232   8.615   3.626  1.00 20.00    -0.182 SA
HETATM   10  H23 UNL     1     -32.482   7.408   3.101  1.00 20.00     0.101 HD
ENDBRANCH   8   9
ENDBRANCH   7   8
TORSDOF 2
ENDMDL
MODEL 7
REMARK VINA RESULT:      -3.1      9.678     10.660
REMARK  2 active torsions:
REMARK  status: ('A' for Active; 'I' for Inactive)
REMARK    1  A    between atoms: C7_7  and  C8_8 
REMARK    2  A    between atoms: C8_8  and  S9_9 
ROOT
HETATM    1  C1  UNL     1     -41.665  14.075   8.661  1.00 20.00     0.005 C 
HETATM    2  C2  UNL     1     -40.482  14.542   7.800  1.00 20.00     0.005 C 
HETATM    3  C3  UNL     1     -42.476  14.825   6.552  1.00 20.00     0.009 C 
HETATM    4  C4  UNL     1     -42.367  12.462   6.883  1.00 20.00     0.010 C 
HETATM    5  C5  UNL     1     -42.749  13.762   7.616  1.00 20.00    -0.014 C 
HETATM    6  C6  UNL     1     -41.018  14.394   6.367  1.00 20.00    -0.009 C 
HETATM    7  C7  UNL     1     -41.203  12.909   5.974  1.00 20.00    -0.001 C 
ENDROOT
BRANCH   7   8
HETATM    8  C8  UNL     1     -39.966  12.034   6.098  1.00 20.00     0.075 C 
BRANCH   8   9
HETATM    9  S9  UNL     1     -39.219  11.759   4.469  1.00 20.00    -0.182 SA
HETATM   10  H23 UNL     1     -39.779  12.820   3.872  1.00 20.00     0.101 HD
ENDBRANCH   8   9
ENDBRANCH   7   8
TORSDOF 2
ENDMDL
MODEL 8
REMARK VINA RESULT:      -3.1     11.246     12.561
REMARK  2 active torsions:
REMARK  status: ('A' for Active; 'I' for Inactive)
REMARK    1  A    between atoms: C7_7  and  C8_8 
REMARK    2  A    between atoms: C8_8  and  S9_9 
ROOT
HETATM    1  C1  UNL     1     -26.069  -1.361  11.593  1.00 20.00     0.005 C 
HETATM    2  C2  UNL     1     -26.389  -2.331  10.447  1.00 20.00     0.005 C 
HETATM    3  C3  UNL     1     -27.695  -0.377  10.159  1.00 20.00     0.009 C 
HETATM    4  C4  UNL     1     -28.485  -1.264  12.232  1.00 20.00     0.010 C 
HETATM    5  C5  UNL     1     -27.314  -0.459  11.638  1.00 20.00    -0.014 C 
HETATM    6  C6  UNL     1     -27.796  -1.897  10.008  1.00 20.00    -0.009 C 
HETATM    7  C7  UNL     1     -28.859  -2.225  11.083  1.00 20.00    -0.001 C 
ENDROOT
BRANCH   7   8
HETATM    8  C8  UNL     1     -28.938  -3.682  11.512  1.00 20.00     0.075 C 
BRANCH   8   9
HETATM    9  S9  UNL     1     -29.358  -4.737  10.099  1.00 20.00    -0.182 SA
HETATM   10  H23 UNL     1     -28.099  -4.924   9.679  1.00 20.00     0.101 HD
ENDBRANCH   8   9
ENDBRANCH   7   8
TORSDOF 2
ENDMDL
MODEL 9
REMARK VINA RESULT:      -3.1     11.469     12.644
REMARK  2 active torsions:
REMARK  status: ('A' for Active; 'I' for Inactive)
REMARK    1  A    between atoms: C7_7  and  C8_8 
REMARK    2  A    between atoms: C8_8  and  S9_9 
ROOT
HETATM    1  C1  UNL     1     -27.947  -0.559  11.715  1.00 20.00     0.005 C 
HETATM    2  C2  UNL     1     -27.696  -0.671  10.204  1.00 20.00     0.005 C 
HETATM    3  C3  UNL     1     -29.188  -2.395  10.845  1.00 20.00     0.009 C 
HETATM    4  C4  UNL     1     -27.194  -2.921  12.050  1.00 20.00     0.010 C 
HETATM    5  C5  UNL     1     -28.410  -1.977  12.092  1.00 20.00    -0.014 C 
HETATM    6  C6  UNL     1     -28.000  -2.149   9.911  1.00 20.00    -0.009 C 
HETATM    7  C7  UNL     1     -26.941  -3.087  10.537  1.00 20.00    -0.001 C 
ENDROOT
BRANCH   7   8
HETATM    8  C8  UNL     1     -25.500  -2.823  10.130  1.00 20.00     0.075 C 
BRANCH   8   9
HETATM    9  S9  UNL     1     -24.507  -2.365  11.575  1.00 20.00    -0.182 SA
HETATM   10  H23 UNL     1     -23.449  -3.130  11.273  1.00 20.00     0.101 HD
ENDBRANCH   8   9
ENDBRANCH   7   8
TORSDOF 2
ENDMDL
