MODEL 1
REMARK VINA RESULT:      -4.4      0.000      0.000
REMARK  2 active torsions:
REMARK  status: ('A' for Active; 'I' for Inactive)
REMARK    1  A    between atoms: C3_3  and  C4_4 
REMARK    2  A    between atoms: C3_3  and  S9_9 
ROOT
HETATM    1  C1  UNL     1     -33.331   6.163   3.571  1.00 20.00     0.083 C 
HETATM    2  C3  UNL     1     -33.594   7.373   4.364  1.00 20.00     0.261 C 
HETATM    3  N5  UNL     1     -33.128   5.206   2.947  1.00 20.00    -0.196 NA
ENDROOT
BRANCH   2   4
HETATM    4  C4  UNL     1     -32.502   8.409   4.159  1.00 20.00     0.412 C 
HETATM    5  F6  UNL     1     -31.290   7.825   4.015  1.00 20.00    -0.169 F 
HETATM    6  F7  UNL     1     -32.727   9.130   3.035  1.00 20.00    -0.169 F 
HETATM    7  F8  UNL     1     -32.421   9.278   5.190  1.00 20.00    -0.169 F 
ENDBRANCH   2   4
BRANCH   2   8
HETATM    8  S9  UNL     1     -33.741   6.967   6.138  1.00 20.00    -0.145 SA
HETATM    9  C2  UNL     1     -34.719   5.458   5.973  1.00 20.00     0.091 C 
ENDBRANCH   2   8
TORSDOF 2
ENDMDL
MODEL 2
REMARK VINA RESULT:      -4.3      2.829      3.519
REMARK  2 active torsions:
REMARK  status: ('A' for Active; 'I' for Inactive)
REMARK    1  A    between atoms: C3_3  and  C4_4 
REMARK    2  A    between atoms: C3_3  and  S9_9 
ROOT
HETATM    1  C1  UNL     1     -33.076   7.489   4.444  1.00 20.00     0.083 C 
HETATM    2  C3  UNL     1     -34.189   6.609   4.830  1.00 20.00     0.261 C 
HETATM    3  N5  UNL     1     -32.199   8.184   4.134  1.00 20.00    -0.196 NA
ENDROOT
BRANCH   2   4
HETATM    4  C4  UNL     1     -34.264   6.454   6.340  1.00 20.00     0.412 C 
HETATM    5  F6  UNL     1     -35.200   5.544   6.695  1.00 20.00    -0.169 F 
HETATM    6  F7  UNL     1     -33.083   6.019   6.839  1.00 20.00    -0.169 F 
HETATM    7  F8  UNL     1     -34.563   7.617   6.959  1.00 20.00    -0.169 F 
ENDBRANCH   2   4
BRANCH   2   8
HETATM    8  S9  UNL     1     -34.022   4.969   4.045  1.00 20.00    -0.145 SA
HETATM    9  C2  UNL     1     -32.944   5.452   2.679  1.00 20.00     0.091 C 
ENDBRANCH   2   8
TORSDOF 2
ENDMDL
MODEL 3
REMARK VINA RESULT:      -4.1      2.908      3.610
REMARK  2 active torsions:
REMARK  status: ('A' for Active; 'I' for Inactive)
REMARK    1  A    between atoms: C3_3  and  C4_4 
REMARK    2  A    between atoms: C3_3  and  S9_9 
ROOT
HETATM    1  C1  UNL     1     -33.155   5.832   3.441  1.00 20.00     0.083 C 
HETATM    2  C3  UNL     1     -33.604   6.246   4.778  1.00 20.00     0.261 C 
HETATM    3  N5  UNL     1     -32.796   5.508   2.385  1.00 20.00    -0.196 NA
ENDROOT
BRANCH   2   4
HETATM    4  C4  UNL     1     -34.914   5.570   5.148  1.00 20.00     0.412 C 
HETATM    5  F6  UNL     1     -35.954   6.111   4.474  1.00 20.00    -0.169 F 
HETATM    6  F7  UNL     1     -34.882   4.254   4.833  1.00 20.00    -0.169 F 
HETATM    7  F8  UNL     1     -35.183   5.665   6.468  1.00 20.00    -0.169 F 
ENDBRANCH   2   4
BRANCH   2   8
HETATM    8  S9  UNL     1     -33.794   8.060   4.866  1.00 20.00    -0.145 SA
HETATM    9  C2  UNL     1     -32.114   8.514   4.383  1.00 20.00     0.091 C 
ENDBRANCH   2   8
TORSDOF 2
ENDMDL
MODEL 4
REMARK VINA RESULT:      -4.1      2.909      3.614
REMARK  2 active torsions:
REMARK  status: ('A' for Active; 'I' for Inactive)
REMARK    1  A    between atoms: C3_3  and  C4_4 
REMARK    2  A    between atoms: C3_3  and  S9_9 
ROOT
HETATM    1  C1  UNL     1     -33.151   5.844   3.438  1.00 20.00     0.083 C 
HETATM    2  C3  UNL     1     -33.609   6.248   4.775  1.00 20.00     0.261 C 
HETATM    3  N5  UNL     1     -32.785   5.527   2.382  1.00 20.00    -0.196 NA
ENDROOT
BRANCH   2   4
HETATM    4  C4  UNL     1     -34.921   5.571   5.131  1.00 20.00     0.412 C 
HETATM    5  F6  UNL     1     -34.889   4.250   4.842  1.00 20.00    -0.169 F 
HETATM    6  F7  UNL     1     -35.174   5.678   6.456  1.00 20.00    -0.169 F 
HETATM    7  F8  UNL     1     -35.970   6.112   4.473  1.00 20.00    -0.169 F 
ENDBRANCH   2   4
BRANCH   2   8
HETATM    8  S9  UNL     1     -33.796   8.061   4.876  1.00 20.00    -0.145 SA
HETATM    9  C2  UNL     1     -32.116   8.517   4.393  1.00 20.00     0.091 C 
ENDBRANCH   2   8
TORSDOF 2
ENDMDL
MODEL 5
REMARK VINA RESULT:      -4.0      2.897      3.588
REMARK  2 active torsions:
REMARK  status: ('A' for Active; 'I' for Inactive)
REMARK    1  A    between atoms: C3_3  and  C4_4 
REMARK    2  A    between atoms: C3_3  and  S9_9 
ROOT
HETATM    1  C1  UNL     1     -33.045   6.118   3.594  1.00 20.00     0.083 C 
HETATM    2  C3  UNL     1     -33.608   6.343   4.933  1.00 20.00     0.261 C 
HETATM    3  N5  UNL     1     -32.596   5.943   2.538  1.00 20.00    -0.196 NA
ENDROOT
BRANCH   2   4
HETATM    4  C4  UNL     1     -34.918   5.595   5.108  1.00 20.00     0.412 C 
HETATM    5  F6  UNL     1     -35.281   5.535   6.410  1.00 20.00    -0.169 F 
HETATM    6  F7  UNL     1     -35.921   6.220   4.448  1.00 20.00    -0.169 F 
HETATM    7  F8  UNL     1     -34.851   4.329   4.640  1.00 20.00    -0.169 F 
ENDBRANCH   2   4
BRANCH   2   8
HETATM    8  S9  UNL     1     -33.864   8.125   5.239  1.00 20.00    -0.145 SA
HETATM    9  C2  UNL     1     -32.236   8.707   4.717  1.00 20.00     0.091 C 
ENDBRANCH   2   8
TORSDOF 2
ENDMDL
MODEL 6
REMARK VINA RESULT:      -3.8     11.890     12.736
REMARK  2 active torsions:
REMARK  status: ('A' for Active; 'I' for Inactive)
REMARK    1  A    between atoms: C3_3  and  C4_4 
REMARK    2  A    between atoms: C3_3  and  S9_9 
ROOT
HETATM    1  C1  UNL     1     -35.163  15.054  -5.971  1.00 20.00     0.083 C 
HETATM    2  C3  UNL     1     -34.270  15.910  -5.177  1.00 20.00     0.261 C 
HETATM    3  N5  UNL     1     -35.869  14.383  -6.602  1.00 20.00    -0.196 NA
ENDROOT
BRANCH   2   4
HETATM    4  C4  UNL     1     -33.672  15.142  -4.010  1.00 20.00     0.412 C 
HETATM    5  F6  UNL     1     -33.712  15.870  -2.870  1.00 20.00    -0.169 F 
HETATM    6  F7  UNL     1     -34.368  14.005  -3.776  1.00 20.00    -0.169 F 
HETATM    7  F8  UNL     1     -32.386  14.794  -4.232  1.00 20.00    -0.169 F 
ENDBRANCH   2   4
BRANCH   2   8
HETATM    8  S9  UNL     1     -35.158  17.382  -4.562  1.00 20.00    -0.145 SA
HETATM    9  C2  UNL     1     -33.858  18.602  -4.855  1.00 20.00     0.091 C 
ENDBRANCH   2   8
TORSDOF 2
ENDMDL
MODEL 7
REMARK VINA RESULT:      -3.8      9.536      9.963
REMARK  2 active torsions:
REMARK  status: ('A' for Active; 'I' for Inactive)
REMARK    1  A    between atoms: C3_3  and  C4_4 
REMARK    2  A    between atoms: C3_3  and  S9_9 
ROOT
HETATM    1  C1  UNL     1     -42.761   5.857  -0.813  1.00 20.00     0.083 C 
HETATM    2  C3  UNL     1     -42.544   7.103  -0.064  1.00 20.00     0.261 C 
HETATM    3  N5  UNL     1     -42.938   4.874  -1.405  1.00 20.00    -0.196 NA
ENDROOT
BRANCH   2   4
HETATM    4  C4  UNL     1     -41.063   7.355   0.160  1.00 20.00     0.412 C 
HETATM    5  F6  UNL     1     -40.620   8.389  -0.592  1.00 20.00    -0.169 F 
HETATM    6  F7  UNL     1     -40.819   7.675   1.452  1.00 20.00    -0.169 F 
HETATM    7  F8  UNL     1     -40.309   6.274  -0.140  1.00 20.00    -0.169 F 
ENDBRANCH   2   4
BRANCH   2   8
HETATM    8  S9  UNL     1     -43.416   7.057   1.540  1.00 20.00    -0.145 SA
HETATM    9  C2  UNL     1     -43.103   5.325   1.948  1.00 20.00     0.091 C 
ENDBRANCH   2   8
TORSDOF 2
ENDMDL
MODEL 8
REMARK VINA RESULT:      -3.7      3.377      4.037
REMARK  2 active torsions:
REMARK  status: ('A' for Active; 'I' for Inactive)
REMARK    1  A    between atoms: C3_3  and  C4_4 
REMARK    2  A    between atoms: C3_3  and  S9_9 
ROOT
HETATM    1  C1  UNL     1     -33.359   7.560   4.866  1.00 20.00     0.083 C 
HETATM    2  C3  UNL     1     -34.013   6.478   4.118  1.00 20.00     0.261 C 
HETATM    3  N5  UNL     1     -32.841   8.418   5.453  1.00 20.00    -0.196 NA
ENDROOT
BRANCH   2   4
HETATM    4  C4  UNL     1     -34.547   5.410   5.056  1.00 20.00     0.412 C 
HETATM    5  F6  UNL     1     -35.888   5.280   4.942  1.00 20.00    -0.169 F 
HETATM    6  F7  UNL     1     -34.008   4.202   4.767  1.00 20.00    -0.169 F 
HETATM    7  F8  UNL     1     -34.267   5.679   6.350  1.00 20.00    -0.169 F 
ENDBRANCH   2   4
BRANCH   2   8
HETATM    8  S9  UNL     1     -32.859   5.730   2.916  1.00 20.00    -0.145 SA
HETATM    9  C2  UNL     1     -32.136   7.257   2.276  1.00 20.00     0.091 C 
ENDBRANCH   2   8
TORSDOF 2
ENDMDL
MODEL 9
REMARK VINA RESULT:      -3.7      3.367      4.036
REMARK  2 active torsions:
REMARK  status: ('A' for Active; 'I' for Inactive)
REMARK    1  A    between atoms: C3_3  and  C4_4 
REMARK    2  A    between atoms: C3_3  and  S9_9 
ROOT
HETATM    1  C1  UNL     1     -33.348   7.592   4.871  1.00 20.00     0.083 C 
HETATM    2  C3  UNL     1     -34.023   6.529   4.114  1.00 20.00     0.261 C 
HETATM    3  N5  UNL     1     -32.813   8.435   5.465  1.00 20.00    -0.196 NA
ENDROOT
BRANCH   2   4
HETATM    4  C4  UNL     1     -34.605   5.480   5.046  1.00 20.00     0.412 C 
HETATM    5  F6  UNL     1     -34.399   5.805   6.343  1.00 20.00    -0.169 F 
HETATM    6  F7  UNL     1     -35.943   5.373   4.875  1.00 20.00    -0.169 F 
HETATM    7  F8  UNL     1     -34.070   4.256   4.838  1.00 20.00    -0.169 F 
ENDBRANCH   2   4
BRANCH   2   8
HETATM    8  S9  UNL     1     -32.873   5.742   2.934  1.00 20.00    -0.145 SA
HETATM    9  C2  UNL     1     -32.131   7.246   2.263  1.00 20.00     0.091 C 
ENDBRANCH   2   8
TORSDOF 2
ENDMDL
