MODEL 1
REMARK VINA RESULT:      -4.3      0.000      0.000
REMARK  2 active torsions:
REMARK  status: ('A' for Active; 'I' for Inactive)
REMARK    1  A    between atoms: C4_4  and  C7_7 
REMARK    2  A    between atoms: C7_7  and  O8_8 
ROOT
HETATM    1  C1  UNL     1     -33.007   8.460   5.199  1.00 20.00     0.008 C 
HETATM    2  C2  UNL     1     -33.612   7.271   5.929  1.00 20.00     0.020 C 
HETATM    3  C3  UNL     1     -33.204   6.555   3.669  1.00 20.00     0.027 C 
HETATM    4  C4  UNL     1     -32.415   7.853   3.920  1.00 20.00     0.011 C 
HETATM    5  C5  UNL     1     -34.242   6.488   4.787  1.00 20.00     0.082 C 
HETATM    6 CL9  UNL     1     -34.638   4.827   5.250  1.00 20.00    -0.125 Cl
ENDROOT
BRANCH   4   7
HETATM    7  C7  UNL     1     -32.464   8.817   2.744  1.00 20.00     0.171 C 
BRANCH   7   8
HETATM    8  O8  UNL     1     -32.206   8.094   1.552  1.00 20.00    -0.396 OA
HETATM    9  C6  UNL     1     -32.526   8.855   0.394  1.00 20.00     0.201 C 
ENDBRANCH   7   8
ENDBRANCH   4   7
TORSDOF 2
ENDMDL
MODEL 2
REMARK VINA RESULT:      -3.8     15.178     15.535
REMARK  2 active torsions:
REMARK  status: ('A' for Active; 'I' for Inactive)
REMARK    1  A    between atoms: C4_4  and  C7_7 
REMARK    2  A    between atoms: C7_7  and  O8_8 
ROOT
HETATM    1  C1  UNL     1     -23.933  16.587  11.435  1.00 20.00     0.008 C 
HETATM    2  C2  UNL     1     -25.258  17.016  12.047  1.00 20.00     0.020 C 
HETATM    3  C3  UNL     1     -24.669  18.701  10.435  1.00 20.00     0.027 C 
HETATM    4  C4  UNL     1     -23.805  17.453  10.175  1.00 20.00     0.011 C 
HETATM    5  C5  UNL     1     -25.225  18.523  11.847  1.00 20.00     0.082 C 
HETATM    6 CL9  UNL     1     -26.819  19.263  12.049  1.00 20.00    -0.125 Cl
ENDROOT
BRANCH   4   7
HETATM    7  C7  UNL     1     -22.358  17.788   9.846  1.00 20.00     0.171 C 
BRANCH   7   8
HETATM    8  O8  UNL     1     -21.908  16.908   8.830  1.00 20.00    -0.396 OA
HETATM    9  C6  UNL     1     -21.556  17.610   7.643  1.00 20.00     0.201 C 
ENDBRANCH   7   8
ENDBRANCH   4   7
TORSDOF 2
ENDMDL
MODEL 3
REMARK VINA RESULT:      -3.6      2.917      4.150
REMARK  2 active torsions:
REMARK  status: ('A' for Active; 'I' for Inactive)
REMARK    1  A    between atoms: C4_4  and  C7_7 
REMARK    2  A    between atoms: C7_7  and  O8_8 
ROOT
HETATM    1  C1  UNL     1     -32.621   8.952   5.242  1.00 20.00     0.008 C 
HETATM    2  C2  UNL     1     -32.197   9.136   3.793  1.00 20.00     0.020 C 
HETATM    3  C3  UNL     1     -33.422   7.068   3.892  1.00 20.00     0.027 C 
HETATM    4  C4  UNL     1     -33.702   7.864   5.180  1.00 20.00     0.011 C 
HETATM    5  C5  UNL     1     -32.170   7.702   3.288  1.00 20.00     0.082 C 
HETATM    6 CL9  UNL     1     -32.148   7.613   1.521  1.00 20.00    -0.125 Cl
ENDROOT
BRANCH   4   7
HETATM    7  C7  UNL     1     -33.720   6.994   6.427  1.00 20.00     0.171 C 
BRANCH   7   8
HETATM    8  O8  UNL     1     -34.874   6.171   6.390  1.00 20.00    -0.396 OA
HETATM    9  C6  UNL     1     -34.551   4.827   6.052  1.00 20.00     0.201 C 
ENDBRANCH   7   8
ENDBRANCH   4   7
TORSDOF 2
ENDMDL
MODEL 4
REMARK VINA RESULT:      -3.4     11.349     11.888
REMARK  2 active torsions:
REMARK  status: ('A' for Active; 'I' for Inactive)
REMARK    1  A    between atoms: C4_4  and  C7_7 
REMARK    2  A    between atoms: C7_7  and  O8_8 
ROOT
HETATM    1  C1  UNL     1     -33.712  18.119  -0.128  1.00 20.00     0.008 C 
HETATM    2  C2  UNL     1     -32.912  18.529   1.100  1.00 20.00     0.020 C 
HETATM    3  C3  UNL     1     -31.536  19.019  -0.812  1.00 20.00     0.027 C 
HETATM    4  C4  UNL     1     -32.982  18.799  -1.294  1.00 20.00     0.011 C 
HETATM    5  C5  UNL     1     -31.482  18.423   0.594  1.00 20.00     0.082 C 
HETATM    6 CL9  UNL     1     -30.333  19.263   1.645  1.00 20.00    -0.125 Cl
ENDROOT
BRANCH   4   7
HETATM    7  C7  UNL     1     -33.064  17.990  -2.579  1.00 20.00     0.171 C 
BRANCH   7   8
HETATM    8  O8  UNL     1     -33.427  16.658  -2.256  1.00 20.00    -0.396 OA
HETATM    9  C6  UNL     1     -33.456  15.825  -3.409  1.00 20.00     0.201 C 
ENDBRANCH   7   8
ENDBRANCH   4   7
TORSDOF 2
ENDMDL
MODEL 5
REMARK VINA RESULT:      -3.3     11.682     12.184
REMARK  2 active torsions:
REMARK  status: ('A' for Active; 'I' for Inactive)
REMARK    1  A    between atoms: C4_4  and  C7_7 
REMARK    2  A    between atoms: C7_7  and  O8_8 
ROOT
HETATM    1  C1  UNL     1     -32.059  19.263   2.271  1.00 20.00     0.008 C 
HETATM    2  C2  UNL     1     -32.950  18.839   1.113  1.00 20.00     0.020 C 
HETATM    3  C3  UNL     1     -30.709  18.181   0.533  1.00 20.00     0.027 C 
HETATM    4  C4  UNL     1     -30.753  18.491   2.041  1.00 20.00     0.011 C 
HETATM    5  C5  UNL     1     -31.968  18.821  -0.049  1.00 20.00     0.082 C 
HETATM    6 CL9  UNL     1     -32.598  17.936  -1.446  1.00 20.00    -0.125 Cl
ENDROOT
BRANCH   4   7
HETATM    7  C7  UNL     1     -29.533  19.258   2.527  1.00 20.00     0.171 C 
BRANCH   7   8
HETATM    8  O8  UNL     1     -28.822  18.446   3.446  1.00 20.00    -0.396 OA
HETATM    9  C6  UNL     1     -27.609  19.061   3.864  1.00 20.00     0.201 C 
ENDBRANCH   7   8
ENDBRANCH   4   7
TORSDOF 2
ENDMDL
MODEL 6
REMARK VINA RESULT:      -3.3     11.690     12.718
REMARK  2 active torsions:
REMARK  status: ('A' for Active; 'I' for Inactive)
REMARK    1  A    between atoms: C4_4  and  C7_7 
REMARK    2  A    between atoms: C7_7  and  O8_8 
ROOT
HETATM    1  C1  UNL     1     -33.373  15.225  -3.969  1.00 20.00     0.008 C 
HETATM    2  C2  UNL     1     -33.396  16.329  -2.924  1.00 20.00     0.020 C 
HETATM    3  C3  UNL     1     -34.666  17.135  -4.801  1.00 20.00     0.027 C 
HETATM    4  C4  UNL     1     -34.491  15.612  -4.947  1.00 20.00     0.011 C 
HETATM    5  C5  UNL     1     -33.617  17.568  -3.778  1.00 20.00     0.082 C 
HETATM    6 CL9  UNL     1     -34.136  18.961  -2.819  1.00 20.00    -0.125 Cl
ENDROOT
BRANCH   4   7
HETATM    7  C7  UNL     1     -34.189  15.181  -6.374  1.00 20.00     0.171 C 
BRANCH   7   8
HETATM    8  O8  UNL     1     -35.355  14.597  -6.929  1.00 20.00    -0.396 OA
HETATM    9  C6  UNL     1     -35.950  15.439  -7.909  1.00 20.00     0.201 C 
ENDBRANCH   7   8
ENDBRANCH   4   7
TORSDOF 2
ENDMDL
MODEL 7
REMARK VINA RESULT:      -3.3     11.319     12.348
REMARK  2 active torsions:
REMARK  status: ('A' for Active; 'I' for Inactive)
REMARK    1  A    between atoms: C4_4  and  C7_7 
REMARK    2  A    between atoms: C7_7  and  O8_8 
ROOT
HETATM    1  C1  UNL     1     -34.118  18.668  -3.626  1.00 20.00     0.008 C 
HETATM    2  C2  UNL     1     -34.440  17.337  -4.290  1.00 20.00     0.020 C 
HETATM    3  C3  UNL     1     -33.398  16.820  -2.184  1.00 20.00     0.027 C 
HETATM    4  C4  UNL     1     -33.832  18.298  -2.165  1.00 20.00     0.011 C 
HETATM    5  C5  UNL     1     -33.413  16.412  -3.656  1.00 20.00     0.082 C 
HETATM    6 CL9  UNL     1     -33.815  14.705  -3.885  1.00 20.00    -0.125 Cl
ENDROOT
BRANCH   4   7
HETATM    7  C7  UNL     1     -32.799  19.214  -1.526  1.00 20.00     0.171 C 
BRANCH   7   8
HETATM    8  O8  UNL     1     -31.639  18.454  -1.231  1.00 20.00    -0.396 OA
HETATM    9  C6  UNL     1     -31.108  18.779   0.049  1.00 20.00     0.201 C 
ENDBRANCH   7   8
ENDBRANCH   4   7
TORSDOF 2
ENDMDL
MODEL 8
REMARK VINA RESULT:      -3.3     15.267     15.883
REMARK  2 active torsions:
REMARK  status: ('A' for Active; 'I' for Inactive)
REMARK    1  A    between atoms: C4_4  and  C7_7 
REMARK    2  A    between atoms: C7_7  and  O8_8 
ROOT
HETATM    1  C1  UNL     1     -23.650  19.065   9.123  1.00 20.00     0.008 C 
HETATM    2  C2  UNL     1     -24.863  18.896  10.026  1.00 20.00     0.020 C 
HETATM    3  C3  UNL     1     -23.012  17.862  11.162  1.00 20.00     0.027 C 
HETATM    4  C4  UNL     1     -22.457  18.756  10.038  1.00 20.00     0.011 C 
HETATM    5  C5  UNL     1     -24.489  17.660  10.828  1.00 20.00     0.082 C 
HETATM    6 CL9  UNL     1     -25.493  17.467  12.272  1.00 20.00    -0.125 Cl
ENDROOT
BRANCH   4   7
HETATM    7  C7  UNL     1     -21.300  18.118   9.285  1.00 20.00     0.171 C 
BRANCH   7   8
HETATM    8  O8  UNL     1     -21.822  17.185   8.354  1.00 20.00    -0.396 OA
HETATM    9  C6  UNL     1     -21.293  17.390   7.050  1.00 20.00     0.201 C 
ENDBRANCH   7   8
ENDBRANCH   4   7
TORSDOF 2
ENDMDL
MODEL 9
REMARK VINA RESULT:      -3.3     15.427     16.392
REMARK  2 active torsions:
REMARK  status: ('A' for Active; 'I' for Inactive)
REMARK    1  A    between atoms: C4_4  and  C7_7 
REMARK    2  A    between atoms: C7_7  and  O8_8 
ROOT
HETATM    1  C1  UNL     1     -22.263  18.553  11.064  1.00 20.00     0.008 C 
HETATM    2  C2  UNL     1     -21.293  18.473   9.896  1.00 20.00     0.020 C 
HETATM    3  C3  UNL     1     -23.506  18.393   8.956  1.00 20.00     0.027 C 
HETATM    4  C4  UNL     1     -23.610  18.892  10.409  1.00 20.00     0.011 C 
HETATM    5  C5  UNL     1     -22.124  17.753   8.845  1.00 20.00     0.082 C 
HETATM    6 CL9  UNL     1     -21.433  17.904   7.223  1.00 20.00    -0.125 Cl
ENDROOT
BRANCH   4   7
HETATM    7  C7  UNL     1     -24.787  18.293  11.163  1.00 20.00     0.171 C 
BRANCH   7   8
HETATM    8  O8  UNL     1     -24.290  17.438  12.178  1.00 20.00    -0.396 OA
HETATM    9  C6  UNL     1     -24.690  16.088  11.972  1.00 20.00     0.201 C 
ENDBRANCH   7   8
ENDBRANCH   4   7
TORSDOF 2
ENDMDL
