MODEL 1
REMARK VINA RESULT:      -3.6      0.000      0.000
REMARK  4 active torsions:
REMARK  status: ('A' for Active; 'I' for Inactive)
REMARK    1  A    between atoms: C6_6  and  C7_7 
REMARK    2  A    between atoms: C6_6  and  O10_10 
REMARK    3  A    between atoms: C7_7  and  C8_8 
REMARK    4  A    between atoms: C7_7  and  O9_9 
ROOT
HETATM    1  C7  UNL     1     -33.884   7.296   5.122  1.00 20.00     0.154 C 
ENDROOT
BRANCH   1   2
HETATM    2  C6  UNL     1     -32.705   7.830   4.281  1.00 20.00     0.146 C 
HETATM    3  C1  UNL     1     -31.979   8.995   4.950  1.00 20.00     0.042 C 
BRANCH   2   4
HETATM    4  O10 UNL     1     -33.144   8.273   3.001  1.00 20.00    -0.388 OA
HETATM    5  C5  UNL     1     -32.181   7.992   1.995  1.00 20.00     0.202 C 
ENDBRANCH   2   4
ENDBRANCH   1   2
BRANCH   1   6
HETATM    6  C8  UNL     1     -34.450   5.890   4.732  1.00 20.00    -0.023 C 
HETATM    7  C2  UNL     1     -34.517   5.018   6.008  1.00 20.00     0.017 C 
HETATM    8  C3  UNL     1     -35.875   6.012   4.165  1.00 20.00     0.017 C 
HETATM    9  C4  UNL     1     -33.569   5.146   3.712  1.00 20.00     0.017 C 
ENDBRANCH   1   6
BRANCH   1  10
HETATM   10  O9  UNL     1     -33.505   7.273   6.502  1.00 20.00    -0.392 OA
HETATM   11  H28 UNL     1     -33.263   8.182   6.732  1.00 20.00     0.210 HD
ENDBRANCH   1  10
TORSDOF 4
ENDMDL
MODEL 2
REMARK VINA RESULT:      -3.4     11.518     13.806
REMARK  4 active torsions:
REMARK  status: ('A' for Active; 'I' for Inactive)
REMARK    1  A    between atoms: C6_6  and  C7_7 
REMARK    2  A    between atoms: C6_6  and  O10_10 
REMARK    3  A    between atoms: C7_7  and  C8_8 
REMARK    4  A    between atoms: C7_7  and  O9_9 
ROOT
HETATM    1  C7  UNL     1     -34.402  15.092  -6.154  1.00 20.00     0.154 C 
ENDROOT
BRANCH   1   2
HETATM    2  C6  UNL     1     -34.158  14.985  -4.634  1.00 20.00     0.146 C 
HETATM    3  C1  UNL     1     -32.676  15.004  -4.269  1.00 20.00     0.042 C 
BRANCH   2   4
HETATM    4  O10 UNL     1     -34.717  13.788  -4.104  1.00 20.00    -0.388 OA
HETATM    5  C5  UNL     1     -36.038  13.575  -4.583  1.00 20.00     0.202 C 
ENDBRANCH   2   4
ENDBRANCH   1   2
BRANCH   1   6
HETATM    6  C8  UNL     1     -34.932  16.464  -6.689  1.00 20.00    -0.023 C 
HETATM    7  C2  UNL     1     -34.085  16.870  -7.918  1.00 20.00     0.017 C 
HETATM    8  C3  UNL     1     -36.398  16.346  -7.141  1.00 20.00     0.017 C 
HETATM    9  C4  UNL     1     -34.819  17.599  -5.656  1.00 20.00     0.017 C 
ENDBRANCH   1   6
BRANCH   1  10
HETATM   10  O9  UNL     1     -33.196  14.761  -6.849  1.00 20.00    -0.392 OA
HETATM   11  H28 UNL     1     -33.135  13.795  -6.841  1.00 20.00     0.210 HD
ENDBRANCH   1  10
TORSDOF 4
ENDMDL
MODEL 3
REMARK VINA RESULT:      -3.4      1.297      2.421
REMARK  4 active torsions:
REMARK  status: ('A' for Active; 'I' for Inactive)
REMARK    1  A    between atoms: C6_6  and  C7_7 
REMARK    2  A    between atoms: C6_6  and  O10_10 
REMARK    3  A    between atoms: C7_7  and  C8_8 
REMARK    4  A    between atoms: C7_7  and  O9_9 
ROOT
HETATM    1  C7  UNL     1     -33.092   6.166   4.072  1.00 20.00     0.154 C 
ENDROOT
BRANCH   1   2
HETATM    2  C6  UNL     1     -32.748   7.588   3.580  1.00 20.00     0.146 C 
HETATM    3  C1  UNL     1     -32.305   7.617   2.118  1.00 20.00     0.042 C 
BRANCH   2   4
HETATM    4  O10 UNL     1     -31.705   8.164   4.358  1.00 20.00    -0.388 OA
HETATM    5  C5  UNL     1     -32.096   9.415   4.907  1.00 20.00     0.202 C 
ENDBRANCH   2   4
ENDBRANCH   1   2
BRANCH   1   6
HETATM    6  C8  UNL     1     -34.323   6.030   5.029  1.00 20.00    -0.023 C 
HETATM    7  C2  UNL     1     -34.290   4.623   5.672  1.00 20.00     0.017 C 
HETATM    8  C3  UNL     1     -34.254   7.071   6.160  1.00 20.00     0.017 C 
HETATM    9  C4  UNL     1     -35.672   6.172   4.302  1.00 20.00     0.017 C 
ENDBRANCH   1   6
BRANCH   1  10
HETATM   10  O9  UNL     1     -33.291   5.311   2.942  1.00 20.00    -0.392 OA
HETATM   11  H28 UNL     1     -33.534   5.889   2.204  1.00 20.00     0.210 HD
ENDBRANCH   1  10
TORSDOF 4
ENDMDL
MODEL 4
REMARK VINA RESULT:      -3.4      9.217     10.014
REMARK  4 active torsions:
REMARK  status: ('A' for Active; 'I' for Inactive)
REMARK    1  A    between atoms: C6_6  and  C7_7 
REMARK    2  A    between atoms: C6_6  and  O10_10 
REMARK    3  A    between atoms: C7_7  and  C8_8 
REMARK    4  A    between atoms: C7_7  and  O9_9 
ROOT
HETATM    1  C7  UNL     1     -40.751  13.564   6.523  1.00 20.00     0.154 C 
ENDROOT
BRANCH   1   2
HETATM    2  C6  UNL     1     -40.247  12.305   5.786  1.00 20.00     0.146 C 
HETATM    3  C1  UNL     1     -38.866  11.856   6.259  1.00 20.00     0.042 C 
BRANCH   2   4
HETATM    4  O10 UNL     1     -40.172  12.525   4.381  1.00 20.00    -0.388 OA
HETATM    5  C5  UNL     1     -39.097  11.802   3.799  1.00 20.00     0.202 C 
ENDBRANCH   2   4
ENDBRANCH   1   2
BRANCH   1   6
HETATM    6  C8  UNL     1     -42.292  13.661   6.781  1.00 20.00    -0.023 C 
HETATM    7  C2  UNL     1     -42.833  12.239   7.058  1.00 20.00     0.017 C 
HETATM    8  C3  UNL     1     -42.586  14.529   8.017  1.00 20.00     0.017 C 
HETATM    9  C4  UNL     1     -43.071  14.225   5.579  1.00 20.00     0.017 C 
ENDBRANCH   1   6
BRANCH   1  10
HETATM   10  O9  UNL     1     -40.066  13.684   7.774  1.00 20.00    -0.392 OA
HETATM   11  H28 UNL     1     -40.476  14.430   8.235  1.00 20.00     0.210 HD
ENDBRANCH   1  10
TORSDOF 4
ENDMDL
MODEL 5
REMARK VINA RESULT:      -3.3     11.867     12.851
REMARK  4 active torsions:
REMARK  status: ('A' for Active; 'I' for Inactive)
REMARK    1  A    between atoms: C6_6  and  C7_7 
REMARK    2  A    between atoms: C6_6  and  O10_10 
REMARK    3  A    between atoms: C7_7  and  C8_8 
REMARK    4  A    between atoms: C7_7  and  O9_9 
ROOT
HETATM    1  C7  UNL     1     -33.843  15.487  -4.079  1.00 20.00     0.154 C 
ENDROOT
BRANCH   1   2
HETATM    2  C6  UNL     1     -33.935  16.772  -3.230  1.00 20.00     0.146 C 
HETATM    3  C1  UNL     1     -33.093  17.915  -3.793  1.00 20.00     0.042 C 
BRANCH   2   4
HETATM    4  O10 UNL     1     -33.507  16.539  -1.893  1.00 20.00    -0.388 OA
HETATM    5  C5  UNL     1     -33.756  17.664  -1.063  1.00 20.00     0.202 C 
ENDBRANCH   2   4
ENDBRANCH   1   2
BRANCH   1   6
HETATM    6  C8  UNL     1     -34.896  15.321  -5.226  1.00 20.00    -0.023 C 
HETATM    7  C2  UNL     1     -34.141  15.205  -6.571  1.00 20.00     0.017 C 
HETATM    8  C3  UNL     1     -35.719  14.035  -5.031  1.00 20.00     0.017 C 
HETATM    9  C4  UNL     1     -35.858  16.517  -5.339  1.00 20.00     0.017 C 
ENDBRANCH   1   6
BRANCH   1  10
HETATM   10  O9  UNL     1     -32.531  15.385  -4.641  1.00 20.00    -0.392 OA
HETATM   11  H28 UNL     1     -31.937  15.178  -3.906  1.00 20.00     0.210 HD
ENDBRANCH   1  10
TORSDOF 4
ENDMDL
MODEL 6
REMARK VINA RESULT:      -3.3     12.144     13.274
REMARK  4 active torsions:
REMARK  status: ('A' for Active; 'I' for Inactive)
REMARK    1  A    between atoms: C6_6  and  C7_7 
REMARK    2  A    between atoms: C6_6  and  O10_10 
REMARK    3  A    between atoms: C7_7  and  C8_8 
REMARK    4  A    between atoms: C7_7  and  O9_9 
ROOT
HETATM    1  C7  UNL     1     -34.513  16.792  -4.704  1.00 20.00     0.154 C 
ENDROOT
BRANCH   1   2
HETATM    2  C6  UNL     1     -33.369  17.202  -3.753  1.00 20.00     0.146 C 
HETATM    3  C1  UNL     1     -33.758  17.101  -2.280  1.00 20.00     0.042 C 
BRANCH   2   4
HETATM    4  O10 UNL     1     -32.950  18.541  -3.997  1.00 20.00    -0.388 OA
HETATM    5  C5  UNL     1     -32.767  19.258  -2.785  1.00 20.00     0.202 C 
ENDBRANCH   2   4
ENDBRANCH   1   2
BRANCH   1   6
HETATM    6  C8  UNL     1     -34.483  15.327  -5.253  1.00 20.00    -0.023 C 
HETATM    7  C2  UNL     1     -33.981  15.362  -6.715  1.00 20.00     0.017 C 
HETATM    8  C3  UNL     1     -33.510  14.457  -4.437  1.00 20.00     0.017 C 
HETATM    9  C4  UNL     1     -35.868  14.656  -5.257  1.00 20.00     0.017 C 
ENDBRANCH   1   6
BRANCH   1  10
HETATM   10  O9  UNL     1     -35.769  17.015  -4.054  1.00 20.00    -0.392 OA
HETATM   11  H28 UNL     1     -35.652  16.733  -3.136  1.00 20.00     0.210 HD
ENDBRANCH   1  10
TORSDOF 4
ENDMDL
MODEL 7
REMARK VINA RESULT:      -3.2     10.168     11.147
REMARK  4 active torsions:
REMARK  status: ('A' for Active; 'I' for Inactive)
REMARK    1  A    between atoms: C6_6  and  C7_7 
REMARK    2  A    between atoms: C6_6  and  O10_10 
REMARK    3  A    between atoms: C7_7  and  C8_8 
REMARK    4  A    between atoms: C7_7  and  O9_9 
ROOT
HETATM    1  C7  UNL     1     -40.578  13.824   7.618  1.00 20.00     0.154 C 
ENDROOT
BRANCH   1   2
HETATM    2  C6  UNL     1     -41.455  14.281   8.802  1.00 20.00     0.146 C 
HETATM    3  C1  UNL     1     -41.374  15.786   9.052  1.00 20.00     0.042 C 
BRANCH   2   4
HETATM    4  O10 UNL     1     -41.079  13.623  10.007  1.00 20.00    -0.388 OA
HETATM    5  C5  UNL     1     -40.563  14.540  10.962  1.00 20.00     0.202 C 
ENDBRANCH   2   4
ENDBRANCH   1   2
BRANCH   1   6
HETATM    6  C8  UNL     1     -41.304  13.084   6.446  1.00 20.00    -0.023 C 
HETATM    7  C2  UNL     1     -40.338  12.029   5.858  1.00 20.00     0.017 C 
HETATM    8  C3  UNL     1     -42.556  12.348   6.956  1.00 20.00     0.017 C 
HETATM    9  C4  UNL     1     -41.712  14.025   5.298  1.00 20.00     0.017 C 
ENDBRANCH   1   6
BRANCH   1  10
HETATM   10  O9  UNL     1     -39.877  14.953   7.086  1.00 20.00    -0.392 OA
HETATM   11  H28 UNL     1     -40.342  15.737   7.411  1.00 20.00     0.210 HD
ENDBRANCH   1  10
TORSDOF 4
ENDMDL
MODEL 8
REMARK VINA RESULT:      -3.2     12.048     13.534
REMARK  4 active torsions:
REMARK  status: ('A' for Active; 'I' for Inactive)
REMARK    1  A    between atoms: C6_6  and  C7_7 
REMARK    2  A    between atoms: C6_6  and  O10_10 
REMARK    3  A    between atoms: C7_7  and  C8_8 
REMARK    4  A    between atoms: C7_7  and  O9_9 
ROOT
HETATM    1  C7  UNL     1     -33.947  16.316  -4.198  1.00 20.00     0.154 C 
ENDROOT
BRANCH   1   2
HETATM    2  C6  UNL     1     -35.028  16.308  -5.298  1.00 20.00     0.146 C 
HETATM    3  C1  UNL     1     -35.654  14.931  -5.503  1.00 20.00     0.042 C 
BRANCH   2   4
HETATM    4  O10 UNL     1     -34.495  16.730  -6.549  1.00 20.00    -0.388 OA
HETATM    5  C5  UNL     1     -34.137  15.622  -7.362  1.00 20.00     0.202 C 
ENDBRANCH   2   4
ENDBRANCH   1   2
BRANCH   1   6
HETATM    6  C8  UNL     1     -33.917  17.559  -3.246  1.00 20.00    -0.023 C 
HETATM    7  C2  UNL     1     -35.329  18.190  -3.221  1.00 20.00     0.017 C 
HETATM    8  C3  UNL     1     -33.559  17.139  -1.810  1.00 20.00     0.017 C 
HETATM    9  C4  UNL     1     -32.933  18.649  -3.707  1.00 20.00     0.017 C 
ENDBRANCH   1   6
BRANCH   1  10
HETATM   10  O9  UNL     1     -34.072  15.132  -3.404  1.00 20.00    -0.392 OA
HETATM   11  H28 UNL     1     -33.265  15.075  -2.874  1.00 20.00     0.210 HD
ENDBRANCH   1  10
TORSDOF 4
ENDMDL
MODEL 9
REMARK VINA RESULT:      -3.2      1.723      2.868
REMARK  4 active torsions:
REMARK  status: ('A' for Active; 'I' for Inactive)
REMARK    1  A    between atoms: C6_6  and  C7_7 
REMARK    2  A    between atoms: C6_6  and  O10_10 
REMARK    3  A    between atoms: C7_7  and  C8_8 
REMARK    4  A    between atoms: C7_7  and  O9_9 
ROOT
HETATM    1  C7  UNL     1     -33.462   5.288   4.330  1.00 20.00     0.154 C 
ENDROOT
BRANCH   1   2
HETATM    2  C6  UNL     1     -33.156   5.780   2.899  1.00 20.00     0.146 C 
HETATM    3  C1  UNL     1     -32.837   4.638   1.937  1.00 20.00     0.042 C 
BRANCH   2   4
HETATM    4  O10 UNL     1     -32.051   6.676   2.887  1.00 20.00    -0.388 OA
HETATM    5  C5  UNL     1     -32.304   7.803   2.060  1.00 20.00     0.202 C 
ENDBRANCH   2   4
ENDBRANCH   1   2
BRANCH   1   6
HETATM    6  C8  UNL     1     -34.435   6.166   5.185  1.00 20.00    -0.023 C 
HETATM    7  C2  UNL     1     -35.774   6.297   4.423  1.00 20.00     0.017 C 
HETATM    8  C3  UNL     1     -34.724   5.499   6.542  1.00 20.00     0.017 C 
HETATM    9  C4  UNL     1     -33.904   7.589   5.433  1.00 20.00     0.017 C 
ENDBRANCH   1   6
BRANCH   1  10
HETATM   10  O9  UNL     1     -33.977   3.954   4.270  1.00 20.00    -0.392 OA
HETATM   11  H28 UNL     1     -33.340   3.397   4.741  1.00 20.00     0.210 HD
ENDBRANCH   1  10
TORSDOF 4
ENDMDL
