MODEL 1
REMARK VINA RESULT:      -4.0      0.000      0.000
REMARK  2 active torsions:
REMARK  status: ('A' for Active; 'I' for Inactive)
REMARK    1  A    between atoms: C7_7  and  C8_8 
REMARK    2  A    between atoms: C8_8  and  S9_9 
ROOT
HETATM    1  C1  UNL     1     -34.415   4.691   6.042  1.00 20.00     0.005 C 
HETATM    2  C2  UNL     1     -33.831   4.500   4.634  1.00 20.00     0.005 C 
HETATM    3  C3  UNL     1     -35.423   6.257   4.560  1.00 20.00     0.009 C 
HETATM    4  C4  UNL     1     -33.751   7.110   6.021  1.00 20.00     0.010 C 
HETATM    5  C5  UNL     1     -34.943   6.135   6.004  1.00 20.00    -0.014 C 
HETATM    6  C6  UNL     1     -34.061   5.874   3.977  1.00 20.00    -0.009 C 
HETATM    7  C7  UNL     1     -33.105   6.895   4.636  1.00 20.00    -0.001 C 
ENDROOT
BRANCH   7   8
HETATM    8  C8  UNL     1     -32.987   8.193   3.845  1.00 20.00     0.075 C 
BRANCH   8   9
HETATM    9  S9  UNL     1     -32.254   7.877   2.220  1.00 20.00    -0.182 SA
HETATM   10  H23 UNL     1     -32.997   8.768   1.548  1.00 20.00     0.101 HD
ENDBRANCH   8   9
ENDBRANCH   7   8
TORSDOF 2
ENDMDL
MODEL 2
REMARK VINA RESULT:      -3.6      0.918      1.419
REMARK  2 active torsions:
REMARK  status: ('A' for Active; 'I' for Inactive)
REMARK    1  A    between atoms: C7_7  and  C8_8 
REMARK    2  A    between atoms: C8_8  and  S9_9 
ROOT
HETATM    1  C1  UNL     1     -34.500   6.299   6.584  1.00 20.00     0.005 C 
HETATM    2  C2  UNL     1     -34.310   4.896   5.987  1.00 20.00     0.005 C 
HETATM    3  C3  UNL     1     -35.442   6.246   4.399  1.00 20.00     0.009 C 
HETATM    4  C4  UNL     1     -33.334   7.328   4.617  1.00 20.00     0.010 C 
HETATM    5  C5  UNL     1     -34.685   7.182   5.340  1.00 20.00    -0.014 C 
HETATM    6  C6  UNL     1     -34.370   5.157   4.471  1.00 20.00    -0.009 C 
HETATM    7  C7  UNL     1     -33.084   5.910   4.056  1.00 20.00    -0.001 C 
ENDROOT
BRANCH   7   8
HETATM    8  C8  UNL     1     -32.861   5.917   2.548  1.00 20.00     0.075 C 
BRANCH   8   9
HETATM    9  S9  UNL     1     -32.381   7.571   1.989  1.00 20.00    -0.182 SA
HETATM   10  H23 UNL     1     -32.300   7.267   0.686  1.00 20.00     0.101 HD
ENDBRANCH   8   9
ENDBRANCH   7   8
TORSDOF 2
ENDMDL
MODEL 3
REMARK VINA RESULT:      -3.6     15.873     16.827
REMARK  2 active torsions:
REMARK  status: ('A' for Active; 'I' for Inactive)
REMARK    1  A    between atoms: C7_7  and  C8_8 
REMARK    2  A    between atoms: C8_8  and  S9_9 
ROOT
HETATM    1  C1  UNL     1     -22.774  18.631   8.044  1.00 20.00     0.005 C 
HETATM    2  C2  UNL     1     -22.101  17.353   8.567  1.00 20.00     0.005 C 
HETATM    3  C3  UNL     1     -22.302  18.889  10.363  1.00 20.00     0.009 C 
HETATM    4  C4  UNL     1     -24.566  18.436   9.788  1.00 20.00     0.010 C 
HETATM    5  C5  UNL     1     -23.354  19.263   9.321  1.00 20.00    -0.014 C 
HETATM    6  C6  UNL     1     -22.414  17.390  10.074  1.00 20.00    -0.009 C 
HETATM    7  C7  UNL     1     -23.924  17.115  10.264  1.00 20.00    -0.001 C 
ENDROOT
BRANCH   7   8
HETATM    8  C8  UNL     1     -24.289  16.781  11.706  1.00 20.00     0.075 C 
BRANCH   8   9
HETATM    9  S9  UNL     1     -25.519  17.954  12.332  1.00 20.00    -0.182 SA
HETATM   10  H23 UNL     1     -25.824  18.493  11.144  1.00 20.00     0.101 HD
ENDBRANCH   8   9
ENDBRANCH   7   8
TORSDOF 2
ENDMDL
MODEL 4
REMARK VINA RESULT:      -3.4     16.443     17.433
REMARK  2 active torsions:
REMARK  status: ('A' for Active; 'I' for Inactive)
REMARK    1  A    between atoms: C7_7  and  C8_8 
REMARK    2  A    between atoms: C8_8  and  S9_9 
ROOT
HETATM    1  C1  UNL     1     -21.829  19.263   8.553  1.00 20.00     0.005 C 
HETATM    2  C2  UNL     1     -23.347  19.202   8.776  1.00 20.00     0.005 C 
HETATM    3  C3  UNL     1     -22.423  17.080   9.293  1.00 20.00     0.009 C 
HETATM    4  C4  UNL     1     -21.422  18.510  10.910  1.00 20.00     0.010 C 
HETATM    5  C5  UNL     1     -21.304  18.112   9.427  1.00 20.00    -0.014 C 
HETATM    6  C6  UNL     1     -23.501  18.048   9.784  1.00 20.00    -0.009 C 
HETATM    7  C7  UNL     1     -22.947  18.518  11.150  1.00 20.00    -0.001 C 
ENDROOT
BRANCH   7   8
HETATM    8  C8  UNL     1     -23.356  17.606  12.301  1.00 20.00     0.075 C 
BRANCH   8   9
HETATM    9  S9  UNL     1     -25.051  17.013  12.064  1.00 20.00    -0.182 SA
HETATM   10  H23 UNL     1     -25.454  17.216  13.326  1.00 20.00     0.101 HD
ENDBRANCH   8   9
ENDBRANCH   7   8
TORSDOF 2
ENDMDL
MODEL 5
REMARK VINA RESULT:      -3.2     12.796     13.606
REMARK  2 active torsions:
REMARK  status: ('A' for Active; 'I' for Inactive)
REMARK    1  A    between atoms: C7_7  and  C8_8 
REMARK    2  A    between atoms: C8_8  and  S9_9 
ROOT
HETATM    1  C1  UNL     1     -34.345  17.761  -2.843  1.00 20.00     0.005 C 
HETATM    2  C2  UNL     1     -33.192  16.956  -2.225  1.00 20.00     0.005 C 
HETATM    3  C3  UNL     1     -32.655  19.263  -2.101  1.00 20.00     0.009 C 
HETATM    4  C4  UNL     1     -34.591  19.089  -0.729  1.00 20.00     0.010 C 
HETATM    5  C5  UNL     1     -34.174  19.152  -2.210  1.00 20.00    -0.014 C 
HETATM    6  C6  UNL     1     -32.526  17.976  -1.283  1.00 20.00    -0.009 C 
HETATM    7  C7  UNL     1     -33.478  18.229  -0.090  1.00 20.00    -0.001 C 
ENDROOT
BRANCH   7   8
HETATM    8  C8  UNL     1     -32.795  18.941   1.072  1.00 20.00     0.075 C 
BRANCH   8   9
HETATM    9  S9  UNL     1     -31.052  18.460   1.168  1.00 20.00    -0.182 SA
HETATM   10  H23 UNL     1     -30.596  19.649   1.589  1.00 20.00     0.101 HD
ENDBRANCH   8   9
ENDBRANCH   7   8
TORSDOF 2
ENDMDL
MODEL 6
REMARK VINA RESULT:      -3.2     12.661     13.754
REMARK  2 active torsions:
REMARK  status: ('A' for Active; 'I' for Inactive)
REMARK    1  A    between atoms: C7_7  and  C8_8 
REMARK    2  A    between atoms: C8_8  and  S9_9 
ROOT
HETATM    1  C1  UNL     1     -32.547  19.263  -1.949  1.00 20.00     0.005 C 
HETATM    2  C2  UNL     1     -32.457  17.966  -1.132  1.00 20.00     0.005 C 
HETATM    3  C3  UNL     1     -34.631  18.120  -2.067  1.00 20.00     0.009 C 
HETATM    4  C4  UNL     1     -33.232  17.968  -3.985  1.00 20.00     0.010 C 
HETATM    5  C5  UNL     1     -33.703  18.978  -2.923  1.00 20.00    -0.014 C 
HETATM    6  C6  UNL     1     -33.547  17.082  -1.766  1.00 20.00    -0.009 C 
HETATM    7  C7  UNL     1     -33.072  16.661  -3.177  1.00 20.00    -0.001 C 
ENDROOT
BRANCH   7   8
HETATM    8  C8  UNL     1     -33.891  15.516  -3.761  1.00 20.00     0.075 C 
BRANCH   8   9
HETATM    9  S9  UNL     1     -34.664  16.025  -5.317  1.00 20.00    -0.182 SA
HETATM   10  H23 UNL     1     -34.076  17.227  -5.387  1.00 20.00     0.101 HD
ENDBRANCH   8   9
ENDBRANCH   7   8
TORSDOF 2
ENDMDL
MODEL 7
REMARK VINA RESULT:      -3.1     12.562     13.671
REMARK  2 active torsions:
REMARK  status: ('A' for Active; 'I' for Inactive)
REMARK    1  A    between atoms: C7_7  and  C8_8 
REMARK    2  A    between atoms: C8_8  and  S9_9 
ROOT
HETATM    1  C1  UNL     1     -34.978  19.226  -1.701  1.00 20.00     0.005 C 
HETATM    2  C2  UNL     1     -34.806  19.115  -0.179  1.00 20.00     0.005 C 
HETATM    3  C3  UNL     1     -33.709  17.277  -1.199  1.00 20.00     0.009 C 
HETATM    4  C4  UNL     1     -32.491  19.150  -2.018  1.00 20.00     0.010 C 
HETATM    5  C5  UNL     1     -33.809  18.387  -2.243  1.00 20.00    -0.014 C 
HETATM    6  C6  UNL     1     -33.535  18.257  -0.037  1.00 20.00    -0.009 C 
HETATM    7  C7  UNL     1     -32.322  19.108  -0.483  1.00 20.00    -0.001 C 
ENDROOT
BRANCH   7   8
HETATM    8  C8  UNL     1     -30.987  18.503  -0.065  1.00 20.00     0.075 C 
BRANCH   8   9
HETATM    9  S9  UNL     1     -30.868  18.425   1.740  1.00 20.00    -0.182 SA
HETATM   10  H23 UNL     1     -29.604  18.862   1.822  1.00 20.00     0.101 HD
ENDBRANCH   8   9
ENDBRANCH   7   8
TORSDOF 2
ENDMDL
MODEL 8
REMARK VINA RESULT:      -3.1      8.663     10.018
REMARK  2 active torsions:
REMARK  status: ('A' for Active; 'I' for Inactive)
REMARK    1  A    between atoms: C7_7  and  C8_8 
REMARK    2  A    between atoms: C8_8  and  S9_9 
ROOT
HETATM    1  C1  UNL     1     -40.793   7.654  -0.421  1.00 20.00     0.005 C 
HETATM    2  C2  UNL     1     -40.857   7.696   1.113  1.00 20.00     0.005 C 
HETATM    3  C3  UNL     1     -43.072   7.694   0.264  1.00 20.00     0.009 C 
HETATM    4  C4  UNL     1     -42.220   5.591  -0.453  1.00 20.00     0.010 C 
HETATM    5  C5  UNL     1     -42.170   7.089  -0.809  1.00 20.00    -0.014 C 
HETATM    6  C6  UNL     1     -42.249   7.112   1.416  1.00 20.00    -0.009 C 
HETATM    7  C7  UNL     1     -42.223   5.600   1.091  1.00 20.00    -0.001 C 
ENDROOT
BRANCH   7   8
HETATM    8  C8  UNL     1     -43.416   4.848   1.671  1.00 20.00     0.075 C 
BRANCH   8   9
HETATM    9  S9  UNL     1     -43.417   3.130   1.098  1.00 20.00    -0.182 SA
HETATM   10  H23 UNL     1     -44.721   3.081   0.789  1.00 20.00     0.101 HD
ENDBRANCH   8   9
ENDBRANCH   7   8
TORSDOF 2
ENDMDL
MODEL 9
REMARK VINA RESULT:      -3.1     12.763     13.808
REMARK  2 active torsions:
REMARK  status: ('A' for Active; 'I' for Inactive)
REMARK    1  A    between atoms: C7_7  and  C8_8 
REMARK    2  A    between atoms: C8_8  and  S9_9 
ROOT
HETATM    1  C1  UNL     1     -33.657  18.141  -0.215  1.00 20.00     0.005 C 
HETATM    2  C2  UNL     1     -34.631  19.063  -0.963  1.00 20.00     0.005 C 
HETATM    3  C3  UNL     1     -32.564  19.047  -2.125  1.00 20.00     0.009 C 
HETATM    4  C4  UNL     1     -33.293  16.788  -2.295  1.00 20.00     0.010 C 
HETATM    5  C5  UNL     1     -32.636  17.763  -1.301  1.00 20.00    -0.014 C 
HETATM    6  C6  UNL     1     -34.069  19.067  -2.397  1.00 20.00    -0.009 C 
HETATM    7  C7  UNL     1     -34.326  17.676  -3.023  1.00 20.00    -0.001 C 
ENDROOT
BRANCH   7   8
HETATM    8  C8  UNL     1     -34.135  17.662  -4.536  1.00 20.00     0.075 C 
BRANCH   8   9
HETATM    9  S9  UNL     1     -34.418  15.998  -5.192  1.00 20.00    -0.182 SA
HETATM   10  H23 UNL     1     -35.551  15.765  -4.514  1.00 20.00     0.101 HD
ENDBRANCH   8   9
ENDBRANCH   7   8
TORSDOF 2
ENDMDL
