MODEL 1
REMARK VINA RESULT:      -4.7      0.000      0.000
REMARK  4 active torsions:
REMARK  status: ('A' for Active; 'I' for Inactive)
REMARK    1  A    between atoms: C1_1  and  C9_9 
REMARK    2  A    between atoms: C8_8  and  C10_10 
REMARK    3  A    between atoms: C9_9  and  C11_11 
REMARK    4  A    between atoms: C10_10  and  C11_11 
ROOT
HETATM    1  C2  UNL     1     -34.407   4.691   5.943  1.00 20.00     0.005 C 
HETATM    2  C3  UNL     1     -33.823   4.618   4.525  1.00 20.00     0.005 C 
HETATM    3  C4  UNL     1     -35.388   6.400   4.607  1.00 20.00     0.009 C 
HETATM    4  C5  UNL     1     -33.706   7.092   6.140  1.00 20.00     0.009 C 
HETATM    5  C6  UNL     1     -34.912   6.142   6.035  1.00 20.00    -0.014 C 
HETATM    6  C7  UNL     1     -34.031   6.049   3.992  1.00 20.00    -0.010 C 
HETATM    7  C8  UNL     1     -33.060   6.992   4.741  1.00 20.00    -0.010 C 
ENDROOT
BRANCH   7   8
HETATM    8  C10 UNL     1     -32.920   8.353   4.070  1.00 20.00     0.005 C 
BRANCH   8   9
HETATM    9  C11 UNL     1     -32.530   8.208   2.599  1.00 20.00     0.007 C 
BRANCH   9  10
HETATM   10  C9  UNL     1     -32.902   9.438   1.775  1.00 20.00     0.069 C 
BRANCH  10  11
HETATM   11  C1  UNL     1     -32.595   9.308   0.302  1.00 20.00     0.231 C 
HETATM   12  O12 UNL     1     -33.243   8.638  -0.494  1.00 20.00    -0.307 OA
ENDBRANCH  10  11
ENDBRANCH   9  10
ENDBRANCH   8   9
ENDBRANCH   7   8
TORSDOF 4
ENDMDL
MODEL 2
REMARK VINA RESULT:      -4.2     11.316     12.412
REMARK  4 active torsions:
REMARK  status: ('A' for Active; 'I' for Inactive)
REMARK    1  A    between atoms: C1_1  and  C9_9 
REMARK    2  A    between atoms: C8_8  and  C10_10 
REMARK    3  A    between atoms: C9_9  and  C11_11 
REMARK    4  A    between atoms: C10_10  and  C11_11 
ROOT
HETATM    1  C2  UNL     1     -35.817  14.752  -5.801  1.00 20.00     0.005 C 
HETATM    2  C3  UNL     1     -35.409  13.977  -4.539  1.00 20.00     0.005 C 
HETATM    3  C4  UNL     1     -33.446  14.794  -5.591  1.00 20.00     0.009 C 
HETATM    4  C5  UNL     1     -34.596  16.786  -4.984  1.00 20.00     0.009 C 
HETATM    5  C6  UNL     1     -34.609  15.672  -6.047  1.00 20.00    -0.014 C 
HETATM    6  C7  UNL     1     -34.033  14.579  -4.195  1.00 20.00    -0.010 C 
HETATM    7  C8  UNL     1     -34.248  16.024  -3.686  1.00 20.00    -0.010 C 
ENDROOT
BRANCH   7   8
HETATM    8  C10 UNL     1     -33.019  16.596  -2.992  1.00 20.00     0.005 C 
BRANCH   8   9
HETATM    9  C11 UNL     1     -33.384  17.229  -1.648  1.00 20.00     0.007 C 
BRANCH   9  10
HETATM   10  C9  UNL     1     -32.839  18.648  -1.507  1.00 20.00     0.069 C 
BRANCH  10  11
HETATM   11  C1  UNL     1     -31.777  18.795  -0.443  1.00 20.00     0.231 C 
HETATM   12  O12 UNL     1     -30.609  18.442  -0.563  1.00 20.00    -0.307 OA
ENDBRANCH  10  11
ENDBRANCH   9  10
ENDBRANCH   8   9
ENDBRANCH   7   8
TORSDOF 4
ENDMDL
MODEL 3
REMARK VINA RESULT:      -4.1     11.483     12.787
REMARK  4 active torsions:
REMARK  status: ('A' for Active; 'I' for Inactive)
REMARK    1  A    between atoms: C1_1  and  C9_9 
REMARK    2  A    between atoms: C8_8  and  C10_10 
REMARK    3  A    between atoms: C9_9  and  C11_11 
REMARK    4  A    between atoms: C10_10  and  C11_11 
ROOT
HETATM    1  C2  UNL     1     -34.702  19.157  -1.803  1.00 20.00     0.005 C 
HETATM    2  C3  UNL     1     -35.322  18.670  -3.121  1.00 20.00     0.005 C 
HETATM    3  C4  UNL     1     -32.973  18.843  -3.409  1.00 20.00     0.009 C 
HETATM    4  C5  UNL     1     -33.186  17.158  -1.743  1.00 20.00     0.009 C 
HETATM    5  C6  UNL     1     -33.241  18.687  -1.914  1.00 20.00    -0.014 C 
HETATM    6  C7  UNL     1     -34.147  17.947  -3.808  1.00 20.00    -0.010 C 
HETATM    7  C8  UNL     1     -33.862  16.639  -3.032  1.00 20.00    -0.010 C 
ENDROOT
BRANCH   7   8
HETATM    8  C10 UNL     1     -32.970  15.675  -3.804  1.00 20.00     0.005 C 
BRANCH   8   9
HETATM    9  C11 UNL     1     -33.793  14.580  -4.482  1.00 20.00     0.007 C 
BRANCH   9  10
HETATM   10  C9  UNL     1     -34.218  14.964  -5.897  1.00 20.00     0.069 C 
BRANCH  10  11
HETATM   11  C1  UNL     1     -35.675  14.702  -6.195  1.00 20.00     0.231 C 
HETATM   12  O12 UNL     1     -36.112  14.301  -7.268  1.00 20.00    -0.307 OA
ENDBRANCH  10  11
ENDBRANCH   9  10
ENDBRANCH   8   9
ENDBRANCH   7   8
TORSDOF 4
ENDMDL
MODEL 4
REMARK VINA RESULT:      -4.0     11.501     12.959
REMARK  4 active torsions:
REMARK  status: ('A' for Active; 'I' for Inactive)
REMARK    1  A    between atoms: C1_1  and  C9_9 
REMARK    2  A    between atoms: C8_8  and  C10_10 
REMARK    3  A    between atoms: C9_9  and  C11_11 
REMARK    4  A    between atoms: C10_10  and  C11_11 
ROOT
HETATM    1  C2  UNL     1     -35.721  15.326  -7.274  1.00 20.00     0.005 C 
HETATM    2  C3  UNL     1     -34.547  16.301  -7.105  1.00 20.00     0.005 C 
HETATM    3  C4  UNL     1     -36.007  16.550  -5.253  1.00 20.00     0.009 C 
HETATM    4  C5  UNL     1     -35.239  14.310  -5.032  1.00 20.00     0.009 C 
HETATM    5  C6  UNL     1     -36.241  15.158  -5.836  1.00 20.00    -0.014 C 
HETATM    6  C7  UNL     1     -34.514  16.541  -5.584  1.00 20.00    -0.010 C 
HETATM    7  C8  UNL     1     -34.017  15.245  -4.899  1.00 20.00    -0.010 C 
ENDROOT
BRANCH   7   8
HETATM    8  C10 UNL     1     -33.611  15.462  -3.446  1.00 20.00     0.005 C 
BRANCH   8   9
HETATM    9  C11 UNL     1     -33.223  16.918  -3.190  1.00 20.00     0.007 C 
BRANCH   9  10
HETATM   10  C9  UNL     1     -33.490  17.346  -1.749  1.00 20.00     0.069 C 
BRANCH  10  11
HETATM   11  C1  UNL     1     -32.372  18.151  -1.129  1.00 20.00     0.231 C 
HETATM   12  O12 UNL     1     -31.793  19.084  -1.674  1.00 20.00    -0.307 OA
ENDBRANCH  10  11
ENDBRANCH   9  10
ENDBRANCH   8   9
ENDBRANCH   7   8
TORSDOF 4
ENDMDL
MODEL 5
REMARK VINA RESULT:      -3.9     11.366     12.511
REMARK  4 active torsions:
REMARK  status: ('A' for Active; 'I' for Inactive)
REMARK    1  A    between atoms: C1_1  and  C9_9 
REMARK    2  A    between atoms: C8_8  and  C10_10 
REMARK    3  A    between atoms: C9_9  and  C11_11 
REMARK    4  A    between atoms: C10_10  and  C11_11 
ROOT
HETATM    1  C2  UNL     1     -32.430  19.263  -1.569  1.00 20.00     0.005 C 
HETATM    2  C3  UNL     1     -32.396  17.901  -0.861  1.00 20.00     0.005 C 
HETATM    3  C4  UNL     1     -34.540  18.193  -1.833  1.00 20.00     0.009 C 
HETATM    4  C5  UNL     1     -33.095  18.162  -3.723  1.00 20.00     0.009 C 
HETATM    5  C6  UNL     1     -33.567  19.093  -2.591  1.00 20.00    -0.014 C 
HETATM    6  C7  UNL     1     -33.492  17.104  -1.594  1.00 20.00    -0.010 C 
HETATM    7  C8  UNL     1     -32.991  16.789  -3.023  1.00 20.00    -0.010 C 
ENDROOT
BRANCH   7   8
HETATM    8  C10 UNL     1     -33.824  15.720  -3.720  1.00 20.00     0.005 C 
BRANCH   8   9
HETATM    9  C11 UNL     1     -34.512  16.278  -4.966  1.00 20.00     0.007 C 
BRANCH   9  10
HETATM   10  C9  UNL     1     -35.654  15.387  -5.447  1.00 20.00     0.069 C 
BRANCH  10  11
HETATM   11  C1  UNL     1     -35.515  13.938  -5.043  1.00 20.00     0.231 C 
HETATM   12  O12 UNL     1     -36.365  13.292  -4.441  1.00 20.00    -0.307 OA
ENDBRANCH  10  11
ENDBRANCH   9  10
ENDBRANCH   8   9
ENDBRANCH   7   8
TORSDOF 4
ENDMDL
MODEL 6
REMARK VINA RESULT:      -3.9      9.920     10.879
REMARK  4 active torsions:
REMARK  status: ('A' for Active; 'I' for Inactive)
REMARK    1  A    between atoms: C1_1  and  C9_9 
REMARK    2  A    between atoms: C8_8  and  C10_10 
REMARK    3  A    between atoms: C9_9  and  C11_11 
REMARK    4  A    between atoms: C10_10  and  C11_11 
ROOT
HETATM    1  C2  UNL     1     -41.492  16.312   9.268  1.00 20.00     0.005 C 
HETATM    2  C3  UNL     1     -40.717  16.401   7.945  1.00 20.00     0.005 C 
HETATM    3  C4  UNL     1     -40.234  14.314   8.966  1.00 20.00     0.009 C 
HETATM    4  C5  UNL     1     -42.568  14.170   8.529  1.00 20.00     0.009 C 
HETATM    5  C6  UNL     1     -41.572  14.797   9.521  1.00 20.00    -0.014 C 
HETATM    6  C7  UNL     1     -40.483  14.922   7.583  1.00 20.00    -0.010 C 
HETATM    7  C8  UNL     1     -41.839  14.301   7.173  1.00 20.00    -0.010 C 
ENDROOT
BRANCH   7   8
HETATM    8  C10 UNL     1     -41.687  12.960   6.466  1.00 20.00     0.005 C 
BRANCH   8   9
HETATM    9  C11 UNL     1     -40.636  13.033   5.359  1.00 20.00     0.007 C 
BRANCH   9  10
HETATM   10  C9  UNL     1     -39.600  11.917   5.468  1.00 20.00     0.069 C 
BRANCH  10  11
HETATM   11  C1  UNL     1     -38.936  11.564   4.158  1.00 20.00     0.231 C 
HETATM   12  O12 UNL     1     -39.241  12.034   3.067  1.00 20.00    -0.307 OA
ENDBRANCH  10  11
ENDBRANCH   9  10
ENDBRANCH   8   9
ENDBRANCH   7   8
TORSDOF 4
ENDMDL
MODEL 7
REMARK VINA RESULT:      -3.8      9.338     10.682
REMARK  4 active torsions:
REMARK  status: ('A' for Active; 'I' for Inactive)
REMARK    1  A    between atoms: C1_1  and  C9_9 
REMARK    2  A    between atoms: C8_8  and  C10_10 
REMARK    3  A    between atoms: C9_9  and  C11_11 
REMARK    4  A    between atoms: C10_10  and  C11_11 
ROOT
HETATM    1  C2  UNL     1     -40.855   7.591   1.137  1.00 20.00     0.005 C 
HETATM    2  C3  UNL     1     -42.304   7.334   1.575  1.00 20.00     0.005 C 
HETATM    3  C4  UNL     1     -42.276   7.700  -0.769  1.00 20.00     0.009 C 
HETATM    4  C5  UNL     1     -40.990   5.714  -0.522  1.00 20.00     0.009 C 
HETATM    5  C6  UNL     1     -40.878   7.241  -0.361  1.00 20.00    -0.014 C 
HETATM    6  C7  UNL     1     -42.970   6.829   0.281  1.00 20.00    -0.010 C 
HETATM    7  C8  UNL     1     -42.423   5.416  -0.029  1.00 20.00    -0.010 C 
ENDROOT
BRANCH   7   8
HETATM    8  C10 UNL     1     -43.251   4.675  -1.072  1.00 20.00     0.005 C 
BRANCH   8   9
HETATM    9  C11 UNL     1     -42.384   4.216  -2.245  1.00 20.00     0.007 C 
BRANCH   9  10
HETATM   10  C9  UNL     1     -43.012   3.056  -3.012  1.00 20.00     0.069 C 
BRANCH  10  11
HETATM   11  C1  UNL     1     -42.593   2.978  -4.461  1.00 20.00     0.231 C 
HETATM   12  O12 UNL     1     -42.669   3.901  -5.265  1.00 20.00    -0.307 OA
ENDBRANCH  10  11
ENDBRANCH   9  10
ENDBRANCH   8   9
ENDBRANCH   7   8
TORSDOF 4
ENDMDL
MODEL 8
REMARK VINA RESULT:      -3.8     11.500     12.694
REMARK  4 active torsions:
REMARK  status: ('A' for Active; 'I' for Inactive)
REMARK    1  A    between atoms: C1_1  and  C9_9 
REMARK    2  A    between atoms: C8_8  and  C10_10 
REMARK    3  A    between atoms: C9_9  and  C11_11 
REMARK    4  A    between atoms: C10_10  and  C11_11 
ROOT
HETATM    1  C2  UNL     1     -33.729  18.146  -0.138  1.00 20.00     0.005 C 
HETATM    2  C3  UNL     1     -34.687  19.096  -0.871  1.00 20.00     0.005 C 
HETATM    3  C4  UNL     1     -32.584  19.149  -1.967  1.00 20.00     0.009 C 
HETATM    4  C5  UNL     1     -33.288  16.897  -2.269  1.00 20.00     0.009 C 
HETATM    5  C6  UNL     1     -32.671  17.827  -1.208  1.00 20.00    -0.014 C 
HETATM    6  C7  UNL     1     -34.080  19.173  -2.285  1.00 20.00    -0.010 C 
HETATM    7  C8  UNL     1     -34.305  17.812  -2.986  1.00 20.00    -0.010 C 
ENDROOT
BRANCH   7   8
HETATM    8  C10 UNL     1     -34.068  17.873  -4.489  1.00 20.00     0.005 C 
BRANCH   8   9
HETATM    9  C11 UNL     1     -35.103  17.042  -5.248  1.00 20.00     0.007 C 
BRANCH   9  10
HETATM   10  C9  UNL     1     -34.536  15.709  -5.731  1.00 20.00     0.069 C 
BRANCH  10  11
HETATM   11  C1  UNL     1     -34.895  14.535  -4.852  1.00 20.00     0.231 C 
HETATM   12  O12 UNL     1     -34.125  13.974  -4.080  1.00 20.00    -0.307 OA
ENDBRANCH  10  11
ENDBRANCH   9  10
ENDBRANCH   8   9
ENDBRANCH   7   8
TORSDOF 4
ENDMDL
MODEL 9
REMARK VINA RESULT:      -3.7     10.114     11.078
REMARK  4 active torsions:
REMARK  status: ('A' for Active; 'I' for Inactive)
REMARK    1  A    between atoms: C1_1  and  C9_9 
REMARK    2  A    between atoms: C8_8  and  C10_10 
REMARK    3  A    between atoms: C9_9  and  C11_11 
REMARK    4  A    between atoms: C10_10  and  C11_11 
ROOT
HETATM    1  C2  UNL     1     -41.394  16.239   9.749  1.00 20.00     0.005 C 
HETATM    2  C3  UNL     1     -42.714  15.936   9.026  1.00 20.00     0.005 C 
HETATM    3  C4  UNL     1     -41.009  16.216   7.400  1.00 20.00     0.009 C 
HETATM    4  C5  UNL     1     -40.289  14.297   8.607  1.00 20.00     0.009 C 
HETATM    5  C6  UNL     1     -40.331  15.833   8.713  1.00 20.00    -0.014 C 
HETATM    6  C7  UNL     1     -42.244  15.357   7.678  1.00 20.00    -0.010 C 
HETATM    7  C8  UNL     1     -41.638  13.957   7.936  1.00 20.00    -0.010 C 
ENDROOT
BRANCH   7   8
HETATM    8  C10 UNL     1     -41.460  13.144   6.660  1.00 20.00     0.005 C 
BRANCH   8   9
HETATM    9  C11 UNL     1     -39.985  12.838   6.399  1.00 20.00     0.007 C 
BRANCH   9  10
HETATM   10  C9  UNL     1     -39.795  11.597   5.530  1.00 20.00     0.069 C 
BRANCH  10  11
HETATM   11  C1  UNL     1     -38.839  11.795   4.376  1.00 20.00     0.231 C 
HETATM   12  O12 UNL     1     -39.165  11.848   3.196  1.00 20.00    -0.307 OA
ENDBRANCH  10  11
ENDBRANCH   9  10
ENDBRANCH   8   9
ENDBRANCH   7   8
TORSDOF 4
ENDMDL
