MODEL 1
REMARK VINA RESULT:      -3.9      0.000      0.000
REMARK  4 active torsions:
REMARK  status: ('A' for Active; 'I' for Inactive)
REMARK    1  A    between atoms: C4_4  and  C6_6 
REMARK    2  A    between atoms: C4_4  and  C7_7 
REMARK    3  A    between atoms: C5_5  and  C6_6 
REMARK    4  A    between atoms: C5_5  and  O8_8 
ROOT
HETATM    1  C1  UNL     1     -32.465   8.812   5.013  1.00 20.00     0.012 C 
HETATM    2  C6  UNL     1     -32.826   7.468   4.380  1.00 20.00     0.007 C 
ENDROOT
BRANCH   2   3
HETATM    3  C4  UNL     1     -34.350   7.202   4.397  1.00 20.00     0.026 C 
BRANCH   3   4
HETATM    4  C7  UNL     1     -34.792   5.867   5.016  1.00 20.00     0.078 C 
HETATM    5  C2  UNL     1     -34.429   5.805   6.496  1.00 20.00     0.026 C 
HETATM    6 CL9  UNL     1     -34.028   4.484   4.178  1.00 20.00    -0.125 Cl
ENDBRANCH   3   4
ENDBRANCH   2   3
BRANCH   2   7
HETATM    7  C5  UNL     1     -32.290   7.421   2.941  1.00 20.00     0.171 C 
BRANCH   7   8
HETATM    8  O8  UNL     1     -32.501   8.670   2.298  1.00 20.00    -0.396 OA
HETATM    9  C3  UNL     1     -32.286   8.580   0.897  1.00 20.00     0.201 C 
ENDBRANCH   7   8
ENDBRANCH   2   7
TORSDOF 4
ENDMDL
MODEL 2
REMARK VINA RESULT:      -3.6      2.590      3.802
REMARK  4 active torsions:
REMARK  status: ('A' for Active; 'I' for Inactive)
REMARK    1  A    between atoms: C4_4  and  C6_6 
REMARK    2  A    between atoms: C4_4  and  C7_7 
REMARK    3  A    between atoms: C5_5  and  C6_6 
REMARK    4  A    between atoms: C5_5  and  O8_8 
ROOT
HETATM    1  C1  UNL     1     -33.701   6.230   6.572  1.00 20.00     0.012 C 
HETATM    2  C6  UNL     1     -34.733   6.765   5.578  1.00 20.00     0.007 C 
ENDROOT
BRANCH   2   3
HETATM    3  C4  UNL     1     -34.146   7.860   4.655  1.00 20.00     0.026 C 
BRANCH   3   4
HETATM    4  C7  UNL     1     -32.618   7.860   4.499  1.00 20.00     0.078 C 
HETATM    5  C2  UNL     1     -32.031   9.211   4.892  1.00 20.00     0.026 C 
HETATM    6 CL9  UNL     1     -32.142   7.495   2.814  1.00 20.00    -0.125 Cl
ENDBRANCH   3   4
ENDBRANCH   2   3
BRANCH   2   7
HETATM    7  C5  UNL     1     -35.290   5.601   4.743  1.00 20.00     0.171 C 
BRANCH   7   8
HETATM    8  O8  UNL     1     -34.404   4.492   4.799  1.00 20.00    -0.396 OA
HETATM    9  C3  UNL     1     -33.671   4.347   3.591  1.00 20.00     0.201 C 
ENDBRANCH   7   8
ENDBRANCH   2   7
TORSDOF 4
ENDMDL
MODEL 3
REMARK VINA RESULT:      -3.5      2.040      3.805
REMARK  4 active torsions:
REMARK  status: ('A' for Active; 'I' for Inactive)
REMARK    1  A    between atoms: C4_4  and  C6_6 
REMARK    2  A    between atoms: C4_4  and  C7_7 
REMARK    3  A    between atoms: C5_5  and  C6_6 
REMARK    4  A    between atoms: C5_5  and  O8_8 
ROOT
HETATM    1  C1  UNL     1     -32.245   8.925   5.186  1.00 20.00     0.012 C 
HETATM    2  C6  UNL     1     -33.565   8.154   5.139  1.00 20.00     0.007 C 
ENDROOT
BRANCH   2   3
HETATM    3  C4  UNL     1     -33.797   7.470   3.771  1.00 20.00     0.026 C 
BRANCH   3   4
HETATM    4  C7  UNL     1     -32.554   6.866   3.101  1.00 20.00     0.078 C 
HETATM    5  C2  UNL     1     -32.158   7.667   1.865  1.00 20.00     0.026 C 
HETATM    6 CL9  UNL     1     -32.843   5.168   2.618  1.00 20.00    -0.125 Cl
ENDBRANCH   3   4
ENDBRANCH   2   3
BRANCH   2   7
HETATM    7  C5  UNL     1     -33.590   7.115   6.270  1.00 20.00     0.171 C 
BRANCH   7   8
HETATM    8  O8  UNL     1     -34.763   6.318   6.177  1.00 20.00    -0.396 OA
HETATM    9  C3  UNL     1     -34.451   4.933   6.118  1.00 20.00     0.201 C 
ENDBRANCH   7   8
ENDBRANCH   2   7
TORSDOF 4
ENDMDL
MODEL 4
REMARK VINA RESULT:      -3.4     12.052     12.770
REMARK  4 active torsions:
REMARK  status: ('A' for Active; 'I' for Inactive)
REMARK    1  A    between atoms: C4_4  and  C6_6 
REMARK    2  A    between atoms: C4_4  and  C7_7 
REMARK    3  A    between atoms: C5_5  and  C6_6 
REMARK    4  A    between atoms: C5_5  and  O8_8 
ROOT
HETATM    1  C1  UNL     1     -33.905  17.731  -0.602  1.00 20.00     0.012 C 
HETATM    2  C6  UNL     1     -32.664  17.955  -1.466  1.00 20.00     0.007 C 
ENDROOT
BRANCH   2   3
HETATM    3  C4  UNL     1     -33.018  18.176  -2.956  1.00 20.00     0.026 C 
BRANCH   3   4
HETATM    4  C7  UNL     1     -33.930  17.116  -3.595  1.00 20.00     0.078 C 
HETATM    5  C2  UNL     1     -33.214  15.774  -3.700  1.00 20.00     0.026 C 
HETATM    6 CL9  UNL     1     -34.453  17.619  -5.230  1.00 20.00    -0.125 Cl
ENDBRANCH   3   4
ENDBRANCH   2   3
BRANCH   2   7
HETATM    7  C5  UNL     1     -31.870  19.151  -0.920  1.00 20.00     0.171 C 
BRANCH   7   8
HETATM    8  O8  UNL     1     -30.656  18.705  -0.332  1.00 20.00    -0.396 OA
HETATM    9  C3  UNL     1     -30.762  18.610   1.081  1.00 20.00     0.201 C 
ENDBRANCH   7   8
ENDBRANCH   2   7
TORSDOF 4
ENDMDL
MODEL 5
REMARK VINA RESULT:      -3.4      1.573      2.148
REMARK  4 active torsions:
REMARK  status: ('A' for Active; 'I' for Inactive)
REMARK    1  A    between atoms: C4_4  and  C6_6 
REMARK    2  A    between atoms: C4_4  and  C7_7 
REMARK    3  A    between atoms: C5_5  and  C6_6 
REMARK    4  A    between atoms: C5_5  and  O8_8 
ROOT
HETATM    1  C1  UNL     1     -34.333   6.982   6.885  1.00 20.00     0.012 C 
HETATM    2  C6  UNL     1     -33.707   6.938   5.490  1.00 20.00     0.007 C 
ENDROOT
BRANCH   2   3
HETATM    3  C4  UNL     1     -34.664   6.335   4.435  1.00 20.00     0.026 C 
BRANCH   3   4
HETATM    4  C7  UNL     1     -34.207   5.019   3.786  1.00 20.00     0.078 C 
HETATM    5  C2  UNL     1     -33.714   4.034   4.840  1.00 20.00     0.026 C 
HETATM    6 CL9  UNL     1     -32.892   5.306   2.607  1.00 20.00    -0.125 Cl
ENDBRANCH   3   4
ENDBRANCH   2   3
BRANCH   2   7
HETATM    7  C5  UNL     1     -33.277   8.354   5.079  1.00 20.00     0.171 C 
BRANCH   7   8
HETATM    8  O8  UNL     1     -32.150   8.292   4.216  1.00 20.00    -0.396 OA
HETATM    9  C3  UNL     1     -32.433   8.859   2.944  1.00 20.00     0.201 C 
ENDBRANCH   7   8
ENDBRANCH   2   7
TORSDOF 4
ENDMDL
MODEL 6
REMARK VINA RESULT:      -3.4      1.813      2.810
REMARK  4 active torsions:
REMARK  status: ('A' for Active; 'I' for Inactive)
REMARK    1  A    between atoms: C4_4  and  C6_6 
REMARK    2  A    between atoms: C4_4  and  C7_7 
REMARK    3  A    between atoms: C5_5  and  C6_6 
REMARK    4  A    between atoms: C5_5  and  O8_8 
ROOT
HETATM    1  C1  UNL     1     -32.853   4.841   1.977  1.00 20.00     0.012 C 
HETATM    2  C6  UNL     1     -33.360   5.748   3.100  1.00 20.00     0.007 C 
ENDROOT
BRANCH   2   3
HETATM    3  C4  UNL     1     -33.560   4.981   4.428  1.00 20.00     0.026 C 
BRANCH   3   4
HETATM    4  C7  UNL     1     -34.829   5.331   5.222  1.00 20.00     0.078 C 
HETATM    5  C2  UNL     1     -35.861   6.008   4.327  1.00 20.00     0.026 C 
HETATM    6 CL9  UNL     1     -34.452   6.419   6.591  1.00 20.00    -0.125 Cl
ENDBRANCH   3   4
ENDBRANCH   2   3
BRANCH   2   7
HETATM    7  C5  UNL     1     -32.380   6.915   3.295  1.00 20.00     0.171 C 
BRANCH   7   8
HETATM    8  O8  UNL     1     -33.072   8.058   3.780  1.00 20.00    -0.396 OA
HETATM    9  C3  UNL     1     -32.344   8.712   4.809  1.00 20.00     0.201 C 
ENDBRANCH   7   8
ENDBRANCH   2   7
TORSDOF 4
ENDMDL
MODEL 7
REMARK VINA RESULT:      -3.3      2.714      4.343
REMARK  4 active torsions:
REMARK  status: ('A' for Active; 'I' for Inactive)
REMARK    1  A    between atoms: C4_4  and  C6_6 
REMARK    2  A    between atoms: C4_4  and  C7_7 
REMARK    3  A    between atoms: C5_5  and  C6_6 
REMARK    4  A    between atoms: C5_5  and  O8_8 
ROOT
HETATM    1  C1  UNL     1     -32.926   5.222   2.479  1.00 20.00     0.012 C 
HETATM    2  C6  UNL     1     -33.324   5.697   3.877  1.00 20.00     0.007 C 
ENDROOT
BRANCH   2   3
HETATM    3  C4  UNL     1     -33.620   7.214   3.920  1.00 20.00     0.026 C 
BRANCH   3   4
HETATM    4  C7  UNL     1     -32.421   8.142   3.666  1.00 20.00     0.078 C 
HETATM    5  C2  UNL     1     -32.180   9.059   4.860  1.00 20.00     0.026 C 
HETATM    6 CL9  UNL     1     -32.682   9.148   2.211  1.00 20.00    -0.125 Cl
ENDBRANCH   3   4
ENDBRANCH   2   3
BRANCH   2   7
HETATM    7  C5  UNL     1     -34.543   4.898   4.360  1.00 20.00     0.171 C 
BRANCH   7   8
HETATM    8  O8  UNL     1     -35.211   5.603   5.397  1.00 20.00    -0.396 OA
HETATM    9  C3  UNL     1     -34.533   5.473   6.639  1.00 20.00     0.201 C 
ENDBRANCH   7   8
ENDBRANCH   2   7
TORSDOF 4
ENDMDL
MODEL 8
REMARK VINA RESULT:      -3.3     11.704     12.382
REMARK  4 active torsions:
REMARK  status: ('A' for Active; 'I' for Inactive)
REMARK    1  A    between atoms: C4_4  and  C6_6 
REMARK    2  A    between atoms: C4_4  and  C7_7 
REMARK    3  A    between atoms: C5_5  and  C6_6 
REMARK    4  A    between atoms: C5_5  and  O8_8 
ROOT
HETATM    1  C1  UNL     1     -33.827  18.099  -3.974  1.00 20.00     0.012 C 
HETATM    2  C6  UNL     1     -33.176  16.936  -3.225  1.00 20.00     0.007 C 
ENDROOT
BRANCH   2   3
HETATM    3  C4  UNL     1     -33.526  16.938  -1.718  1.00 20.00     0.026 C 
BRANCH   3   4
HETATM    4  C7  UNL     1     -33.230  18.241  -0.960  1.00 20.00     0.078 C 
HETATM    5  C2  UNL     1     -31.730  18.425  -0.759  1.00 20.00     0.026 C 
HETATM    6 CL9  UNL     1     -34.030  18.251   0.640  1.00 20.00    -0.125 Cl
ENDBRANCH   3   4
ENDBRANCH   2   3
BRANCH   2   7
HETATM    7  C5  UNL     1     -33.600  15.610  -3.874  1.00 20.00     0.171 C 
BRANCH   7   8
HETATM    8  O8  UNL     1     -34.437  15.859  -4.995  1.00 20.00    -0.396 OA
HETATM    9  C3  UNL     1     -34.069  15.060  -6.110  1.00 20.00     0.201 C 
ENDBRANCH   7   8
ENDBRANCH   2   7
TORSDOF 4
ENDMDL
MODEL 9
REMARK VINA RESULT:      -3.2      9.494     10.353
REMARK  4 active torsions:
REMARK  status: ('A' for Active; 'I' for Inactive)
REMARK    1  A    between atoms: C4_4  and  C6_6 
REMARK    2  A    between atoms: C4_4  and  C7_7 
REMARK    3  A    between atoms: C5_5  and  C6_6 
REMARK    4  A    between atoms: C5_5  and  O8_8 
ROOT
HETATM    1  C1  UNL     1     -42.763  12.534   6.923  1.00 20.00     0.012 C 
HETATM    2  C6  UNL     1     -41.424  13.242   6.717  1.00 20.00     0.007 C 
ENDROOT
BRANCH   2   3
HETATM    3  C4  UNL     1     -40.821  12.964   5.320  1.00 20.00     0.026 C 
BRANCH   3   4
HETATM    4  C7  UNL     1     -39.778  11.838   5.249  1.00 20.00     0.078 C 
HETATM    5  C2  UNL     1     -38.695  12.032   6.304  1.00 20.00     0.026 C 
HETATM    6 CL9  UNL     1     -39.006  11.776   3.637  1.00 20.00    -0.125 Cl
ENDBRANCH   3   4
ENDBRANCH   2   3
BRANCH   2   7
HETATM    7  C5  UNL     1     -41.605  14.752   6.933  1.00 20.00     0.171 C 
BRANCH   7   8
HETATM    8  O8  UNL     1     -40.461  15.296   7.577  1.00 20.00    -0.396 OA
HETATM    9  C3  UNL     1     -40.269  14.730   8.866  1.00 20.00     0.201 C 
ENDBRANCH   7   8
ENDBRANCH   2   7
TORSDOF 4
ENDMDL
