MODEL 1
REMARK VINA RESULT:      -4.7      0.000      0.000
REMARK  3 active torsions:
REMARK  status: ('A' for Active; 'I' for Inactive)
REMARK    1  A    between atoms: C7_7  and  C9_9 
REMARK    2  A    between atoms: C8_8  and  O11_11 
REMARK    3  A    between atoms: C9_9  and  O11_11 
ROOT
HETATM    1  C1  UNL     1     -34.429   5.737   5.071  1.00 20.00     0.129 C 
HETATM    2  C2  UNL     1     -34.273   6.743   6.181  1.00 20.00     0.081 C 
HETATM    3  C3  UNL     1     -33.666   6.129   3.833  1.00 20.00     0.110 C 
HETATM    4  C4  UNL     1     -33.684   7.931   5.436  1.00 20.00     0.040 C 
HETATM    5  C8  UNL     1     -32.839   7.309   4.329  1.00 20.00     0.128 C 
HETATM    6  O10 UNL     1     -35.092   4.713   5.168  1.00 20.00    -0.298 OA
ENDROOT
BRANCH   5   7
HETATM    7  O11 UNL     1     -32.618   8.238   3.282  1.00 20.00    -0.385 OA
BRANCH   7   8
HETATM    8  C9  UNL     1     -32.250   7.583   2.077  1.00 20.00     0.172 C 
BRANCH   8   9
HETATM    9  C7  UNL     1     -32.009   8.623   1.004  1.00 20.00     0.009 A 
HETATM   10  C5  UNL     1     -32.983   8.779  -0.132  1.00 20.00     0.007 A 
HETATM   11  C6  UNL     1     -32.883   9.844   0.924  1.00 20.00     0.007 A 
ENDBRANCH   8   9
ENDBRANCH   7   8
ENDBRANCH   5   7
TORSDOF 3
ENDMDL
MODEL 2
REMARK VINA RESULT:      -4.4     15.509     16.928
REMARK  3 active torsions:
REMARK  status: ('A' for Active; 'I' for Inactive)
REMARK    1  A    between atoms: C7_7  and  C9_9 
REMARK    2  A    between atoms: C8_8  and  O11_11 
REMARK    3  A    between atoms: C9_9  and  O11_11 
ROOT
HETATM    1  C1  UNL     1     -22.911  18.823   7.901  1.00 20.00     0.129 C 
HETATM    2  C2  UNL     1     -21.715  17.943   7.651  1.00 20.00     0.081 C 
HETATM    3  C3  UNL     1     -23.019  19.245   9.344  1.00 20.00     0.110 C 
HETATM    4  C4  UNL     1     -21.319  17.556   9.068  1.00 20.00     0.040 C 
HETATM    5  C8  UNL     1     -21.688  18.770   9.915  1.00 20.00     0.128 C 
HETATM    6  O10 UNL     1     -23.699  19.166   7.030  1.00 20.00    -0.298 OA
ENDROOT
BRANCH   5   7
HETATM    7  O11 UNL     1     -21.830  18.409  11.277  1.00 20.00    -0.385 OA
BRANCH   7   8
HETATM    8  C9  UNL     1     -23.165  18.591  11.725  1.00 20.00     0.172 C 
BRANCH   8   9
HETATM    9  C7  UNL     1     -23.709  17.262  12.207  1.00 20.00     0.009 A 
HETATM   10  C5  UNL     1     -25.190  17.002  12.199  1.00 20.00     0.007 A 
HETATM   11  C6  UNL     1     -24.296  16.285  11.226  1.00 20.00     0.007 A 
ENDBRANCH   8   9
ENDBRANCH   7   8
ENDBRANCH   5   7
TORSDOF 3
ENDMDL
MODEL 3
REMARK VINA RESULT:      -4.3      9.698     10.848
REMARK  3 active torsions:
REMARK  status: ('A' for Active; 'I' for Inactive)
REMARK    1  A    between atoms: C7_7  and  C9_9 
REMARK    2  A    between atoms: C8_8  and  O11_11 
REMARK    3  A    between atoms: C9_9  and  O11_11 
ROOT
HETATM    1  C1  UNL     1     -40.737  16.210   7.592  1.00 20.00     0.129 C 
HETATM    2  C2  UNL     1     -40.318  15.771   8.971  1.00 20.00     0.081 C 
HETATM    3  C3  UNL     1     -41.325  15.081   6.786  1.00 20.00     0.110 C 
HETATM    4  C4  UNL     1     -40.344  14.256   8.829  1.00 20.00     0.040 C 
HETATM    5  C8  UNL     1     -41.465  13.982   7.832  1.00 20.00     0.128 C 
HETATM    6  O10 UNL     1     -40.621  17.356   7.178  1.00 20.00    -0.298 OA
ENDROOT
BRANCH   5   7
HETATM    7  O11 UNL     1     -41.311  12.705   7.238  1.00 20.00    -0.385 OA
BRANCH   7   8
HETATM    8  C9  UNL     1     -40.908  12.810   5.881  1.00 20.00     0.172 C 
BRANCH   8   9
HETATM    9  C7  UNL     1     -39.886  11.733   5.585  1.00 20.00     0.009 A 
HETATM   10  C5  UNL     1     -39.154  11.724   4.271  1.00 20.00     0.007 A 
HETATM   11  C6  UNL     1     -38.422  12.072   5.537  1.00 20.00     0.007 A 
ENDBRANCH   8   9
ENDBRANCH   7   8
ENDBRANCH   5   7
TORSDOF 3
ENDMDL
MODEL 4
REMARK VINA RESULT:      -4.3      1.723      4.936
REMARK  3 active torsions:
REMARK  status: ('A' for Active; 'I' for Inactive)
REMARK    1  A    between atoms: C7_7  and  C9_9 
REMARK    2  A    between atoms: C8_8  and  O11_11 
REMARK    3  A    between atoms: C9_9  and  O11_11 
ROOT
HETATM    1  C1  UNL     1     -32.644   9.014   2.067  1.00 20.00     0.129 C 
HETATM    2  C2  UNL     1     -32.152   7.626   1.749  1.00 20.00     0.081 C 
HETATM    3  C3  UNL     1     -32.795   9.242   3.549  1.00 20.00     0.110 C 
HETATM    4  C4  UNL     1     -32.363   6.916   3.078  1.00 20.00     0.040 C 
HETATM    5  C8  UNL     1     -32.139   7.996   4.131  1.00 20.00     0.128 C 
HETATM    6  O10 UNL     1     -32.883   9.862   1.218  1.00 20.00    -0.298 OA
ENDROOT
BRANCH   5   7
HETATM    7  O11 UNL     1     -32.749   7.638   5.358  1.00 20.00    -0.385 OA
BRANCH   7   8
HETATM    8  C9  UNL     1     -34.165   7.655   5.257  1.00 20.00     0.172 C 
BRANCH   8   9
HETATM    9  C7  UNL     1     -34.726   6.454   5.988  1.00 20.00     0.009 A 
HETATM   10  C5  UNL     1     -34.776   5.111   5.313  1.00 20.00     0.007 A 
HETATM   11  C6  UNL     1     -33.812   5.349   6.442  1.00 20.00     0.007 A 
ENDBRANCH   8   9
ENDBRANCH   7   8
ENDBRANCH   5   7
TORSDOF 3
ENDMDL
MODEL 5
REMARK VINA RESULT:      -4.3     11.098     11.785
REMARK  3 active torsions:
REMARK  status: ('A' for Active; 'I' for Inactive)
REMARK    1  A    between atoms: C7_7  and  C9_9 
REMARK    2  A    between atoms: C8_8  and  O11_11 
REMARK    3  A    between atoms: C9_9  and  O11_11 
ROOT
HETATM    1  C1  UNL     1     -31.576  18.817   0.258  1.00 20.00     0.129 C 
HETATM    2  C2  UNL     1     -32.770  18.759   1.173  1.00 20.00     0.081 C 
HETATM    3  C3  UNL     1     -31.953  18.633  -1.189  1.00 20.00     0.110 C 
HETATM    4  C4  UNL     1     -33.830  18.169   0.254  1.00 20.00     0.040 C 
HETATM    5  C8  UNL     1     -33.474  18.699  -1.131  1.00 20.00     0.128 C 
HETATM    6  O10 UNL     1     -30.430  19.003   0.646  1.00 20.00    -0.298 OA
ENDROOT
BRANCH   5   7
HETATM    7  O11 UNL     1     -34.047  17.889  -2.143  1.00 20.00    -0.385 OA
BRANCH   7   8
HETATM    8  C9  UNL     1     -33.484  16.585  -2.144  1.00 20.00     0.172 C 
BRANCH   8   9
HETATM    9  C7  UNL     1     -33.225  16.162  -3.574  1.00 20.00     0.009 A 
HETATM   10  C5  UNL     1     -33.818  14.886  -4.106  1.00 20.00     0.007 A 
HETATM   11  C6  UNL     1     -34.332  16.213  -4.591  1.00 20.00     0.007 A 
ENDBRANCH   8   9
ENDBRANCH   7   8
ENDBRANCH   5   7
TORSDOF 3
ENDMDL
MODEL 6
REMARK VINA RESULT:      -4.2      0.854      1.474
REMARK  3 active torsions:
REMARK  status: ('A' for Active; 'I' for Inactive)
REMARK    1  A    between atoms: C7_7  and  C9_9 
REMARK    2  A    between atoms: C8_8  and  O11_11 
REMARK    3  A    between atoms: C9_9  and  O11_11 
ROOT
HETATM    1  C1  UNL     1     -34.486   5.906   5.863  1.00 20.00     0.129 C 
HETATM    2  C2  UNL     1     -34.738   5.108   4.611  1.00 20.00     0.081 C 
HETATM    3  C3  UNL     1     -33.709   7.168   5.592  1.00 20.00     0.110 C 
HETATM    4  C4  UNL     1     -33.766   5.757   3.636  1.00 20.00     0.040 C 
HETATM    5  C8  UNL     1     -33.706   7.218   4.068  1.00 20.00     0.128 C 
HETATM    6  O10 UNL     1     -34.879   5.572   6.973  1.00 20.00    -0.298 OA
ENDROOT
BRANCH   5   7
HETATM    7  O11 UNL     1     -32.525   7.837   3.592  1.00 20.00    -0.385 OA
BRANCH   7   8
HETATM    8  C9  UNL     1     -32.175   7.362   2.300  1.00 20.00     0.172 C 
BRANCH   8   9
HETATM    9  C7  UNL     1     -31.935   8.546   1.387  1.00 20.00     0.009 A 
HETATM   10  C5  UNL     1     -32.786   8.742   0.163  1.00 20.00     0.007 A 
HETATM   11  C6  UNL     1     -32.929   9.673   1.334  1.00 20.00     0.007 A 
ENDBRANCH   8   9
ENDBRANCH   7   8
ENDBRANCH   5   7
TORSDOF 3
ENDMDL
MODEL 7
REMARK VINA RESULT:      -4.1     10.991     11.647
REMARK  3 active torsions:
REMARK  status: ('A' for Active; 'I' for Inactive)
REMARK    1  A    between atoms: C7_7  and  C9_9 
REMARK    2  A    between atoms: C8_8  and  O11_11 
REMARK    3  A    between atoms: C9_9  and  O11_11 
ROOT
HETATM    1  C1  UNL     1     -32.521  18.608   0.729  1.00 20.00     0.129 C 
HETATM    2  C2  UNL     1     -31.398  18.728  -0.266  1.00 20.00     0.081 C 
HETATM    3  C3  UNL     1     -33.787  18.081   0.104  1.00 20.00     0.110 C 
HETATM    4  C4  UNL     1     -32.144  18.597  -1.585  1.00 20.00     0.040 C 
HETATM    5  C8  UNL     1     -33.306  17.657  -1.278  1.00 20.00     0.128 C 
HETATM    6  O10 UNL     1     -32.415  18.898   1.914  1.00 20.00    -0.298 OA
ENDROOT
BRANCH   5   7
HETATM    7  O11 UNL     1     -34.341  17.806  -2.234  1.00 20.00    -0.385 OA
BRANCH   7   8
HETATM    8  C9  UNL     1     -33.982  17.229  -3.481  1.00 20.00     0.172 C 
BRANCH   8   9
HETATM    9  C7  UNL     1     -33.601  15.780  -3.263  1.00 20.00     0.009 A 
HETATM   10  C5  UNL     1     -34.162  14.707  -4.156  1.00 20.00     0.007 A 
HETATM   11  C6  UNL     1     -32.707  15.077  -4.246  1.00 20.00     0.007 A 
ENDBRANCH   8   9
ENDBRANCH   7   8
ENDBRANCH   5   7
TORSDOF 3
ENDMDL
MODEL 8
REMARK VINA RESULT:      -4.0      9.024     10.447
REMARK  3 active torsions:
REMARK  status: ('A' for Active; 'I' for Inactive)
REMARK    1  A    between atoms: C7_7  and  C9_9 
REMARK    2  A    between atoms: C8_8  and  O11_11 
REMARK    3  A    between atoms: C9_9  and  O11_11 
ROOT
HETATM    1  C1  UNL     1     -39.349  12.197   4.229  1.00 20.00     0.129 C 
HETATM    2  C2  UNL     1     -38.266  11.882   5.227  1.00 20.00     0.081 C 
HETATM    3  C3  UNL     1     -40.568  12.801   4.877  1.00 20.00     0.110 C 
HETATM    4  C4  UNL     1     -39.025  11.984   6.542  1.00 20.00     0.040 C 
HETATM    5  C8  UNL     1     -40.077  13.061   6.296  1.00 20.00     0.128 C 
HETATM    6  O10 UNL     1     -39.246  11.994   3.026  1.00 20.00    -0.298 OA
ENDROOT
BRANCH   5   7
HETATM    7  O11 UNL     1     -41.143  12.945   7.222  1.00 20.00    -0.385 OA
BRANCH   7   8
HETATM    8  C9  UNL     1     -41.645  14.220   7.598  1.00 20.00     0.172 C 
BRANCH   8   9
HETATM    9  C7  UNL     1     -40.486  15.104   8.006  1.00 20.00     0.009 A 
HETATM   10  C5  UNL     1     -40.739  16.397   8.732  1.00 20.00     0.007 A 
HETATM   11  C6  UNL     1     -40.112  15.238   9.457  1.00 20.00     0.007 A 
ENDBRANCH   8   9
ENDBRANCH   7   8
ENDBRANCH   5   7
TORSDOF 3
ENDMDL
MODEL 9
REMARK VINA RESULT:      -4.0     11.273     12.199
REMARK  3 active torsions:
REMARK  status: ('A' for Active; 'I' for Inactive)
REMARK    1  A    between atoms: C7_7  and  C9_9 
REMARK    2  A    between atoms: C8_8  and  O11_11 
REMARK    3  A    between atoms: C9_9  and  O11_11 
ROOT
HETATM    1  C1  UNL     1     -34.436  15.328  -5.436  1.00 20.00     0.129 C 
HETATM    2  C2  UNL     1     -33.341  14.736  -4.589  1.00 20.00     0.081 C 
HETATM    3  C3  UNL     1     -34.828  16.710  -4.980  1.00 20.00     0.110 C 
HETATM    4  C4  UNL     1     -33.346  15.668  -3.387  1.00 20.00     0.040 C 
HETATM    5  C8  UNL     1     -33.745  17.026  -3.956  1.00 20.00     0.128 C 
HETATM    6  O10 UNL     1     -34.942  14.756  -6.392  1.00 20.00    -0.298 OA
ENDROOT
BRANCH   5   7
HETATM    7  O11 UNL     1     -34.252  17.870  -2.938  1.00 20.00    -0.385 OA
BRANCH   7   8
HETATM    8  C9  UNL     1     -33.802  17.463  -1.654  1.00 20.00     0.172 C 
BRANCH   8   9
HETATM    9  C7  UNL     1     -33.050  18.608  -1.009  1.00 20.00     0.009 A 
HETATM   10  C5  UNL     1     -32.656  18.535   0.440  1.00 20.00     0.007 A 
HETATM   11  C6  UNL     1     -31.604  18.445  -0.630  1.00 20.00     0.007 A 
ENDBRANCH   8   9
ENDBRANCH   7   8
ENDBRANCH   5   7
TORSDOF 3
ENDMDL
