MODEL 1
REMARK VINA RESULT:      -4.0      0.000      0.000
REMARK  3 active torsions:
REMARK  status: ('A' for Active; 'I' for Inactive)
REMARK    1  A    between atoms: C4_4  and  C9_9 
REMARK    2  A    between atoms: C7_7  and  C8_8 
REMARK    3  A    between atoms: C8_8  and  N11_11 
ROOT
HETATM    1  C1  UNL     1     -34.311  15.102  -4.631  1.00 20.00     0.060 C 
HETATM    2  C7  UNL     1     -34.566  16.415  -5.241  1.00 20.00     0.151 C 
HETATM    3  N10 UNL     1     -34.111  14.065  -4.151  1.00 20.00    -0.197 NA
ENDROOT
BRANCH   2   4
HETATM    4  C8  UNL     1     -34.158  17.563  -4.329  1.00 20.00     0.249 C 
BRANCH   4   5
HETATM    5  N11 UNL     1     -34.296  17.163  -2.912  1.00 20.00    -0.069 N 
HETATM    6  C2  UNL     1     -34.684  18.301  -2.054  1.00 20.00     0.241 C 
HETATM    7  C4  UNL     1     -33.651  17.796  -1.025  1.00 20.00     0.041 C 
HETATM    8  C3  UNL     1     -32.989  17.093  -2.228  1.00 20.00     0.241 C 
HETATM    9  H28 UNL     1     -34.879  16.326  -2.772  1.00 20.00     0.279 HD
BRANCH   7  10
HETATM   10  C9  UNL     1     -32.827  18.847  -0.310  1.00 20.00    -0.015 C 
HETATM   11  C5  UNL     1     -33.341  19.073   1.115  1.00 20.00     0.010 C 
HETATM   12  C6  UNL     1     -31.346  18.458  -0.279  1.00 20.00     0.010 C 
ENDBRANCH   7  10
ENDBRANCH   4   5
ENDBRANCH   2   4
TORSDOF 3
ENDMDL
MODEL 2
REMARK VINA RESULT:      -4.0      1.666      5.081
REMARK  3 active torsions:
REMARK  status: ('A' for Active; 'I' for Inactive)
REMARK    1  A    between atoms: C4_4  and  C9_9 
REMARK    2  A    between atoms: C7_7  and  C8_8 
REMARK    3  A    between atoms: C8_8  and  N11_11 
ROOT
HETATM    1  C1  UNL     1     -31.705  18.584  -0.020  1.00 20.00     0.060 C 
HETATM    2  C7  UNL     1     -33.114  18.488   0.385  1.00 20.00     0.151 C 
HETATM    3  N10 UNL     1     -30.591  18.660  -0.338  1.00 20.00    -0.197 NA
ENDROOT
BRANCH   2   4
HETATM    4  C8  UNL     1     -33.966  17.777  -0.656  1.00 20.00     0.249 C 
BRANCH   4   5
HETATM    5  N11 UNL     1     -33.276  17.773  -1.964  1.00 20.00    -0.069 N 
HETATM    6  C2  UNL     1     -34.144  18.279  -3.047  1.00 20.00     0.241 C 
HETATM    7  C4  UNL     1     -33.616  17.124  -3.924  1.00 20.00     0.041 C 
HETATM    8  C3  UNL     1     -33.281  16.433  -2.586  1.00 20.00     0.241 C 
HETATM    9  H28 UNL     1     -32.346  18.213  -1.943  1.00 20.00     0.279 HD
BRANCH   7  10
HETATM   10  C9  UNL     1     -34.622  16.430  -4.819  1.00 20.00    -0.015 C 
HETATM   11  C5  UNL     1     -34.825  17.206  -6.123  1.00 20.00     0.010 C 
HETATM   12  C6  UNL     1     -34.187  14.993  -5.124  1.00 20.00     0.010 C 
ENDBRANCH   7  10
ENDBRANCH   4   5
ENDBRANCH   2   4
TORSDOF 3
ENDMDL
MODEL 3
REMARK VINA RESULT:      -4.0      1.903      5.418
REMARK  3 active torsions:
REMARK  status: ('A' for Active; 'I' for Inactive)
REMARK    1  A    between atoms: C4_4  and  C9_9 
REMARK    2  A    between atoms: C7_7  and  C8_8 
REMARK    3  A    between atoms: C8_8  and  N11_11 
ROOT
HETATM    1  C1  UNL     1     -31.871  18.268  -0.997  1.00 20.00     0.060 C 
HETATM    2  C7  UNL     1     -33.044  17.597  -1.576  1.00 20.00     0.151 C 
HETATM    3  N10 UNL     1     -30.946  18.797  -0.538  1.00 20.00    -0.197 NA
ENDROOT
BRANCH   2   4
HETATM    4  C8  UNL     1     -33.478  18.229  -2.891  1.00 20.00     0.249 C 
BRANCH   4   5
HETATM    5  N11 UNL     1     -33.199  17.310  -4.015  1.00 20.00    -0.069 N 
HETATM    6  C2  UNL     1     -34.222  17.410  -5.076  1.00 20.00     0.241 C 
HETATM    7  C4  UNL     1     -34.196  15.869  -5.159  1.00 20.00     0.041 C 
HETATM    8  C3  UNL     1     -33.637  15.930  -3.722  1.00 20.00     0.241 C 
HETATM    9  H28 UNL     1     -32.234  17.368  -4.368  1.00 20.00     0.279 HD
BRANCH   7  10
HETATM   10  C9  UNL     1     -35.528  15.171  -5.345  1.00 20.00    -0.015 C 
HETATM   11  C5  UNL     1     -35.849  14.988  -6.832  1.00 20.00     0.010 C 
HETATM   12  C6  UNL     1     -35.542  13.815  -4.634  1.00 20.00     0.010 C 
ENDBRANCH   7  10
ENDBRANCH   4   5
ENDBRANCH   2   4
TORSDOF 3
ENDMDL
MODEL 4
REMARK VINA RESULT:      -3.9      3.686      6.329
REMARK  3 active torsions:
REMARK  status: ('A' for Active; 'I' for Inactive)
REMARK    1  A    between atoms: C4_4  and  C9_9 
REMARK    2  A    between atoms: C7_7  and  C8_8 
REMARK    3  A    between atoms: C8_8  and  N11_11 
ROOT
HETATM    1  C1  UNL     1     -28.999  18.768   3.418  1.00 20.00     0.060 C 
HETATM    2  C7  UNL     1     -30.401  18.918   3.005  1.00 20.00     0.151 C 
HETATM    3  N10 UNL     1     -27.892  18.651   3.746  1.00 20.00    -0.197 NA
ENDROOT
BRANCH   2   4
HETATM    4  C8  UNL     1     -30.713  18.144   1.733  1.00 20.00     0.249 C 
BRANCH   4   5
HETATM    5  N11 UNL     1     -31.435  19.006   0.774  1.00 20.00    -0.069 N 
HETATM    6  C2  UNL     1     -32.900  18.863   0.899  1.00 20.00     0.241 C 
HETATM    7  C4  UNL     1     -32.967  18.851  -0.643  1.00 20.00     0.041 C 
HETATM    8  C3  UNL     1     -31.491  18.407  -0.575  1.00 20.00     0.241 C 
HETATM    9  H28 UNL     1     -31.117  19.985   0.776  1.00 20.00     0.279 HD
BRANCH   7  10
HETATM   10  C9  UNL     1     -33.944  17.883  -1.278  1.00 20.00    -0.015 C 
HETATM   11  C5  UNL     1     -35.071  18.630  -1.996  1.00 20.00     0.010 C 
HETATM   12  C6  UNL     1     -33.230  16.944  -2.255  1.00 20.00     0.010 C 
ENDBRANCH   7  10
ENDBRANCH   4   5
ENDBRANCH   2   4
TORSDOF 3
ENDMDL
MODEL 5
REMARK VINA RESULT:      -3.8      1.493      1.856
REMARK  3 active torsions:
REMARK  status: ('A' for Active; 'I' for Inactive)
REMARK    1  A    between atoms: C4_4  and  C9_9 
REMARK    2  A    between atoms: C7_7  and  C8_8 
REMARK    3  A    between atoms: C8_8  and  N11_11 
ROOT
HETATM    1  C1  UNL     1     -35.427  14.786  -6.110  1.00 20.00     0.060 C 
HETATM    2  C7  UNL     1     -34.722  15.140  -4.870  1.00 20.00     0.151 C 
HETATM    3  N10 UNL     1     -35.984  14.505  -7.088  1.00 20.00    -0.197 NA
ENDROOT
BRANCH   2   4
HETATM    4  C8  UNL     1     -34.584  16.645  -4.694  1.00 20.00     0.249 C 
BRANCH   4   5
HETATM    5  N11 UNL     1     -33.303  16.967  -4.031  1.00 20.00    -0.069 N 
HETATM    6  C2  UNL     1     -33.307  16.576  -2.606  1.00 20.00     0.241 C 
HETATM    7  C4  UNL     1     -32.620  17.924  -2.300  1.00 20.00     0.041 C 
HETATM    8  C3  UNL     1     -33.225  18.389  -3.640  1.00 20.00     0.241 C 
HETATM    9  H28 UNL     1     -32.475  16.636  -4.545  1.00 20.00     0.279 HD
BRANCH   7  10
HETATM   10  C9  UNL     1     -33.076  18.655  -1.054  1.00 20.00    -0.015 C 
HETATM   11  C5  UNL     1     -33.860  17.724  -0.125  1.00 20.00     0.010 C 
HETATM   12  C6  UNL     1     -31.884  19.262  -0.307  1.00 20.00     0.010 C 
ENDBRANCH   7  10
ENDBRANCH   4   5
ENDBRANCH   2   4
TORSDOF 3
ENDMDL
MODEL 6
REMARK VINA RESULT:      -3.7      1.886      2.865
REMARK  3 active torsions:
REMARK  status: ('A' for Active; 'I' for Inactive)
REMARK    1  A    between atoms: C4_4  and  C9_9 
REMARK    2  A    between atoms: C7_7  and  C8_8 
REMARK    3  A    between atoms: C8_8  and  N11_11 
ROOT
HETATM    1  C1  UNL     1     -35.927  14.954  -6.777  1.00 20.00     0.060 C 
HETATM    2  C7  UNL     1     -35.666  14.905  -5.331  1.00 20.00     0.151 C 
HETATM    3  N10 UNL     1     -36.135  14.994  -7.918  1.00 20.00    -0.197 NA
ENDROOT
BRANCH   2   4
HETATM    4  C8  UNL     1     -34.188  14.722  -5.018  1.00 20.00     0.249 C 
BRANCH   4   5
HETATM    5  N11 UNL     1     -33.559  16.032  -4.743  1.00 20.00    -0.069 N 
HETATM    6  C2  UNL     1     -32.836  16.037  -3.455  1.00 20.00     0.241 C 
HETATM    7  C4  UNL     1     -33.443  17.431  -3.191  1.00 20.00     0.041 C 
HETATM    8  C3  UNL     1     -34.528  17.007  -4.203  1.00 20.00     0.241 C 
HETATM    9  H28 UNL     1     -33.003  16.397  -5.528  1.00 20.00     0.279 HD
BRANCH   7  10
HETATM   10  C9  UNL     1     -33.903  17.720  -1.777  1.00 20.00    -0.015 C 
HETATM   11  C5  UNL     1     -32.713  18.038  -0.867  1.00 20.00     0.010 C 
HETATM   12  C6  UNL     1     -34.908  18.876  -1.752  1.00 20.00     0.010 C 
ENDBRANCH   7  10
ENDBRANCH   4   5
ENDBRANCH   2   4
TORSDOF 3
ENDMDL
MODEL 7
REMARK VINA RESULT:      -3.6      1.768      5.420
REMARK  3 active torsions:
REMARK  status: ('A' for Active; 'I' for Inactive)
REMARK    1  A    between atoms: C4_4  and  C9_9 
REMARK    2  A    between atoms: C7_7  and  C8_8 
REMARK    3  A    between atoms: C8_8  and  N11_11 
ROOT
HETATM    1  C1  UNL     1     -33.727  17.785  -0.464  1.00 20.00     0.060 C 
HETATM    2  C7  UNL     1     -33.571  17.041  -1.722  1.00 20.00     0.151 C 
HETATM    3  N10 UNL     1     -33.850  18.371   0.530  1.00 20.00    -0.197 NA
ENDROOT
BRANCH   2   4
HETATM    4  C8  UNL     1     -33.416  17.964  -2.922  1.00 20.00     0.249 C 
BRANCH   4   5
HETATM    5  N11 UNL     1     -33.218  17.171  -4.154  1.00 20.00    -0.069 N 
HETATM    6  C2  UNL     1     -34.297  17.399  -5.136  1.00 20.00     0.241 C 
HETATM    7  C4  UNL     1     -34.305  15.876  -5.388  1.00 20.00     0.041 C 
HETATM    8  C3  UNL     1     -33.664  15.772  -3.988  1.00 20.00     0.241 C 
HETATM    9  H28 UNL     1     -32.274  17.256  -4.554  1.00 20.00     0.279 HD
BRANCH   7  10
HETATM   10  C9  UNL     1     -35.657  15.219  -5.571  1.00 20.00    -0.015 C 
HETATM   11  C5  UNL     1     -35.958  14.985  -7.054  1.00 20.00     0.010 C 
HETATM   12  C6  UNL     1     -35.734  13.896  -4.803  1.00 20.00     0.010 C 
ENDBRANCH   7  10
ENDBRANCH   4   5
ENDBRANCH   2   4
TORSDOF 3
ENDMDL
MODEL 8
REMARK VINA RESULT:      -3.6     24.232     25.099
REMARK  3 active torsions:
REMARK  status: ('A' for Active; 'I' for Inactive)
REMARK    1  A    between atoms: C4_4  and  C9_9 
REMARK    2  A    between atoms: C7_7  and  C8_8 
REMARK    3  A    between atoms: C8_8  and  N11_11 
ROOT
HETATM    1  C1  UNL     1     -22.383  -3.859   7.829  1.00 20.00     0.060 C 
HETATM    2  C7  UNL     1     -23.495  -3.198   8.528  1.00 20.00     0.151 C 
HETATM    3  N10 UNL     1     -21.506  -4.380   7.276  1.00 20.00    -0.197 NA
ENDROOT
BRANCH   2   4
HETATM    4  C8  UNL     1     -23.142  -2.837   9.963  1.00 20.00     0.249 C 
BRANCH   4   5
HETATM    5  N11 UNL     1     -24.308  -3.051  10.846  1.00 20.00    -0.069 N 
HETATM    6  C2  UNL     1     -25.585  -2.885  10.122  1.00 20.00     0.241 C 
HETATM    7  C4  UNL     1     -26.104  -2.099  11.345  1.00 20.00     0.041 C 
HETATM    8  C3  UNL     1     -24.613  -1.856  11.658  1.00 20.00     0.241 C 
HETATM    9  H28 UNL     1     -24.258  -3.920  11.396  1.00 20.00     0.279 HD
BRANCH   7  10
HETATM   10  C9  UNL     1     -26.952  -0.876  11.063  1.00 20.00    -0.015 C 
HETATM   11  C5  UNL     1     -28.309  -1.273  10.475  1.00 20.00     0.010 C 
HETATM   12  C6  UNL     1     -27.151  -0.042  12.332  1.00 20.00     0.010 C 
ENDBRANCH   7  10
ENDBRANCH   4   5
ENDBRANCH   2   4
TORSDOF 3
ENDMDL
MODEL 9
REMARK VINA RESULT:      -3.5      2.491      5.879
REMARK  3 active torsions:
REMARK  status: ('A' for Active; 'I' for Inactive)
REMARK    1  A    between atoms: C4_4  and  C9_9 
REMARK    2  A    between atoms: C7_7  and  C8_8 
REMARK    3  A    between atoms: C8_8  and  N11_11 
ROOT
HETATM    1  C1  UNL     1     -33.362  16.471  -2.676  1.00 20.00     0.060 C 
HETATM    2  C7  UNL     1     -33.159  15.745  -3.938  1.00 20.00     0.151 C 
HETATM    3  N10 UNL     1     -33.521  17.045  -1.680  1.00 20.00    -0.197 NA
ENDROOT
BRANCH   2   4
HETATM    4  C8  UNL     1     -34.025  14.498  -4.032  1.00 20.00     0.249 C 
BRANCH   4   5
HETATM    5  N11 UNL     1     -34.645  14.407  -5.371  1.00 20.00    -0.069 N 
HETATM    6  C2  UNL     1     -34.287  15.558  -6.224  1.00 20.00     0.241 C 
HETATM    7  C4  UNL     1     -35.762  15.600  -6.677  1.00 20.00     0.041 C 
HETATM    8  C3  UNL     1     -36.053  14.852  -5.360  1.00 20.00     0.241 C 
HETATM    9  H28 UNL     1     -34.506  13.496  -5.831  1.00 20.00     0.279 HD
BRANCH   7  10
HETATM   10  C9  UNL     1     -36.389  16.970  -6.838  1.00 20.00    -0.015 C 
HETATM   11  C5  UNL     1     -35.668  17.781  -7.918  1.00 20.00     0.010 C 
HETATM   12  C6  UNL     1     -37.879  16.855  -7.174  1.00 20.00     0.010 C 
ENDBRANCH   7  10
ENDBRANCH   4   5
ENDBRANCH   2   4
TORSDOF 3
ENDMDL
