MODEL 1
REMARK VINA RESULT:      -3.8      0.000      0.000
REMARK  4 active torsions:
REMARK  status: ('A' for Active; 'I' for Inactive)
REMARK    1  A    between atoms: C2_2  and  C7_7 
REMARK    2  A    between atoms: C2_2  and  O11_11 
REMARK    3  A    between atoms: C6_6  and  C7_7 
REMARK    4  A    between atoms: C6_6  and  C8_8 
ROOT
HETATM    1  C1  UNL     1     -35.482  13.908  -4.666  1.00 20.00     0.074 C 
HETATM    2  C7  UNL     1     -34.908  15.152  -5.210  1.00 20.00     0.192 C 
HETATM    3  N9  UNL     1     -35.938  12.930  -4.237  1.00 20.00    -0.196 NA
ENDROOT
BRANCH   2   4
HETATM    4  C2  UNL     1     -34.683  15.017  -6.709  1.00 20.00     0.276 C 
HETATM    5  O10 UNL     1     -33.594  15.080  -7.266  1.00 20.00    -0.264 OA
BRANCH   4   6
HETATM    6  O11 UNL     1     -35.884  14.810  -7.330  1.00 20.00    -0.325 OA
HETATM    7  C5  UNL     1     -36.571  15.993  -7.753  1.00 20.00     0.213 C 
ENDBRANCH   4   6
ENDBRANCH   2   4
BRANCH   2   8
HETATM    8  C6  UNL     1     -33.571  15.497  -4.530  1.00 20.00     0.033 C 
BRANCH   8   9
HETATM    9  C8  UNL     1     -33.528  16.864  -3.814  1.00 20.00    -0.021 C 
HETATM   10  C3  UNL     1     -33.462  16.650  -2.300  1.00 20.00     0.009 C 
HETATM   11  C4  UNL     1     -34.734  17.741  -4.158  1.00 20.00     0.009 C 
ENDBRANCH   8   9
ENDBRANCH   2   8
TORSDOF 4
ENDMDL
MODEL 2
REMARK VINA RESULT:      -3.8      5.286      7.249
REMARK  4 active torsions:
REMARK  status: ('A' for Active; 'I' for Inactive)
REMARK    1  A    between atoms: C2_2  and  C7_7 
REMARK    2  A    between atoms: C2_2  and  O11_11 
REMARK    3  A    between atoms: C6_6  and  C7_7 
REMARK    4  A    between atoms: C6_6  and  C8_8 
ROOT
HETATM    1  C1  UNL     1     -33.992  18.672   0.534  1.00 20.00     0.074 C 
HETATM    2  C7  UNL     1     -32.908  18.045  -0.246  1.00 20.00     0.192 C 
HETATM    3  N9  UNL     1     -34.846  19.162   1.149  1.00 20.00    -0.196 NA
ENDROOT
BRANCH   2   4
HETATM    4  C2  UNL     1     -31.554  18.501   0.276  1.00 20.00     0.276 C 
HETATM    5  O10 UNL     1     -30.580  18.757  -0.421  1.00 20.00    -0.264 OA
BRANCH   4   6
HETATM    6  O11 UNL     1     -31.598  18.581   1.641  1.00 20.00    -0.325 OA
HETATM    7  C5  UNL     1     -30.327  18.591   2.299  1.00 20.00     0.213 C 
ENDBRANCH   4   6
ENDBRANCH   2   4
BRANCH   2   8
HETATM    8  C6  UNL     1     -33.016  18.398  -1.739  1.00 20.00     0.033 C 
BRANCH   8   9
HETATM    9  C8  UNL     1     -34.016  17.544  -2.549  1.00 20.00    -0.021 C 
HETATM   10  C3  UNL     1     -33.319  16.278  -3.055  1.00 20.00     0.009 C 
HETATM   11  C4  UNL     1     -34.615  18.309  -3.729  1.00 20.00     0.009 C 
ENDBRANCH   8   9
ENDBRANCH   2   8
TORSDOF 4
ENDMDL
MODEL 3
REMARK VINA RESULT:      -3.7     12.668     13.858
REMARK  4 active torsions:
REMARK  status: ('A' for Active; 'I' for Inactive)
REMARK    1  A    between atoms: C2_2  and  C7_7 
REMARK    2  A    between atoms: C2_2  and  O11_11 
REMARK    3  A    between atoms: C6_6  and  C7_7 
REMARK    4  A    between atoms: C6_6  and  C8_8 
ROOT
HETATM    1  C1  UNL     1     -42.445  12.553   7.011  1.00 20.00     0.074 C 
HETATM    2  C7  UNL     1     -41.208  13.281   6.674  1.00 20.00     0.192 C 
HETATM    3  N9  UNL     1     -43.417  11.979   7.280  1.00 20.00    -0.196 NA
ENDROOT
BRANCH   2   4
HETATM    4  C2  UNL     1     -41.444  14.782   6.746  1.00 20.00     0.276 C 
HETATM    5  O10 UNL     1     -42.423  15.363   6.295  1.00 20.00    -0.264 OA
BRANCH   4   6
HETATM    6  O11 UNL     1     -40.396  15.374   7.395  1.00 20.00    -0.325 OA
HETATM    7  C5  UNL     1     -40.239  15.012   8.771  1.00 20.00     0.213 C 
ENDBRANCH   4   6
ENDBRANCH   2   4
BRANCH   2   8
HETATM    8  C6  UNL     1     -40.710  12.917   5.264  1.00 20.00     0.033 C 
BRANCH   8   9
HETATM    9  C8  UNL     1     -39.649  11.797   5.207  1.00 20.00    -0.021 C 
HETATM   10  C3  UNL     1     -38.613  12.013   6.313  1.00 20.00     0.009 C 
HETATM   11  C4  UNL     1     -38.947  11.726   3.850  1.00 20.00     0.009 C 
ENDBRANCH   8   9
ENDBRANCH   2   8
TORSDOF 4
ENDMDL
MODEL 4
REMARK VINA RESULT:      -3.7     12.338     13.575
REMARK  4 active torsions:
REMARK  status: ('A' for Active; 'I' for Inactive)
REMARK    1  A    between atoms: C2_2  and  C7_7 
REMARK    2  A    between atoms: C2_2  and  O11_11 
REMARK    3  A    between atoms: C6_6  and  C7_7 
REMARK    4  A    between atoms: C6_6  and  C8_8 
ROOT
HETATM    1  C1  UNL     1     -41.876  13.930   4.705  1.00 20.00     0.074 C 
HETATM    2  C7  UNL     1     -41.723  13.297   6.028  1.00 20.00     0.192 C 
HETATM    3  N9  UNL     1     -41.999  14.428   3.664  1.00 20.00    -0.196 NA
ENDROOT
BRANCH   2   4
HETATM    4  C2  UNL     1     -41.229  14.316   7.045  1.00 20.00     0.276 C 
HETATM    5  O10 UNL     1     -41.133  15.520   6.845  1.00 20.00    -0.264 OA
BRANCH   4   6
HETATM    6  O11 UNL     1     -40.915  13.675   8.211  1.00 20.00    -0.325 OA
HETATM    7  C5  UNL     1     -40.252  14.476   9.195  1.00 20.00     0.213 C 
ENDBRANCH   4   6
ENDBRANCH   2   4
BRANCH   2   8
HETATM    8  C6  UNL     1     -40.735  12.119   5.976  1.00 20.00     0.033 C 
BRANCH   8   9
HETATM    9  C8  UNL     1     -39.375  12.427   5.314  1.00 20.00    -0.021 C 
HETATM   10  C3  UNL     1     -39.203  11.561   4.063  1.00 20.00     0.009 C 
HETATM   11  C4  UNL     1     -38.198  12.197   6.264  1.00 20.00     0.009 C 
ENDBRANCH   8   9
ENDBRANCH   2   8
TORSDOF 4
ENDMDL
MODEL 5
REMARK VINA RESULT:      -3.7     11.770     12.929
REMARK  4 active torsions:
REMARK  status: ('A' for Active; 'I' for Inactive)
REMARK    1  A    between atoms: C2_2  and  C7_7 
REMARK    2  A    between atoms: C2_2  and  O11_11 
REMARK    3  A    between atoms: C6_6  and  C7_7 
REMARK    4  A    between atoms: C6_6  and  C8_8 
ROOT
HETATM    1  C1  UNL     1     -32.440   8.510   4.773  1.00 20.00     0.074 C 
HETATM    2  C7  UNL     1     -32.899   7.202   4.271  1.00 20.00     0.192 C 
HETATM    3  N9  UNL     1     -32.077   9.539   5.170  1.00 20.00    -0.196 NA
ENDROOT
BRANCH   2   4
HETATM    4  C2  UNL     1     -32.507   7.031   2.811  1.00 20.00     0.276 C 
HETATM    5  O10 UNL     1     -32.490   5.966   2.206  1.00 20.00    -0.264 OA
BRANCH   4   6
HETATM    6  O11 UNL     1     -32.183   8.250   2.283  1.00 20.00    -0.325 OA
HETATM    7  C5  UNL     1     -32.208   8.330   0.854  1.00 20.00     0.213 C 
ENDBRANCH   4   6
ENDBRANCH   2   4
BRANCH   2   8
HETATM    8  C6  UNL     1     -34.425   7.054   4.403  1.00 20.00     0.033 C 
BRANCH   8   9
HETATM    9  C8  UNL     1     -34.902   5.817   5.193  1.00 20.00    -0.021 C 
HETATM   10  C3  UNL     1     -34.512   5.965   6.666  1.00 20.00     0.009 C 
HETATM   11  C4  UNL     1     -34.329   4.512   4.638  1.00 20.00     0.009 C 
ENDBRANCH   8   9
ENDBRANCH   2   8
TORSDOF 4
ENDMDL
MODEL 6
REMARK VINA RESULT:      -3.7      2.620      3.655
REMARK  4 active torsions:
REMARK  status: ('A' for Active; 'I' for Inactive)
REMARK    1  A    between atoms: C2_2  and  C7_7 
REMARK    2  A    between atoms: C2_2  and  O11_11 
REMARK    3  A    between atoms: C6_6  and  C7_7 
REMARK    4  A    between atoms: C6_6  and  C8_8 
ROOT
HETATM    1  C1  UNL     1     -34.915  18.112  -3.478  1.00 20.00     0.074 C 
HETATM    2  C7  UNL     1     -33.688  17.297  -3.429  1.00 20.00     0.192 C 
HETATM    3  N9  UNL     1     -35.880  18.757  -3.519  1.00 20.00    -0.196 NA
ENDROOT
BRANCH   2   4
HETATM    4  C2  UNL     1     -33.885  16.001  -4.202  1.00 20.00     0.276 C 
HETATM    5  O10 UNL     1     -33.710  14.877  -3.749  1.00 20.00    -0.264 OA
BRANCH   4   6
HETATM    6  O11 UNL     1     -34.290  16.291  -5.475  1.00 20.00    -0.325 OA
HETATM    7  C5  UNL     1     -34.233  15.203  -6.403  1.00 20.00     0.213 C 
ENDBRANCH   4   6
ENDBRANCH   2   4
BRANCH   2   8
HETATM    8  C6  UNL     1     -33.295  16.963  -1.979  1.00 20.00     0.033 C 
BRANCH   8   9
HETATM    9  C8  UNL     1     -33.135  18.179  -1.042  1.00 20.00    -0.021 C 
HETATM   10  C3  UNL     1     -31.652  18.398  -0.732  1.00 20.00     0.009 C 
HETATM   11  C4  UNL     1     -33.915  18.016   0.264  1.00 20.00     0.009 C 
ENDBRANCH   8   9
ENDBRANCH   2   8
TORSDOF 4
ENDMDL
MODEL 7
REMARK VINA RESULT:      -3.6      2.579      3.871
REMARK  4 active torsions:
REMARK  status: ('A' for Active; 'I' for Inactive)
REMARK    1  A    between atoms: C2_2  and  C7_7 
REMARK    2  A    between atoms: C2_2  and  O11_11 
REMARK    3  A    between atoms: C6_6  and  C7_7 
REMARK    4  A    between atoms: C6_6  and  C8_8 
ROOT
HETATM    1  C1  UNL     1     -34.101  15.309  -6.756  1.00 20.00     0.074 C 
HETATM    2  C7  UNL     1     -34.748  15.589  -5.462  1.00 20.00     0.192 C 
HETATM    3  N9  UNL     1     -33.590  15.091  -7.776  1.00 20.00    -0.196 NA
ENDROOT
BRANCH   2   4
HETATM    4  C2  UNL     1     -34.095  14.770  -4.358  1.00 20.00     0.276 C 
HETATM    5  O10 UNL     1     -34.471  13.667  -3.983  1.00 20.00    -0.264 OA
BRANCH   4   6
HETATM    6  O11 UNL     1     -33.023  15.456  -3.859  1.00 20.00    -0.325 OA
HETATM    7  C5  UNL     1     -33.337  16.492  -2.922  1.00 20.00     0.213 C 
ENDBRANCH   4   6
ENDBRANCH   2   4
BRANCH   2   8
HETATM    8  C6  UNL     1     -36.252  15.266  -5.505  1.00 20.00     0.033 C 
BRANCH   8   9
HETATM    9  C8  UNL     1     -37.189  16.491  -5.567  1.00 20.00    -0.021 C 
HETATM   10  C3  UNL     1     -36.541  17.672  -4.838  1.00 20.00     0.009 C 
HETATM   11  C4  UNL     1     -38.564  16.205  -4.962  1.00 20.00     0.009 C 
ENDBRANCH   8   9
ENDBRANCH   2   8
TORSDOF 4
ENDMDL
MODEL 8
REMARK VINA RESULT:      -3.6     12.490     13.532
REMARK  4 active torsions:
REMARK  status: ('A' for Active; 'I' for Inactive)
REMARK    1  A    between atoms: C2_2  and  C7_7 
REMARK    2  A    between atoms: C2_2  and  O11_11 
REMARK    3  A    between atoms: C6_6  and  C7_7 
REMARK    4  A    between atoms: C6_6  and  C8_8 
ROOT
HETATM    1  C1  UNL     1     -42.388  12.526   6.947  1.00 20.00     0.074 C 
HETATM    2  C7  UNL     1     -41.084  13.152   6.658  1.00 20.00     0.192 C 
HETATM    3  N9  UNL     1     -43.413  12.033   7.177  1.00 20.00    -0.196 NA
ENDROOT
BRANCH   2   4
HETATM    4  C2  UNL     1     -41.165  14.657   6.863  1.00 20.00     0.276 C 
HETATM    5  O10 UNL     1     -40.390  15.318   7.543  1.00 20.00    -0.264 OA
BRANCH   4   6
HETATM    6  O11 UNL     1     -42.233  15.152   6.167  1.00 20.00    -0.325 OA
HETATM    7  C5  UNL     1     -42.289  16.578   6.056  1.00 20.00     0.213 C 
ENDBRANCH   4   6
ENDBRANCH   2   4
BRANCH   2   8
HETATM    8  C6  UNL     1     -40.631  12.864   5.216  1.00 20.00     0.033 C 
BRANCH   8   9
HETATM    9  C8  UNL     1     -39.523  11.799   5.073  1.00 20.00    -0.021 C 
HETATM   10  C3  UNL     1     -38.368  12.127   6.022  1.00 20.00     0.009 C 
HETATM   11  C4  UNL     1     -38.997  11.693   3.640  1.00 20.00     0.009 C 
ENDBRANCH   8   9
ENDBRANCH   2   8
TORSDOF 4
ENDMDL
MODEL 9
REMARK VINA RESULT:      -3.4      2.042      2.778
REMARK  4 active torsions:
REMARK  status: ('A' for Active; 'I' for Inactive)
REMARK    1  A    between atoms: C2_2  and  C7_7 
REMARK    2  A    between atoms: C2_2  and  O11_11 
REMARK    3  A    between atoms: C6_6  and  C7_7 
REMARK    4  A    between atoms: C6_6  and  C8_8 
ROOT
HETATM    1  C1  UNL     1     -35.514  17.199  -4.889  1.00 20.00     0.074 C 
HETATM    2  C7  UNL     1     -34.185  16.560  -4.902  1.00 20.00     0.192 C 
HETATM    3  N9  UNL     1     -36.559  17.704  -4.882  1.00 20.00    -0.196 NA
ENDROOT
BRANCH   2   4
HETATM    4  C2  UNL     1     -34.278  15.163  -5.497  1.00 20.00     0.276 C 
HETATM    5  O10 UNL     1     -34.073  14.883  -6.672  1.00 20.00    -0.264 OA
BRANCH   4   6
HETATM    6  O11 UNL     1     -34.620  14.274  -4.516  1.00 20.00    -0.325 OA
HETATM    7  C5  UNL     1     -35.901  13.653  -4.667  1.00 20.00     0.213 C 
ENDBRANCH   4   6
ENDBRANCH   2   4
BRANCH   2   8
HETATM    8  C6  UNL     1     -33.595  16.465  -3.485  1.00 20.00     0.033 C 
BRANCH   8   9
HETATM    9  C8  UNL     1     -33.816  17.705  -2.592  1.00 20.00    -0.021 C 
HETATM   10  C3  UNL     1     -32.808  18.795  -2.968  1.00 20.00     0.009 C 
HETATM   11  C4  UNL     1     -33.693  17.382  -1.103  1.00 20.00     0.009 C 
ENDBRANCH   8   9
ENDBRANCH   2   8
TORSDOF 4
ENDMDL
