MODEL 1
REMARK VINA RESULT:      -4.5      0.000      0.000
REMARK  2 active torsions:
REMARK  status: ('A' for Active; 'I' for Inactive)
REMARK    1  A    between atoms: C2_2  and  C8_8 
REMARK    2  A    between atoms: C2_2  and  C9_9 
ROOT
HETATM    1  C1  UNL     1     -35.275  14.039  -4.651  1.00 20.00     0.127 C 
HETATM    2  C3  UNL     1     -35.959  15.079  -5.497  1.00 20.00     0.079 C 
HETATM    3  C4  UNL     1     -33.874  14.438  -4.263  1.00 20.00     0.090 C 
HETATM    4  C5  UNL     1     -34.789  15.958  -5.925  1.00 20.00     0.020 C 
HETATM    5  C8  UNL     1     -33.773  15.866  -4.793  1.00 20.00     0.063 C 
HETATM    6  O10 UNL     1     -35.806  12.992  -4.301  1.00 20.00    -0.298 OA
ENDROOT
BRANCH   5   7
HETATM    7  C2  UNL     1     -34.071  16.869  -3.718  1.00 20.00     0.135 C 
HETATM    8  O11 UNL     1     -34.877  17.782  -3.894  1.00 20.00    -0.297 OA
BRANCH   7   9
HETATM    9  C9  UNL     1     -33.333  16.706  -2.417  1.00 20.00     0.056 A 
HETATM   10  C6  UNL     1     -32.585  17.875  -1.883  1.00 20.00     0.013 A 
HETATM   11  C7  UNL     1     -33.853  17.425  -1.224  1.00 20.00     0.013 A 
ENDBRANCH   7   9
ENDBRANCH   5   7
TORSDOF 2
ENDMDL
MODEL 2
REMARK VINA RESULT:      -4.3     11.365     12.552
REMARK  2 active torsions:
REMARK  status: ('A' for Active; 'I' for Inactive)
REMARK    1  A    between atoms: C2_2  and  C8_8 
REMARK    2  A    between atoms: C2_2  and  C9_9 
ROOT
HETATM    1  C1  UNL     1     -34.436   5.846   6.029  1.00 20.00     0.127 C 
HETATM    2  C3  UNL     1     -33.445   6.910   6.419  1.00 20.00     0.079 C 
HETATM    3  C4  UNL     1     -34.996   6.058   4.645  1.00 20.00     0.090 C 
HETATM    4  C5  UNL     1     -33.704   7.985   5.370  1.00 20.00     0.020 C 
HETATM    5  C8  UNL     1     -34.178   7.239   4.129  1.00 20.00     0.063 C 
HETATM    6  O10 UNL     1     -34.740   4.904   6.749  1.00 20.00    -0.298 OA
ENDROOT
BRANCH   5   7
HETATM    7  C2  UNL     1     -33.017   6.777   3.299  1.00 20.00     0.135 C 
HETATM    8  O11 UNL     1     -32.828   5.585   3.061  1.00 20.00    -0.297 OA
BRANCH   7   9
HETATM    9  C9  UNL     1     -32.092   7.843   2.776  1.00 20.00     0.056 A 
HETATM   10  C6  UNL     1     -32.034   8.062   1.307  1.00 20.00     0.013 A 
HETATM   11  C7  UNL     1     -32.698   9.070   2.194  1.00 20.00     0.013 A 
ENDBRANCH   7   9
ENDBRANCH   5   7
TORSDOF 2
ENDMDL
MODEL 3
REMARK VINA RESULT:      -4.2     11.891     12.886
REMARK  2 active torsions:
REMARK  status: ('A' for Active; 'I' for Inactive)
REMARK    1  A    between atoms: C2_2  and  C8_8 
REMARK    2  A    between atoms: C2_2  and  C9_9 
ROOT
HETATM    1  C1  UNL     1     -34.323   4.907   5.090  1.00 20.00     0.127 C 
HETATM    2  C3  UNL     1     -33.734   5.293   6.420  1.00 20.00     0.079 C 
HETATM    3  C4  UNL     1     -35.050   6.049   4.427  1.00 20.00     0.090 C 
HETATM    4  C5  UNL     1     -34.451   6.604   6.716  1.00 20.00     0.020 C 
HETATM    5  C8  UNL     1     -34.750   7.223   5.356  1.00 20.00     0.063 C 
HETATM    6  O10 UNL     1     -34.208   3.793   4.593  1.00 20.00    -0.298 OA
ENDROOT
BRANCH   5   7
HETATM    7  C2  UNL     1     -33.585   8.027   4.860  1.00 20.00     0.135 C 
HETATM    8  O11 UNL     1     -32.897   8.703   5.623  1.00 20.00    -0.297 OA
BRANCH   7   9
HETATM    9  C9  UNL     1     -33.300   7.968   3.384  1.00 20.00     0.056 A 
HETATM   10  C6  UNL     1     -32.224   8.839   2.841  1.00 20.00     0.013 A 
HETATM   11  C7  UNL     1     -32.018   7.358   2.942  1.00 20.00     0.013 A 
ENDBRANCH   7   9
ENDBRANCH   5   7
TORSDOF 2
ENDMDL
MODEL 4
REMARK VINA RESULT:      -4.2     11.425     12.897
REMARK  2 active torsions:
REMARK  status: ('A' for Active; 'I' for Inactive)
REMARK    1  A    between atoms: C2_2  and  C8_8 
REMARK    2  A    between atoms: C2_2  and  C9_9 
ROOT
HETATM    1  C1  UNL     1     -40.914  14.178   8.288  1.00 20.00     0.127 C 
HETATM    2  C3  UNL     1     -40.608  15.412   7.482  1.00 20.00     0.079 C 
HETATM    3  C4  UNL     1     -41.913  13.277   7.607  1.00 20.00     0.090 C 
HETATM    4  C5  UNL     1     -41.740  15.414   6.461  1.00 20.00     0.020 C 
HETATM    5  C8  UNL     1     -42.101  13.948   6.249  1.00 20.00     0.063 C 
HETATM    6  O10 UNL     1     -40.395  13.926   9.368  1.00 20.00    -0.298 OA
ENDROOT
BRANCH   5   7
HETATM    7  C2  UNL     1     -41.224  13.322   5.205  1.00 20.00     0.135 C 
HETATM    8  O11 UNL     1     -41.208  13.733   4.046  1.00 20.00    -0.297 OA
BRANCH   7   9
HETATM    9  C9  UNL     1     -40.369  12.164   5.644  1.00 20.00     0.056 A 
HETATM   10  C6  UNL     1     -39.470  11.536   4.641  1.00 20.00     0.013 A 
HETATM   11  C7  UNL     1     -38.901  12.377   5.743  1.00 20.00     0.013 A 
ENDBRANCH   7   9
ENDBRANCH   5   7
TORSDOF 2
ENDMDL
MODEL 5
REMARK VINA RESULT:      -4.2     10.714     11.870
REMARK  2 active torsions:
REMARK  status: ('A' for Active; 'I' for Inactive)
REMARK    1  A    between atoms: C2_2  and  C8_8 
REMARK    2  A    between atoms: C2_2  and  C9_9 
ROOT
HETATM    1  C1  UNL     1     -32.469   8.510   1.656  1.00 20.00     0.127 C 
HETATM    2  C3  UNL     1     -33.111   9.345   2.731  1.00 20.00     0.079 C 
HETATM    3  C4  UNL     1     -31.817   7.266   2.203  1.00 20.00     0.090 C 
HETATM    4  C5  UNL     1     -32.501   8.756   3.997  1.00 20.00     0.020 C 
HETATM    5  C8  UNL     1     -32.222   7.293   3.674  1.00 20.00     0.063 C 
HETATM    6  O10 UNL     1     -32.489   8.801   0.466  1.00 20.00    -0.298 OA
ENDROOT
BRANCH   5   7
HETATM    7  C2  UNL     1     -33.435   6.445   3.921  1.00 20.00     0.135 C 
HETATM    8  O11 UNL     1     -33.693   5.469   3.219  1.00 20.00    -0.297 OA
BRANCH   7   9
HETATM    9  C9  UNL     1     -34.322   6.849   5.068  1.00 20.00     0.056 A 
HETATM   10  C6  UNL     1     -34.823   5.785   5.977  1.00 20.00     0.013 A 
HETATM   11  C7  UNL     1     -33.773   6.747   6.446  1.00 20.00     0.013 A 
ENDBRANCH   7   9
ENDBRANCH   5   7
TORSDOF 2
ENDMDL
MODEL 6
REMARK VINA RESULT:      -4.1      1.636      2.045
REMARK  2 active torsions:
REMARK  status: ('A' for Active; 'I' for Inactive)
REMARK    1  A    between atoms: C2_2  and  C8_8 
REMARK    2  A    between atoms: C2_2  and  C9_9 
ROOT
HETATM    1  C1  UNL     1     -35.733  15.044  -6.714  1.00 20.00     0.127 C 
HETATM    2  C3  UNL     1     -36.639  15.596  -5.646  1.00 20.00     0.079 C 
HETATM    3  C4  UNL     1     -34.330  15.585  -6.618  1.00 20.00     0.090 C 
HETATM    4  C5  UNL     1     -35.833  16.781  -5.128  1.00 20.00     0.020 C 
HETATM    5  C8  UNL     1     -34.371  16.398  -5.326  1.00 20.00     0.063 C 
HETATM    6  O10 UNL     1     -36.093  14.231  -7.557  1.00 20.00    -0.298 OA
ENDROOT
BRANCH   5   7
HETATM    7  C2  UNL     1     -33.858  15.601  -4.163  1.00 20.00     0.135 C 
HETATM    8  O11 UNL     1     -34.144  14.413  -4.021  1.00 20.00    -0.297 OA
BRANCH   7   9
HETATM    9  C9  UNL     1     -32.982  16.326  -3.179  1.00 20.00     0.056 A 
HETATM   10  C6  UNL     1     -33.134  17.801  -3.058  1.00 20.00     0.013 A 
HETATM   11  C7  UNL     1     -33.620  16.899  -1.964  1.00 20.00     0.013 A 
ENDBRANCH   7   9
ENDBRANCH   5   7
TORSDOF 2
ENDMDL
MODEL 7
REMARK VINA RESULT:      -4.0     12.309     13.924
REMARK  2 active torsions:
REMARK  status: ('A' for Active; 'I' for Inactive)
REMARK    1  A    between atoms: C2_2  and  C8_8 
REMARK    2  A    between atoms: C2_2  and  C9_9 
ROOT
HETATM    1  C1  UNL     1     -41.614  14.373   9.484  1.00 20.00     0.127 C 
HETATM    2  C3  UNL     1     -40.237  14.743   9.002  1.00 20.00     0.079 C 
HETATM    3  C4  UNL     1     -42.599  14.214   8.353  1.00 20.00     0.090 C 
HETATM    4  C5  UNL     1     -40.509  15.173   7.566  1.00 20.00     0.020 C 
HETATM    5  C8  UNL     1     -41.716  14.359   7.116  1.00 20.00     0.063 C 
HETATM    6  O10 UNL     1     -41.899  14.202  10.663  1.00 20.00    -0.298 OA
ENDROOT
BRANCH   5   7
HETATM    7  C2  UNL     1     -41.296  13.020   6.586  1.00 20.00     0.135 C 
HETATM    8  O11 UNL     1     -41.979  12.012   6.767  1.00 20.00    -0.297 OA
BRANCH   7   9
HETATM    9  C9  UNL     1     -39.999  12.969   5.825  1.00 20.00     0.056 A 
HETATM   10  C6  UNL     1     -38.971  11.985   6.257  1.00 20.00     0.013 A 
HETATM   11  C7  UNL     1     -39.730  11.774   4.981  1.00 20.00     0.013 A 
ENDBRANCH   7   9
ENDBRANCH   5   7
TORSDOF 2
ENDMDL
MODEL 8
REMARK VINA RESULT:      -3.9      1.631      2.106
REMARK  2 active torsions:
REMARK  status: ('A' for Active; 'I' for Inactive)
REMARK    1  A    between atoms: C2_2  and  C8_8 
REMARK    2  A    between atoms: C2_2  and  C9_9 
ROOT
HETATM    1  C1  UNL     1     -33.900  15.268  -6.145  1.00 20.00     0.127 C 
HETATM    2  C3  UNL     1     -33.289  14.491  -5.010  1.00 20.00     0.079 C 
HETATM    3  C4  UNL     1     -34.834  16.351  -5.667  1.00 20.00     0.090 C 
HETATM    4  C5  UNL     1     -34.174  14.894  -3.836  1.00 20.00     0.020 C 
HETATM    5  C8  UNL     1     -34.653  16.306  -4.152  1.00 20.00     0.063 C 
HETATM    6  O10 UNL     1     -33.653  15.055  -7.325  1.00 20.00    -0.298 OA
ENDROOT
BRANCH   5   7
HETATM    7  C2  UNL     1     -33.659  17.329  -3.690  1.00 20.00     0.135 C 
HETATM    8  O11 UNL     1     -33.392  18.321  -4.368  1.00 20.00    -0.297 OA
BRANCH   7   9
HETATM    9  C9  UNL     1     -33.000  17.082  -2.360  1.00 20.00     0.056 A 
HETATM   10  C6  UNL     1     -32.551  18.259  -1.570  1.00 20.00     0.013 A 
HETATM   11  C7  UNL     1     -33.743  17.464  -1.130  1.00 20.00     0.013 A 
ENDBRANCH   7   9
ENDBRANCH   5   7
TORSDOF 2
ENDMDL
MODEL 9
REMARK VINA RESULT:      -3.8      1.911      4.643
REMARK  2 active torsions:
REMARK  status: ('A' for Active; 'I' for Inactive)
REMARK    1  A    between atoms: C2_2  and  C8_8 
REMARK    2  A    between atoms: C2_2  and  C9_9 
ROOT
HETATM    1  C1  UNL     1     -32.489  18.538  -1.985  1.00 20.00     0.127 C 
HETATM    2  C3  UNL     1     -32.877  19.263  -3.245  1.00 20.00     0.079 C 
HETATM    3  C4  UNL     1     -33.383  17.359  -1.697  1.00 20.00     0.090 C 
HETATM    4  C5  UNL     1     -34.271  18.708  -3.514  1.00 20.00     0.020 C 
HETATM    5  C8  UNL     1     -34.266  17.296  -2.941  1.00 20.00     0.063 C 
HETATM    6  O10 UNL     1     -31.541  18.861  -1.280  1.00 20.00    -0.298 OA
ENDROOT
BRANCH   5   7
HETATM    7  C2  UNL     1     -33.733  16.310  -3.939  1.00 20.00     0.135 C 
HETATM    8  O11 UNL     1     -32.749  15.614  -3.695  1.00 20.00    -0.297 OA
BRANCH   7   9
HETATM    9  C9  UNL     1     -34.459  16.218  -5.254  1.00 20.00     0.056 A 
HETATM   10  C6  UNL     1     -34.068  15.137  -6.197  1.00 20.00     0.013 A 
HETATM   11  C7  UNL     1     -35.376  15.067  -5.467  1.00 20.00     0.013 A 
ENDBRANCH   7   9
ENDBRANCH   5   7
TORSDOF 2
ENDMDL
