MODEL 1
REMARK VINA RESULT:      -5.2      0.000      0.000
REMARK  3 active torsions:
REMARK  status: ('A' for Active; 'I' for Inactive)
REMARK    1  A    between atoms: C3_3  and  C9_9 
REMARK    2  A    between atoms: C7_7  and  O11_11 
REMARK    3  A    between atoms: C9_9  and  O11_11 
ROOT
HETATM    1  C1  UNL     1     -34.224   5.095   4.911  1.00 20.00     0.129 C 
HETATM    2  C4  UNL     1     -34.704   5.499   6.280  1.00 20.00     0.081 C 
HETATM    3  C5  UNL     1     -33.670   6.259   4.131  1.00 20.00     0.110 C 
HETATM    4  C6  UNL     1     -34.082   6.880   6.426  1.00 20.00     0.040 C 
HETATM    5  C7  UNL     1     -34.060   7.444   5.009  1.00 20.00     0.129 C 
HETATM    6  O10 UNL     1     -34.288   3.952   4.477  1.00 20.00    -0.298 OA
ENDROOT
BRANCH   5   7
HETATM    7  O11 UNL     1     -33.107   8.484   4.895  1.00 20.00    -0.382 OA
BRANCH   7   8
HETATM    8  C9  UNL     1     -32.152   8.203   3.882  1.00 20.00     0.195 C 
BRANCH   8   9
HETATM    9  C3  UNL     1     -32.545   8.930   2.637  1.00 20.00    -0.005 C 
HETATM   10  C2  UNL     1     -32.305   8.471   1.400  1.00 20.00    -0.033 C 
HETATM   11  C8  UNL     1     -32.692   9.197   0.154  1.00 20.00     0.036 C 
ENDBRANCH   8   9
ENDBRANCH   7   8
ENDBRANCH   5   7
TORSDOF 3
ENDMDL
MODEL 2
REMARK VINA RESULT:      -4.5     11.514     12.329
REMARK  3 active torsions:
REMARK  status: ('A' for Active; 'I' for Inactive)
REMARK    1  A    between atoms: C3_3  and  C9_9 
REMARK    2  A    between atoms: C7_7  and  O11_11 
REMARK    3  A    between atoms: C9_9  and  O11_11 
ROOT
HETATM    1  C1  UNL     1     -31.816  18.981   2.002  1.00 20.00     0.129 C 
HETATM    2  C4  UNL     1     -30.640  19.008   1.063  1.00 20.00     0.081 C 
HETATM    3  C5  UNL     1     -33.132  18.904   1.271  1.00 20.00     0.110 C 
HETATM    4  C6  UNL     1     -31.284  18.579  -0.246  1.00 20.00     0.040 C 
HETATM    5  C7  UNL     1     -32.705  19.131  -0.176  1.00 20.00     0.129 C 
HETATM    6  O10 UNL     1     -31.716  19.028   3.222  1.00 20.00    -0.298 OA
ENDROOT
BRANCH   5   7
HETATM    7  O11 UNL     1     -33.561  18.436  -1.062  1.00 20.00    -0.382 OA
BRANCH   7   8
HETATM    8  C9  UNL     1     -32.834  17.848  -2.132  1.00 20.00     0.195 C 
BRANCH   8   9
HETATM    9  C3  UNL     1     -33.507  16.574  -2.527  1.00 20.00    -0.005 C 
HETATM   10  C2  UNL     1     -33.219  15.897  -3.647  1.00 20.00    -0.033 C 
HETATM   11  C8  UNL     1     -33.893  14.626  -4.047  1.00 20.00     0.036 C 
ENDBRANCH   8   9
ENDBRANCH   7   8
ENDBRANCH   5   7
TORSDOF 3
ENDMDL
MODEL 3
REMARK VINA RESULT:      -4.4     11.088     12.237
REMARK  3 active torsions:
REMARK  status: ('A' for Active; 'I' for Inactive)
REMARK    1  A    between atoms: C3_3  and  C9_9 
REMARK    2  A    between atoms: C7_7  and  O11_11 
REMARK    3  A    between atoms: C9_9  and  O11_11 
ROOT
HETATM    1  C1  UNL     1     -35.359  14.047  -4.583  1.00 20.00     0.129 C 
HETATM    2  C4  UNL     1     -35.941  15.095  -5.493  1.00 20.00     0.081 C 
HETATM    3  C5  UNL     1     -34.076  14.499  -3.934  1.00 20.00     0.110 C 
HETATM    4  C6  UNL     1     -35.150  16.328  -5.083  1.00 20.00     0.040 C 
HETATM    5  C7  UNL     1     -33.779  15.792  -4.687  1.00 20.00     0.129 C 
HETATM    6  O10 UNL     1     -35.865  12.946  -4.400  1.00 20.00    -0.298 OA
ENDROOT
BRANCH   5   7
HETATM    7  O11 UNL     1     -33.100  16.710  -3.850  1.00 20.00    -0.382 OA
BRANCH   7   8
HETATM    8  C9  UNL     1     -33.974  17.272  -2.881  1.00 20.00     0.195 C 
BRANCH   8   9
HETATM    9  C3  UNL     1     -33.219  17.455  -1.605  1.00 20.00    -0.005 C 
HETATM   10  C2  UNL     1     -32.246  18.363  -1.439  1.00 20.00    -0.033 C 
HETATM   11  C8  UNL     1     -31.486  18.546  -0.167  1.00 20.00     0.036 C 
ENDBRANCH   8   9
ENDBRANCH   7   8
ENDBRANCH   5   7
TORSDOF 3
ENDMDL
MODEL 4
REMARK VINA RESULT:      -4.4     11.686     12.719
REMARK  3 active torsions:
REMARK  status: ('A' for Active; 'I' for Inactive)
REMARK    1  A    between atoms: C3_3  and  C9_9 
REMARK    2  A    between atoms: C7_7  and  O11_11 
REMARK    3  A    between atoms: C9_9  and  O11_11 
ROOT
HETATM    1  C1  UNL     1     -34.172  15.521  -5.483  1.00 20.00     0.129 C 
HETATM    2  C4  UNL     1     -34.584  16.966  -5.576  1.00 20.00     0.081 C 
HETATM    3  C5  UNL     1     -33.554  15.186  -4.151  1.00 20.00     0.110 C 
HETATM    4  C6  UNL     1     -34.520  17.397  -4.119  1.00 20.00     0.040 C 
HETATM    5  C7  UNL     1     -33.389  16.566  -3.521  1.00 20.00     0.129 C 
HETATM    6  O10 UNL     1     -34.314  14.712  -6.392  1.00 20.00    -0.298 OA
ENDROOT
BRANCH   5   7
HETATM    7  O11 UNL     1     -33.508  16.489  -2.114  1.00 20.00    -0.382 OA
BRANCH   7   8
HETATM    8  C9  UNL     1     -33.948  17.721  -1.562  1.00 20.00     0.195 C 
BRANCH   8   9
HETATM    9  C3  UNL     1     -33.057  18.080  -0.418  1.00 20.00    -0.005 C 
HETATM   10  C2  UNL     1     -31.779  18.461  -0.561  1.00 20.00    -0.033 C 
HETATM   11  C8  UNL     1     -30.884  18.816   0.580  1.00 20.00     0.036 C 
ENDBRANCH   8   9
ENDBRANCH   7   8
ENDBRANCH   5   7
TORSDOF 3
ENDMDL
MODEL 5
REMARK VINA RESULT:      -4.2     11.973     13.285
REMARK  3 active torsions:
REMARK  status: ('A' for Active; 'I' for Inactive)
REMARK    1  A    between atoms: C3_3  and  C9_9 
REMARK    2  A    between atoms: C7_7  and  O11_11 
REMARK    3  A    between atoms: C9_9  and  O11_11 
ROOT
HETATM    1  C1  UNL     1     -35.817  15.284  -6.434  1.00 20.00     0.129 C 
HETATM    2  C4  UNL     1     -36.887  16.297  -6.120  1.00 20.00     0.081 C 
HETATM    3  C5  UNL     1     -34.465  15.699  -5.914  1.00 20.00     0.110 C 
HETATM    4  C6  UNL     1     -36.193  17.160  -5.078  1.00 20.00     0.040 C 
HETATM    5  C7  UNL     1     -34.720  17.137  -5.476  1.00 20.00     0.129 C 
HETATM    6  O10 UNL     1     -36.022  14.246  -7.051  1.00 20.00    -0.298 OA
ENDROOT
BRANCH   5   7
HETATM    7  O11 UNL     1     -33.895  17.478  -4.379  1.00 20.00    -0.382 OA
BRANCH   7   8
HETATM    8  C9  UNL     1     -33.411  16.319  -3.714  1.00 20.00     0.195 C 
BRANCH   8   9
HETATM    9  C3  UNL     1     -33.370  16.591  -2.246  1.00 20.00    -0.005 C 
HETATM   10  C2  UNL     1     -33.836  17.716  -1.684  1.00 20.00    -0.033 C 
HETATM   11  C8  UNL     1     -33.793  17.993  -0.217  1.00 20.00     0.036 C 
ENDBRANCH   8   9
ENDBRANCH   7   8
ENDBRANCH   5   7
TORSDOF 3
ENDMDL
MODEL 6
REMARK VINA RESULT:      -4.1     11.771     13.293
REMARK  3 active torsions:
REMARK  status: ('A' for Active; 'I' for Inactive)
REMARK    1  A    between atoms: C3_3  and  C9_9 
REMARK    2  A    between atoms: C7_7  and  O11_11 
REMARK    3  A    between atoms: C9_9  and  O11_11 
ROOT
HETATM    1  C1  UNL     1     -37.006  15.939  -5.922  1.00 20.00     0.129 C 
HETATM    2  C4  UNL     1     -36.365  17.008  -6.766  1.00 20.00     0.081 C 
HETATM    3  C5  UNL     1     -36.021  14.885  -5.486  1.00 20.00     0.110 C 
HETATM    4  C6  UNL     1     -34.887  16.749  -6.515  1.00 20.00     0.040 C 
HETATM    5  C7  UNL     1     -34.789  15.241  -6.312  1.00 20.00     0.129 C 
HETATM    6  O10 UNL     1     -38.196  15.921  -5.633  1.00 20.00    -0.298 OA
ENDROOT
BRANCH   5   7
HETATM    7  O11 UNL     1     -33.606  14.901  -5.614  1.00 20.00    -0.382 OA
BRANCH   7   8
HETATM    8  C9  UNL     1     -33.840  14.795  -4.217  1.00 20.00     0.195 C 
BRANCH   8   9
HETATM    9  C3  UNL     1     -33.097  15.888  -3.522  1.00 20.00    -0.005 C 
HETATM   10  C2  UNL     1     -33.575  16.556  -2.462  1.00 20.00    -0.033 C 
HETATM   11  C8  UNL     1     -32.837  17.652  -1.767  1.00 20.00     0.036 C 
ENDBRANCH   8   9
ENDBRANCH   7   8
ENDBRANCH   5   7
TORSDOF 3
ENDMDL
MODEL 7
REMARK VINA RESULT:      -4.0      1.048      1.590
REMARK  3 active torsions:
REMARK  status: ('A' for Active; 'I' for Inactive)
REMARK    1  A    between atoms: C3_3  and  C9_9 
REMARK    2  A    between atoms: C7_7  and  O11_11 
REMARK    3  A    between atoms: C9_9  and  O11_11 
ROOT
HETATM    1  C1  UNL     1     -34.627   5.453   6.184  1.00 20.00     0.129 C 
HETATM    2  C4  UNL     1     -34.479   4.837   4.819  1.00 20.00     0.081 C 
HETATM    3  C5  UNL     1     -34.135   6.876   6.228  1.00 20.00     0.110 C 
HETATM    4  C6  UNL     1     -34.215   6.062   3.958  1.00 20.00     0.040 C 
HETATM    5  C7  UNL     1     -33.452   7.018   4.871  1.00 20.00     0.129 C 
HETATM    6  O10 UNL     1     -35.086   4.860   7.153  1.00 20.00    -0.298 OA
ENDROOT
BRANCH   5   7
HETATM    7  O11 UNL     1     -33.548   8.349   4.401  1.00 20.00    -0.382 OA
BRANCH   7   8
HETATM    8  C9  UNL     1     -32.303   8.813   3.899  1.00 20.00     0.195 C 
BRANCH   8   9
HETATM    9  C3  UNL     1     -32.270   8.593   2.422  1.00 20.00    -0.005 C 
HETATM   10  C2  UNL     1     -32.844   9.417   1.533  1.00 20.00    -0.033 C 
HETATM   11  C8  UNL     1     -32.816   9.198   0.057  1.00 20.00     0.036 C 
ENDBRANCH   8   9
ENDBRANCH   7   8
ENDBRANCH   5   7
TORSDOF 3
ENDMDL
MODEL 8
REMARK VINA RESULT:      -4.0     15.879     16.794
REMARK  3 active torsions:
REMARK  status: ('A' for Active; 'I' for Inactive)
REMARK    1  A    between atoms: C3_3  and  C9_9 
REMARK    2  A    between atoms: C7_7  and  O11_11 
REMARK    3  A    between atoms: C9_9  and  O11_11 
ROOT
HETATM    1  C1  UNL     1     -22.967  18.695   7.730  1.00 20.00     0.129 C 
HETATM    2  C4  UNL     1     -21.788  17.759   7.705  1.00 20.00     0.081 C 
HETATM    3  C5  UNL     1     -23.485  18.927   9.126  1.00 20.00     0.110 C 
HETATM    4  C6  UNL     1     -21.394  17.724   9.173  1.00 20.00     0.040 C 
HETATM    5  C7  UNL     1     -22.709  17.888   9.929  1.00 20.00     0.129 C 
HETATM    6  O10 UNL     1     -23.456  19.203   6.729  1.00 20.00    -0.298 OA
ENDROOT
BRANCH   5   7
HETATM    7  O11 UNL     1     -22.479  18.347  11.247  1.00 20.00    -0.382 OA
BRANCH   7   8
HETATM    8  C9  UNL     1     -23.391  17.764  12.167  1.00 20.00     0.195 C 
BRANCH   8   9
HETATM    9  C3  UNL     1     -24.559  18.682  12.332  1.00 20.00    -0.005 C 
HETATM   10  C2  UNL     1     -25.819  18.346  12.021  1.00 20.00    -0.033 C 
HETATM   11  C8  UNL     1     -26.987  19.263  12.181  1.00 20.00     0.036 C 
ENDBRANCH   8   9
ENDBRANCH   7   8
ENDBRANCH   5   7
TORSDOF 3
ENDMDL
MODEL 9
REMARK VINA RESULT:      -4.0     10.190     11.374
REMARK  3 active torsions:
REMARK  status: ('A' for Active; 'I' for Inactive)
REMARK    1  A    between atoms: C3_3  and  C9_9 
REMARK    2  A    between atoms: C7_7  and  O11_11 
REMARK    3  A    between atoms: C9_9  and  O11_11 
ROOT
HETATM    1  C1  UNL     1     -41.157  16.594   8.714  1.00 20.00     0.129 C 
HETATM    2  C4  UNL     1     -41.784  15.855   9.866  1.00 20.00     0.081 C 
HETATM    3  C5  UNL     1     -40.320  15.694   7.842  1.00 20.00     0.110 C 
HETATM    4  C6  UNL     1     -41.585  14.407   9.444  1.00 20.00     0.040 C 
HETATM    5  C7  UNL     1     -40.274  14.409   8.664  1.00 20.00     0.129 C 
HETATM    6  O10 UNL     1     -41.301  17.794   8.515  1.00 20.00    -0.298 OA
ENDROOT
BRANCH   5   7
HETATM    7  O11 UNL     1     -40.188  13.279   7.817  1.00 20.00    -0.382 OA
BRANCH   7   8
HETATM    8  C9  UNL     1     -41.229  13.275   6.850  1.00 20.00     0.195 C 
BRANCH   8   9
HETATM    9  C3  UNL     1     -40.661  12.846   5.536  1.00 20.00    -0.005 C 
HETATM   10  C2  UNL     1     -39.562  12.088   5.413  1.00 20.00    -0.033 C 
HETATM   11  C8  UNL     1     -38.989  11.661   4.102  1.00 20.00     0.036 C 
ENDBRANCH   8   9
ENDBRANCH   7   8
ENDBRANCH   5   7
TORSDOF 3
ENDMDL
