MODEL 1
REMARK VINA RESULT:      -4.5      0.000      0.000
REMARK  0 active torsions:
REMARK  status: ('A' for Active; 'I' for Inactive)
ROOT
HETATM    1  C1  UNL     1     -33.199  15.332  -3.984  1.00 20.00     0.009 A 
HETATM    2  C2  UNL     1     -33.821  15.019  -5.192  1.00 20.00     0.019 A 
HETATM    3  C3  UNL     1     -35.213  17.008  -5.040  1.00 20.00     0.028 A 
HETATM    4  C4  UNL     1     -33.604  16.474  -3.312  1.00 20.00    -0.050 A 
HETATM    5  C5  UNL     1     -34.608  17.304  -3.828  1.00 20.00    -0.032 A 
HETATM    6  C6  UNL     1     -34.820  15.852  -5.718  1.00 20.00     0.011 A 
HETATM    7  C7  UNL     1     -33.046  17.028  -2.037  1.00 20.00     0.045 C 
HETATM    8  C8  UNL     1     -34.807  18.496  -2.939  1.00 20.00     0.119 C 
HETATM    9  C9  UNL     1     -34.165  18.005  -1.619  1.00 20.00     0.009 C 
HETATM   10  C10 UNL     1     -33.646  19.142  -0.751  1.00 20.00     0.012 C 
HETATM   11 CL11 UNL     1     -36.508  18.927  -2.709  1.00 20.00    -0.119 Cl
HETATM   12 BR12 UNL     1     -35.649  15.400  -7.357  1.00 20.00    -0.051 Br
ENDROOT
TORSDOF 0
ENDMDL
MODEL 2
REMARK VINA RESULT:      -4.2      1.083      1.416
REMARK  0 active torsions:
REMARK  status: ('A' for Active; 'I' for Inactive)
ROOT
HETATM    1  C1  UNL     1     -34.176  15.002  -5.449  1.00 20.00     0.009 A 
HETATM    2  C2  UNL     1     -35.105  15.191  -6.472  1.00 20.00     0.019 A 
HETATM    3  C3  UNL     1     -35.754  17.344  -5.543  1.00 20.00     0.028 A 
HETATM    4  C4  UNL     1     -34.059  15.983  -4.477  1.00 20.00    -0.050 A 
HETATM    5  C5  UNL     1     -34.846  17.142  -4.515  1.00 20.00    -0.032 A 
HETATM    6  C6  UNL     1     -35.887  16.354  -6.521  1.00 20.00     0.011 A 
HETATM    7  C7  UNL     1     -33.103  16.016  -3.325  1.00 20.00     0.045 C 
HETATM    8  C8  UNL     1     -34.477  18.060  -3.387  1.00 20.00     0.119 C 
HETATM    9  C9  UNL     1     -33.753  17.087  -2.424  1.00 20.00     0.009 C 
HETATM   10  C10 UNL     1     -32.739  17.783  -1.528  1.00 20.00     0.012 C 
HETATM   11 CL11 UNL     1     -35.875  18.817  -2.609  1.00 20.00    -0.119 Cl
HETATM   12 BR12 UNL     1     -37.141  16.581  -7.918  1.00 20.00    -0.051 Br
ENDROOT
TORSDOF 0
ENDMDL
MODEL 3
REMARK VINA RESULT:      -4.1      3.009      4.872
REMARK  0 active torsions:
REMARK  status: ('A' for Active; 'I' for Inactive)
ROOT
HETATM    1  C1  UNL     1     -34.769  19.155  -3.607  1.00 20.00     0.009 A 
HETATM    2  C2  UNL     1     -34.467  19.217  -2.247  1.00 20.00     0.019 A 
HETATM    3  C3  UNL     1     -33.628  16.934  -2.286  1.00 20.00     0.028 A 
HETATM    4  C4  UNL     1     -34.509  17.976  -4.286  1.00 20.00    -0.050 A 
HETATM    5  C5  UNL     1     -33.950  16.869  -3.633  1.00 20.00    -0.032 A 
HETATM    6  C6  UNL     1     -33.898  18.116  -1.591  1.00 20.00     0.011 A 
HETATM    7  C7  UNL     1     -34.703  17.701  -5.745  1.00 20.00     0.045 C 
HETATM    8  C8  UNL     1     -33.716  15.752  -4.607  1.00 20.00     0.119 C 
HETATM    9  C9  UNL     1     -34.652  16.159  -5.771  1.00 20.00     0.009 C 
HETATM   10  C10 UNL     1     -34.196  15.618  -7.118  1.00 20.00     0.012 C 
HETATM   11 CL11 UNL     1     -34.140  14.158  -3.966  1.00 20.00    -0.119 Cl
HETATM   12 BR12 UNL     1     -33.502  18.228   0.255  1.00 20.00    -0.051 Br
ENDROOT
TORSDOF 0
ENDMDL
MODEL 4
REMARK VINA RESULT:      -4.1      2.660      4.424
REMARK  0 active torsions:
REMARK  status: ('A' for Active; 'I' for Inactive)
ROOT
HETATM    1  C1  UNL     1     -33.326  15.741  -3.440  1.00 20.00     0.009 A 
HETATM    2  C2  UNL     1     -33.372  16.672  -2.401  1.00 20.00     0.019 A 
HETATM    3  C3  UNL     1     -34.918  18.065  -3.661  1.00 20.00     0.028 A 
HETATM    4  C4  UNL     1     -34.067  15.994  -4.583  1.00 20.00    -0.050 A 
HETATM    5  C5  UNL     1     -34.852  17.149  -4.700  1.00 20.00    -0.032 A 
HETATM    6  C6  UNL     1     -34.164  17.824  -2.510  1.00 20.00     0.011 A 
HETATM    7  C7  UNL     1     -34.207  15.120  -5.790  1.00 20.00     0.045 C 
HETATM    8  C8  UNL     1     -35.594  17.145  -6.004  1.00 20.00     0.119 C 
HETATM    9  C9  UNL     1     -34.772  16.119  -6.822  1.00 20.00     0.009 C 
HETATM   10  C10 UNL     1     -35.588  15.433  -7.907  1.00 20.00     0.012 C 
HETATM   11 CL11 UNL     1     -35.630  18.726  -6.800  1.00 20.00    -0.119 Cl
HETATM   12 BR12 UNL     1     -34.205  19.070  -1.087  1.00 20.00    -0.051 Br
ENDROOT
TORSDOF 0
ENDMDL
MODEL 5
REMARK VINA RESULT:      -4.0     12.500     13.341
REMARK  0 active torsions:
REMARK  status: ('A' for Active; 'I' for Inactive)
ROOT
HETATM    1  C1  UNL     1     -32.629   8.790   4.800  1.00 20.00     0.009 A 
HETATM    2  C2  UNL     1     -32.201   9.017   3.492  1.00 20.00     0.019 A 
HETATM    3  C3  UNL     1     -33.138   6.892   2.770  1.00 20.00     0.028 A 
HETATM    4  C4  UNL     1     -33.294   7.607   5.078  1.00 20.00    -0.050 A 
HETATM    5  C5  UNL     1     -33.542   6.658   4.076  1.00 20.00    -0.032 A 
HETATM    6  C6  UNL     1     -32.456   8.076   2.483  1.00 20.00     0.011 A 
HETATM    7  C7  UNL     1     -33.882   7.177   6.387  1.00 20.00     0.045 C 
HETATM    8  C8  UNL     1     -34.327   5.507   4.631  1.00 20.00     0.119 C 
HETATM    9  C9  UNL     1     -34.071   5.664   6.150  1.00 20.00     0.009 C 
HETATM   10  C10 UNL     1     -35.186   5.079   7.004  1.00 20.00     0.012 C 
HETATM   11 CL11 UNL     1     -33.777   3.931   4.043  1.00 20.00    -0.119 Cl
HETATM   12 BR12 UNL     1     -31.861   8.410   0.719  1.00 20.00    -0.051 Br
ENDROOT
TORSDOF 0
ENDMDL
MODEL 6
REMARK VINA RESULT:      -4.0      3.420      5.147
REMARK  0 active torsions:
REMARK  status: ('A' for Active; 'I' for Inactive)
ROOT
HETATM    1  C1  UNL     1     -35.014  19.262  -1.152  1.00 20.00     0.009 A 
HETATM    2  C2  UNL     1     -34.051  19.244  -0.142  1.00 20.00     0.019 A 
HETATM    3  C3  UNL     1     -32.612  17.813  -1.483  1.00 20.00     0.028 A 
HETATM    4  C4  UNL     1     -34.768  18.541  -2.309  1.00 20.00    -0.050 A 
HETATM    5  C5  UNL     1     -33.581  17.814  -2.475  1.00 20.00    -0.032 A 
HETATM    6  C6  UNL     1     -32.858  18.527  -0.307  1.00 20.00     0.011 A 
HETATM    7  C7  UNL     1     -35.628  18.458  -3.532  1.00 20.00     0.045 C 
HETATM    8  C8  UNL     1     -33.542  17.181  -3.834  1.00 20.00     0.119 C 
HETATM    9  C9  UNL     1     -35.039  17.215  -4.231  1.00 20.00     0.009 C 
HETATM   10  C10 UNL     1     -35.254  17.241  -5.737  1.00 20.00     0.012 C 
HETATM   11 CL11 UNL     1     -32.914  15.527  -3.824  1.00 20.00    -0.119 Cl
HETATM   12 BR12 UNL     1     -31.572  18.517   1.079  1.00 20.00    -0.051 Br
ENDROOT
TORSDOF 0
ENDMDL
MODEL 7
REMARK VINA RESULT:      -3.7     12.409     13.415
REMARK  0 active torsions:
REMARK  status: ('A' for Active; 'I' for Inactive)
ROOT
HETATM    1  C1  UNL     1     -42.403  14.629   5.219  1.00 20.00     0.009 A 
HETATM    2  C2  UNL     1     -41.503  13.688   4.719  1.00 20.00     0.019 A 
HETATM    3  C3  UNL     1     -40.479  13.441   6.912  1.00 20.00     0.028 A 
HETATM    4  C4  UNL     1     -42.318  14.975   6.558  1.00 20.00    -0.050 A 
HETATM    5  C5  UNL     1     -41.360  14.394   7.400  1.00 20.00    -0.032 A 
HETATM    6  C6  UNL     1     -40.549  13.096   5.560  1.00 20.00     0.011 A 
HETATM    7  C7  UNL     1     -43.204  15.915   7.315  1.00 20.00     0.045 C 
HETATM    8  C8  UNL     1     -41.527  14.896   8.803  1.00 20.00     0.119 C 
HETATM    9  C9  UNL     1     -42.352  16.185   8.573  1.00 20.00     0.009 C 
HETATM   10  C10 UNL     1     -43.201  16.571   9.775  1.00 20.00     0.012 C 
HETATM   11 CL11 UNL     1     -39.993  15.247   9.613  1.00 20.00    -0.119 Cl
HETATM   12 BR12 UNL     1     -39.340  11.825   4.854  1.00 20.00    -0.051 Br
ENDROOT
TORSDOF 0
ENDMDL
MODEL 8
REMARK VINA RESULT:      -3.5     12.873     13.906
REMARK  0 active torsions:
REMARK  status: ('A' for Active; 'I' for Inactive)
ROOT
HETATM    1  C1  UNL     1     -42.880  12.879   7.595  1.00 20.00     0.009 A 
HETATM    2  C2  UNL     1     -42.027  12.261   6.679  1.00 20.00     0.019 A 
HETATM    3  C3  UNL     1     -40.449  14.105   6.840  1.00 20.00     0.028 A 
HETATM    4  C4  UNL     1     -42.510  14.110   8.110  1.00 20.00    -0.050 A 
HETATM    5  C5  UNL     1     -41.309  14.726   7.733  1.00 20.00    -0.032 A 
HETATM    6  C6  UNL     1     -40.819  12.869   6.306  1.00 20.00     0.011 A 
HETATM    7  C7  UNL     1     -43.237  14.925   9.135  1.00 20.00     0.045 C 
HETATM    8  C8  UNL     1     -41.126  16.013   8.481  1.00 20.00     0.119 C 
HETATM    9  C9  UNL     1     -42.572  16.305   8.949  1.00 20.00     0.009 C 
HETATM   10  C10 UNL     1     -42.629  17.150  10.214  1.00 20.00     0.012 C 
HETATM   11 CL11 UNL     1     -40.493  17.328   7.479  1.00 20.00    -0.119 Cl
HETATM   12 BR12 UNL     1     -39.685  12.010   5.059  1.00 20.00    -0.051 Br
ENDROOT
TORSDOF 0
ENDMDL
MODEL 9
REMARK VINA RESULT:      -3.3     24.946     25.920
REMARK  0 active torsions:
REMARK  status: ('A' for Active; 'I' for Inactive)
ROOT
HETATM    1  C1  UNL     1     -23.912  -1.842  11.741  1.00 20.00     0.009 A 
HETATM    2  C2  UNL     1     -23.186  -2.670  10.885  1.00 20.00     0.019 A 
HETATM    3  C3  UNL     1     -25.214  -3.291   9.695  1.00 20.00     0.028 A 
HETATM    4  C4  UNL     1     -25.285  -1.762  11.570  1.00 20.00    -0.050 A 
HETATM    5  C5  UNL     1     -25.936  -2.484  10.562  1.00 20.00    -0.032 A 
HETATM    6  C6  UNL     1     -23.831  -3.387   9.867  1.00 20.00     0.011 A 
HETATM    7  C7  UNL     1     -26.250  -0.907  12.332  1.00 20.00     0.045 C 
HETATM    8  C8  UNL     1     -27.403  -2.170  10.559  1.00 20.00     0.119 C 
HETATM    9  C9  UNL     1     -27.593  -1.579  11.977  1.00 20.00     0.009 C 
HETATM   10  C10 UNL     1     -28.765  -0.613  12.066  1.00 20.00     0.012 C 
HETATM   11 CL11 UNL     1     -28.428  -3.591  10.308  1.00 20.00    -0.119 Cl
HETATM   12 BR12 UNL     1     -22.821  -4.505   8.724  1.00 20.00    -0.051 Br
ENDROOT
TORSDOF 0
ENDMDL
