MODEL 1
REMARK VINA RESULT:      -4.3      0.000      0.000
REMARK  1 active torsions:
REMARK  status: ('A' for Active; 'I' for Inactive)
REMARK    1  A    between atoms: C2_2  and  C3_3 
ROOT
HETATM    1  C1  UNL     1     -33.775   7.592   4.932  1.00 20.00    -0.034 C 
HETATM    2  C2  UNL     1     -32.722   8.206   4.375  1.00 20.00     0.194 C 
HETATM    3  C4  UNL     1     -34.056   7.674   6.410  1.00 20.00     0.038 C 
HETATM    4  C5  UNL     1     -34.727   6.742   4.139  1.00 20.00     0.042 C 
HETATM    5  C6  UNL     1     -34.897   6.488   6.904  1.00 20.00     0.009 C 
HETATM    6  C7  UNL     1     -34.787   5.288   4.662  1.00 20.00    -0.011 C 
HETATM    7  C8  UNL     1     -34.538   5.168   6.198  1.00 20.00    -0.014 C 
HETATM    8  C9  UNL     1     -33.911   4.364   3.812  1.00 20.00     0.010 C 
HETATM    9  C10 UNL     1     -33.124   4.720   6.592  1.00 20.00     0.010 C 
HETATM   10  F13 UNL     1     -31.899   8.914   5.179  1.00 20.00    -0.199 F 
ENDROOT
BRANCH   2  11
HETATM   11  C3  UNL     1     -32.421   8.135   2.874  1.00 20.00     0.239 C 
HETATM   12  O11 UNL     1     -32.692   9.199   2.243  1.00 20.00    -0.642 OA
HETATM   13  O12 UNL     1     -31.947   7.049   2.437  1.00 20.00    -0.642 OA
ENDBRANCH   2  11
TORSDOF 1
ENDMDL
MODEL 2
REMARK VINA RESULT:      -4.0     12.905     14.115
REMARK  1 active torsions:
REMARK  status: ('A' for Active; 'I' for Inactive)
REMARK    1  A    between atoms: C2_2  and  C3_3 
ROOT
HETATM    1  C1  UNL     1     -34.384  16.294  -4.779  1.00 20.00    -0.034 C 
HETATM    2  C2  UNL     1     -35.017  15.112  -4.777  1.00 20.00     0.194 C 
HETATM    3  C4  UNL     1     -33.259  16.598  -3.823  1.00 20.00     0.038 C 
HETATM    4  C5  UNL     1     -34.773  17.417  -5.699  1.00 20.00     0.042 C 
HETATM    5  C6  UNL     1     -33.091  18.107  -3.593  1.00 20.00     0.009 C 
HETATM    6  C7  UNL     1     -35.181  18.691  -4.924  1.00 20.00    -0.011 C 
HETATM    7  C8  UNL     1     -34.434  18.858  -3.563  1.00 20.00    -0.014 C 
HETATM    8  C9  UNL     1     -36.704  18.806  -4.818  1.00 20.00     0.010 C 
HETATM    9  C10 UNL     1     -35.244  18.453  -2.324  1.00 20.00     0.010 C 
HETATM   10  F13 UNL     1     -34.620  14.180  -3.884  1.00 20.00    -0.199 F 
ENDROOT
BRANCH   2  11
HETATM   11  C3  UNL     1     -36.161  14.783  -5.742  1.00 20.00     0.239 C 
HETATM   12  O11 UNL     1     -35.781  14.284  -6.841  1.00 20.00    -0.642 OA
HETATM   13  O12 UNL     1     -37.333  15.041  -5.347  1.00 20.00    -0.642 OA
ENDBRANCH   2  11
TORSDOF 1
ENDMDL
MODEL 3
REMARK VINA RESULT:      -3.9     12.534     13.866
REMARK  1 active torsions:
REMARK  status: ('A' for Active; 'I' for Inactive)
REMARK    1  A    between atoms: C2_2  and  C3_3 
ROOT
HETATM    1  C1  UNL     1     -35.095  15.582  -5.171  1.00 20.00    -0.034 C 
HETATM    2  C2  UNL     1     -36.401  15.281  -5.206  1.00 20.00     0.194 C 
HETATM    3  C4  UNL     1     -34.068  14.613  -4.644  1.00 20.00     0.038 C 
HETATM    4  C5  UNL     1     -34.561  16.916  -5.610  1.00 20.00     0.042 C 
HETATM    5  C6  UNL     1     -32.799  15.327  -4.157  1.00 20.00     0.009 C 
HETATM    6  C7  UNL     1     -33.804  17.644  -4.475  1.00 20.00    -0.011 C 
HETATM    7  C8  UNL     1     -33.098  16.675  -3.476  1.00 20.00    -0.014 C 
HETATM    8  C9  UNL     1     -34.698  18.690  -3.803  1.00 20.00     0.010 C 
HETATM    9  C10 UNL     1     -33.842  16.450  -2.153  1.00 20.00     0.010 C 
HETATM   10  F13 UNL     1     -36.787  14.069  -4.750  1.00 20.00    -0.199 F 
ENDROOT
BRANCH   2  11
HETATM   11  C3  UNL     1     -37.460  16.251  -5.739  1.00 20.00     0.239 C 
HETATM   12  O11 UNL     1     -37.920  17.044  -4.865  1.00 20.00    -0.642 OA
HETATM   13  O12 UNL     1     -37.756  16.158  -6.963  1.00 20.00    -0.642 OA
ENDBRANCH   2  11
TORSDOF 1
ENDMDL
MODEL 4
REMARK VINA RESULT:      -3.9     12.676     14.337
REMARK  1 active torsions:
REMARK  status: ('A' for Active; 'I' for Inactive)
REMARK    1  A    between atoms: C2_2  and  C3_3 
ROOT
HETATM    1  C1  UNL     1     -34.540  15.967  -4.680  1.00 20.00    -0.034 C 
HETATM    2  C2  UNL     1     -33.468  16.053  -3.880  1.00 20.00     0.194 C 
HETATM    3  C4  UNL     1     -34.730  14.819  -5.638  1.00 20.00     0.038 C 
HETATM    4  C5  UNL     1     -35.608  17.023  -4.716  1.00 20.00     0.042 C 
HETATM    5  C6  UNL     1     -35.646  15.193  -6.812  1.00 20.00     0.009 C 
HETATM    6  C7  UNL     1     -35.770  17.641  -6.124  1.00 20.00    -0.011 C 
HETATM    7  C8  UNL     1     -35.448  16.646  -7.282  1.00 20.00    -0.014 C 
HETATM    8  C9  UNL     1     -35.030  18.978  -6.225  1.00 20.00     0.010 C 
HETATM    9  C10 UNL     1     -34.061  16.816  -7.917  1.00 20.00     0.010 C 
HETATM   10  F13 UNL     1     -32.541  15.072  -3.950  1.00 20.00    -0.199 F 
ENDROOT
BRANCH   2  11
HETATM   11  C3  UNL     1     -33.258  17.211  -2.898  1.00 20.00     0.239 C 
HETATM   12  O11 UNL     1     -33.546  16.928  -1.698  1.00 20.00    -0.642 OA
HETATM   13  O12 UNL     1     -32.832  18.298  -3.380  1.00 20.00    -0.642 OA
ENDBRANCH   2  11
TORSDOF 1
ENDMDL
MODEL 5
REMARK VINA RESULT:      -3.8     11.770     13.903
REMARK  1 active torsions:
REMARK  status: ('A' for Active; 'I' for Inactive)
REMARK    1  A    between atoms: C2_2  and  C3_3 
ROOT
HETATM    1  C1  UNL     1     -34.124  16.924  -4.348  1.00 20.00    -0.034 C 
HETATM    2  C2  UNL     1     -33.836  15.868  -3.573  1.00 20.00     0.194 C 
HETATM    3  C4  UNL     1     -34.137  18.331  -3.806  1.00 20.00     0.038 C 
HETATM    4  C5  UNL     1     -34.498  16.785  -5.796  1.00 20.00     0.042 C 
HETATM    5  C6  UNL     1     -35.023  19.263  -4.645  1.00 20.00     0.009 C 
HETATM    6  C7  UNL     1     -35.901  17.364  -6.095  1.00 20.00    -0.011 C 
HETATM    7  C8  UNL     1     -36.288  18.564  -5.176  1.00 20.00    -0.014 C 
HETATM    8  C9  UNL     1     -36.953  16.253  -6.148  1.00 20.00     0.010 C 
HETATM    9  C10 UNL     1     -37.231  18.216  -4.017  1.00 20.00     0.010 C 
HETATM   10  F13 UNL     1     -33.552  16.093  -2.271  1.00 20.00    -0.199 F 
ENDROOT
BRANCH   2  11
HETATM   11  C3  UNL     1     -33.816  14.432  -4.105  1.00 20.00     0.239 C 
HETATM   12  O11 UNL     1     -32.664  14.017  -4.427  1.00 20.00    -0.642 OA
HETATM   13  O12 UNL     1     -34.925  13.830  -4.166  1.00 20.00    -0.642 OA
ENDBRANCH   2  11
TORSDOF 1
ENDMDL
MODEL 6
REMARK VINA RESULT:      -3.7     11.749     13.528
REMARK  1 active torsions:
REMARK  status: ('A' for Active; 'I' for Inactive)
REMARK    1  A    between atoms: C2_2  and  C3_3 
ROOT
HETATM    1  C1  UNL     1     -26.716  -1.544  11.583  1.00 20.00    -0.034 C 
HETATM    2  C2  UNL     1     -27.707  -1.231  10.737  1.00 20.00     0.194 C 
HETATM    3  C4  UNL     1     -25.557  -0.614  11.834  1.00 20.00     0.038 C 
HETATM    4  C5  UNL     1     -26.660  -2.858  12.310  1.00 20.00     0.042 C 
HETATM    5  C6  UNL     1     -24.313  -1.364  12.332  1.00 20.00     0.009 C 
HETATM    6  C7  UNL     1     -25.374  -3.652  11.984  1.00 20.00    -0.011 C 
HETATM    7  C8  UNL     1     -24.145  -2.743  11.669  1.00 20.00    -0.014 C 
HETATM    8  C9  UNL     1     -25.645  -4.724  10.925  1.00 20.00     0.010 C 
HETATM    9  C10 UNL     1     -23.822  -2.581  10.177  1.00 20.00     0.010 C 
HETATM   10  F13 UNL     1     -27.646  -0.041  10.099  1.00 20.00    -0.199 F 
ENDROOT
BRANCH   2  11
HETATM   11  C3  UNL     1     -28.894  -2.162  10.469  1.00 20.00     0.239 C 
HETATM   12  O11 UNL     1     -29.970  -1.801  11.031  1.00 20.00    -0.642 OA
HETATM   13  O12 UNL     1     -28.677  -3.168   9.737  1.00 20.00    -0.642 OA
ENDBRANCH   2  11
TORSDOF 1
ENDMDL
MODEL 7
REMARK VINA RESULT:      -3.7     12.438     14.729
REMARK  1 active torsions:
REMARK  status: ('A' for Active; 'I' for Inactive)
REMARK    1  A    between atoms: C2_2  and  C3_3 
ROOT
HETATM    1  C1  UNL     1     -35.468  15.477  -6.273  1.00 20.00    -0.034 C 
HETATM    2  C2  UNL     1     -34.244  15.099  -5.880  1.00 20.00     0.194 C 
HETATM    3  C4  UNL     1     -35.817  15.664  -7.728  1.00 20.00     0.038 C 
HETATM    4  C5  UNL     1     -36.570  15.785  -5.299  1.00 20.00     0.042 C 
HETATM    5  C6  UNL     1     -37.003  16.620  -7.917  1.00 20.00     0.009 C 
HETATM    6  C7  UNL     1     -37.093  17.232  -5.448  1.00 20.00    -0.011 C 
HETATM    7  C8  UNL     1     -37.000  17.781  -6.906  1.00 20.00    -0.014 C 
HETATM    8  C9  UNL     1     -36.471  18.152  -4.394  1.00 20.00     0.010 C 
HETATM    9  C10 UNL     1     -35.814  18.717  -7.173  1.00 20.00     0.010 C 
HETATM   10  F13 UNL     1     -33.308  14.884  -6.831  1.00 20.00    -0.199 F 
ENDROOT
BRANCH   2  11
HETATM   11  C3  UNL     1     -33.870  14.901  -4.407  1.00 20.00     0.239 C 
HETATM   12  O11 UNL     1     -34.182  13.765  -3.944  1.00 20.00    -0.642 OA
HETATM   13  O12 UNL     1     -33.307  15.871  -3.826  1.00 20.00    -0.642 OA
ENDBRANCH   2  11
TORSDOF 1
ENDMDL
MODEL 8
REMARK VINA RESULT:      -3.6      9.907     11.073
REMARK  1 active torsions:
REMARK  status: ('A' for Active; 'I' for Inactive)
REMARK    1  A    between atoms: C2_2  and  C3_3 
ROOT
HETATM    1  C1  UNL     1     -41.708  13.522   6.003  1.00 20.00    -0.034 C 
HETATM    2  C2  UNL     1     -40.726  12.955   5.288  1.00 20.00     0.194 C 
HETATM    3  C4  UNL     1     -42.598  14.593   5.426  1.00 20.00     0.038 C 
HETATM    4  C5  UNL     1     -41.970  13.168   7.439  1.00 20.00     0.042 C 
HETATM    5  C6  UNL     1     -43.216  15.478   6.518  1.00 20.00     0.009 C 
HETATM    6  C7  UNL     1     -41.852  14.394   8.374  1.00 20.00    -0.011 C 
HETATM    7  C8  UNL     1     -42.253  15.739   7.690  1.00 20.00    -0.014 C 
HETATM    8  C9  UNL     1     -40.486  14.428   9.065  1.00 20.00     0.010 C 
HETATM    9  C10 UNL     1     -41.075  16.608   7.229  1.00 20.00     0.010 C 
HETATM   10  F13 UNL     1     -40.543  13.371   4.016  1.00 20.00    -0.199 F 
ENDROOT
BRANCH   2  11
HETATM   11  C3  UNL     1     -39.812  11.864   5.856  1.00 20.00     0.239 C 
HETATM   12  O11 UNL     1     -39.823  10.786   5.193  1.00 20.00    -0.642 OA
HETATM   13  O12 UNL     1     -39.163  12.149   6.901  1.00 20.00    -0.642 OA
ENDBRANCH   2  11
TORSDOF 1
ENDMDL
MODEL 9
REMARK VINA RESULT:      -3.4     13.509     14.774
REMARK  1 active torsions:
REMARK  status: ('A' for Active; 'I' for Inactive)
REMARK    1  A    between atoms: C2_2  and  C3_3 
ROOT
HETATM    1  C1  UNL     1     -34.694  17.038  -5.088  1.00 20.00    -0.034 C 
HETATM    2  C2  UNL     1     -34.601  15.706  -5.209  1.00 20.00     0.194 C 
HETATM    3  C4  UNL     1     -34.527  17.732  -3.761  1.00 20.00     0.038 C 
HETATM    4  C5  UNL     1     -35.014  17.934  -6.251  1.00 20.00     0.042 C 
HETATM    5  C6  UNL     1     -35.225  19.099  -3.733  1.00 20.00     0.009 C 
HETATM    6  C7  UNL     1     -36.301  18.759  -6.015  1.00 20.00    -0.011 C 
HETATM    7  C8  UNL     1     -36.552  19.106  -4.514  1.00 20.00    -0.014 C 
HETATM    8  C9  UNL     1     -37.501  18.117  -6.716  1.00 20.00     0.010 C 
HETATM    9  C10 UNL     1     -37.590  18.223  -3.809  1.00 20.00     0.010 C 
HETATM   10  F13 UNL     1     -34.349  14.982  -4.096  1.00 20.00    -0.199 F 
ENDROOT
BRANCH   2  11
HETATM   11  C3  UNL     1     -34.766  14.982  -6.550  1.00 20.00     0.239 C 
HETATM   12  O11 UNL     1     -33.720  14.973  -7.263  1.00 20.00    -0.642 OA
HETATM   13  O12 UNL     1     -35.901  14.486  -6.794  1.00 20.00    -0.642 OA
ENDBRANCH   2  11
TORSDOF 1
ENDMDL
