MODEL 1
REMARK VINA RESULT:      -4.1      0.000      0.000
REMARK  0 active torsions:
REMARK  status: ('A' for Active; 'I' for Inactive)
ROOT
HETATM    1  C1  UNL     1     -33.705  19.138  -4.142  1.00 20.00     0.009 A 
HETATM    2  C2  UNL     1     -33.061  19.263  -2.909  1.00 20.00     0.024 A 
HETATM    3  C3  UNL     1     -33.169  16.858  -2.563  1.00 20.00     0.033 A 
HETATM    4  C4  UNL     1     -34.058  17.870  -4.574  1.00 20.00    -0.050 A 
HETATM    5  C5  UNL     1     -33.788  16.735  -3.797  1.00 20.00    -0.031 A 
HETATM    6  C6  UNL     1     -32.797  18.131  -2.124  1.00 20.00     0.034 A 
HETATM    7  C7  UNL     1     -34.794  17.506  -5.826  1.00 20.00     0.045 C 
HETATM    8  C8  UNL     1     -34.327  15.506  -4.466  1.00 20.00     0.119 C 
HETATM    9  C9  UNL     1     -34.489  15.996  -5.925  1.00 20.00     0.009 C 
HETATM   10  C10 UNL     1     -35.563  15.238  -6.693  1.00 20.00     0.012 C 
HETATM   11 CL11 UNL     1     -31.999  18.312  -0.609  1.00 20.00    -0.084 Cl
HETATM   12 CL12 UNL     1     -33.237  14.115  -4.371  1.00 20.00    -0.119 Cl
ENDROOT
TORSDOF 0
ENDMDL
MODEL 2
REMARK VINA RESULT:      -4.1     12.087     13.337
REMARK  0 active torsions:
REMARK  status: ('A' for Active; 'I' for Inactive)
ROOT
HETATM    1  C1  UNL     1     -33.356   8.172   5.699  1.00 20.00     0.009 A 
HETATM    2  C2  UNL     1     -34.022   7.274   6.534  1.00 20.00     0.024 A 
HETATM    3  C3  UNL     1     -34.207   5.662   4.722  1.00 20.00     0.033 A 
HETATM    4  C4  UNL     1     -33.112   7.795   4.389  1.00 20.00    -0.050 A 
HETATM    5  C5  UNL     1     -33.525   6.548   3.902  1.00 20.00    -0.031 A 
HETATM    6  C6  UNL     1     -34.446   6.028   6.049  1.00 20.00     0.034 A 
HETATM    7  C7  UNL     1     -32.465   8.609   3.311  1.00 20.00     0.045 C 
HETATM    8  C8  UNL     1     -33.192   6.420   2.445  1.00 20.00     0.119 C 
HETATM    9  C9  UNL     1     -32.110   7.516   2.281  1.00 20.00     0.009 C 
HETATM   10  C10 UNL     1     -32.027   8.062   0.862  1.00 20.00     0.012 C 
HETATM   11 CL11 UNL     1     -35.263   4.936   7.101  1.00 20.00    -0.084 Cl
HETATM   12 CL12 UNL     1     -32.566   4.826   2.001  1.00 20.00    -0.119 Cl
ENDROOT
TORSDOF 0
ENDMDL
MODEL 3
REMARK VINA RESULT:      -4.1      2.064      2.678
REMARK  0 active torsions:
REMARK  status: ('A' for Active; 'I' for Inactive)
ROOT
HETATM    1  C1  UNL     1     -33.322  15.744  -3.454  1.00 20.00     0.009 A 
HETATM    2  C2  UNL     1     -33.370  16.708  -2.445  1.00 20.00     0.024 A 
HETATM    3  C3  UNL     1     -34.999  18.004  -3.705  1.00 20.00     0.033 A 
HETATM    4  C4  UNL     1     -34.126  15.917  -4.568  1.00 20.00    -0.050 A 
HETATM    5  C5  UNL     1     -34.965  17.033  -4.694  1.00 20.00    -0.031 A 
HETATM    6  C6  UNL     1     -34.201  17.831  -2.571  1.00 20.00     0.034 A 
HETATM    7  C7  UNL     1     -34.201  15.046  -5.784  1.00 20.00     0.045 C 
HETATM    8  C8  UNL     1     -35.675  17.006  -6.015  1.00 20.00     0.119 C 
HETATM    9  C9  UNL     1     -35.530  15.516  -6.411  1.00 20.00     0.009 C 
HETATM   10  C10 UNL     1     -35.572  15.293  -7.916  1.00 20.00     0.012 C 
HETATM   11 CL11 UNL     1     -34.244  19.004  -1.310  1.00 20.00    -0.084 Cl
HETATM   12 CL12 UNL     1     -37.375  17.483  -5.913  1.00 20.00    -0.119 Cl
ENDROOT
TORSDOF 0
ENDMDL
MODEL 4
REMARK VINA RESULT:      -4.0      4.412      6.614
REMARK  0 active torsions:
REMARK  status: ('A' for Active; 'I' for Inactive)
ROOT
HETATM    1  C1  UNL     1     -29.904  18.306   1.850  1.00 20.00     0.009 A 
HETATM    2  C2  UNL     1     -29.900  18.526   3.228  1.00 20.00     0.024 A 
HETATM    3  C3  UNL     1     -32.218  19.262   3.159  1.00 20.00     0.033 A 
HETATM    4  C4  UNL     1     -31.072  18.554   1.148  1.00 20.00    -0.050 A 
HETATM    5  C5  UNL     1     -32.225  19.021   1.794  1.00 20.00    -0.031 A 
HETATM    6  C6  UNL     1     -31.048  19.003   3.878  1.00 20.00     0.034 A 
HETATM    7  C7  UNL     1     -31.291  18.437  -0.329  1.00 20.00     0.045 C 
HETATM    8  C8  UNL     1     -33.320  19.263   0.798  1.00 20.00     0.119 C 
HETATM    9  C9  UNL     1     -32.832  18.419  -0.405  1.00 20.00     0.009 C 
HETATM   10  C10 UNL     1     -33.352  18.930  -1.741  1.00 20.00     0.012 C 
HETATM   11 CL11 UNL     1     -31.018  19.263   5.581  1.00 20.00    -0.084 Cl
HETATM   12 CL12 UNL     1     -34.912  18.730   1.355  1.00 20.00    -0.119 Cl
ENDROOT
TORSDOF 0
ENDMDL
MODEL 5
REMARK VINA RESULT:      -3.7     12.951     14.259
REMARK  0 active torsions:
REMARK  status: ('A' for Active; 'I' for Inactive)
ROOT
HETATM    1  C1  UNL     1     -42.129  14.818   5.572  1.00 20.00     0.009 A 
HETATM    2  C2  UNL     1     -41.542  13.587   5.276  1.00 20.00     0.024 A 
HETATM    3  C3  UNL     1     -40.120  13.745   7.244  1.00 20.00     0.033 A 
HETATM    4  C4  UNL     1     -41.713  15.488   6.711  1.00 20.00    -0.050 A 
HETATM    5  C5  UNL     1     -40.722  14.956   7.547  1.00 20.00    -0.031 A 
HETATM    6  C6  UNL     1     -40.543  13.055   6.105  1.00 20.00     0.034 A 
HETATM    7  C7  UNL     1     -42.162  16.833   7.193  1.00 20.00     0.045 C 
HETATM    8  C8  UNL     1     -40.418  15.908   8.667  1.00 20.00     0.119 C 
HETATM    9  C9  UNL     1     -41.682  16.803   8.659  1.00 20.00     0.009 C 
HETATM   10  C10 UNL     1     -41.426  18.197   9.214  1.00 20.00     0.012 C 
HETATM   11 CL11 UNL     1     -39.836  11.532   5.719  1.00 20.00    -0.084 Cl
HETATM   12 CL12 UNL     1     -40.203  15.110  10.231  1.00 20.00    -0.119 Cl
ENDROOT
TORSDOF 0
ENDMDL
MODEL 6
REMARK VINA RESULT:      -3.6      2.220      3.200
REMARK  0 active torsions:
REMARK  status: ('A' for Active; 'I' for Inactive)
ROOT
HETATM    1  C1  UNL     1     -33.943  14.937  -4.856  1.00 20.00     0.009 A 
HETATM    2  C2  UNL     1     -33.290  15.475  -3.746  1.00 20.00     0.024 A 
HETATM    3  C3  UNL     1     -34.629  17.500  -3.887  1.00 20.00     0.033 A 
HETATM    4  C4  UNL     1     -34.942  15.685  -5.458  1.00 20.00    -0.050 A 
HETATM    5  C5  UNL     1     -35.291  16.954  -4.976  1.00 20.00    -0.031 A 
HETATM    6  C6  UNL     1     -33.629  16.748  -3.265  1.00 20.00     0.034 A 
HETATM    7  C7  UNL     1     -35.734  15.334  -6.679  1.00 20.00     0.045 C 
HETATM    8  C8  UNL     1     -36.352  17.567  -5.841  1.00 20.00     0.119 C 
HETATM    9  C9  UNL     1     -36.916  16.320  -6.565  1.00 20.00     0.009 C 
HETATM   10  C10 UNL     1     -37.532  16.644  -7.918  1.00 20.00     0.012 C 
HETATM   11 CL11 UNL     1     -32.811  17.387  -1.891  1.00 20.00    -0.084 Cl
HETATM   12 CL12 UNL     1     -37.612  18.406  -4.926  1.00 20.00    -0.119 Cl
ENDROOT
TORSDOF 0
ENDMDL
MODEL 7
REMARK VINA RESULT:      -3.5     12.436     13.640
REMARK  0 active torsions:
REMARK  status: ('A' for Active; 'I' for Inactive)
ROOT
HETATM    1  C1  UNL     1     -39.582  12.744   7.332  1.00 20.00     0.009 A 
HETATM    2  C2  UNL     1     -39.092  12.094   6.198  1.00 20.00     0.024 A 
HETATM    3  C3  UNL     1     -40.799  13.136   4.813  1.00 20.00     0.033 A 
HETATM    4  C4  UNL     1     -40.665  13.595   7.186  1.00 20.00    -0.050 A 
HETATM    5  C5  UNL     1     -41.268  13.798   5.937  1.00 20.00    -0.031 A 
HETATM    6  C6  UNL     1     -39.698  12.287   4.947  1.00 20.00     0.034 A 
HETATM    7  C7  UNL     1     -41.382  14.352   8.261  1.00 20.00     0.045 C 
HETATM    8  C8  UNL     1     -42.450  14.712   6.070  1.00 20.00     0.119 C 
HETATM    9  C9  UNL     1     -42.158  15.394   7.429  1.00 20.00     0.009 C 
HETATM   10  C10 UNL     1     -43.417  15.878   8.135  1.00 20.00     0.012 C 
HETATM   11 CL11 UNL     1     -39.073  11.475   3.563  1.00 20.00    -0.084 Cl
HETATM   12 CL12 UNL     1     -42.574  15.901   4.766  1.00 20.00    -0.119 Cl
ENDROOT
TORSDOF 0
ENDMDL
MODEL 8
REMARK VINA RESULT:      -3.5      2.621      4.529
REMARK  0 active torsions:
REMARK  status: ('A' for Active; 'I' for Inactive)
ROOT
HETATM    1  C1  UNL     1     -36.835  18.974  -2.927  1.00 20.00     0.009 A 
HETATM    2  C2  UNL     1     -37.470  18.650  -4.127  1.00 20.00     0.024 A 
HETATM    3  C3  UNL     1     -35.495  17.456  -4.897  1.00 20.00     0.033 A 
HETATM    4  C4  UNL     1     -35.543  18.521  -2.723  1.00 20.00    -0.050 A 
HETATM    5  C5  UNL     1     -34.876  17.760  -3.694  1.00 20.00    -0.031 A 
HETATM    6  C6  UNL     1     -36.804  17.898  -5.106  1.00 20.00     0.034 A 
HETATM    7  C7  UNL     1     -34.658  18.787  -1.544  1.00 20.00     0.045 C 
HETATM    8  C8  UNL     1     -33.478  17.454  -3.247  1.00 20.00     0.119 C 
HETATM    9  C9  UNL     1     -33.584  17.693  -1.721  1.00 20.00     0.009 C 
HETATM   10  C10 UNL     1     -32.255  18.077  -1.085  1.00 20.00     0.012 C 
HETATM   11 CL11 UNL     1     -37.610  17.509  -6.578  1.00 20.00    -0.084 Cl
HETATM   12 CL12 UNL     1     -32.969  15.798  -3.606  1.00 20.00    -0.119 Cl
ENDROOT
TORSDOF 0
ENDMDL
MODEL 9
REMARK VINA RESULT:      -3.4     13.353     14.547
REMARK  0 active torsions:
REMARK  status: ('A' for Active; 'I' for Inactive)
ROOT
HETATM    1  C1  UNL     1     -42.241  14.159   5.482  1.00 20.00     0.009 A 
HETATM    2  C2  UNL     1     -41.187  13.345   5.062  1.00 20.00     0.024 A 
HETATM    3  C3  UNL     1     -40.069  13.615   7.206  1.00 20.00     0.033 A 
HETATM    4  C4  UNL     1     -42.200  14.677   6.766  1.00 20.00    -0.050 A 
HETATM    5  C5  UNL     1     -41.128  14.404   7.627  1.00 20.00    -0.031 A 
HETATM    6  C6  UNL     1     -40.108  13.077   5.917  1.00 20.00     0.034 A 
HETATM    7  C7  UNL     1     -43.185  15.606   7.407  1.00 20.00     0.045 C 
HETATM    8  C8  UNL     1     -41.303  15.135   8.926  1.00 20.00     0.119 C 
HETATM    9  C9  UNL     1     -42.819  15.451   8.898  1.00 20.00     0.009 C 
HETATM   10  C10 UNL     1     -43.185  16.681   9.716  1.00 20.00     0.012 C 
HETATM   11 CL11 UNL     1     -38.822  12.067   5.375  1.00 20.00    -0.084 Cl
HETATM   12 CL12 UNL     1     -40.872  14.168  10.343  1.00 20.00    -0.119 Cl
ENDROOT
TORSDOF 0
ENDMDL
