MODEL 1
REMARK VINA RESULT:      -4.2      0.000      0.000
REMARK  0 active torsions:
REMARK  status: ('A' for Active; 'I' for Inactive)
ROOT
HETATM    1  C1  UNL     1     -34.268  14.743  -5.116  1.00 20.00     0.009 A 
HETATM    2  C2  UNL     1     -35.162  14.880  -6.179  1.00 20.00     0.024 A 
HETATM    3  C3  UNL     1     -35.639  17.180  -5.545  1.00 20.00     0.032 A 
HETATM    4  C4  UNL     1     -34.079  15.827  -4.274  1.00 20.00    -0.050 A 
HETATM    5  C5  UNL     1     -34.751  17.038  -4.491  1.00 20.00    -0.035 A 
HETATM    6  C6  UNL     1     -35.845  16.088  -6.391  1.00 20.00     0.034 A 
HETATM    7  C7  UNL     1     -33.165  15.923  -3.091  1.00 20.00     0.045 C 
HETATM    8  C8  UNL     1     -34.347  18.062  -3.474  1.00 20.00     0.095 C 
HETATM    9  C9  UNL     1     -33.748  17.160  -2.371  1.00 20.00     0.005 C 
HETATM   10  C10 UNL     1     -32.762  17.806  -1.407  1.00 20.00     0.011 C 
HETATM   11 CL11 UNL     1     -36.940  16.226  -7.714  1.00 20.00    -0.084 Cl
HETATM   12 BR12 UNL     1     -33.062  19.263  -4.300  1.00 20.00    -0.086 Br
ENDROOT
TORSDOF 0
ENDMDL
MODEL 2
REMARK VINA RESULT:      -3.8      3.181      4.990
REMARK  0 active torsions:
REMARK  status: ('A' for Active; 'I' for Inactive)
ROOT
HETATM    1  C1  UNL     1     -33.082  19.211  -3.747  1.00 20.00     0.009 A 
HETATM    2  C2  UNL     1     -32.577  19.259  -2.447  1.00 20.00     0.024 A 
HETATM    3  C3  UNL     1     -33.314  16.978  -2.027  1.00 20.00     0.032 A 
HETATM    4  C4  UNL     1     -33.706  18.049  -4.167  1.00 20.00    -0.050 A 
HETATM    5  C5  UNL     1     -33.813  16.937  -3.319  1.00 20.00    -0.035 A 
HETATM    6  C6  UNL     1     -32.694  18.152  -1.591  1.00 20.00     0.034 A 
HETATM    7  C7  UNL     1     -34.301  17.758  -5.511  1.00 20.00     0.045 C 
HETATM    8  C8  UNL     1     -34.488  15.796  -4.017  1.00 20.00     0.095 C 
HETATM    9  C9  UNL     1     -35.186  16.535  -5.181  1.00 20.00     0.005 C 
HETATM   10  C10 UNL     1     -35.543  15.712  -6.411  1.00 20.00     0.011 C 
HETATM   11 CL11 UNL     1     -32.059  18.240   0.007  1.00 20.00    -0.084 Cl
HETATM   12 BR12 UNL     1     -33.121  14.537  -4.584  1.00 20.00    -0.086 Br
ENDROOT
TORSDOF 0
ENDMDL
MODEL 3
REMARK VINA RESULT:      -3.8      2.758      4.428
REMARK  0 active torsions:
REMARK  status: ('A' for Active; 'I' for Inactive)
ROOT
HETATM    1  C1  UNL     1     -33.936  14.969  -4.549  1.00 20.00     0.009 A 
HETATM    2  C2  UNL     1     -33.298  15.570  -3.463  1.00 20.00     0.024 A 
HETATM    3  C3  UNL     1     -34.522  17.641  -3.829  1.00 20.00     0.032 A 
HETATM    4  C4  UNL     1     -34.853  15.717  -5.268  1.00 20.00    -0.050 A 
HETATM    5  C5  UNL     1     -35.152  17.038  -4.907  1.00 20.00    -0.035 A 
HETATM    6  C6  UNL     1     -33.586  16.897  -3.107  1.00 20.00     0.034 A 
HETATM    7  C7  UNL     1     -35.669  15.284  -6.447  1.00 20.00     0.045 C 
HETATM    8  C8  UNL     1     -36.200  17.615  -5.810  1.00 20.00     0.095 C 
HETATM    9  C9  UNL     1     -36.110  16.652  -7.016  1.00 20.00     0.005 C 
HETATM   10  C10 UNL     1     -37.333  16.554  -7.918  1.00 20.00     0.011 C 
HETATM   11 CL11 UNL     1     -32.785  17.611  -1.760  1.00 20.00    -0.084 Cl
HETATM   12 BR12 UNL     1     -37.903  17.558  -4.877  1.00 20.00    -0.086 Br
ENDROOT
TORSDOF 0
ENDMDL
MODEL 4
REMARK VINA RESULT:      -3.8     12.980     13.889
REMARK  0 active torsions:
REMARK  status: ('A' for Active; 'I' for Inactive)
ROOT
HETATM    1  C1  UNL     1     -42.169  14.793   5.573  1.00 20.00     0.009 A 
HETATM    2  C2  UNL     1     -41.551  13.661   5.039  1.00 20.00     0.024 A 
HETATM    3  C3  UNL     1     -40.004  13.562   6.915  1.00 20.00     0.032 A 
HETATM    4  C4  UNL     1     -41.688  15.301   6.768  1.00 20.00    -0.050 A 
HETATM    5  C5  UNL     1     -40.622  14.687   7.440  1.00 20.00    -0.035 A 
HETATM    6  C6  UNL     1     -40.475  13.051   5.703  1.00 20.00     0.034 A 
HETATM    7  C7  UNL     1     -42.198  16.482   7.537  1.00 20.00     0.045 C 
HETATM    8  C8  UNL     1     -40.318  15.397   8.724  1.00 20.00     0.095 C 
HETATM    9  C9  UNL     1     -41.000  16.762   8.472  1.00 20.00     0.005 C 
HETATM   10  C10 UNL     1     -41.382  17.582   9.696  1.00 20.00     0.011 C 
HETATM   11 CL11 UNL     1     -39.735  11.653   5.021  1.00 20.00    -0.084 Cl
HETATM   12 BR12 UNL     1     -41.100  14.378  10.181  1.00 20.00    -0.086 Br
ENDROOT
TORSDOF 0
ENDMDL
MODEL 5
REMARK VINA RESULT:      -3.7      3.139      4.593
REMARK  0 active torsions:
REMARK  status: ('A' for Active; 'I' for Inactive)
ROOT
HETATM    1  C1  UNL     1     -33.462  16.415  -3.463  1.00 20.00     0.009 A 
HETATM    2  C2  UNL     1     -33.292  16.717  -2.111  1.00 20.00     0.024 A 
HETATM    3  C3  UNL     1     -34.913  18.526  -2.261  1.00 20.00     0.032 A 
HETATM    4  C4  UNL     1     -34.349  17.182  -4.200  1.00 20.00    -0.050 A 
HETATM    5  C5  UNL     1     -35.076  18.222  -3.604  1.00 20.00    -0.035 A 
HETATM    6  C6  UNL     1     -34.009  17.766  -1.514  1.00 20.00     0.034 A 
HETATM    7  C7  UNL     1     -34.710  17.035  -5.646  1.00 20.00     0.045 C 
HETATM    8  C8  UNL     1     -35.995  18.869  -4.595  1.00 20.00     0.095 C 
HETATM    9  C9  UNL     1     -35.359  18.409  -5.928  1.00 20.00     0.005 C 
HETATM   10  C10 UNL     1     -36.256  18.402  -7.158  1.00 20.00     0.011 C 
HETATM   11 CL11 UNL     1     -33.780  18.112   0.157  1.00 20.00    -0.084 Cl
HETATM   12 BR12 UNL     1     -37.789  18.185  -4.297  1.00 20.00    -0.086 Br
ENDROOT
TORSDOF 0
ENDMDL
MODEL 6
REMARK VINA RESULT:      -3.5      3.864      5.987
REMARK  0 active torsions:
REMARK  status: ('A' for Active; 'I' for Inactive)
ROOT
HETATM    1  C1  UNL     1     -34.326  19.262   0.329  1.00 20.00     0.009 A 
HETATM    2  C2  UNL     1     -33.161  19.162   1.090  1.00 20.00     0.024 A 
HETATM    3  C3  UNL     1     -31.967  18.162  -0.780  1.00 20.00     0.032 A 
HETATM    4  C4  UNL     1     -34.299  18.799  -0.976  1.00 20.00    -0.050 A 
HETATM    5  C5  UNL     1     -33.128  18.262  -1.530  1.00 20.00    -0.035 A 
HETATM    6  C6  UNL     1     -31.991  18.614   0.542  1.00 20.00     0.034 A 
HETATM    7  C7  UNL     1     -35.409  18.819  -1.982  1.00 20.00     0.045 C 
HETATM    8  C8  UNL     1     -33.343  17.875  -2.962  1.00 20.00     0.095 C 
HETATM    9  C9  UNL     1     -34.886  17.795  -3.016  1.00 20.00     0.005 C 
HETATM   10  C10 UNL     1     -35.541  17.944  -4.382  1.00 20.00     0.011 C 
HETATM   11 CL11 UNL     1     -30.567  18.508   1.506  1.00 20.00    -0.084 Cl
HETATM   12 BR12 UNL     1     -32.582  19.262  -4.088  1.00 20.00    -0.086 Br
ENDROOT
TORSDOF 0
ENDMDL
MODEL 7
REMARK VINA RESULT:      -3.3     13.037     13.852
REMARK  0 active torsions:
REMARK  status: ('A' for Active; 'I' for Inactive)
ROOT
HETATM    1  C1  UNL     1     -40.472  13.407   6.568  1.00 20.00     0.009 A 
HETATM    2  C2  UNL     1     -41.130  13.486   5.340  1.00 20.00     0.024 A 
HETATM    3  C3  UNL     1     -42.451  15.377   6.113  1.00 20.00     0.032 A 
HETATM    4  C4  UNL     1     -40.822  14.310   7.559  1.00 20.00    -0.050 A 
HETATM    5  C5  UNL     1     -41.795  15.293   7.332  1.00 20.00    -0.035 A 
HETATM    6  C6  UNL     1     -42.114  14.461   5.114  1.00 20.00     0.034 A 
HETATM    7  C7  UNL     1     -40.246  14.433   8.936  1.00 20.00     0.045 C 
HETATM    8  C8  UNL     1     -41.961  16.169   8.536  1.00 20.00     0.095 C 
HETATM    9  C9  UNL     1     -41.333  15.280   9.634  1.00 20.00     0.005 C 
HETATM   10  C10 UNL     1     -40.827  15.980  10.888  1.00 20.00     0.011 C 
HETATM   11 CL11 UNL     1     -42.906  14.535   3.586  1.00 20.00    -0.084 Cl
HETATM   12 BR12 UNL     1     -41.003  17.828   8.217  1.00 20.00    -0.086 Br
ENDROOT
TORSDOF 0
ENDMDL
MODEL 8
REMARK VINA RESULT:      -3.2     13.360     14.315
REMARK  0 active torsions:
REMARK  status: ('A' for Active; 'I' for Inactive)
ROOT
HETATM    1  C1  UNL     1     -40.464  16.161   8.659  1.00 20.00     0.009 A 
HETATM    2  C2  UNL     1     -41.238  17.322   8.635  1.00 20.00     0.024 A 
HETATM    3  C3  UNL     1     -42.558  16.459   6.781  1.00 20.00     0.032 A 
HETATM    4  C4  UNL     1     -40.740  15.167   7.735  1.00 20.00    -0.050 A 
HETATM    5  C5  UNL     1     -41.784  15.309   6.810  1.00 20.00    -0.035 A 
HETATM    6  C6  UNL     1     -42.276  17.472   7.701  1.00 20.00     0.034 A 
HETATM    7  C7  UNL     1     -40.065  13.839   7.583  1.00 20.00     0.045 C 
HETATM    8  C8  UNL     1     -41.908  14.087   5.952  1.00 20.00     0.095 C 
HETATM    9  C9  UNL     1     -40.519  13.440   6.161  1.00 20.00     0.005 C 
HETATM   10  C10 UNL     1     -40.404  11.945   5.898  1.00 20.00     0.011 C 
HETATM   11 CL11 UNL     1     -43.217  18.914   7.698  1.00 20.00    -0.084 Cl
HETATM   12 BR12 UNL     1     -43.387  13.021   6.623  1.00 20.00    -0.086 Br
ENDROOT
TORSDOF 0
ENDMDL
MODEL 9
REMARK VINA RESULT:      -3.2     12.493     13.316
REMARK  0 active torsions:
REMARK  status: ('A' for Active; 'I' for Inactive)
ROOT
HETATM    1  C1  UNL     1     -39.249  12.687   7.188  1.00 20.00     0.009 A 
HETATM    2  C2  UNL     1     -38.800  12.140   5.985  1.00 20.00     0.024 A 
HETATM    3  C3  UNL     1     -40.796  12.917   4.831  1.00 20.00     0.032 A 
HETATM    4  C4  UNL     1     -40.474  13.333   7.198  1.00 20.00    -0.050 A 
HETATM    5  C5  UNL     1     -41.237  13.457   6.029  1.00 20.00    -0.035 A 
HETATM    6  C6  UNL     1     -39.568  12.252   4.815  1.00 20.00     0.034 A 
HETATM    7  C7  UNL     1     -41.147  14.009   8.353  1.00 20.00     0.045 C 
HETATM    8  C8  UNL     1     -42.494  14.230   6.290  1.00 20.00     0.095 C 
HETATM    9  C9  UNL     1     -42.597  14.111   7.828  1.00 20.00     0.005 C 
HETATM   10  C10 UNL     1     -43.417  15.170   8.552  1.00 20.00     0.011 C 
HETATM   11 CL11 UNL     1     -38.985  11.570   3.345  1.00 20.00    -0.084 Cl
HETATM   12 BR12 UNL     1     -42.232  16.047   5.653  1.00 20.00    -0.086 Br
ENDROOT
TORSDOF 0
ENDMDL
