MODEL 1
REMARK VINA RESULT:      -4.2      0.000      0.000
REMARK  0 active torsions:
REMARK  status: ('A' for Active; 'I' for Inactive)
ROOT
HETATM    1  C1  UNL     1     -33.195  16.045  -3.022  1.00 20.00     0.009 A 
HETATM    2  C2  UNL     1     -33.489  17.041  -2.089  1.00 20.00     0.024 A 
HETATM    3  C3  UNL     1     -35.067  18.074  -3.625  1.00 20.00     0.033 A 
HETATM    4  C4  UNL     1     -33.855  16.071  -4.240  1.00 20.00    -0.050 A 
HETATM    5  C5  UNL     1     -34.790  17.071  -4.542  1.00 20.00    -0.031 A 
HETATM    6  C6  UNL     1     -34.417  18.049  -2.389  1.00 20.00     0.034 A 
HETATM    7  C7  UNL     1     -33.666  15.141  -5.400  1.00 20.00     0.045 C 
HETATM    8  C8  UNL     1     -35.299  16.895  -5.943  1.00 20.00     0.119 C 
HETATM    9  C9  UNL     1     -34.949  15.406  -6.225  1.00 20.00     0.009 C 
HETATM   10  C10 UNL     1     -36.039  14.392  -5.841  1.00 20.00     0.012 C 
HETATM   11 CL11 UNL     1     -34.765  19.263  -1.218  1.00 20.00    -0.084 Cl
HETATM   12 CL12 UNL     1     -37.004  17.306  -6.146  1.00 20.00    -0.119 Cl
ENDROOT
TORSDOF 0
ENDMDL
MODEL 2
REMARK VINA RESULT:      -3.9      1.005      1.115
REMARK  0 active torsions:
REMARK  status: ('A' for Active; 'I' for Inactive)
ROOT
HETATM    1  C1  UNL     1     -33.346  16.272  -3.062  1.00 20.00     0.009 A 
HETATM    2  C2  UNL     1     -33.375  16.995  -1.869  1.00 20.00     0.024 A 
HETATM    3  C3  UNL     1     -35.030  18.524  -2.785  1.00 20.00     0.033 A 
HETATM    4  C4  UNL     1     -34.174  16.678  -4.096  1.00 20.00    -0.050 A 
HETATM    5  C5  UNL     1     -35.017  17.791  -3.962  1.00 20.00    -0.031 A 
HETATM    6  C6  UNL     1     -34.210  18.114  -1.732  1.00 20.00     0.034 A 
HETATM    7  C7  UNL     1     -34.276  16.088  -5.470  1.00 20.00     0.045 C 
HETATM    8  C8  UNL     1     -35.749  18.042  -5.248  1.00 20.00     0.119 C 
HETATM    9  C9  UNL     1     -35.627  16.664  -5.959  1.00 20.00     0.009 C 
HETATM   10  C10 UNL     1     -36.760  15.670  -5.661  1.00 20.00     0.012 C 
HETATM   11 CL11 UNL     1     -34.229  18.987  -0.247  1.00 20.00    -0.084 Cl
HETATM   12 CL12 UNL     1     -37.403  18.621  -5.034  1.00 20.00    -0.119 Cl
ENDROOT
TORSDOF 0
ENDMDL
MODEL 3
REMARK VINA RESULT:      -3.9      2.002      2.599
REMARK  0 active torsions:
REMARK  status: ('A' for Active; 'I' for Inactive)
ROOT
HETATM    1  C1  UNL     1     -33.531  19.144  -4.511  1.00 20.00     0.009 A 
HETATM    2  C2  UNL     1     -32.847  19.241  -3.299  1.00 20.00     0.024 A 
HETATM    3  C3  UNL     1     -33.447  16.954  -2.728  1.00 20.00     0.033 A 
HETATM    4  C4  UNL     1     -34.152  17.945  -4.821  1.00 20.00    -0.050 A 
HETATM    5  C5  UNL     1     -34.108  16.852  -3.943  1.00 20.00    -0.031 A 
HETATM    6  C6  UNL     1     -32.807  18.154  -2.413  1.00 20.00     0.034 A 
HETATM    7  C7  UNL     1     -34.976  17.629  -6.032  1.00 20.00     0.045 C 
HETATM    8  C8  UNL     1     -34.913  15.712  -4.497  1.00 20.00     0.119 C 
HETATM    9  C9  UNL     1     -34.993  16.082  -6.006  1.00 20.00     0.009 C 
HETATM   10  C10 UNL     1     -33.854  15.529  -6.877  1.00 20.00     0.012 C 
HETATM   11 CL11 UNL     1     -31.950  18.299  -0.925  1.00 20.00    -0.084 Cl
HETATM   12 CL12 UNL     1     -34.231  14.119  -4.160  1.00 20.00    -0.119 Cl
ENDROOT
TORSDOF 0
ENDMDL
MODEL 4
REMARK VINA RESULT:      -3.9      1.533      2.151
REMARK  0 active torsions:
REMARK  status: ('A' for Active; 'I' for Inactive)
ROOT
HETATM    1  C1  UNL     1     -33.909  14.847  -5.121  1.00 20.00     0.009 A 
HETATM    2  C2  UNL     1     -33.564  15.247  -3.829  1.00 20.00     0.024 A 
HETATM    3  C3  UNL     1     -34.178  17.547  -4.331  1.00 20.00     0.033 A 
HETATM    4  C4  UNL     1     -34.400  15.803  -5.995  1.00 20.00    -0.050 A 
HETATM    5  C5  UNL     1     -34.542  17.143  -5.607  1.00 20.00    -0.031 A 
HETATM    6  C6  UNL     1     -33.696  16.588  -3.438  1.00 20.00     0.034 A 
HETATM    7  C7  UNL     1     -34.786  15.615  -7.431  1.00 20.00     0.045 C 
HETATM    8  C8  UNL     1     -35.029  17.967  -6.763  1.00 20.00     0.119 C 
HETATM    9  C9  UNL     1     -35.638  16.880  -7.695  1.00 20.00     0.009 C 
HETATM   10  C10 UNL     1     -37.124  16.571  -7.457  1.00 20.00     0.012 C 
HETATM   11 CL11 UNL     1     -33.267  17.054  -1.835  1.00 20.00    -0.084 Cl
HETATM   12 CL12 UNL     1     -36.142  19.259  -6.307  1.00 20.00    -0.119 Cl
ENDROOT
TORSDOF 0
ENDMDL
MODEL 5
REMARK VINA RESULT:      -3.7     24.695     26.103
REMARK  0 active torsions:
REMARK  status: ('A' for Active; 'I' for Inactive)
ROOT
HETATM    1  C1  UNL     1     -24.301  -1.403  11.931  1.00 20.00     0.009 A 
HETATM    2  C2  UNL     1     -23.511  -2.416  11.385  1.00 20.00     0.024 A 
HETATM    3  C3  UNL     1     -25.489  -3.593  10.596  1.00 20.00     0.033 A 
HETATM    4  C4  UNL     1     -25.677  -1.494  11.788  1.00 20.00    -0.050 A 
HETATM    5  C5  UNL     1     -26.271  -2.574  11.120  1.00 20.00    -0.031 A 
HETATM    6  C6  UNL     1     -24.101  -3.503  10.723  1.00 20.00     0.034 A 
HETATM    7  C7  UNL     1     -26.715  -0.558  12.328  1.00 20.00     0.045 C 
HETATM    8  C8  UNL     1     -27.767  -2.452  11.170  1.00 20.00     0.119 C 
HETATM    9  C9  UNL     1     -27.953  -0.939  11.481  1.00 20.00     0.009 C 
HETATM   10  C10 UNL     1     -28.049  -0.024  10.251  1.00 20.00     0.012 C 
HETATM   11 CL11 UNL     1     -23.102  -4.737  10.054  1.00 20.00    -0.084 Cl
HETATM   12 CL12 UNL     1     -28.583  -3.013   9.708  1.00 20.00    -0.119 Cl
ENDROOT
TORSDOF 0
ENDMDL
MODEL 6
REMARK VINA RESULT:      -3.7     11.599     12.929
REMARK  0 active torsions:
REMARK  status: ('A' for Active; 'I' for Inactive)
ROOT
HETATM    1  C1  UNL     1     -39.753  12.801   7.322  1.00 20.00     0.009 A 
HETATM    2  C2  UNL     1     -39.206  12.138   6.223  1.00 20.00     0.024 A 
HETATM    3  C3  UNL     1     -40.823  13.183   4.734  1.00 20.00     0.033 A 
HETATM    4  C4  UNL     1     -40.820  13.659   7.108  1.00 20.00    -0.050 A 
HETATM    5  C5  UNL     1     -41.350  13.858   5.825  1.00 20.00    -0.031 A 
HETATM    6  C6  UNL     1     -39.738  12.327   4.938  1.00 20.00     0.034 A 
HETATM    7  C7  UNL     1     -41.590  14.433   8.134  1.00 20.00     0.045 C 
HETATM    8  C8  UNL     1     -42.532  14.781   5.892  1.00 20.00     0.119 C 
HETATM    9  C9  UNL     1     -42.306  15.489   7.258  1.00 20.00     0.009 C 
HETATM   10  C10 UNL     1     -41.470  16.777   7.198  1.00 20.00     0.012 C 
HETATM   11 CL11 UNL     1     -39.041  11.499   3.597  1.00 20.00    -0.084 Cl
HETATM   12 CL12 UNL     1     -42.676  15.868   4.509  1.00 20.00    -0.119 Cl
ENDROOT
TORSDOF 0
ENDMDL
MODEL 7
REMARK VINA RESULT:      -3.6     12.417     14.064
REMARK  0 active torsions:
REMARK  status: ('A' for Active; 'I' for Inactive)
ROOT
HETATM    1  C1  UNL     1     -42.152  14.715   5.466  1.00 20.00     0.009 A 
HETATM    2  C2  UNL     1     -41.525  13.494   5.212  1.00 20.00     0.024 A 
HETATM    3  C3  UNL     1     -40.123  13.756   7.184  1.00 20.00     0.033 A 
HETATM    4  C4  UNL     1     -41.765  15.432   6.586  1.00 20.00    -0.050 A 
HETATM    5  C5  UNL     1     -40.764  14.958   7.446  1.00 20.00    -0.031 A 
HETATM    6  C6  UNL     1     -40.516  13.019   6.064  1.00 20.00     0.034 A 
HETATM    7  C7  UNL     1     -42.262  16.775   7.027  1.00 20.00     0.045 C 
HETATM    8  C8  UNL     1     -40.502  15.958   8.534  1.00 20.00     0.119 C 
HETATM    9  C9  UNL     1     -41.803  16.809   8.506  1.00 20.00     0.009 C 
HETATM   10  C10 UNL     1     -42.934  16.309   9.417  1.00 20.00     0.012 C 
HETATM   11 CL11 UNL     1     -39.761  11.507   5.730  1.00 20.00    -0.084 Cl
HETATM   12 CL12 UNL     1     -40.125  15.235  10.100  1.00 20.00    -0.119 Cl
ENDROOT
TORSDOF 0
ENDMDL
MODEL 8
REMARK VINA RESULT:      -3.6     13.792     14.870
REMARK  0 active torsions:
REMARK  status: ('A' for Active; 'I' for Inactive)
ROOT
HETATM    1  C1  UNL     1     -40.117  15.054   9.223  1.00 20.00     0.009 A 
HETATM    2  C2  UNL     1     -40.633  14.916  10.512  1.00 20.00     0.024 A 
HETATM    3  C3  UNL     1     -42.552  13.689   9.659  1.00 20.00     0.033 A 
HETATM    4  C4  UNL     1     -40.820  14.491   8.171  1.00 20.00    -0.050 A 
HETATM    5  C5  UNL     1     -42.026  13.806   8.382  1.00 20.00    -0.031 A 
HETATM    6  C6  UNL     1     -41.843  14.240  10.729  1.00 20.00     0.034 A 
HETATM    7  C7  UNL     1     -40.485  14.553   6.711  1.00 20.00     0.045 C 
HETATM    8  C8  UNL     1     -42.603  13.360   7.070  1.00 20.00     0.119 C 
HETATM    9  C9  UNL     1     -41.357  13.408   6.140  1.00 20.00     0.009 C 
HETATM   10  C10 UNL     1     -40.539  12.109   6.073  1.00 20.00     0.012 C 
HETATM   11 CL11 UNL     1     -42.455  14.081  12.331  1.00 20.00    -0.084 Cl
HETATM   12 CL12 UNL     1     -43.417  11.795   7.137  1.00 20.00    -0.119 Cl
ENDROOT
TORSDOF 0
ENDMDL
MODEL 9
REMARK VINA RESULT:      -3.6     12.445     13.576
REMARK  0 active torsions:
REMARK  status: ('A' for Active; 'I' for Inactive)
ROOT
HETATM    1  C1  UNL     1     -32.078   7.110   2.731  1.00 20.00     0.009 A 
HETATM    2  C2  UNL     1     -31.730   8.314   3.345  1.00 20.00     0.024 A 
HETATM    3  C3  UNL     1     -33.337   7.918   5.129  1.00 20.00     0.033 A 
HETATM    4  C4  UNL     1     -33.042   6.320   3.335  1.00 20.00    -0.050 A 
HETATM    5  C5  UNL     1     -33.665   6.712   4.529  1.00 20.00    -0.031 A 
HETATM    6  C6  UNL     1     -32.356   8.716   4.535  1.00 20.00     0.034 A 
HETATM    7  C7  UNL     1     -33.604   5.023   2.836  1.00 20.00     0.045 C 
HETATM    8  C8  UNL     1     -34.708   5.706   4.922  1.00 20.00     0.119 C 
HETATM    9  C9  UNL     1     -34.262   4.453   4.116  1.00 20.00     0.009 C 
HETATM   10  C10 UNL     1     -33.278   3.523   4.843  1.00 20.00     0.012 C 
HETATM   11 CL11 UNL     1     -31.903  10.204   5.275  1.00 20.00    -0.084 Cl
HETATM   12 CL12 UNL     1     -34.845   5.456   6.664  1.00 20.00    -0.119 Cl
ENDROOT
TORSDOF 0
ENDMDL
