MODEL 1
REMARK VINA RESULT:      -3.4      0.000      0.000
REMARK  2 active torsions:
REMARK  status: ('A' for Active; 'I' for Inactive)
REMARK    1  A    between atoms: C5_5  and  C10_10 
REMARK    2  A    between atoms: C5_5  and  O11_11 
ROOT
HETATM    1  C1  UNL     1     -40.300   7.047  -0.016  1.00 20.00     0.004 C 
HETATM    2  C2  UNL     1     -41.219   7.602   1.074  1.00 20.00     0.012 C 
HETATM    3  C3  UNL     1     -40.938   5.747  -0.516  1.00 20.00     0.039 C 
HETATM    4  C4  UNL     1     -42.570   6.882   0.888  1.00 20.00    -0.016 C 
HETATM    5  C5  UNL     1     -42.113   5.467   0.433  1.00 20.00     0.068 C 
HETATM    6  C6  UNL     1     -43.403   7.621  -0.180  1.00 20.00     0.018 C 
HETATM    7  C7  UNL     1     -43.361   6.874   2.203  1.00 20.00     0.018 C 
ENDROOT
BRANCH   5   8
HETATM    8  C10 UNL     1     -43.188   4.608  -0.226  1.00 20.00     0.012 C 
HETATM    9  C8  UNL     1     -42.805   4.277  -1.667  1.00 20.00     0.012 C 
HETATM   10  C9  UNL     1     -43.417   3.328   0.575  1.00 20.00     0.012 C 
ENDBRANCH   5   8
BRANCH   5  11
HETATM   11  O11 UNL     1     -41.623   4.709   1.546  1.00 20.00    -0.389 OA
HETATM   12  H31 UNL     1     -41.774   3.780   1.323  1.00 20.00     0.210 HD
ENDBRANCH   5  11
TORSDOF 2
ENDMDL
MODEL 2
REMARK VINA RESULT:      -3.4     12.897     14.337
REMARK  2 active torsions:
REMARK  status: ('A' for Active; 'I' for Inactive)
REMARK    1  A    between atoms: C5_5  and  C10_10 
REMARK    2  A    between atoms: C5_5  and  O11_11 
ROOT
HETATM    1  C1  UNL     1     -34.950  15.936  -7.777  1.00 20.00     0.004 C 
HETATM    2  C2  UNL     1     -35.998  16.884  -7.191  1.00 20.00     0.012 C 
HETATM    3  C3  UNL     1     -34.046  15.501  -6.620  1.00 20.00     0.039 C 
HETATM    4  C4  UNL     1     -35.972  16.643  -5.668  1.00 20.00    -0.016 C 
HETATM    5  C5  UNL     1     -34.465  16.362  -5.418  1.00 20.00     0.068 C 
HETATM    6  C6  UNL     1     -36.877  15.442  -5.323  1.00 20.00     0.018 C 
HETATM    7  C7  UNL     1     -36.495  17.877  -4.919  1.00 20.00     0.018 C 
ENDROOT
BRANCH   5   8
HETATM    8  C10 UNL     1     -34.130  15.690  -4.090  1.00 20.00     0.012 C 
HETATM    9  C8  UNL     1     -33.331  14.409  -4.320  1.00 20.00     0.012 C 
HETATM   10  C9  UNL     1     -33.359  16.647  -3.183  1.00 20.00     0.012 C 
ENDBRANCH   5   8
BRANCH   5  11
HETATM   11  O11 UNL     1     -33.708  17.579  -5.451  1.00 20.00    -0.389 OA
HETATM   12  H31 UNL     1     -34.318  18.280  -5.182  1.00 20.00     0.210 HD
ENDBRANCH   5  11
TORSDOF 2
ENDMDL
MODEL 3
REMARK VINA RESULT:      -3.3     12.771     14.590
REMARK  2 active torsions:
REMARK  status: ('A' for Active; 'I' for Inactive)
REMARK    1  A    between atoms: C5_5  and  C10_10 
REMARK    2  A    between atoms: C5_5  and  O11_11 
ROOT
HETATM    1  C1  UNL     1     -33.293  15.986  -3.224  1.00 20.00     0.004 C 
HETATM    2  C2  UNL     1     -33.112  15.137  -4.485  1.00 20.00     0.012 C 
HETATM    3  C3  UNL     1     -34.346  17.050  -3.551  1.00 20.00     0.039 C 
HETATM    4  C4  UNL     1     -34.350  15.421  -5.359  1.00 20.00    -0.016 C 
HETATM    5  C5  UNL     1     -34.612  16.923  -5.059  1.00 20.00     0.068 C 
HETATM    6  C6  UNL     1     -35.511  14.505  -4.918  1.00 20.00     0.018 C 
HETATM    7  C7  UNL     1     -34.042  15.138  -6.836  1.00 20.00     0.018 C 
ENDROOT
BRANCH   5   8
HETATM    8  C10 UNL     1     -35.995  17.441  -5.441  1.00 20.00     0.012 C 
HETATM    9  C8  UNL     1     -36.655  18.139  -4.254  1.00 20.00     0.012 C 
HETATM   10  C9  UNL     1     -35.903  18.388  -6.636  1.00 20.00     0.012 C 
ENDBRANCH   5   8
BRANCH   5  11
HETATM   11  O11 UNL     1     -33.670  17.752  -5.753  1.00 20.00    -0.389 OA
HETATM   12  H31 UNL     1     -33.419  17.262  -6.549  1.00 20.00     0.210 HD
ENDBRANCH   5  11
TORSDOF 2
ENDMDL
MODEL 4
REMARK VINA RESULT:      -3.3      8.384      9.930
REMARK  2 active torsions:
REMARK  status: ('A' for Active; 'I' for Inactive)
REMARK    1  A    between atoms: C5_5  and  C10_10 
REMARK    2  A    between atoms: C5_5  and  O11_11 
ROOT
HETATM    1  C1  UNL     1     -42.706  14.707   5.102  1.00 20.00     0.004 C 
HETATM    2  C2  UNL     1     -42.912  14.673   6.618  1.00 20.00     0.012 C 
HETATM    3  C3  UNL     1     -41.499  13.813   4.797  1.00 20.00     0.039 C 
HETATM    4  C4  UNL     1     -42.130  13.442   7.118  1.00 20.00    -0.016 C 
HETATM    5  C5  UNL     1     -40.904  13.437   6.162  1.00 20.00     0.068 C 
HETATM    6  C6  UNL     1     -43.010  12.183   6.978  1.00 20.00     0.018 C 
HETATM    7  C7  UNL     1     -41.751  13.609   8.596  1.00 20.00     0.018 C 
ENDROOT
BRANCH   5   8
HETATM    8  C10 UNL     1     -40.119  12.130   6.104  1.00 20.00     0.012 C 
HETATM    9  C8  UNL     1     -39.700  11.819   4.669  1.00 20.00     0.012 C 
HETATM   10  C9  UNL     1     -38.897  12.196   7.017  1.00 20.00     0.012 C 
ENDBRANCH   5   8
BRANCH   5  11
HETATM   11  O11 UNL     1     -39.962  14.451   6.538  1.00 20.00    -0.389 OA
HETATM   12  H31 UNL     1     -39.149  13.985   6.776  1.00 20.00     0.210 HD
ENDBRANCH   5  11
TORSDOF 2
ENDMDL
MODEL 5
REMARK VINA RESULT:      -3.2     13.640     14.561
REMARK  2 active torsions:
REMARK  status: ('A' for Active; 'I' for Inactive)
REMARK    1  A    between atoms: C5_5  and  C10_10 
REMARK    2  A    between atoms: C5_5  and  O11_11 
ROOT
HETATM    1  C1  UNL     1     -37.277  16.650  -6.269  1.00 20.00     0.004 C 
HETATM    2  C2  UNL     1     -36.272  15.935  -7.174  1.00 20.00     0.012 C 
HETATM    3  C3  UNL     1     -36.525  17.045  -4.994  1.00 20.00     0.039 C 
HETATM    4  C4  UNL     1     -34.880  16.308  -6.628  1.00 20.00    -0.016 C 
HETATM    5  C5  UNL     1     -35.147  16.374  -5.099  1.00 20.00     0.068 C 
HETATM    6  C6  UNL     1     -34.441  17.662  -7.224  1.00 20.00     0.018 C 
HETATM    7  C7  UNL     1     -33.845  15.245  -7.022  1.00 20.00     0.018 C 
ENDROOT
BRANCH   5   8
HETATM    8  C10 UNL     1     -34.091  17.105  -4.275  1.00 20.00     0.012 C 
HETATM    9  C8  UNL     1     -34.732  18.211  -3.439  1.00 20.00     0.012 C 
HETATM   10  C9  UNL     1     -33.336  16.126  -3.380  1.00 20.00     0.012 C 
ENDBRANCH   5   8
BRANCH   5  11
HETATM   11  O11 UNL     1     -35.244  15.056  -4.542  1.00 20.00    -0.389 OA
HETATM   12  H31 UNL     1     -34.462  14.944  -3.984  1.00 20.00     0.210 HD
ENDBRANCH   5  11
TORSDOF 2
ENDMDL
MODEL 6
REMARK VINA RESULT:      -3.2     14.029     14.585
REMARK  2 active torsions:
REMARK  status: ('A' for Active; 'I' for Inactive)
REMARK    1  A    between atoms: C5_5  and  C10_10 
REMARK    2  A    between atoms: C5_5  and  O11_11 
ROOT
HETATM    1  C1  UNL     1     -33.376  16.273  -3.026  1.00 20.00     0.004 C 
HETATM    2  C2  UNL     1     -34.247  17.523  -2.882  1.00 20.00     0.012 C 
HETATM    3  C3  UNL     1     -33.622  15.719  -4.433  1.00 20.00     0.039 C 
HETATM    4  C4  UNL     1     -34.635  17.928  -4.318  1.00 20.00    -0.016 C 
HETATM    5  C5  UNL     1     -34.783  16.544  -5.008  1.00 20.00     0.068 C 
HETATM    6  C6  UNL     1     -33.512  18.791  -4.929  1.00 20.00     0.018 C 
HETATM    7  C7  UNL     1     -35.932  18.750  -4.313  1.00 20.00     0.018 C 
ENDROOT
BRANCH   5   8
HETATM    8  C10 UNL     1     -34.771  16.563  -6.533  1.00 20.00     0.012 C 
HETATM    9  C8  UNL     1     -33.907  15.427  -7.078  1.00 20.00     0.012 C 
HETATM   10  C9  UNL     1     -36.192  16.466  -7.084  1.00 20.00     0.012 C 
ENDBRANCH   5   8
BRANCH   5  11
HETATM   11  O11 UNL     1     -36.014  15.915  -4.628  1.00 20.00    -0.389 OA
HETATM   12  H31 UNL     1     -36.079  16.013  -3.667  1.00 20.00     0.210 HD
ENDBRANCH   5  11
TORSDOF 2
ENDMDL
MODEL 7
REMARK VINA RESULT:      -3.2     13.787     15.160
REMARK  2 active torsions:
REMARK  status: ('A' for Active; 'I' for Inactive)
REMARK    1  A    between atoms: C5_5  and  C10_10 
REMARK    2  A    between atoms: C5_5  and  O11_11 
ROOT
HETATM    1  C1  UNL     1     -36.359  19.234  -4.041  1.00 20.00     0.004 C 
HETATM    2  C2  UNL     1     -36.000  19.003  -5.510  1.00 20.00     0.012 C 
HETATM    3  C3  UNL     1     -35.503  18.268  -3.216  1.00 20.00     0.039 C 
HETATM    4  C4  UNL     1     -34.656  18.248  -5.497  1.00 20.00    -0.016 C 
HETATM    5  C5  UNL     1     -34.808  17.353  -4.236  1.00 20.00     0.068 C 
HETATM    6  C6  UNL     1     -33.499  19.263  -5.382  1.00 20.00     0.018 C 
HETATM    7  C7  UNL     1     -34.475  17.449  -6.794  1.00 20.00     0.018 C 
ENDROOT
BRANCH   5   8
HETATM    8  C10 UNL     1     -33.513  16.763  -3.685  1.00 20.00     0.012 C 
HETATM    9  C8  UNL     1     -33.411  16.999  -2.180  1.00 20.00     0.012 C 
HETATM   10  C9  UNL     1     -33.426  15.271  -4.001  1.00 20.00     0.012 C 
ENDBRANCH   5   8
BRANCH   5  11
HETATM   11  O11 UNL     1     -35.671  16.240  -4.504  1.00 20.00    -0.389 OA
HETATM   12  H31 UNL     1     -35.359  15.855  -5.335  1.00 20.00     0.210 HD
ENDBRANCH   5  11
TORSDOF 2
ENDMDL
MODEL 8
REMARK VINA RESULT:      -3.2     12.273     14.046
REMARK  2 active torsions:
REMARK  status: ('A' for Active; 'I' for Inactive)
REMARK    1  A    between atoms: C5_5  and  C10_10 
REMARK    2  A    between atoms: C5_5  and  O11_11 
ROOT
HETATM    1  C1  UNL     1     -36.268  15.710  -7.918  1.00 20.00     0.004 C 
HETATM    2  C2  UNL     1     -35.693  17.074  -7.531  1.00 20.00     0.012 C 
HETATM    3  C3  UNL     1     -35.791  14.710  -6.860  1.00 20.00     0.039 C 
HETATM    4  C4  UNL     1     -35.277  16.946  -6.052  1.00 20.00    -0.016 C 
HETATM    5  C5  UNL     1     -34.783  15.474  -5.988  1.00 20.00     0.068 C 
HETATM    6  C6  UNL     1     -36.500  17.214  -5.149  1.00 20.00     0.018 C 
HETATM    7  C7  UNL     1     -34.187  17.971  -5.709  1.00 20.00     0.018 C 
ENDROOT
BRANCH   5   8
HETATM    8  C10 UNL     1     -34.669  14.877  -4.589  1.00 20.00     0.012 C 
HETATM    9  C8  UNL     1     -35.573  13.654  -4.450  1.00 20.00     0.012 C 
HETATM   10  C9  UNL     1     -33.219  14.509  -4.279  1.00 20.00     0.012 C 
ENDBRANCH   5   8
BRANCH   5  11
HETATM   11  O11 UNL     1     -33.485  15.347  -6.583  1.00 20.00    -0.389 OA
HETATM   12  H31 UNL     1     -33.571  14.669  -7.268  1.00 20.00     0.210 HD
ENDBRANCH   5  11
TORSDOF 2
ENDMDL
MODEL 9
REMARK VINA RESULT:      -3.0      9.406     11.421
REMARK  2 active torsions:
REMARK  status: ('A' for Active; 'I' for Inactive)
REMARK    1  A    between atoms: C5_5  and  C10_10 
REMARK    2  A    between atoms: C5_5  and  O11_11 
ROOT
HETATM    1  C1  UNL     1     -43.417  12.627   7.482  1.00 20.00     0.004 C 
HETATM    2  C2  UNL     1     -42.204  12.148   6.682  1.00 20.00     0.012 C 
HETATM    3  C3  UNL     1     -43.087  14.034   7.992  1.00 20.00     0.039 C 
HETATM    4  C4  UNL     1     -41.387  13.417   6.364  1.00 20.00    -0.016 C 
HETATM    5  C5  UNL     1     -41.609  14.266   7.647  1.00 20.00     0.068 C 
HETATM    6  C6  UNL     1     -41.951  14.085   5.093  1.00 20.00     0.018 C 
HETATM    7  C7  UNL     1     -39.915  13.061   6.114  1.00 20.00     0.018 C 
ENDROOT
BRANCH   5   8
HETATM    8  C10 UNL     1     -41.276  15.749   7.522  1.00 20.00     0.012 C 
HETATM    9  C8  UNL     1     -42.553  16.586   7.491  1.00 20.00     0.012 C 
HETATM   10  C9  UNL     1     -40.371  16.195   8.668  1.00 20.00     0.012 C 
ENDBRANCH   5   8
BRANCH   5  11
HETATM   11  O11 UNL     1     -40.810  13.768   8.729  1.00 20.00    -0.389 OA
HETATM   12  H31 UNL     1     -40.388  12.962   8.401  1.00 20.00     0.210 HD
ENDBRANCH   5  11
TORSDOF 2
ENDMDL
