MODEL 1
REMARK VINA RESULT:      -3.9      0.000      0.000
REMARK  2 active torsions:
REMARK  status: ('A' for Active; 'I' for Inactive)
REMARK    1  A    between atoms: C5_5  and  C9_9 
REMARK    2  A    between atoms: C5_5  and  O10_10 
ROOT
HETATM    1  C1  UNL     1     -43.256   5.895   2.160  1.00 20.00     0.004 C 
HETATM    2  C2  UNL     1     -43.266   7.258   1.462  1.00 20.00     0.012 C 
HETATM    3  C3  UNL     1     -42.333   4.989   1.344  1.00 20.00     0.038 C 
HETATM    4  C4  UNL     1     -42.074   7.237   0.488  1.00 20.00    -0.017 C 
HETATM    5  C5  UNL     1     -42.046   5.747   0.040  1.00 20.00     0.064 C 
HETATM    6  C6  UNL     1     -40.782   7.646   1.231  1.00 20.00     0.018 C 
HETATM    7  C7  UNL     1     -42.283   8.233  -0.661  1.00 20.00     0.018 C 
ENDROOT
BRANCH   5   8
HETATM    8  C9  UNL     1     -43.082   5.371  -1.028  1.00 20.00     0.034 C 
HETATM    9  C8  UNL     1     -43.417   3.915  -0.985  1.00 20.00     0.008 C 
ENDBRANCH   5   8
BRANCH   5  10
HETATM   10  O10 UNL     1     -40.766   5.364  -0.452  1.00 20.00    -0.389 OA
HETATM   11  H28 UNL     1     -40.199   5.264   0.326  1.00 20.00     0.210 HD
ENDBRANCH   5  10
TORSDOF 2
ENDMDL
MODEL 2
REMARK VINA RESULT:      -3.5      8.828     10.365
REMARK  2 active torsions:
REMARK  status: ('A' for Active; 'I' for Inactive)
REMARK    1  A    between atoms: C5_5  and  C9_9 
REMARK    2  A    between atoms: C5_5  and  O10_10 
ROOT
HETATM    1  C1  UNL     1     -42.347  15.382   5.690  1.00 20.00     0.004 C 
HETATM    2  C2  UNL     1     -41.547  15.666   6.964  1.00 20.00     0.012 C 
HETATM    3  C3  UNL     1     -42.432  13.860   5.554  1.00 20.00     0.038 C 
HETATM    4  C4  UNL     1     -41.506  14.335   7.738  1.00 20.00    -0.017 C 
HETATM    5  C5  UNL     1     -41.448  13.290   6.586  1.00 20.00     0.064 C 
HETATM    6  C6  UNL     1     -42.783  14.188   8.594  1.00 20.00     0.018 C 
HETATM    7  C7  UNL     1     -40.302  14.287   8.688  1.00 20.00     0.018 C 
ENDROOT
BRANCH   5   8
HETATM    8  C9  UNL     1     -40.065  13.103   5.948  1.00 20.00     0.034 C 
HETATM    9  C8  UNL     1     -39.715  11.657   5.800  1.00 20.00     0.008 C 
ENDBRANCH   5   8
BRANCH   5  10
HETATM   10  O10 UNL     1     -41.903  12.009   7.008  1.00 20.00    -0.389 OA
HETATM   11  H28 UNL     1     -42.659  11.794   6.443  1.00 20.00     0.210 HD
ENDBRANCH   5  10
TORSDOF 2
ENDMDL
MODEL 3
REMARK VINA RESULT:      -3.5      1.417      2.082
REMARK  2 active torsions:
REMARK  status: ('A' for Active; 'I' for Inactive)
REMARK    1  A    between atoms: C5_5  and  C9_9 
REMARK    2  A    between atoms: C5_5  and  O10_10 
ROOT
HETATM    1  C1  UNL     1     -43.417   8.102   0.597  1.00 20.00     0.004 C 
HETATM    2  C2  UNL     1     -42.355   7.707  -0.432  1.00 20.00     0.012 C 
HETATM    3  C3  UNL     1     -43.401   7.025   1.683  1.00 20.00     0.038 C 
HETATM    4  C4  UNL     1     -41.492   6.630   0.251  1.00 20.00    -0.017 C 
HETATM    5  C5  UNL     1     -42.537   5.883   1.129  1.00 20.00     0.064 C 
HETATM    6  C6  UNL     1     -40.391   7.303   1.102  1.00 20.00     0.018 C 
HETATM    7  C7  UNL     1     -40.795   5.741  -0.788  1.00 20.00     0.018 C 
ENDROOT
BRANCH   5   8
HETATM    8  C9  UNL     1     -43.414   4.875   0.376  1.00 20.00     0.034 C 
HETATM    9  C8  UNL     1     -43.416   3.537   1.042  1.00 20.00     0.008 C 
ENDBRANCH   5   8
BRANCH   5  10
HETATM   10  O10 UNL     1     -41.924   5.193   2.212  1.00 20.00    -0.389 OA
HETATM   11  H28 UNL     1     -40.981   5.142   1.999  1.00 20.00     0.210 HD
ENDBRANCH   5  10
TORSDOF 2
ENDMDL
MODEL 4
REMARK VINA RESULT:      -3.5      8.197     10.090
REMARK  2 active torsions:
REMARK  status: ('A' for Active; 'I' for Inactive)
REMARK    1  A    between atoms: C5_5  and  C9_9 
REMARK    2  A    between atoms: C5_5  and  O10_10 
ROOT
HETATM    1  C1  UNL     1     -34.085   5.727   6.748  1.00 20.00     0.004 C 
HETATM    2  C2  UNL     1     -33.868   4.920   5.466  1.00 20.00     0.012 C 
HETATM    3  C3  UNL     1     -34.273   7.185   6.325  1.00 20.00     0.038 C 
HETATM    4  C4  UNL     1     -34.304   5.842   4.312  1.00 20.00    -0.017 C 
HETATM    5  C5  UNL     1     -33.884   7.244   4.840  1.00 20.00     0.064 C 
HETATM    6  C6  UNL     1     -35.831   5.733   4.103  1.00 20.00     0.018 C 
HETATM    7  C7  UNL     1     -33.625   5.438   2.997  1.00 20.00     0.018 C 
ENDROOT
BRANCH   5   8
HETATM    8  C9  UNL     1     -32.391   7.570   4.699  1.00 20.00     0.034 C 
HETATM    9  C8  UNL     1     -32.134   9.039   4.800  1.00 20.00     0.008 C 
ENDBRANCH   5   8
BRANCH   5  10
HETATM   10  O10 UNL     1     -34.613   8.290   4.208  1.00 20.00    -0.389 OA
HETATM   11  H28 UNL     1     -35.216   8.640   4.879  1.00 20.00     0.210 HD
ENDBRANCH   5  10
TORSDOF 2
ENDMDL
MODEL 5
REMARK VINA RESULT:      -3.5      1.241      3.125
REMARK  2 active torsions:
REMARK  status: ('A' for Active; 'I' for Inactive)
REMARK    1  A    between atoms: C5_5  and  C9_9 
REMARK    2  A    between atoms: C5_5  and  O10_10 
ROOT
HETATM    1  C1  UNL     1     -42.299   4.993  -1.324  1.00 20.00     0.004 C 
HETATM    2  C2  UNL     1     -43.375   5.634  -0.443  1.00 20.00     0.012 C 
HETATM    3  C3  UNL     1     -40.947   5.437  -0.762  1.00 20.00     0.038 C 
HETATM    4  C4  UNL     1     -42.643   6.122   0.821  1.00 20.00    -0.017 C 
HETATM    5  C5  UNL     1     -41.259   6.547   0.253  1.00 20.00     0.064 C 
HETATM    6  C6  UNL     1     -42.526   4.965   1.838  1.00 20.00     0.018 C 
HETATM    7  C7  UNL     1     -43.417   7.260   1.501  1.00 20.00     0.018 C 
ENDROOT
BRANCH   5   8
HETATM    8  C9  UNL     1     -41.233   7.916  -0.439  1.00 20.00     0.034 C 
HETATM    9  C8  UNL     1     -40.424   8.910   0.331  1.00 20.00     0.008 C 
ENDBRANCH   5   8
BRANCH   5  10
HETATM   10  O10 UNL     1     -40.252   6.556   1.259  1.00 20.00    -0.389 OA
HETATM   11  H28 UNL     1     -40.563   5.959   1.955  1.00 20.00     0.210 HD
ENDBRANCH   5  10
TORSDOF 2
ENDMDL
MODEL 6
REMARK VINA RESULT:      -3.4     11.783     13.775
REMARK  2 active torsions:
REMARK  status: ('A' for Active; 'I' for Inactive)
REMARK    1  A    between atoms: C5_5  and  C9_9 
REMARK    2  A    between atoms: C5_5  and  O10_10 
ROOT
HETATM    1  C1  UNL     1     -35.811  17.629  -5.321  1.00 20.00     0.004 C 
HETATM    2  C2  UNL     1     -36.610  16.333  -5.164  1.00 20.00     0.012 C 
HETATM    3  C3  UNL     1     -34.349  17.224  -5.521  1.00 20.00     0.038 C 
HETATM    4  C4  UNL     1     -35.678  15.206  -5.646  1.00 20.00    -0.017 C 
HETATM    5  C5  UNL     1     -34.281  15.724  -5.196  1.00 20.00     0.064 C 
HETATM    6  C6  UNL     1     -35.779  15.062  -7.180  1.00 20.00     0.018 C 
HETATM    7  C7  UNL     1     -36.076  13.859  -5.026  1.00 20.00     0.018 C 
ENDROOT
BRANCH   5   8
HETATM    8  C9  UNL     1     -33.961  15.520  -3.710  1.00 20.00     0.034 C 
HETATM    9  C8  UNL     1     -33.150  16.648  -3.158  1.00 20.00     0.008 C 
ENDBRANCH   5   8
BRANCH   5  10
HETATM   10  O10 UNL     1     -33.228  15.131  -5.947  1.00 20.00    -0.389 OA
HETATM   11  H28 UNL     1     -33.458  15.258  -6.879  1.00 20.00     0.210 HD
ENDBRANCH   5  10
TORSDOF 2
ENDMDL
MODEL 7
REMARK VINA RESULT:      -3.4      1.268      2.459
REMARK  2 active torsions:
REMARK  status: ('A' for Active; 'I' for Inactive)
REMARK    1  A    between atoms: C5_5  and  C9_9 
REMARK    2  A    between atoms: C5_5  and  O10_10 
ROOT
HETATM    1  C1  UNL     1     -40.083   6.866   0.072  1.00 20.00     0.004 C 
HETATM    2  C2  UNL     1     -41.003   7.546   1.088  1.00 20.00     0.012 C 
HETATM    3  C3  UNL     1     -40.944   5.864  -0.700  1.00 20.00     0.038 C 
HETATM    4  C4  UNL     1     -42.439   7.210   0.643  1.00 20.00    -0.017 C 
HETATM    5  C5  UNL     1     -42.273   5.776   0.064  1.00 20.00     0.064 C 
HETATM    6  C6  UNL     1     -42.904   8.221  -0.429  1.00 20.00     0.018 C 
HETATM    7  C7  UNL     1     -43.417   7.301   1.822  1.00 20.00     0.018 C 
ENDROOT
BRANCH   5   8
HETATM    8  C9  UNL     1     -42.206   4.657   1.111  1.00 20.00     0.034 C 
HETATM    9  C8  UNL     1     -43.417   3.783   1.066  1.00 20.00     0.008 C 
ENDBRANCH   5   8
BRANCH   5  10
HETATM   10  O10 UNL     1     -43.315   5.448  -0.848  1.00 20.00    -0.389 OA
HETATM   11  H28 UNL     1     -43.272   6.108  -1.554  1.00 20.00     0.210 HD
ENDBRANCH   5  10
TORSDOF 2
ENDMDL
MODEL 8
REMARK VINA RESULT:      -3.3      9.612     11.293
REMARK  2 active torsions:
REMARK  status: ('A' for Active; 'I' for Inactive)
REMARK    1  A    between atoms: C5_5  and  C9_9 
REMARK    2  A    between atoms: C5_5  and  O10_10 
ROOT
HETATM    1  C1  UNL     1     -41.660  16.119   6.757  1.00 20.00     0.004 C 
HETATM    2  C2  UNL     1     -42.604  14.951   6.457  1.00 20.00     0.012 C 
HETATM    3  C3  UNL     1     -40.468  15.537   7.519  1.00 20.00     0.038 C 
HETATM    4  C4  UNL     1     -41.781  13.674   6.710  1.00 20.00    -0.017 C 
HETATM    5  C5  UNL     1     -40.869  14.103   7.894  1.00 20.00     0.064 C 
HETATM    6  C6  UNL     1     -40.967  13.317   5.446  1.00 20.00     0.018 C 
HETATM    7  C7  UNL     1     -42.696  12.482   7.023  1.00 20.00     0.018 C 
ENDROOT
BRANCH   5   8
HETATM    8  C9  UNL     1     -41.543  14.087   9.272  1.00 20.00     0.034 C 
HETATM    9  C8  UNL     1     -40.620  14.565  10.346  1.00 20.00     0.008 C 
ENDBRANCH   5   8
BRANCH   5  10
HETATM   10  O10 UNL     1     -39.697  13.298   7.981  1.00 20.00    -0.389 OA
HETATM   11  H28 UNL     1     -40.004  12.396   8.153  1.00 20.00     0.210 HD
ENDBRANCH   5  10
TORSDOF 2
ENDMDL
MODEL 9
REMARK VINA RESULT:      -3.3      9.094     10.748
REMARK  2 active torsions:
REMARK  status: ('A' for Active; 'I' for Inactive)
REMARK    1  A    between atoms: C5_5  and  C9_9 
REMARK    2  A    between atoms: C5_5  and  O10_10 
ROOT
HETATM    1  C1  UNL     1     -40.388  12.899   5.260  1.00 20.00     0.004 C 
HETATM    2  C2  UNL     1     -41.731  13.625   5.144  1.00 20.00     0.012 C 
HETATM    3  C3  UNL     1     -40.017  12.893   6.744  1.00 20.00     0.038 C 
HETATM    4  C4  UNL     1     -42.294  13.694   6.576  1.00 20.00    -0.017 C 
HETATM    5  C5  UNL     1     -41.001  13.855   7.427  1.00 20.00     0.064 C 
HETATM    6  C6  UNL     1     -43.049  12.387   6.905  1.00 20.00     0.018 C 
HETATM    7  C7  UNL     1     -43.288  14.854   6.722  1.00 20.00     0.018 C 
ENDROOT
BRANCH   5   8
HETATM    8  C9  UNL     1     -40.417  15.273   7.458  1.00 20.00     0.034 C 
HETATM    9  C8  UNL     1     -40.359  15.818   8.849  1.00 20.00     0.008 C 
ENDBRANCH   5   8
BRANCH   5  10
HETATM   10  O10 UNL     1     -41.198  13.442   8.775  1.00 20.00    -0.389 OA
HETATM   11  H28 UNL     1     -42.099  13.093   8.819  1.00 20.00     0.210 HD
ENDBRANCH   5  10
TORSDOF 2
ENDMDL
