MODEL 1
REMARK VINA RESULT:      -3.7      0.000      0.000
REMARK  2 active torsions:
REMARK  status: ('A' for Active; 'I' for Inactive)
REMARK    1  A    between atoms: C2_2  and  C6_6 
REMARK    2  A    between atoms: C6_6  and  O10_10 
ROOT
HETATM    1  C3  UNL     1     -35.912  14.181  -4.911  1.00 20.00     0.004 C 
HETATM    2  C4  UNL     1     -34.504  14.083  -4.318  1.00 20.00     0.043 C 
HETATM    3  C5  UNL     1     -35.971  15.496  -5.694  1.00 20.00     0.012 C 
HETATM    4  C6  UNL     1     -33.855  15.458  -4.549  1.00 20.00     0.082 C 
HETATM    5  C7  UNL     1     -34.505  15.929  -5.885  1.00 20.00    -0.013 C 
HETATM    6  C8  UNL     1     -33.908  15.216  -7.119  1.00 20.00     0.018 C 
HETATM    7  C9  UNL     1     -34.395  17.442  -6.132  1.00 20.00     0.018 C 
ENDROOT
BRANCH   4   8
HETATM    8  C2  UNL     1     -34.134  16.356  -3.375  1.00 20.00     0.001 C 
HETATM    9  C1  UNL     1     -33.222  16.686  -2.452  1.00 20.00     0.010 C 
ENDBRANCH   4   8
BRANCH   4  10
HETATM   10  O10 UNL     1     -32.442  15.343  -4.648  1.00 20.00    -0.385 OA
HETATM   11  H26 UNL     1     -32.268  14.860  -5.468  1.00 20.00     0.211 HD
ENDBRANCH   4  10
TORSDOF 2
ENDMDL
MODEL 2
REMARK VINA RESULT:      -3.5     12.816     13.958
REMARK  2 active torsions:
REMARK  status: ('A' for Active; 'I' for Inactive)
REMARK    1  A    between atoms: C2_2  and  C6_6 
REMARK    2  A    between atoms: C6_6  and  O10_10 
ROOT
HETATM    1  C3  UNL     1     -40.482  15.406   8.012  1.00 20.00     0.004 C 
HETATM    2  C4  UNL     1     -40.563  13.887   8.198  1.00 20.00     0.043 C 
HETATM    3  C5  UNL     1     -41.220  15.732   6.710  1.00 20.00     0.012 C 
HETATM    4  C6  UNL     1     -41.118  13.333   6.875  1.00 20.00     0.082 C 
HETATM    5  C7  UNL     1     -42.054  14.478   6.383  1.00 20.00    -0.013 C 
HETATM    6  C8  UNL     1     -43.390  14.526   7.157  1.00 20.00     0.018 C 
HETATM    7  C9  UNL     1     -42.393  14.406   4.886  1.00 20.00     0.018 C 
ENDROOT
BRANCH   4   8
HETATM    8  C2  UNL     1     -39.983  13.016   5.940  1.00 20.00     0.001 C 
HETATM    9  C1  UNL     1     -39.649  11.777   5.562  1.00 20.00     0.010 C 
ENDBRANCH   4   8
BRANCH   4  10
HETATM   10  O10 UNL     1     -41.822  12.116   7.089  1.00 20.00    -0.385 OA
HETATM   11  H26 UNL     1     -42.374  11.984   6.306  1.00 20.00     0.211 HD
ENDBRANCH   4  10
TORSDOF 2
ENDMDL
MODEL 3
REMARK VINA RESULT:      -3.4     13.130     14.319
REMARK  2 active torsions:
REMARK  status: ('A' for Active; 'I' for Inactive)
REMARK    1  A    between atoms: C2_2  and  C6_6 
REMARK    2  A    between atoms: C6_6  and  O10_10 
ROOT
HETATM    1  C3  UNL     1     -41.924  15.817   6.464  1.00 20.00     0.004 C 
HETATM    2  C4  UNL     1     -40.591  15.324   7.036  1.00 20.00     0.043 C 
HETATM    3  C5  UNL     1     -42.881  14.620   6.480  1.00 20.00     0.012 C 
HETATM    4  C6  UNL     1     -40.716  13.794   7.131  1.00 20.00     0.082 C 
HETATM    5  C7  UNL     1     -42.233  13.586   7.421  1.00 20.00    -0.013 C 
HETATM    6  C8  UNL     1     -42.607  13.909   8.886  1.00 20.00     0.018 C 
HETATM    7  C9  UNL     1     -42.735  12.165   7.123  1.00 20.00     0.018 C 
ENDROOT
BRANCH   4   8
HETATM    8  C2  UNL     1     -40.238  13.164   5.851  1.00 20.00     0.001 C 
HETATM    9  C1  UNL     1     -39.353  12.162   5.795  1.00 20.00     0.010 C 
ENDBRANCH   4   8
BRANCH   4  10
HETATM   10  O10 UNL     1     -39.893  13.281   8.170  1.00 20.00    -0.385 OA
HETATM   11  H26 UNL     1     -39.085  13.813   8.161  1.00 20.00     0.211 HD
ENDBRANCH   4  10
TORSDOF 2
ENDMDL
MODEL 4
REMARK VINA RESULT:      -3.3      1.523      2.882
REMARK  2 active torsions:
REMARK  status: ('A' for Active; 'I' for Inactive)
REMARK    1  A    between atoms: C2_2  and  C6_6 
REMARK    2  A    between atoms: C6_6  and  O10_10 
ROOT
HETATM    1  C3  UNL     1     -34.414  16.973  -7.338  1.00 20.00     0.004 C 
HETATM    2  C4  UNL     1     -34.544  17.713  -6.003  1.00 20.00     0.043 C 
HETATM    3  C5  UNL     1     -35.016  15.579  -7.131  1.00 20.00     0.012 C 
HETATM    4  C6  UNL     1     -34.981  16.653  -4.978  1.00 20.00     0.082 C 
HETATM    5  C7  UNL     1     -35.841  15.674  -5.833  1.00 20.00    -0.013 C 
HETATM    6  C8  UNL     1     -37.244  16.239  -6.148  1.00 20.00     0.018 C 
HETATM    7  C9  UNL     1     -36.036  14.292  -5.191  1.00 20.00     0.018 C 
ENDROOT
BRANCH   4   8
HETATM    8  C2  UNL     1     -33.768  16.023  -4.349  1.00 20.00     0.001 C 
HETATM    9  C1  UNL     1     -33.377  16.245  -3.088  1.00 20.00     0.010 C 
ENDBRANCH   4   8
BRANCH   4  10
HETATM   10  O10 UNL     1     -35.727  17.244  -3.922  1.00 20.00    -0.385 OA
HETATM   11  H26 UNL     1     -35.249  18.049  -3.673  1.00 20.00     0.211 HD
ENDBRANCH   4  10
TORSDOF 2
ENDMDL
MODEL 5
REMARK VINA RESULT:      -3.2     13.556     14.855
REMARK  2 active torsions:
REMARK  status: ('A' for Active; 'I' for Inactive)
REMARK    1  A    between atoms: C2_2  and  C6_6 
REMARK    2  A    between atoms: C6_6  and  O10_10 
ROOT
HETATM    1  C3  UNL     1     -41.693  16.363   7.700  1.00 20.00     0.004 C 
HETATM    2  C4  UNL     1     -40.390  15.565   7.593  1.00 20.00     0.043 C 
HETATM    3  C5  UNL     1     -42.817  15.347   7.920  1.00 20.00     0.012 C 
HETATM    4  C6  UNL     1     -40.811  14.089   7.492  1.00 20.00     0.082 C 
HETATM    5  C7  UNL     1     -42.117  14.040   8.341  1.00 20.00    -0.013 C 
HETATM    6  C8  UNL     1     -41.838  14.067   9.861  1.00 20.00     0.018 C 
HETATM    7  C9  UNL     1     -42.999  12.815   8.058  1.00 20.00     0.018 C 
ENDROOT
BRANCH   4   8
HETATM    8  C2  UNL     1     -40.997  13.709   6.048  1.00 20.00     0.001 C 
HETATM    9  C1  UNL     1     -40.322  12.727   5.440  1.00 20.00     0.010 C 
ENDBRANCH   4   8
BRANCH   4  10
HETATM   10  O10 UNL     1     -39.799  13.235   8.011  1.00 20.00    -0.385 OA
HETATM   11  H26 UNL     1     -40.092  12.331   7.831  1.00 20.00     0.211 HD
ENDBRANCH   4  10
TORSDOF 2
ENDMDL
MODEL 6
REMARK VINA RESULT:      -3.1     13.126     14.211
REMARK  2 active torsions:
REMARK  status: ('A' for Active; 'I' for Inactive)
REMARK    1  A    between atoms: C2_2  and  C6_6 
REMARK    2  A    between atoms: C6_6  and  O10_10 
ROOT
HETATM    1  C3  UNL     1     -42.986  12.825   8.145  1.00 20.00     0.004 C 
HETATM    2  C4  UNL     1     -42.726  12.620   6.650  1.00 20.00     0.043 C 
HETATM    3  C5  UNL     1     -42.107  13.998   8.590  1.00 20.00     0.012 C 
HETATM    4  C6  UNL     1     -41.514  13.504   6.311  1.00 20.00     0.082 C 
HETATM    5  C7  UNL     1     -41.673  14.705   7.291  1.00 20.00    -0.013 C 
HETATM    6  C8  UNL     1     -42.774  15.693   6.844  1.00 20.00     0.018 C 
HETATM    7  C9  UNL     1     -40.385  15.516   7.498  1.00 20.00     0.018 C 
ENDROOT
BRANCH   4   8
HETATM    8  C2  UNL     1     -40.244  12.719   6.495  1.00 20.00     0.001 C 
HETATM    9  C1  UNL     1     -39.790  11.814   5.621  1.00 20.00     0.010 C 
ENDBRANCH   4   8
BRANCH   4  10
HETATM   10  O10 UNL     1     -41.547  13.912   4.949  1.00 20.00    -0.385 OA
HETATM   11  H26 UNL     1     -40.738  13.566   4.546  1.00 20.00     0.211 HD
ENDBRANCH   4  10
TORSDOF 2
ENDMDL
MODEL 7
REMARK VINA RESULT:      -3.1     13.691     14.588
REMARK  2 active torsions:
REMARK  status: ('A' for Active; 'I' for Inactive)
REMARK    1  A    between atoms: C2_2  and  C6_6 
REMARK    2  A    between atoms: C6_6  and  O10_10 
ROOT
HETATM    1  C3  UNL     1     -43.417  15.072   6.320  1.00 20.00     0.004 C 
HETATM    2  C4  UNL     1     -42.971  15.034   7.784  1.00 20.00     0.043 C 
HETATM    3  C5  UNL     1     -42.609  13.999   5.583  1.00 20.00     0.012 C 
HETATM    4  C6  UNL     1     -41.732  14.124   7.820  1.00 20.00     0.082 C 
HETATM    5  C7  UNL     1     -42.021  13.096   6.685  1.00 20.00    -0.013 C 
HETATM    6  C8  UNL     1     -43.064  12.033   7.098  1.00 20.00     0.018 C 
HETATM    7  C9  UNL     1     -40.775  12.347   6.189  1.00 20.00     0.018 C 
ENDROOT
BRANCH   4   8
HETATM    8  C2  UNL     1     -40.489  14.945   7.609  1.00 20.00     0.001 C 
HETATM    9  C1  UNL     1     -40.384  16.240   7.932  1.00 20.00     0.010 C 
ENDBRANCH   4   8
BRANCH   4  10
HETATM   10  O10 UNL     1     -41.597  13.500   9.091  1.00 20.00    -0.385 OA
HETATM   11  H26 UNL     1     -42.188  12.733   9.078  1.00 20.00     0.211 HD
ENDBRANCH   4  10
TORSDOF 2
ENDMDL
MODEL 8
REMARK VINA RESULT:      -3.1     23.659     25.043
REMARK  2 active torsions:
REMARK  status: ('A' for Active; 'I' for Inactive)
REMARK    1  A    between atoms: C2_2  and  C6_6 
REMARK    2  A    between atoms: C6_6  and  O10_10 
ROOT
HETATM    1  C3  UNL     1     -29.473  -2.679  11.020  1.00 20.00     0.004 C 
HETATM    2  C4  UNL     1     -28.366  -3.192  10.094  1.00 20.00     0.043 C 
HETATM    3  C5  UNL     1     -28.833  -1.627  11.932  1.00 20.00     0.012 C 
HETATM    4  C6  UNL     1     -27.053  -2.623  10.656  1.00 20.00     0.082 C 
HETATM    5  C7  UNL     1     -27.496  -1.257  11.262  1.00 20.00    -0.013 C 
HETATM    6  C8  UNL     1     -27.736  -0.179  10.182  1.00 20.00     0.018 C 
HETATM    7  C9  UNL     1     -26.502  -0.674  12.279  1.00 20.00     0.018 C 
ENDROOT
BRANCH   4   8
HETATM    8  C2  UNL     1     -26.468  -3.583  11.656  1.00 20.00     0.001 C 
HETATM    9  C1  UNL     1     -25.872  -4.735  11.327  1.00 20.00     0.010 C 
ENDBRANCH   4   8
BRANCH   4  10
HETATM   10  O10 UNL     1     -26.085  -2.467   9.627  1.00 20.00    -0.385 OA
HETATM   11  H26 UNL     1     -25.825  -3.361   9.365  1.00 20.00     0.211 HD
ENDBRANCH   4  10
TORSDOF 2
ENDMDL
MODEL 9
REMARK VINA RESULT:      -3.1     23.826     25.220
REMARK  2 active torsions:
REMARK  status: ('A' for Active; 'I' for Inactive)
REMARK    1  A    between atoms: C2_2  and  C6_6 
REMARK    2  A    between atoms: C6_6  and  O10_10 
ROOT
HETATM    1  C3  UNL     1     -26.663  -0.048  11.596  1.00 20.00     0.004 C 
HETATM    2  C4  UNL     1     -26.034  -1.270  12.273  1.00 20.00     0.043 C 
HETATM    3  C5  UNL     1     -27.717  -0.579  10.618  1.00 20.00     0.012 C 
HETATM    4  C6  UNL     1     -26.546  -2.491  11.491  1.00 20.00     0.082 C 
HETATM    5  C7  UNL     1     -27.966  -2.041  11.033  1.00 20.00    -0.013 C 
HETATM    6  C8  UNL     1     -29.001  -2.088  12.180  1.00 20.00     0.018 C 
HETATM    7  C9  UNL     1     -28.535  -2.865   9.868  1.00 20.00     0.018 C 
ENDROOT
BRANCH   4   8
HETATM    8  C2  UNL     1     -25.602  -2.806  10.362  1.00 20.00     0.001 C 
HETATM    9  C1  UNL     1     -24.272  -2.863  10.492  1.00 20.00     0.010 C 
ENDBRANCH   4   8
BRANCH   4  10
HETATM   10  O10 UNL     1     -26.587  -3.644  12.321  1.00 20.00    -0.385 OA
HETATM   11  H26 UNL     1     -26.821  -3.331  13.206  1.00 20.00     0.211 HD
ENDBRANCH   4  10
TORSDOF 2
ENDMDL
