MODEL 1
REMARK VINA RESULT:      -4.1      0.000      0.000
REMARK  0 active torsions:
REMARK  status: ('A' for Active; 'I' for Inactive)
ROOT
HETATM    1  C1  UNL     1     -34.099   7.264   6.618  1.00 20.00     0.035 C 
HETATM    2  C2  UNL     1     -34.083   5.827   6.069  1.00 20.00     0.014 C 
HETATM    3  C3  UNL     1     -33.634   8.112   5.477  1.00 20.00     0.152 A 
HETATM    4  C4  UNL     1     -33.771   7.337   4.216  1.00 20.00     0.158 A 
HETATM    5  C5  UNL     1     -34.338   5.972   4.543  1.00 20.00    -0.019 C 
HETATM    6  C6  UNL     1     -35.844   5.946   4.244  1.00 20.00     0.017 C 
HETATM    7  C7  UNL     1     -33.631   4.872   3.752  1.00 20.00     0.017 C 
HETATM    8  O8  UNL     1     -32.481   7.641   4.769  1.00 20.00    -0.375 OA
ENDROOT
TORSDOF 0
ENDMDL
MODEL 2
REMARK VINA RESULT:      -3.5      8.537      9.459
REMARK  0 active torsions:
REMARK  status: ('A' for Active; 'I' for Inactive)
ROOT
HETATM    1  C1  UNL     1     -42.574   8.288  -0.369  1.00 20.00     0.035 C 
HETATM    2  C2  UNL     1     -43.250   7.123   0.374  1.00 20.00     0.014 C 
HETATM    3  C3  UNL     1     -41.108   8.003  -0.269  1.00 20.00     0.152 A 
HETATM    4  C4  UNL     1     -40.921   6.572   0.085  1.00 20.00     0.158 A 
HETATM    5  C5  UNL     1     -42.282   5.920   0.209  1.00 20.00    -0.019 C 
HETATM    6  C6  UNL     1     -42.606   5.139  -1.072  1.00 20.00     0.017 C 
HETATM    7  C7  UNL     1     -42.342   4.985   1.418  1.00 20.00     0.017 C 
HETATM    8  O8  UNL     1     -40.627   7.617   1.024  1.00 20.00    -0.375 OA
ENDROOT
TORSDOF 0
ENDMDL
MODEL 3
REMARK VINA RESULT:      -3.5     15.660     16.761
REMARK  0 active torsions:
REMARK  status: ('A' for Active; 'I' for Inactive)
ROOT
HETATM    1  C1  UNL     1     -24.517  18.900   8.877  1.00 20.00     0.035 C 
HETATM    2  C2  UNL     1     -24.664  19.014  10.405  1.00 20.00     0.014 C 
HETATM    3  C3  UNL     1     -23.088  18.511   8.661  1.00 20.00     0.152 A 
HETATM    4  C4  UNL     1     -22.537  17.980   9.935  1.00 20.00     0.158 A 
HETATM    5  C5  UNL     1     -23.625  18.018  10.989  1.00 20.00    -0.019 C 
HETATM    6  C6  UNL     1     -24.246  16.624  11.150  1.00 20.00     0.017 C 
HETATM    7  C7  UNL     1     -23.080  18.504  12.332  1.00 20.00     0.017 C 
HETATM    8  O8  UNL     1     -22.114  19.247   9.410  1.00 20.00    -0.375 OA
ENDROOT
TORSDOF 0
ENDMDL
MODEL 4
REMARK VINA RESULT:      -3.5      8.779      9.783
REMARK  0 active torsions:
REMARK  status: ('A' for Active; 'I' for Inactive)
ROOT
HETATM    1  C1  UNL     1     -40.553   7.134  -0.008  1.00 20.00     0.035 C 
HETATM    2  C2  UNL     1     -40.997   5.752  -0.519  1.00 20.00     0.014 C 
HETATM    3  C3  UNL     1     -41.821   7.919   0.115  1.00 20.00     0.152 A 
HETATM    4  C4  UNL     1     -42.969   6.975   0.133  1.00 20.00     0.158 A 
HETATM    5  C5  UNL     1     -42.439   5.561   0.027  1.00 20.00    -0.019 C 
HETATM    6  C6  UNL     1     -42.407   4.909   1.417  1.00 20.00     0.017 C 
HETATM    7  C7  UNL     1     -43.289   4.719  -0.924  1.00 20.00     0.017 C 
HETATM    8  O8  UNL     1     -42.726   7.834  -0.992  1.00 20.00    -0.375 OA
ENDROOT
TORSDOF 0
ENDMDL
MODEL 5
REMARK VINA RESULT:      -3.4      1.183      2.226
REMARK  0 active torsions:
REMARK  status: ('A' for Active; 'I' for Inactive)
ROOT
HETATM    1  C1  UNL     1     -32.922   7.893   5.302  1.00 20.00     0.035 C 
HETATM    2  C2  UNL     1     -34.028   7.628   4.266  1.00 20.00     0.014 C 
HETATM    3  C3  UNL     1     -33.246   6.982   6.444  1.00 20.00     0.152 A 
HETATM    4  C4  UNL     1     -34.178   5.927   5.967  1.00 20.00     0.158 A 
HETATM    5  C5  UNL     1     -34.456   6.153   4.496  1.00 20.00    -0.019 C 
HETATM    6  C6  UNL     1     -33.596   5.203   3.650  1.00 20.00     0.017 C 
HETATM    7  C7  UNL     1     -35.936   5.943   4.172  1.00 20.00     0.017 C 
HETATM    8  O8  UNL     1     -34.615   6.959   6.865  1.00 20.00    -0.375 OA
ENDROOT
TORSDOF 0
ENDMDL
MODEL 6
REMARK VINA RESULT:      -3.4      8.644     10.046
REMARK  0 active torsions:
REMARK  status: ('A' for Active; 'I' for Inactive)
ROOT
HETATM    1  C1  UNL     1     -43.060   5.421   1.765  1.00 20.00     0.035 C 
HETATM    2  C2  UNL     1     -43.179   6.942   1.564  1.00 20.00     0.014 C 
HETATM    3  C3  UNL     1     -42.675   4.889   0.420  1.00 20.00     0.152 A 
HETATM    4  C4  UNL     1     -42.150   6.007  -0.406  1.00 20.00     0.158 A 
HETATM    5  C5  UNL     1     -42.188   7.278   0.416  1.00 20.00    -0.019 C 
HETATM    6  C6  UNL     1     -40.792   7.579   0.979  1.00 20.00     0.017 C 
HETATM    7  C7  UNL     1     -42.680   8.463  -0.416  1.00 20.00     0.017 C 
HETATM    8  O8  UNL     1     -43.417   5.396  -0.695  1.00 20.00    -0.375 OA
ENDROOT
TORSDOF 0
ENDMDL
MODEL 7
REMARK VINA RESULT:      -3.4      9.592     10.176
REMARK  0 active torsions:
REMARK  status: ('A' for Active; 'I' for Inactive)
ROOT
HETATM    1  C1  UNL     1     -42.689  13.508   7.858  1.00 20.00     0.035 C 
HETATM    2  C2  UNL     1     -42.253  12.436   6.844  1.00 20.00     0.014 C 
HETATM    3  C3  UNL     1     -41.450  14.302   8.128  1.00 20.00     0.152 A 
HETATM    4  C4  UNL     1     -40.469  14.046   7.041  1.00 20.00     0.158 A 
HETATM    5  C5  UNL     1     -41.083  13.079   6.050  1.00 20.00    -0.019 C 
HETATM    6  C6  UNL     1     -41.616  13.848   4.833  1.00 20.00     0.017 C 
HETATM    7  C7  UNL     1     -40.069  12.028   5.599  1.00 20.00     0.017 C 
HETATM    8  O8  UNL     1     -40.258  13.547   8.371  1.00 20.00    -0.375 OA
ENDROOT
TORSDOF 0
ENDMDL
MODEL 8
REMARK VINA RESULT:      -3.4      8.787      9.574
REMARK  0 active torsions:
REMARK  status: ('A' for Active; 'I' for Inactive)
ROOT
HETATM    1  C1  UNL     1     -43.417   5.739   2.068  1.00 20.00     0.035 C 
HETATM    2  C2  UNL     1     -42.232   5.016   1.406  1.00 20.00     0.014 C 
HETATM    3  C3  UNL     1     -43.390   7.120   1.491  1.00 20.00     0.152 A 
HETATM    4  C4  UNL     1     -42.567   7.106   0.253  1.00 20.00     0.158 A 
HETATM    5  C5  UNL     1     -42.061   5.698   0.021  1.00 20.00    -0.019 C 
HETATM    6  C6  UNL     1     -42.928   4.998  -1.035  1.00 20.00     0.017 C 
HETATM    7  C7  UNL     1     -40.598   5.700  -0.424  1.00 20.00     0.017 C 
HETATM    8  O8  UNL     1     -42.110   7.760   1.446  1.00 20.00    -0.375 OA
ENDROOT
TORSDOF 0
ENDMDL
MODEL 9
REMARK VINA RESULT:      -3.3     12.514     13.333
REMARK  0 active torsions:
REMARK  status: ('A' for Active; 'I' for Inactive)
ROOT
HETATM    1  C1  UNL     1     -31.531  18.832  -0.555  1.00 20.00     0.035 C 
HETATM    2  C2  UNL     1     -32.483  19.067  -1.741  1.00 20.00     0.014 C 
HETATM    3  C3  UNL     1     -32.428  18.452   0.582  1.00 20.00     0.152 A 
HETATM    4  C4  UNL     1     -33.745  18.035   0.035  1.00 20.00     0.158 A 
HETATM    5  C5  UNL     1     -33.701  18.140  -1.475  1.00 20.00    -0.019 C 
HETATM    6  C6  UNL     1     -33.466  16.752  -2.088  1.00 20.00     0.017 C 
HETATM    7  C7  UNL     1     -34.992  18.742  -2.028  1.00 20.00     0.017 C 
HETATM    8  O8  UNL     1     -33.593  19.263   0.764  1.00 20.00    -0.375 OA
ENDROOT
TORSDOF 0
ENDMDL
