MODEL 1
REMARK VINA RESULT:      -4.0      0.000      0.000
REMARK  3 active torsions:
REMARK  status: ('A' for Active; 'I' for Inactive)
REMARK    1  A    between atoms: C1_1  and  C6_6 
REMARK    2  A    between atoms: C2_2  and  C7_7 
REMARK    3  A    between atoms: C5_5  and  C6_6 
ROOT
HETATM    1  C3  UNL     1     -34.739   5.635   6.521  1.00 20.00     0.124 A 
HETATM    2  C4  UNL     1     -34.779   4.973   5.312  1.00 20.00     0.070 A 
HETATM    3  C5  UNL     1     -33.649   7.101   5.306  1.00 20.00     0.085 A 
HETATM    4  N8  UNL     1     -34.090   6.856   6.520  1.00 20.00    -0.257 NA
HETATM    5  S9  UNL     1     -33.979   5.908   4.117  1.00 20.00    -0.084 SA
ENDROOT
BRANCH   3   6
HETATM    6  C6  UNL     1     -32.890   8.340   4.909  1.00 20.00     0.161 C 
BRANCH   6   7
HETATM    7  C1  UNL     1     -32.547   8.338   3.481  1.00 20.00    -0.099 C 
HETATM    8  C2  UNL     1     -32.270   8.335   2.312  1.00 20.00    -0.091 C 
BRANCH   8   9
HETATM    9  C7  UNL     1     -31.933   8.330   0.891  1.00 20.00     0.208 C 
HETATM   10 CL10 UNL     1     -33.001   9.467   0.045  1.00 20.00    -0.117 Cl
ENDBRANCH   8   9
ENDBRANCH   6   7
ENDBRANCH   3   6
TORSDOF 3
ENDMDL
MODEL 2
REMARK VINA RESULT:      -4.0     11.520     12.174
REMARK  3 active torsions:
REMARK  status: ('A' for Active; 'I' for Inactive)
REMARK    1  A    between atoms: C1_1  and  C6_6 
REMARK    2  A    between atoms: C2_2  and  C7_7 
REMARK    3  A    between atoms: C5_5  and  C6_6 
ROOT
HETATM    1  C3  UNL     1     -30.875  18.608   0.713  1.00 20.00     0.124 A 
HETATM    2  C4  UNL     1     -32.065  18.516   1.405  1.00 20.00     0.070 A 
HETATM    3  C5  UNL     1     -32.251  18.627  -0.995  1.00 20.00     0.085 A 
HETATM    4  N8  UNL     1     -30.980  18.671  -0.664  1.00 20.00    -0.257 NA
HETATM    5  S9  UNL     1     -33.375  18.510   0.298  1.00 20.00    -0.084 SA
ENDROOT
BRANCH   3   6
HETATM    6  C6  UNL     1     -32.766  18.673  -2.410  1.00 20.00     0.161 C 
BRANCH   6   7
HETATM    7  C1  UNL     1     -33.103  17.335  -2.913  1.00 20.00    -0.099 C 
HETATM    8  C2  UNL     1     -33.379  16.243  -3.330  1.00 20.00    -0.091 C 
BRANCH   8   9
HETATM    9  C7  UNL     1     -33.716  14.915  -3.835  1.00 20.00     0.208 C 
HETATM   10 CL10 UNL     1     -33.832  14.988  -5.605  1.00 20.00    -0.117 Cl
ENDBRANCH   8   9
ENDBRANCH   6   7
ENDBRANCH   3   6
TORSDOF 3
ENDMDL
MODEL 3
REMARK VINA RESULT:      -4.0     11.706     12.047
REMARK  3 active torsions:
REMARK  status: ('A' for Active; 'I' for Inactive)
REMARK    1  A    between atoms: C1_1  and  C6_6 
REMARK    2  A    between atoms: C2_2  and  C7_7 
REMARK    3  A    between atoms: C5_5  and  C6_6 
ROOT
HETATM    1  C3  UNL     1     -35.699  13.805  -4.860  1.00 20.00     0.124 A 
HETATM    2  C4  UNL     1     -36.194  14.885  -5.560  1.00 20.00     0.070 A 
HETATM    3  C5  UNL     1     -34.172  15.281  -4.312  1.00 20.00     0.085 A 
HETATM    4  N8  UNL     1     -34.539  14.030  -4.144  1.00 20.00    -0.257 NA
HETATM    5  S9  UNL     1     -35.176  16.243  -5.319  1.00 20.00    -0.084 SA
ENDROOT
BRANCH   3   6
HETATM    6  C6  UNL     1     -32.951  15.903  -3.688  1.00 20.00     0.161 C 
BRANCH   6   7
HETATM    7  C1  UNL     1     -33.282  16.661  -2.474  1.00 20.00    -0.099 C 
HETATM    8  C2  UNL     1     -33.550  17.284  -1.482  1.00 20.00    -0.091 C 
BRANCH   8   9
HETATM    9  C7  UNL     1     -33.875  18.040  -0.276  1.00 20.00     0.208 C 
HETATM   10 CL10 UNL     1     -32.368  18.451   0.566  1.00 20.00    -0.117 Cl
ENDBRANCH   8   9
ENDBRANCH   6   7
ENDBRANCH   3   6
TORSDOF 3
ENDMDL
MODEL 4
REMARK VINA RESULT:      -4.0     11.937     13.018
REMARK  3 active torsions:
REMARK  status: ('A' for Active; 'I' for Inactive)
REMARK    1  A    between atoms: C1_1  and  C6_6 
REMARK    2  A    between atoms: C2_2  and  C7_7 
REMARK    3  A    between atoms: C5_5  and  C6_6 
ROOT
HETATM    1  C3  UNL     1     -34.685  15.528  -7.801  1.00 20.00     0.124 A 
HETATM    2  C4  UNL     1     -35.973  15.784  -7.381  1.00 20.00     0.070 A 
HETATM    3  C5  UNL     1     -34.452  15.001  -5.684  1.00 20.00     0.085 A 
HETATM    4  N8  UNL     1     -33.810  15.080  -6.829  1.00 20.00    -0.257 NA
HETATM    5  S9  UNL     1     -36.108  15.451  -5.703  1.00 20.00    -0.084 SA
ENDROOT
BRANCH   3   6
HETATM    6  C6  UNL     1     -33.831  14.550  -4.388  1.00 20.00     0.161 C 
BRANCH   6   7
HETATM    7  C1  UNL     1     -33.494  15.684  -3.518  1.00 20.00    -0.099 C 
HETATM    8  C2  UNL     1     -33.220  16.610  -2.803  1.00 20.00    -0.091 C 
BRANCH   8   9
HETATM    9  C7  UNL     1     -32.887  17.736  -1.934  1.00 20.00     0.208 C 
HETATM   10 CL10 UNL     1     -33.876  17.636  -0.464  1.00 20.00    -0.117 Cl
ENDBRANCH   8   9
ENDBRANCH   6   7
ENDBRANCH   3   6
TORSDOF 3
ENDMDL
MODEL 5
REMARK VINA RESULT:      -3.4     11.868     12.677
REMARK  3 active torsions:
REMARK  status: ('A' for Active; 'I' for Inactive)
REMARK    1  A    between atoms: C1_1  and  C6_6 
REMARK    2  A    between atoms: C2_2  and  C7_7 
REMARK    3  A    between atoms: C5_5  and  C6_6 
ROOT
HETATM    1  C3  UNL     1     -33.501  14.856  -4.248  1.00 20.00     0.124 A 
HETATM    2  C4  UNL     1     -34.373  15.071  -5.295  1.00 20.00     0.070 A 
HETATM    3  C5  UNL     1     -33.823  17.008  -3.972  1.00 20.00     0.085 A 
HETATM    4  N8  UNL     1     -33.183  15.966  -3.488  1.00 20.00    -0.257 NA
HETATM    5  S9  UNL     1     -34.823  16.726  -5.338  1.00 20.00    -0.084 SA
ENDROOT
BRANCH   3   6
HETATM    6  C6  UNL     1     -33.730  18.402  -3.409  1.00 20.00     0.161 C 
BRANCH   6   7
HETATM    7  C1  UNL     1     -32.837  18.464  -2.245  1.00 20.00    -0.099 C 
HETATM    8  C2  UNL     1     -32.105  18.519  -1.294  1.00 20.00    -0.091 C 
BRANCH   8   9
HETATM    9  C7  UNL     1     -31.215  18.586  -0.138  1.00 20.00     0.208 C 
HETATM   10 CL10 UNL     1     -32.192  18.528   1.342  1.00 20.00    -0.117 Cl
ENDBRANCH   8   9
ENDBRANCH   6   7
ENDBRANCH   3   6
TORSDOF 3
ENDMDL
MODEL 6
REMARK VINA RESULT:      -3.4     10.433     10.909
REMARK  3 active torsions:
REMARK  status: ('A' for Active; 'I' for Inactive)
REMARK    1  A    between atoms: C1_1  and  C6_6 
REMARK    2  A    between atoms: C2_2  and  C7_7 
REMARK    3  A    between atoms: C5_5  and  C6_6 
ROOT
HETATM    1  C3  UNL     1     -43.214  12.866  10.410  1.00 20.00     0.124 A 
HETATM    2  C4  UNL     1     -42.792  14.179  10.400  1.00 20.00     0.070 A 
HETATM    3  C5  UNL     1     -42.864  13.084   8.255  1.00 20.00     0.085 A 
HETATM    4  N8  UNL     1     -43.256  12.236   9.180  1.00 20.00    -0.257 NA
HETATM    5  S9  UNL     1     -42.430  14.655   8.793  1.00 20.00    -0.084 SA
ENDROOT
BRANCH   3   6
HETATM    6  C6  UNL     1     -42.777  12.763   6.786  1.00 20.00     0.161 C 
BRANCH   6   7
HETATM    7  C1  UNL     1     -41.392  12.526   6.359  1.00 20.00    -0.099 C 
HETATM    8  C2  UNL     1     -40.259  12.336   6.007  1.00 20.00    -0.091 C 
BRANCH   8   9
HETATM    9  C7  UNL     1     -38.882  12.105   5.579  1.00 20.00     0.208 C 
HETATM   10 CL10 UNL     1     -38.886  11.620   3.872  1.00 20.00    -0.117 Cl
ENDBRANCH   8   9
ENDBRANCH   6   7
ENDBRANCH   3   6
TORSDOF 3
ENDMDL
MODEL 7
REMARK VINA RESULT:      -3.3     10.685     11.329
REMARK  3 active torsions:
REMARK  status: ('A' for Active; 'I' for Inactive)
REMARK    1  A    between atoms: C1_1  and  C6_6 
REMARK    2  A    between atoms: C2_2  and  C7_7 
REMARK    3  A    between atoms: C5_5  and  C6_6 
ROOT
HETATM    1  C3  UNL     1     -42.176   8.248  -0.515  1.00 20.00     0.124 A 
HETATM    2  C4  UNL     1     -40.922   7.778  -0.186  1.00 20.00     0.070 A 
HETATM    3  C5  UNL     1     -42.570   6.098  -0.701  1.00 20.00     0.085 A 
HETATM    4  N8  UNL     1     -43.123   7.285  -0.811  1.00 20.00    -0.257 NA
HETATM    5  S9  UNL     1     -40.916   6.064  -0.244  1.00 20.00    -0.084 SA
ENDROOT
BRANCH   3   6
HETATM    6  C6  UNL     1     -43.288   4.797  -0.946  1.00 20.00     0.161 C 
BRANCH   6   7
HETATM    7  C1  UNL     1     -42.733   4.073  -2.097  1.00 20.00    -0.099 C 
HETATM    8  C2  UNL     1     -42.278   3.477  -3.036  1.00 20.00    -0.091 C 
BRANCH   8   9
HETATM    9  C7  UNL     1     -41.725   2.753  -4.177  1.00 20.00     0.208 C 
HETATM   10 CL10 UNL     1     -41.785   1.013  -3.835  1.00 20.00    -0.117 Cl
ENDBRANCH   8   9
ENDBRANCH   6   7
ENDBRANCH   3   6
TORSDOF 3
ENDMDL
MODEL 8
REMARK VINA RESULT:      -3.3      1.646      1.961
REMARK  3 active torsions:
REMARK  status: ('A' for Active; 'I' for Inactive)
REMARK    1  A    between atoms: C1_1  and  C6_6 
REMARK    2  A    between atoms: C2_2  and  C7_7 
REMARK    3  A    between atoms: C5_5  and  C6_6 
ROOT
HETATM    1  C3  UNL     1     -34.763   5.385   6.322  1.00 20.00     0.124 A 
HETATM    2  C4  UNL     1     -34.420   6.720   6.375  1.00 20.00     0.070 A 
HETATM    3  C5  UNL     1     -33.804   5.557   4.357  1.00 20.00     0.085 A 
HETATM    4  N8  UNL     1     -34.411   4.716   5.165  1.00 20.00    -0.257 NA
HETATM    5  S9  UNL     1     -33.622   7.167   4.924  1.00 20.00    -0.084 SA
ENDROOT
BRANCH   3   6
HETATM    6  C6  UNL     1     -33.271   5.197   2.995  1.00 20.00     0.161 C 
BRANCH   6   7
HETATM    7  C1  UNL     1     -32.753   6.371   2.281  1.00 20.00    -0.099 C 
HETATM    8  C2  UNL     1     -32.333   7.332   1.695  1.00 20.00    -0.091 C 
BRANCH   8   9
HETATM    9  C7  UNL     1     -31.822   8.500   0.982  1.00 20.00     0.208 C 
HETATM   10 CL10 UNL     1     -32.977   9.834   1.166  1.00 20.00    -0.117 Cl
ENDBRANCH   8   9
ENDBRANCH   6   7
ENDBRANCH   3   6
TORSDOF 3
ENDMDL
MODEL 9
REMARK VINA RESULT:      -3.2     10.081     10.566
REMARK  3 active torsions:
REMARK  status: ('A' for Active; 'I' for Inactive)
REMARK    1  A    between atoms: C1_1  and  C6_6 
REMARK    2  A    between atoms: C2_2  and  C7_7 
REMARK    3  A    between atoms: C5_5  and  C6_6 
ROOT
HETATM    1  C3  UNL     1     -40.381  15.105   9.797  1.00 20.00     0.124 A 
HETATM    2  C4  UNL     1     -41.277  16.115   9.518  1.00 20.00     0.070 A 
HETATM    3  C5  UNL     1     -41.417  14.169   8.104  1.00 20.00     0.085 A 
HETATM    4  N8  UNL     1     -40.460  13.987   8.987  1.00 20.00    -0.257 NA
HETATM    5  S9  UNL     1     -42.262  15.661   8.189  1.00 20.00    -0.084 SA
ENDROOT
BRANCH   3   6
HETATM    6  C6  UNL     1     -41.804  13.168   7.048  1.00 20.00     0.161 C 
BRANCH   6   7
HETATM    7  C1  UNL     1     -40.638  12.682   6.300  1.00 20.00    -0.099 C 
HETATM    8  C2  UNL     1     -39.686  12.285   5.684  1.00 20.00    -0.091 C 
BRANCH   8   9
HETATM    9  C7  UNL     1     -38.529  11.802   4.935  1.00 20.00     0.208 C 
HETATM   10 CL10 UNL     1     -38.945  11.744   3.211  1.00 20.00    -0.117 Cl
ENDBRANCH   8   9
ENDBRANCH   6   7
ENDBRANCH   3   6
TORSDOF 3
ENDMDL
