MODEL 1
REMARK VINA RESULT:      -4.4      0.000      0.000
REMARK  1 active torsions:
REMARK  status: ('A' for Active; 'I' for Inactive)
REMARK    1  A    between atoms: C1_1  and  C4_4 
ROOT
HETATM    1  C1  UNL     1     -32.730   8.060   3.439  1.00 20.00    -0.079 C 
HETATM    2  C2  UNL     1     -32.419   8.258   2.297  1.00 20.00    -0.106 C 
HETATM    3  C7  UNL     1     -32.040   8.500   0.905  1.00 20.00     0.112 C 
ENDROOT
BRANCH   1   4
HETATM    4  C4  UNL     1     -33.102   7.825   4.792  1.00 20.00     0.070 C 
HETATM    5  C3  UNL     1     -33.825   6.766   5.151  1.00 20.00    -0.017 C 
HETATM    6  C5  UNL     1     -34.368   6.246   6.454  1.00 20.00     0.306 C 
HETATM    7  C6  UNL     1     -34.425   5.596   4.420  1.00 20.00     0.306 C 
HETATM    8  N8  UNL     1     -35.205   5.350   5.643  1.00 20.00     0.091 N 
HETATM    9  H17 UNL     1     -35.222   4.380   5.953  1.00 20.00     0.316 HD
ENDBRANCH   1   4
TORSDOF 1
ENDMDL
MODEL 2
REMARK VINA RESULT:      -3.9     11.958     12.204
REMARK  1 active torsions:
REMARK  status: ('A' for Active; 'I' for Inactive)
REMARK    1  A    between atoms: C1_1  and  C4_4 
ROOT
HETATM    1  C1  UNL     1     -33.487  17.246  -1.534  1.00 20.00    -0.079 C 
HETATM    2  C2  UNL     1     -33.402  16.639  -2.567  1.00 20.00    -0.106 C 
HETATM    3  C7  UNL     1     -33.298  15.900  -3.824  1.00 20.00     0.112 C 
ENDROOT
BRANCH   1   4
HETATM    4  C4  UNL     1     -33.591  17.966  -0.312  1.00 20.00     0.070 C 
HETATM    5  C3  UNL     1     -32.523  18.475   0.300  1.00 20.00    -0.017 C 
HETATM    6  C5  UNL     1     -32.301  19.262   1.563  1.00 20.00     0.306 C 
HETATM    7  C6  UNL     1     -31.049  18.507   0.007  1.00 20.00     0.306 C 
HETATM    8  N8  UNL     1     -30.875  18.948   1.399  1.00 20.00     0.091 N 
HETATM    9  H17 UNL     1     -30.244  19.739   1.522  1.00 20.00     0.316 HD
ENDBRANCH   1   4
TORSDOF 1
ENDMDL
MODEL 3
REMARK VINA RESULT:      -3.8     12.038     12.803
REMARK  1 active torsions:
REMARK  status: ('A' for Active; 'I' for Inactive)
REMARK    1  A    between atoms: C1_1  and  C4_4 
ROOT
HETATM    1  C1  UNL     1     -33.423  16.514  -2.563  1.00 20.00    -0.079 C 
HETATM    2  C2  UNL     1     -33.569  17.188  -1.580  1.00 20.00    -0.106 C 
HETATM    3  C7  UNL     1     -33.746  18.009  -0.383  1.00 20.00     0.112 C 
ENDROOT
BRANCH   1   4
HETATM    4  C4  UNL     1     -33.251  15.713  -3.725  1.00 20.00     0.070 C 
HETATM    5  C3  UNL     1     -34.069  15.802  -4.772  1.00 20.00    -0.017 C 
HETATM    6  C5  UNL     1     -34.158  15.119  -6.108  1.00 20.00     0.306 C 
HETATM    7  C6  UNL     1     -35.278  16.634  -5.103  1.00 20.00     0.306 C 
HETATM    8  N8  UNL     1     -35.507  15.693  -6.210  1.00 20.00     0.091 N 
HETATM    9  H17 UNL     1     -35.721  16.129  -7.106  1.00 20.00     0.316 HD
ENDBRANCH   1   4
TORSDOF 1
ENDMDL
MODEL 4
REMARK VINA RESULT:      -3.7     11.877     12.599
REMARK  1 active torsions:
REMARK  status: ('A' for Active; 'I' for Inactive)
REMARK    1  A    between atoms: C1_1  and  C4_4 
ROOT
HETATM    1  C1  UNL     1     -33.208  17.622  -2.419  1.00 20.00    -0.079 C 
HETATM    2  C2  UNL     1     -32.473  17.974  -1.537  1.00 20.00    -0.106 C 
HETATM    3  C7  UNL     1     -31.577  18.402  -0.463  1.00 20.00     0.112 C 
ENDROOT
BRANCH   1   4
HETATM    4  C4  UNL     1     -34.082  17.207  -3.461  1.00 20.00     0.070 C 
HETATM    5  C3  UNL     1     -33.850  16.112  -4.182  1.00 20.00    -0.017 C 
HETATM    6  C5  UNL     1     -34.555  15.422  -5.318  1.00 20.00     0.306 C 
HETATM    7  C6  UNL     1     -32.780  15.054  -4.188  1.00 20.00     0.306 C 
HETATM    8  N8  UNL     1     -33.318  14.648  -5.495  1.00 20.00     0.091 N 
HETATM    9  H17 UNL     1     -33.452  13.645  -5.611  1.00 20.00     0.316 HD
ENDBRANCH   1   4
TORSDOF 1
ENDMDL
MODEL 5
REMARK VINA RESULT:      -3.6     11.916     12.518
REMARK  1 active torsions:
REMARK  status: ('A' for Active; 'I' for Inactive)
REMARK    1  A    between atoms: C1_1  and  C4_4 
ROOT
HETATM    1  C1  UNL     1     -31.046  18.649   0.988  1.00 20.00    -0.079 C 
HETATM    2  C2  UNL     1     -30.897  18.753   2.175  1.00 20.00    -0.106 C 
HETATM    3  C7  UNL     1     -30.715  18.878   3.620  1.00 20.00     0.112 C 
ENDROOT
BRANCH   1   4
HETATM    4  C4  UNL     1     -31.223  18.530  -0.419  1.00 20.00     0.070 C 
HETATM    5  C3  UNL     1     -32.388  18.170  -0.955  1.00 20.00    -0.017 C 
HETATM    6  C5  UNL     1     -32.888  17.958  -2.357  1.00 20.00     0.306 C 
HETATM    7  C6  UNL     1     -33.743  17.817  -0.406  1.00 20.00     0.306 C 
HETATM    8  N8  UNL     1     -34.048  17.295  -1.746  1.00 20.00     0.091 N 
HETATM    9  H17 UNL     1     -34.952  17.579  -2.121  1.00 20.00     0.316 HD
ENDBRANCH   1   4
TORSDOF 1
ENDMDL
MODEL 6
REMARK VINA RESULT:      -3.6     11.737     12.783
REMARK  1 active torsions:
REMARK  status: ('A' for Active; 'I' for Inactive)
REMARK    1  A    between atoms: C1_1  and  C4_4 
ROOT
HETATM    1  C1  UNL     1     -31.675  18.728  -0.523  1.00 20.00    -0.079 C 
HETATM    2  C2  UNL     1     -31.180  18.536   0.553  1.00 20.00    -0.106 C 
HETATM    3  C7  UNL     1     -30.576  18.302   1.865  1.00 20.00     0.112 C 
ENDROOT
BRANCH   1   4
HETATM    4  C4  UNL     1     -32.264  18.952  -1.798  1.00 20.00     0.070 C 
HETATM    5  C3  UNL     1     -33.047  18.048  -2.383  1.00 20.00    -0.017 C 
HETATM    6  C5  UNL     1     -33.797  17.980  -3.685  1.00 20.00     0.306 C 
HETATM    7  C6  UNL     1     -33.548  16.680  -2.009  1.00 20.00     0.306 C 
HETATM    8  N8  UNL     1     -33.950  16.543  -3.417  1.00 20.00     0.091 N 
HETATM    9  H17 UNL     1     -34.889  16.176  -3.561  1.00 20.00     0.316 HD
ENDBRANCH   1   4
TORSDOF 1
ENDMDL
MODEL 7
REMARK VINA RESULT:      -3.5     12.234     12.676
REMARK  1 active torsions:
REMARK  status: ('A' for Active; 'I' for Inactive)
REMARK    1  A    between atoms: C1_1  and  C4_4 
ROOT
HETATM    1  C1  UNL     1     -30.003  18.779   2.970  1.00 20.00    -0.079 C 
HETATM    2  C2  UNL     1     -28.855  18.847   3.316  1.00 20.00    -0.106 C 
HETATM    3  C7  UNL     1     -27.457  18.930   3.736  1.00 20.00     0.112 C 
ENDROOT
BRANCH   1   4
HETATM    4  C4  UNL     1     -31.364  18.700   2.564  1.00 20.00     0.070 C 
HETATM    5  C3  UNL     1     -31.713  18.590   1.284  1.00 20.00    -0.017 C 
HETATM    6  C5  UNL     1     -33.020  18.489   0.547  1.00 20.00     0.306 C 
HETATM    7  C6  UNL     1     -30.960  18.508  -0.016  1.00 20.00     0.306 C 
HETATM    8  N8  UNL     1     -32.250  18.769  -0.673  1.00 20.00     0.091 N 
HETATM    9  H17 UNL     1     -32.460  18.160  -1.462  1.00 20.00     0.316 HD
ENDBRANCH   1   4
TORSDOF 1
ENDMDL
MODEL 8
REMARK VINA RESULT:      -3.4     12.261     12.721
REMARK  1 active torsions:
REMARK  status: ('A' for Active; 'I' for Inactive)
REMARK    1  A    between atoms: C1_1  and  C4_4 
ROOT
HETATM    1  C1  UNL     1     -28.526  18.577   3.836  1.00 20.00    -0.079 C 
HETATM    2  C2  UNL     1     -27.887  18.643   4.850  1.00 20.00    -0.106 C 
HETATM    3  C7  UNL     1     -27.107  18.723   6.085  1.00 20.00     0.112 C 
ENDROOT
BRANCH   1   4
HETATM    4  C4  UNL     1     -29.286  18.502   2.636  1.00 20.00     0.070 C 
HETATM    5  C3  UNL     1     -30.588  18.777   2.607  1.00 20.00    -0.017 C 
HETATM    6  C5  UNL     1     -31.644  18.791   1.535  1.00 20.00     0.306 C 
HETATM    7  C6  UNL     1     -31.603  19.207   3.630  1.00 20.00     0.306 C 
HETATM    8  N8  UNL     1     -32.624  18.858   2.629  1.00 20.00     0.091 N 
HETATM    9  H17 UNL     1     -33.358  19.553   2.506  1.00 20.00     0.316 HD
ENDBRANCH   1   4
TORSDOF 1
ENDMDL
MODEL 9
REMARK VINA RESULT:      -3.3      9.881     10.346
REMARK  1 active torsions:
REMARK  status: ('A' for Active; 'I' for Inactive)
REMARK    1  A    between atoms: C1_1  and  C4_4 
ROOT
HETATM    1  C1  UNL     1     -40.792  12.467   5.805  1.00 20.00    -0.079 C 
HETATM    2  C2  UNL     1     -39.915  12.115   5.064  1.00 20.00    -0.106 C 
HETATM    3  C7  UNL     1     -38.847  11.687   4.161  1.00 20.00     0.112 C 
ENDROOT
BRANCH   1   4
HETATM    4  C4  UNL     1     -41.832  12.881   6.682  1.00 20.00     0.070 C 
HETATM    5  C3  UNL     1     -41.605  13.690   7.714  1.00 20.00    -0.017 C 
HETATM    6  C5  UNL     1     -42.459  14.294   8.795  1.00 20.00     0.306 C 
HETATM    7  C6  UNL     1     -40.390  14.379   8.273  1.00 20.00     0.306 C 
HETATM    8  N8  UNL     1     -41.201  14.635   9.473  1.00 20.00     0.091 N 
HETATM    9  H17 UNL     1     -41.150  15.587   9.830  1.00 20.00     0.316 HD
ENDBRANCH   1   4
TORSDOF 1
ENDMDL
