MODEL 1
REMARK VINA RESULT:      -4.1      0.000      0.000
REMARK  2 active torsions:
REMARK  status: ('A' for Active; 'I' for Inactive)
REMARK    1  A    between atoms: C1_1  and  C5_5 
REMARK    2  A    between atoms: C1_1  and  C10_10 
ROOT
HETATM    1  C2  UNL     1     -41.618  14.744   8.792  1.00 20.00     0.002 C 
HETATM    2  C3  UNL     1     -40.329  14.216   8.162  1.00 20.00     0.013 C 
HETATM    3  C4  UNL     1     -42.611  14.893   7.643  1.00 20.00     0.010 C 
HETATM    4  C5  UNL     1     -40.653  13.933   6.691  1.00 20.00     0.063 C 
HETATM    5  C6  UNL     1     -42.192  13.817   6.627  1.00 20.00    -0.037 C 
HETATM    6  C7  UNL     1     -42.724  12.437   7.059  1.00 20.00     0.015 C 
HETATM    7  C8  UNL     1     -42.729  14.143   5.230  1.00 20.00     0.015 C 
ENDROOT
BRANCH   4   8
HETATM    8  C1  UNL     1     -39.932  12.724   6.178  1.00 20.00     0.131 C 
HETATM    9  O11 UNL     1     -39.320  11.980   6.942  1.00 20.00    -0.298 OA
BRANCH   8  10
HETATM   10  C10 UNL     1     -40.009  12.487   4.682  1.00 20.00     0.074 C 
HETATM   11  C9  UNL     1     -38.860  11.639   4.164  1.00 20.00     0.013 C 
ENDBRANCH   8  10
ENDBRANCH   4   8
TORSDOF 2
ENDMDL
MODEL 2
REMARK VINA RESULT:      -4.0      9.049     10.722
REMARK  2 active torsions:
REMARK  status: ('A' for Active; 'I' for Inactive)
REMARK    1  A    between atoms: C1_1  and  C5_5 
REMARK    2  A    between atoms: C1_1  and  C10_10 
ROOT
HETATM    1  C2  UNL     1     -33.926   4.608   3.442  1.00 20.00     0.002 C 
HETATM    2  C3  UNL     1     -32.866   5.611   2.987  1.00 20.00     0.013 C 
HETATM    3  C4  UNL     1     -34.295   5.011   4.866  1.00 20.00     0.010 C 
HETATM    4  C5  UNL     1     -32.757   6.657   4.102  1.00 20.00     0.063 C 
HETATM    5  C6  UNL     1     -34.067   6.531   4.910  1.00 20.00    -0.037 C 
HETATM    6  C7  UNL     1     -35.258   7.270   4.269  1.00 20.00     0.015 C 
HETATM    7  C8  UNL     1     -33.895   7.019   6.352  1.00 20.00     0.015 C 
ENDROOT
BRANCH   4   8
HETATM    8  C1  UNL     1     -32.507   8.032   3.562  1.00 20.00     0.131 C 
HETATM    9  O11 UNL     1     -32.385   8.996   4.315  1.00 20.00    -0.298 OA
BRANCH   8  10
HETATM   10  C10 UNL     1     -32.415   8.149   2.052  1.00 20.00     0.074 C 
HETATM   11  C9  UNL     1     -32.875   9.502   1.541  1.00 20.00     0.013 C 
ENDBRANCH   8  10
ENDBRANCH   4   8
TORSDOF 2
ENDMDL
MODEL 3
REMARK VINA RESULT:      -3.9      9.333     10.685
REMARK  2 active torsions:
REMARK  status: ('A' for Active; 'I' for Inactive)
REMARK    1  A    between atoms: C1_1  and  C5_5 
REMARK    2  A    between atoms: C1_1  and  C10_10 
ROOT
HETATM    1  C2  UNL     1     -33.331   4.900   2.790  1.00 20.00     0.002 C 
HETATM    2  C3  UNL     1     -32.643   6.216   3.154  1.00 20.00     0.013 C 
HETATM    3  C4  UNL     1     -34.018   4.424   4.066  1.00 20.00     0.010 C 
HETATM    4  C5  UNL     1     -33.072   6.543   4.588  1.00 20.00     0.063 C 
HETATM    5  C6  UNL     1     -34.353   5.715   4.830  1.00 20.00    -0.037 C 
HETATM    6  C7  UNL     1     -35.624   6.366   4.252  1.00 20.00     0.015 C 
HETATM    7  C8  UNL     1     -34.573   5.430   6.319  1.00 20.00     0.015 C 
ENDROOT
BRANCH   4   8
HETATM    8  C1  UNL     1     -33.251   8.015   4.800  1.00 20.00     0.131 C 
HETATM    9  O11 UNL     1     -34.102   8.445   5.578  1.00 20.00    -0.298 OA
BRANCH   8  10
HETATM   10  C10 UNL     1     -32.329   8.921   4.006  1.00 20.00     0.074 C 
HETATM   11  C9  UNL     1     -32.960   9.412   2.716  1.00 20.00     0.013 C 
ENDBRANCH   8  10
ENDBRANCH   4   8
TORSDOF 2
ENDMDL
MODEL 4
REMARK VINA RESULT:      -3.7     12.069     13.016
REMARK  2 active torsions:
REMARK  status: ('A' for Active; 'I' for Inactive)
REMARK    1  A    between atoms: C1_1  and  C5_5 
REMARK    2  A    between atoms: C1_1  and  C10_10 
ROOT
HETATM    1  C2  UNL     1     -33.540  16.184  -4.037  1.00 20.00     0.002 C 
HETATM    2  C3  UNL     1     -33.228  16.404  -2.557  1.00 20.00     0.013 C 
HETATM    3  C4  UNL     1     -34.637  17.187  -4.383  1.00 20.00     0.010 C 
HETATM    4  C5  UNL     1     -34.043  17.626  -2.121  1.00 20.00     0.063 C 
HETATM    5  C6  UNL     1     -34.396  18.369  -3.429  1.00 20.00    -0.037 C 
HETATM    6  C7  UNL     1     -33.255  19.260  -3.957  1.00 20.00     0.015 C 
HETATM    7  C8  UNL     1     -35.662  19.218  -3.277  1.00 20.00     0.015 C 
ENDROOT
BRANCH   4   8
HETATM    8  C1  UNL     1     -33.308  18.468  -1.125  1.00 20.00     0.131 C 
HETATM    9  O11 UNL     1     -33.908  19.255  -0.393  1.00 20.00    -0.298 OA
BRANCH   8  10
HETATM   10  C10 UNL     1     -31.802  18.287  -1.081  1.00 20.00     0.074 C 
HETATM   11  C9  UNL     1     -31.198  18.727   0.241  1.00 20.00     0.013 C 
ENDBRANCH   8  10
ENDBRANCH   4   8
TORSDOF 2
ENDMDL
MODEL 5
REMARK VINA RESULT:      -3.6     13.252     14.357
REMARK  2 active torsions:
REMARK  status: ('A' for Active; 'I' for Inactive)
REMARK    1  A    between atoms: C1_1  and  C5_5 
REMARK    2  A    between atoms: C1_1  and  C10_10 
ROOT
HETATM    1  C2  UNL     1     -33.098  15.731  -3.678  1.00 20.00     0.002 C 
HETATM    2  C3  UNL     1     -33.801  17.041  -4.033  1.00 20.00     0.013 C 
HETATM    3  C4  UNL     1     -34.025  14.618  -4.156  1.00 20.00     0.010 C 
HETATM    4  C5  UNL     1     -35.046  16.655  -4.840  1.00 20.00     0.063 C 
HETATM    5  C6  UNL     1     -34.773  15.225  -5.355  1.00 20.00    -0.037 C 
HETATM    6  C7  UNL     1     -33.887  15.185  -6.615  1.00 20.00     0.015 C 
HETATM    7  C8  UNL     1     -36.072  14.463  -5.635  1.00 20.00     0.015 C 
ENDROOT
BRANCH   4   8
HETATM    8  C1  UNL     1     -35.343  17.645  -5.924  1.00 20.00     0.131 C 
HETATM    9  O11 UNL     1     -36.396  17.594  -6.558  1.00 20.00    -0.298 OA
BRANCH   8  10
HETATM   10  C10 UNL     1     -34.277  18.694  -6.180  1.00 20.00     0.074 C 
HETATM   11  C9  UNL     1     -33.877  18.777  -7.642  1.00 20.00     0.013 C 
ENDBRANCH   8  10
ENDBRANCH   4   8
TORSDOF 2
ENDMDL
MODEL 6
REMARK VINA RESULT:      -3.6      0.847      2.320
REMARK  2 active torsions:
REMARK  status: ('A' for Active; 'I' for Inactive)
REMARK    1  A    between atoms: C1_1  and  C5_5 
REMARK    2  A    between atoms: C1_1  and  C10_10 
ROOT
HETATM    1  C2  UNL     1     -43.092  15.356   5.864  1.00 20.00     0.002 C 
HETATM    2  C3  UNL     1     -42.416  14.069   5.393  1.00 20.00     0.013 C 
HETATM    3  C4  UNL     1     -42.918  15.385   7.380  1.00 20.00     0.010 C 
HETATM    4  C5  UNL     1     -41.739  13.461   6.626  1.00 20.00     0.063 C 
HETATM    5  C6  UNL     1     -41.606  14.624   7.634  1.00 20.00    -0.037 C 
HETATM    6  C7  UNL     1     -40.396  15.537   7.363  1.00 20.00     0.015 C 
HETATM    7  C8  UNL     1     -41.535  14.119   9.079  1.00 20.00     0.015 C 
ENDROOT
BRANCH   4   8
HETATM    8  C1  UNL     1     -40.438  12.800   6.287  1.00 20.00     0.131 C 
HETATM    9  O11 UNL     1     -39.690  12.383   7.170  1.00 20.00    -0.298 OA
BRANCH   8  10
HETATM   10  C10 UNL     1     -40.115  12.683   4.809  1.00 20.00     0.074 C 
HETATM   11  C9  UNL     1     -39.039  11.651   4.525  1.00 20.00     0.013 C 
ENDBRANCH   8  10
ENDBRANCH   4   8
TORSDOF 2
ENDMDL
MODEL 7
REMARK VINA RESULT:      -3.6     12.395     13.344
REMARK  2 active torsions:
REMARK  status: ('A' for Active; 'I' for Inactive)
REMARK    1  A    between atoms: C1_1  and  C5_5 
REMARK    2  A    between atoms: C1_1  and  C10_10 
ROOT
HETATM    1  C2  UNL     1     -33.518  17.431  -1.749  1.00 20.00     0.002 C 
HETATM    2  C3  UNL     1     -33.395  16.273  -2.739  1.00 20.00     0.013 C 
HETATM    3  C4  UNL     1     -33.500  18.703  -2.592  1.00 20.00     0.010 C 
HETATM    4  C5  UNL     1     -33.460  16.895  -4.139  1.00 20.00     0.063 C 
HETATM    5  C6  UNL     1     -34.110  18.282  -3.940  1.00 20.00    -0.037 C 
HETATM    6  C7  UNL     1     -35.647  18.232  -3.840  1.00 20.00     0.015 C 
HETATM    7  C8  UNL     1     -33.715  19.260  -5.051  1.00 20.00     0.015 C 
ENDROOT
BRANCH   4   8
HETATM    8  C1  UNL     1     -34.187  16.018  -5.111  1.00 20.00     0.131 C 
HETATM    9  O11 UNL     1     -34.397  16.389  -6.265  1.00 20.00    -0.298 OA
BRANCH   8  10
HETATM   10  C10 UNL     1     -34.637  14.668  -4.585  1.00 20.00     0.074 C 
HETATM   11  C9  UNL     1     -35.971  14.230  -5.161  1.00 20.00     0.013 C 
ENDBRANCH   8  10
ENDBRANCH   4   8
TORSDOF 2
ENDMDL
MODEL 8
REMARK VINA RESULT:      -3.6      1.326      3.624
REMARK  2 active torsions:
REMARK  status: ('A' for Active; 'I' for Inactive)
REMARK    1  A    between atoms: C1_1  and  C5_5 
REMARK    2  A    between atoms: C1_1  and  C10_10 
ROOT
HETATM    1  C2  UNL     1     -42.625  15.194   5.296  1.00 20.00     0.002 C 
HETATM    2  C3  UNL     1     -41.940  15.644   6.587  1.00 20.00     0.013 C 
HETATM    3  C4  UNL     1     -41.885  13.937   4.849  1.00 20.00     0.010 C 
HETATM    4  C5  UNL     1     -40.919  14.555   6.934  1.00 20.00     0.063 C 
HETATM    5  C6  UNL     1     -41.376  13.302   6.154  1.00 20.00    -0.037 C 
HETATM    6  C7  UNL     1     -42.510  12.526   6.850  1.00 20.00     0.015 C 
HETATM    7  C8  UNL     1     -40.211  12.346   5.882  1.00 20.00     0.015 C 
ENDROOT
BRANCH   4   8
HETATM    8  C1  UNL     1     -40.804  14.342   8.412  1.00 20.00     0.131 C 
HETATM    9  O11 UNL     1     -39.947  13.594   8.880  1.00 20.00    -0.298 OA
BRANCH   8  10
HETATM   10  C10 UNL     1     -41.796  15.099   9.274  1.00 20.00     0.074 C 
HETATM   11  C9  UNL     1     -42.592  14.186  10.190  1.00 20.00     0.013 C 
ENDBRANCH   8  10
ENDBRANCH   4   8
TORSDOF 2
ENDMDL
MODEL 9
REMARK VINA RESULT:      -3.6      9.744     10.504
REMARK  2 active torsions:
REMARK  status: ('A' for Active; 'I' for Inactive)
REMARK    1  A    between atoms: C1_1  and  C5_5 
REMARK    2  A    between atoms: C1_1  and  C10_10 
ROOT
HETATM    1  C2  UNL     1     -33.555   7.116   6.760  1.00 20.00     0.002 C 
HETATM    2  C3  UNL     1     -32.909   7.576   5.452  1.00 20.00     0.013 C 
HETATM    3  C4  UNL     1     -34.851   6.417   6.360  1.00 20.00     0.010 C 
HETATM    4  C5  UNL     1     -33.771   7.002   4.322  1.00 20.00     0.063 C 
HETATM    5  C6  UNL     1     -34.566   5.843   4.963  1.00 20.00    -0.037 C 
HETATM    6  C7  UNL     1     -33.761   4.534   5.075  1.00 20.00     0.015 C 
HETATM    7  C8  UNL     1     -35.870   5.562   4.208  1.00 20.00     0.015 C 
ENDROOT
BRANCH   4   8
HETATM    8  C1  UNL     1     -32.949   6.594   3.139  1.00 20.00     0.131 C 
HETATM    9  O11 UNL     1     -33.121   5.505   2.592  1.00 20.00    -0.298 OA
BRANCH   8  10
HETATM   10  C10 UNL     1     -31.911   7.596   2.670  1.00 20.00     0.074 C 
HETATM   11  C9  UNL     1     -32.240   8.186   1.310  1.00 20.00     0.013 C 
ENDBRANCH   8  10
ENDBRANCH   4   8
TORSDOF 2
ENDMDL
