MODEL 1
REMARK VINA RESULT:      -4.7      0.000      0.000
REMARK  1 active torsions:
REMARK  status: ('A' for Active; 'I' for Inactive)
REMARK    1  A    between atoms: C4_4  and  C9_9 
ROOT
HETATM    1  C1  UNL     1     -33.264   4.631   2.944  1.00 20.00     0.001 C 
HETATM    2  C2  UNL     1     -32.910   6.118   2.952  1.00 20.00     0.007 C 
HETATM    3  C3  UNL     1     -33.920   4.338   4.293  1.00 20.00     0.009 C 
HETATM    4  C4  UNL     1     -33.280   6.629   4.350  1.00 20.00     0.011 C 
HETATM    5  C5  UNL     1     -34.429   5.698   4.802  1.00 20.00    -0.043 C 
HETATM    6  C6  UNL     1     -35.786   6.037   4.160  1.00 20.00     0.015 C 
HETATM    7  C7  UNL     1     -34.590   5.685   6.326  1.00 20.00     0.015 C 
ENDROOT
BRANCH   4   8
HETATM    8  C9  UNL     1     -33.579   8.122   4.363  1.00 20.00     0.083 C 
HETATM    9  C8  UNL     1     -32.544   8.907   3.571  1.00 20.00     0.027 C 
HETATM   10 CL10 UNL     1     -33.614   8.709   6.050  1.00 20.00    -0.125 Cl
ENDBRANCH   4   8
TORSDOF 1
ENDMDL
MODEL 2
REMARK VINA RESULT:      -4.1      1.679      3.153
REMARK  1 active torsions:
REMARK  status: ('A' for Active; 'I' for Inactive)
REMARK    1  A    between atoms: C4_4  and  C9_9 
ROOT
HETATM    1  C1  UNL     1     -34.772   5.597   6.259  1.00 20.00     0.001 C 
HETATM    2  C2  UNL     1     -34.372   5.072   4.880  1.00 20.00     0.007 C 
HETATM    3  C3  UNL     1     -34.013   6.908   6.458  1.00 20.00     0.009 C 
HETATM    4  C4  UNL     1     -33.311   6.046   4.354  1.00 20.00     0.011 C 
HETATM    5  C5  UNL     1     -33.654   7.389   5.041  1.00 20.00    -0.043 C 
HETATM    6  C6  UNL     1     -34.848   8.120   4.403  1.00 20.00     0.015 C 
HETATM    7  C7  UNL     1     -32.451   8.338   5.074  1.00 20.00     0.015 C 
ENDROOT
BRANCH   4   8
HETATM    8  C9  UNL     1     -33.243   6.067   2.833  1.00 20.00     0.083 C 
HETATM    9  C8  UNL     1     -32.867   4.703   2.272  1.00 20.00     0.027 C 
HETATM   10 CL10 UNL     1     -32.045   7.282   2.305  1.00 20.00    -0.125 Cl
ENDBRANCH   4   8
TORSDOF 1
ENDMDL
MODEL 3
REMARK VINA RESULT:      -3.7     12.093     14.036
REMARK  1 active torsions:
REMARK  status: ('A' for Active; 'I' for Inactive)
REMARK    1  A    between atoms: C4_4  and  C9_9 
ROOT
HETATM    1  C1  UNL     1     -33.044  17.653  -2.054  1.00 20.00     0.001 C 
HETATM    2  C2  UNL     1     -33.366  16.325  -2.740  1.00 20.00     0.007 C 
HETATM    3  C3  UNL     1     -33.231  18.740  -3.111  1.00 20.00     0.009 C 
HETATM    4  C4  UNL     1     -33.635  16.668  -4.210  1.00 20.00     0.011 C 
HETATM    5  C5  UNL     1     -34.161  18.122  -4.171  1.00 20.00    -0.043 C 
HETATM    6  C6  UNL     1     -35.630  18.234  -3.726  1.00 20.00     0.015 C 
HETATM    7  C7  UNL     1     -33.996  18.828  -5.521  1.00 20.00     0.015 C 
ENDROOT
BRANCH   4   8
HETATM    8  C9  UNL     1     -34.534  15.645  -4.892  1.00 20.00     0.083 C 
HETATM    9  C8  UNL     1     -34.456  14.288  -4.207  1.00 20.00     0.027 C 
HETATM   10 CL10 UNL     1     -34.059  15.479  -6.606  1.00 20.00    -0.125 Cl
ENDBRANCH   4   8
TORSDOF 1
ENDMDL
MODEL 4
REMARK VINA RESULT:      -3.6      1.101      2.332
REMARK  1 active torsions:
REMARK  status: ('A' for Active; 'I' for Inactive)
REMARK    1  A    between atoms: C4_4  and  C9_9 
ROOT
HETATM    1  C1  UNL     1     -33.901   5.460   6.825  1.00 20.00     0.001 C 
HETATM    2  C2  UNL     1     -33.213   6.720   6.301  1.00 20.00     0.007 C 
HETATM    3  C3  UNL     1     -35.093   5.206   5.903  1.00 20.00     0.009 C 
HETATM    4  C4  UNL     1     -34.086   7.224   5.145  1.00 20.00     0.011 C 
HETATM    5  C5  UNL     1     -34.762   5.945   4.595  1.00 20.00    -0.043 C 
HETATM    6  C6  UNL     1     -33.836   5.088   3.714  1.00 20.00     0.015 C 
HETATM    7  C7  UNL     1     -36.039   6.265   3.810  1.00 20.00     0.015 C 
ENDROOT
BRANCH   4   8
HETATM    8  C9  UNL     1     -33.299   8.053   4.139  1.00 20.00     0.083 C 
HETATM    9  C8  UNL     1     -32.390   7.182   3.285  1.00 20.00     0.027 C 
HETATM   10 CL10 UNL     1     -32.319   9.271   5.005  1.00 20.00    -0.125 Cl
ENDBRANCH   4   8
TORSDOF 1
ENDMDL
MODEL 5
REMARK VINA RESULT:      -3.5     12.382     13.980
REMARK  1 active torsions:
REMARK  status: ('A' for Active; 'I' for Inactive)
REMARK    1  A    between atoms: C4_4  and  C9_9 
ROOT
HETATM    1  C1  UNL     1     -33.145  15.882  -3.601  1.00 20.00     0.001 C 
HETATM    2  C2  UNL     1     -33.825  17.145  -4.130  1.00 20.00     0.007 C 
HETATM    3  C3  UNL     1     -33.987  14.703  -4.086  1.00 20.00     0.009 C 
HETATM    4  C4  UNL     1     -35.105  16.669  -4.827  1.00 20.00     0.011 C 
HETATM    5  C5  UNL     1     -34.770  15.235  -5.300  1.00 20.00    -0.043 C 
HETATM    6  C6  UNL     1     -33.894  15.192  -6.564  1.00 20.00     0.015 C 
HETATM    7  C7  UNL     1     -36.033  14.402  -5.543  1.00 20.00     0.015 C 
ENDROOT
BRANCH   4   8
HETATM    8  C9  UNL     1     -35.578  17.638  -5.902  1.00 20.00     0.083 C 
HETATM    9  C8  UNL     1     -34.672  18.858  -5.992  1.00 20.00     0.027 C 
HETATM   10 CL10 UNL     1     -37.249  18.159  -5.546  1.00 20.00    -0.125 Cl
ENDBRANCH   4   8
TORSDOF 1
ENDMDL
MODEL 6
REMARK VINA RESULT:      -3.5     12.365     13.684
REMARK  1 active torsions:
REMARK  status: ('A' for Active; 'I' for Inactive)
REMARK    1  A    between atoms: C4_4  and  C9_9 
ROOT
HETATM    1  C1  UNL     1     -33.521  16.102  -3.705  1.00 20.00     0.001 C 
HETATM    2  C2  UNL     1     -33.149  16.635  -2.321  1.00 20.00     0.007 C 
HETATM    3  C3  UNL     1     -34.545  17.079  -4.282  1.00 20.00     0.009 C 
HETATM    4  C4  UNL     1     -34.045  17.858  -2.090  1.00 20.00     0.011 C 
HETATM    5  C5  UNL     1     -34.331  18.394  -3.512  1.00 20.00    -0.043 C 
HETATM    6  C6  UNL     1     -33.160  19.187  -4.119  1.00 20.00     0.015 C 
HETATM    7  C7  UNL     1     -35.593  19.263  -3.554  1.00 20.00     0.015 C 
ENDROOT
BRANCH   4   8
HETATM    8  C9  UNL     1     -33.435  18.849  -1.108  1.00 20.00     0.083 C 
HETATM    9  C8  UNL     1     -31.993  18.492  -0.776  1.00 20.00     0.027 C 
HETATM   10 CL10 UNL     1     -34.405  18.879   0.392  1.00 20.00    -0.125 Cl
ENDBRANCH   4   8
TORSDOF 1
ENDMDL
MODEL 7
REMARK VINA RESULT:      -3.4     10.464     11.705
REMARK  1 active torsions:
REMARK  status: ('A' for Active; 'I' for Inactive)
REMARK    1  A    between atoms: C4_4  and  C9_9 
ROOT
HETATM    1  C1  UNL     1     -43.344  12.674   8.117  1.00 20.00     0.001 C 
HETATM    2  C2  UNL     1     -42.405  13.741   8.682  1.00 20.00     0.007 C 
HETATM    3  C3  UNL     1     -43.312  12.832   6.598  1.00 20.00     0.009 C 
HETATM    4  C4  UNL     1     -41.929  14.559   7.476  1.00 20.00     0.011 C 
HETATM    5  C5  UNL     1     -41.992  13.564   6.293  1.00 20.00    -0.043 C 
HETATM    6  C6  UNL     1     -40.820  12.567   6.262  1.00 20.00     0.015 C 
HETATM    7  C7  UNL     1     -42.067  14.284   4.942  1.00 20.00     0.015 C 
ENDROOT
BRANCH   4   8
HETATM    8  C9  UNL     1     -40.583  15.227   7.720  1.00 20.00     0.083 C 
HETATM    9  C8  UNL     1     -40.126  15.053   9.161  1.00 20.00     0.027 C 
HETATM   10 CL10 UNL     1     -40.700  16.968   7.336  1.00 20.00    -0.125 Cl
ENDBRANCH   4   8
TORSDOF 1
ENDMDL
MODEL 8
REMARK VINA RESULT:      -3.3      9.659     11.006
REMARK  1 active torsions:
REMARK  status: ('A' for Active; 'I' for Inactive)
REMARK    1  A    between atoms: C4_4  and  C9_9 
ROOT
HETATM    1  C1  UNL     1     -41.289  15.255   7.965  1.00 20.00     0.001 C 
HETATM    2  C2  UNL     1     -40.298  14.163   7.561  1.00 20.00     0.007 C 
HETATM    3  C3  UNL     1     -42.229  15.444   6.775  1.00 20.00     0.009 C 
HETATM    4  C4  UNL     1     -40.628  13.816   6.104  1.00 20.00     0.011 C 
HETATM    5  C5  UNL     1     -42.135  14.136   5.970  1.00 20.00    -0.043 C 
HETATM    6  C6  UNL     1     -43.050  13.061   6.585  1.00 20.00     0.015 C 
HETATM    7  C7  UNL     1     -42.546  14.361   4.511  1.00 20.00     0.015 C 
ENDROOT
BRANCH   4   8
HETATM    8  C9  UNL     1     -40.204  12.402   5.732  1.00 20.00     0.083 C 
HETATM    9  C8  UNL     1     -39.094  11.894   6.641  1.00 20.00     0.027 C 
HETATM   10 CL10 UNL     1     -39.649  12.371   4.034  1.00 20.00    -0.125 Cl
ENDBRANCH   4   8
TORSDOF 1
ENDMDL
MODEL 9
REMARK VINA RESULT:      -3.3     12.380     14.089
REMARK  1 active torsions:
REMARK  status: ('A' for Active; 'I' for Inactive)
REMARK    1  A    between atoms: C4_4  and  C9_9 
ROOT
HETATM    1  C1  UNL     1     -35.179  16.415  -7.918  1.00 20.00     0.001 C 
HETATM    2  C2  UNL     1     -34.462  17.144  -6.782  1.00 20.00     0.007 C 
HETATM    3  C3  UNL     1     -35.770  15.145  -7.308  1.00 20.00     0.009 C 
HETATM    4  C4  UNL     1     -34.570  16.225  -5.560  1.00 20.00     0.011 C 
HETATM    5  C5  UNL     1     -35.874  15.428  -5.799  1.00 20.00    -0.043 C 
HETATM    6  C6  UNL     1     -37.152  16.229  -5.490  1.00 20.00     0.015 C 
HETATM    7  C7  UNL     1     -35.903  14.121  -4.998  1.00 20.00     0.015 C 
ENDROOT
BRANCH   4   8
HETATM    8  C9  UNL     1     -34.481  16.989  -4.246  1.00 20.00     0.083 C 
HETATM    9  C8  UNL     1     -33.981  18.411  -4.459  1.00 20.00     0.027 C 
HETATM   10 CL10 UNL     1     -33.383  16.130  -3.128  1.00 20.00    -0.125 Cl
ENDBRANCH   4   8
TORSDOF 1
ENDMDL
