MODEL 1
REMARK VINA RESULT:      -4.2      0.000      0.000
REMARK  0 active torsions:
REMARK  status: ('A' for Active; 'I' for Inactive)
ROOT
HETATM    1  C1  UNL     1     -32.945   8.058   4.820  1.00 20.00     0.098 C 
HETATM    2  C2  UNL     1     -34.167   6.543   6.305  1.00 20.00     0.160 A 
HETATM    3  C3  UNL     1     -33.684   6.898   5.119  1.00 20.00     0.063 A 
HETATM    4  C4  UNL     1     -34.088   5.818   4.191  1.00 20.00     0.225 A 
HETATM    5  N5  UNL     1     -32.336   9.015   4.573  1.00 20.00    -0.192 NA
HETATM    6  N6  UNL     1     -34.842   5.353   6.265  1.00 20.00    -0.166 NA
HETATM    7  N7  UNL     1     -34.832   4.891   5.087  1.00 20.00    -0.188 NA
ENDROOT
TORSDOF 0
ENDMDL
MODEL 2
REMARK VINA RESULT:      -4.2      0.351      1.416
REMARK  0 active torsions:
REMARK  status: ('A' for Active; 'I' for Inactive)
ROOT
HETATM    1  C1  UNL     1     -33.050   7.905   4.350  1.00 20.00     0.098 C 
HETATM    2  C2  UNL     1     -34.177   5.734   4.254  1.00 20.00     0.160 A 
HETATM    3  C3  UNL     1     -33.747   6.812   4.900  1.00 20.00     0.063 A 
HETATM    4  C4  UNL     1     -34.157   6.616   6.309  1.00 20.00     0.225 A 
HETATM    5  N5  UNL     1     -32.475   8.806   3.897  1.00 20.00    -0.192 NA
HETATM    6  N6  UNL     1     -34.824   4.849   5.075  1.00 20.00    -0.166 NA
HETATM    7  N7  UNL     1     -34.844   5.297   6.259  1.00 20.00    -0.188 NA
ENDROOT
TORSDOF 0
ENDMDL
MODEL 3
REMARK VINA RESULT:      -3.7      1.015      3.422
REMARK  0 active torsions:
REMARK  status: ('A' for Active; 'I' for Inactive)
ROOT
HETATM    1  C1  UNL     1     -34.342   5.721   4.722  1.00 20.00     0.098 C 
HETATM    2  C2  UNL     1     -33.480   7.913   5.391  1.00 20.00     0.160 A 
HETATM    3  C3  UNL     1     -33.543   6.870   4.569  1.00 20.00     0.063 A 
HETATM    4  C4  UNL     1     -32.600   7.178   3.471  1.00 20.00     0.225 A 
HETATM    5  N5  UNL     1     -35.001   4.773   4.847  1.00 20.00    -0.192 NA
HETATM    6  N6  UNL     1     -32.604   8.872   4.960  1.00 20.00    -0.166 NA
HETATM    7  N7  UNL     1     -32.072   8.511   3.871  1.00 20.00    -0.188 NA
ENDROOT
TORSDOF 0
ENDMDL
MODEL 4
REMARK VINA RESULT:      -3.5     15.747     16.498
REMARK  0 active torsions:
REMARK  status: ('A' for Active; 'I' for Inactive)
ROOT
HETATM    1  C1  UNL     1     -22.253  17.330   8.805  1.00 20.00     0.098 C 
HETATM    2  C2  UNL     1     -22.316  18.434  10.990  1.00 20.00     0.160 A 
HETATM    3  C3  UNL     1     -22.789  17.587  10.081  1.00 20.00     0.063 A 
HETATM    4  C4  UNL     1     -23.990  16.981  10.698  1.00 20.00     0.225 A 
HETATM    5  N5  UNL     1     -21.811  17.118   7.753  1.00 20.00    -0.192 NA
HETATM    6  N6  UNL     1     -23.066  18.454  12.134  1.00 20.00    -0.166 NA
HETATM    7  N7  UNL     1     -24.035  17.647  12.028  1.00 20.00    -0.188 NA
ENDROOT
TORSDOF 0
ENDMDL
MODEL 5
REMARK VINA RESULT:      -3.4     16.550     16.993
REMARK  0 active torsions:
REMARK  status: ('A' for Active; 'I' for Inactive)
ROOT
HETATM    1  C1  UNL     1     -22.558  18.391  11.176  1.00 20.00     0.098 C 
HETATM    2  C2  UNL     1     -21.829  17.392   9.062  1.00 20.00     0.160 A 
HETATM    3  C3  UNL     1     -22.518  18.279   9.773  1.00 20.00     0.063 A 
HETATM    4  C4  UNL     1     -23.225  19.115   8.777  1.00 20.00     0.225 A 
HETATM    5  N5  UNL     1     -22.591  18.483  12.332  1.00 20.00    -0.192 NA
HETATM    6  N6  UNL     1     -22.001  17.547   7.713  1.00 20.00    -0.166 NA
HETATM    7  N7  UNL     1     -22.786  18.514   7.488  1.00 20.00    -0.188 NA
ENDROOT
TORSDOF 0
ENDMDL
MODEL 6
REMARK VINA RESULT:      -3.4      1.654      2.530
REMARK  0 active torsions:
REMARK  status: ('A' for Active; 'I' for Inactive)
ROOT
HETATM    1  C1  UNL     1     -33.341   5.475   3.272  1.00 20.00     0.098 C 
HETATM    2  C2  UNL     1     -34.579   5.223   5.370  1.00 20.00     0.160 A 
HETATM    3  C3  UNL     1     -33.817   5.909   4.524  1.00 20.00     0.063 A 
HETATM    4  C4  UNL     1     -33.582   7.215   5.179  1.00 20.00     0.225 A 
HETATM    5  N5  UNL     1     -32.948   5.117   2.241  1.00 20.00    -0.192 NA
HETATM    6  N6  UNL     1     -34.873   5.927   6.506  1.00 20.00    -0.166 NA
HETATM    7  N7  UNL     1     -34.333   7.070   6.456  1.00 20.00    -0.188 NA
ENDROOT
TORSDOF 0
ENDMDL
MODEL 7
REMARK VINA RESULT:      -3.4     13.147     14.264
REMARK  0 active torsions:
REMARK  status: ('A' for Active; 'I' for Inactive)
ROOT
HETATM    1  C1  UNL     1     -28.780  18.711   3.440  1.00 20.00     0.098 C 
HETATM    2  C2  UNL     1     -26.381  19.123   3.706  1.00 20.00     0.160 A 
HETATM    3  C3  UNL     1     -27.600  18.899   4.185  1.00 20.00     0.063 A 
HETATM    4  C4  UNL     1     -27.448  18.891   5.657  1.00 20.00     0.225 A 
HETATM    5  N5  UNL     1     -29.752  18.556   2.826  1.00 20.00    -0.192 NA
HETATM    6  N6  UNL     1     -25.443  19.263   4.693  1.00 20.00    -0.166 NA
HETATM    7  N7  UNL     1     -25.990  19.141   5.827  1.00 20.00    -0.188 NA
ENDROOT
TORSDOF 0
ENDMDL
MODEL 8
REMARK VINA RESULT:      -3.4     13.002     14.047
REMARK  0 active torsions:
REMARK  status: ('A' for Active; 'I' for Inactive)
ROOT
HETATM    1  C1  UNL     1     -33.869  15.608  -4.314  1.00 20.00     0.098 C 
HETATM    2  C2  UNL     1     -34.163  15.371  -6.734  1.00 20.00     0.160 A 
HETATM    3  C3  UNL     1     -34.564  15.219  -5.476  1.00 20.00     0.063 A 
HETATM    4  C4  UNL     1     -35.886  14.560  -5.562  1.00 20.00     0.225 A 
HETATM    5  N5  UNL     1     -33.296  15.928  -3.357  1.00 20.00    -0.192 NA
HETATM    6  N6  UNL     1     -35.069  14.888  -7.639  1.00 20.00    -0.166 NA
HETATM    7  N7  UNL     1     -36.073  14.413  -7.032  1.00 20.00    -0.188 NA
ENDROOT
TORSDOF 0
ENDMDL
MODEL 9
REMARK VINA RESULT:      -3.3     13.013     14.062
REMARK  0 active torsions:
REMARK  status: ('A' for Active; 'I' for Inactive)
ROOT
HETATM    1  C1  UNL     1     -33.846  15.596  -4.357  1.00 20.00     0.098 C 
HETATM    2  C2  UNL     1     -35.678  14.586  -5.629  1.00 20.00     0.160 A 
HETATM    3  C3  UNL     1     -34.520  15.231  -5.538  1.00 20.00     0.063 A 
HETATM    4  C4  UNL     1     -34.098  15.478  -6.935  1.00 20.00     0.225 A 
HETATM    5  N5  UNL     1     -33.290  15.897  -3.384  1.00 20.00    -0.192 NA
HETATM    6  N6  UNL     1     -36.068  14.379  -6.925  1.00 20.00    -0.166 NA
HETATM    7  N7  UNL     1     -35.208  14.866  -7.716  1.00 20.00    -0.188 NA
ENDROOT
TORSDOF 0
ENDMDL
