MODEL 1
REMARK VINA RESULT:      -5.6      0.000      0.000
REMARK  1 active torsions:
REMARK  status: ('A' for Active; 'I' for Inactive)
REMARK    1  A    between atoms: C2_2  and  C5_5 
ROOT
HETATM    1  C1  UNL     1     -33.572   7.635   5.310  1.00 20.00     0.075 A 
HETATM    2  C2  UNL     1     -33.878   6.544   4.599  1.00 20.00     0.039 A 
HETATM    3  C3  UNL     1     -32.521   8.445   4.679  1.00 20.00     0.209 A 
HETATM    4  C4  UNL     1     -33.138   6.318   3.319  1.00 20.00     0.126 A 
HETATM    5  O6  UNL     1     -32.076   9.483   5.138  1.00 20.00    -0.281 OA
HETATM    6  S10 UNL     1     -31.990   7.719   3.175  1.00 20.00    -0.084 SA
ENDROOT
BRANCH   2   7
HETATM    7  C5  UNL     1     -34.910   5.545   5.008  1.00 20.00     0.414 C 
HETATM    8  F7  UNL     1     -36.100   5.808   4.428  1.00 20.00    -0.166 F 
HETATM    9  F8  UNL     1     -34.548   4.294   4.653  1.00 20.00    -0.166 F 
HETATM   10  F9  UNL     1     -35.096   5.552   6.346  1.00 20.00    -0.166 F 
ENDBRANCH   2   7
TORSDOF 1
ENDMDL
MODEL 2
REMARK VINA RESULT:      -5.6      0.003      1.194
REMARK  1 active torsions:
REMARK  status: ('A' for Active; 'I' for Inactive)
REMARK    1  A    between atoms: C2_2  and  C5_5 
ROOT
HETATM    1  C1  UNL     1     -33.571   7.636   5.309  1.00 20.00     0.075 A 
HETATM    2  C2  UNL     1     -33.879   6.545   4.598  1.00 20.00     0.039 A 
HETATM    3  C3  UNL     1     -32.520   8.445   4.678  1.00 20.00     0.209 A 
HETATM    4  C4  UNL     1     -33.139   6.319   3.319  1.00 20.00     0.126 A 
HETATM    5  O6  UNL     1     -32.073   9.483   5.137  1.00 20.00    -0.281 OA
HETATM    6  S10 UNL     1     -31.989   7.718   3.175  1.00 20.00    -0.084 SA
ENDROOT
BRANCH   2   7
HETATM    7  C5  UNL     1     -34.911   5.547   5.007  1.00 20.00     0.414 C 
HETATM    8  F7  UNL     1     -34.548   4.296   4.653  1.00 20.00    -0.166 F 
HETATM    9  F8  UNL     1     -35.097   5.557   6.344  1.00 20.00    -0.166 F 
HETATM   10  F9  UNL     1     -36.103   5.807   4.427  1.00 20.00    -0.166 F 
ENDBRANCH   2   7
TORSDOF 1
ENDMDL
MODEL 3
REMARK VINA RESULT:      -5.4      1.344      2.090
REMARK  1 active torsions:
REMARK  status: ('A' for Active; 'I' for Inactive)
REMARK    1  A    between atoms: C2_2  and  C5_5 
ROOT
HETATM    1  C1  UNL     1     -33.313   6.445   3.435  1.00 20.00     0.075 A 
HETATM    2  C2  UNL     1     -33.832   6.511   4.667  1.00 20.00     0.039 A 
HETATM    3  C3  UNL     1     -32.424   7.575   3.134  1.00 20.00     0.209 A 
HETATM    4  C4  UNL     1     -33.445   7.675   5.522  1.00 20.00     0.126 A 
HETATM    5  O6  UNL     1     -31.836   7.733   2.077  1.00 20.00    -0.281 OA
HETATM    6  S10 UNL     1     -32.320   8.669   4.499  1.00 20.00    -0.084 SA
ENDROOT
BRANCH   2   7
HETATM    7  C5  UNL     1     -34.768   5.495   5.232  1.00 20.00     0.414 C 
HETATM    8  F7  UNL     1     -34.964   5.694   6.553  1.00 20.00    -0.166 F 
HETATM    9  F8  UNL     1     -35.973   5.551   4.626  1.00 20.00    -0.166 F 
HETATM   10  F9  UNL     1     -34.288   4.242   5.073  1.00 20.00    -0.166 F 
ENDBRANCH   2   7
TORSDOF 1
ENDMDL
MODEL 4
REMARK VINA RESULT:      -5.0      3.631      4.254
REMARK  1 active torsions:
REMARK  status: ('A' for Active; 'I' for Inactive)
REMARK    1  A    between atoms: C2_2  and  C5_5 
ROOT
HETATM    1  C1  UNL     1     -33.447   6.199   4.026  1.00 20.00     0.075 A 
HETATM    2  C2  UNL     1     -33.204   7.326   4.707  1.00 20.00     0.039 A 
HETATM    3  C3  UNL     1     -34.272   5.248   4.782  1.00 20.00     0.209 A 
HETATM    4  C4  UNL     1     -33.786   7.447   6.079  1.00 20.00     0.126 A 
HETATM    5  O6  UNL     1     -34.625   4.155   4.369  1.00 20.00    -0.281 OA
HETATM    6  S10 UNL     1     -34.686   5.893   6.357  1.00 20.00    -0.084 SA
ENDROOT
BRANCH   2   7
HETATM    7  C5  UNL     1     -32.390   8.460   4.178  1.00 20.00     0.414 C 
HETATM    8  F7  UNL     1     -32.279   9.448   5.092  1.00 20.00    -0.166 F 
HETATM    9  F8  UNL     1     -31.143   8.058   3.856  1.00 20.00    -0.166 F 
HETATM   10  F9  UNL     1     -32.949   8.990   3.069  1.00 20.00    -0.166 F 
ENDBRANCH   2   7
TORSDOF 1
ENDMDL
MODEL 5
REMARK VINA RESULT:      -4.9      3.462      3.933
REMARK  1 active torsions:
REMARK  status: ('A' for Active; 'I' for Inactive)
REMARK    1  A    between atoms: C2_2  and  C5_5 
ROOT
HETATM    1  C1  UNL     1     -33.769   7.205   5.789  1.00 20.00     0.075 A 
HETATM    2  C2  UNL     1     -33.188   7.291   4.587  1.00 20.00     0.039 A 
HETATM    3  C3  UNL     1     -34.549   5.971   5.954  1.00 20.00     0.209 A 
HETATM    4  C4  UNL     1     -33.407   6.165   3.628  1.00 20.00     0.126 A 
HETATM    5  O6  UNL     1     -35.166   5.670   6.962  1.00 20.00    -0.281 OA
HETATM    6  S10 UNL     1     -34.474   4.987   4.507  1.00 20.00    -0.084 SA
ENDROOT
BRANCH   2   7
HETATM    7  C5  UNL     1     -32.340   8.440   4.152  1.00 20.00     0.414 C 
HETATM    8  F7  UNL     1     -31.076   8.041   3.890  1.00 20.00    -0.166 F 
HETATM    9  F8  UNL     1     -32.829   9.013   3.032  1.00 20.00    -0.166 F 
HETATM   10  F9  UNL     1     -32.278   9.394   5.106  1.00 20.00    -0.166 F 
ENDBRANCH   2   7
TORSDOF 1
ENDMDL
MODEL 6
REMARK VINA RESULT:      -4.6      1.790      2.096
REMARK  1 active torsions:
REMARK  status: ('A' for Active; 'I' for Inactive)
REMARK    1  A    between atoms: C2_2  and  C5_5 
ROOT
HETATM    1  C1  UNL     1     -33.154   7.216   4.435  1.00 20.00     0.075 A 
HETATM    2  C2  UNL     1     -33.755   6.130   4.936  1.00 20.00     0.039 A 
HETATM    3  C3  UNL     1     -32.653   7.007   3.070  1.00 20.00     0.209 A 
HETATM    4  C4  UNL     1     -33.826   4.914   4.069  1.00 20.00     0.126 A 
HETATM    5  O6  UNL     1     -32.071   7.850   2.408  1.00 20.00    -0.281 OA
HETATM    6  S10 UNL     1     -33.002   5.381   2.519  1.00 20.00    -0.084 SA
ENDROOT
BRANCH   2   7
HETATM    7  C5  UNL     1     -34.352   6.064   6.303  1.00 20.00     0.414 C 
HETATM    8  F7  UNL     1     -35.585   5.514   6.269  1.00 20.00    -0.166 F 
HETATM    9  F8  UNL     1     -33.593   5.319   7.133  1.00 20.00    -0.166 F 
HETATM   10  F9  UNL     1     -34.468   7.295   6.848  1.00 20.00    -0.166 F 
ENDBRANCH   2   7
TORSDOF 1
ENDMDL
MODEL 7
REMARK VINA RESULT:      -4.6      3.372      3.904
REMARK  1 active torsions:
REMARK  status: ('A' for Active; 'I' for Inactive)
REMARK    1  A    between atoms: C2_2  and  C5_5 
ROOT
HETATM    1  C1  UNL     1     -33.964   6.649   4.920  1.00 20.00     0.075 A 
HETATM    2  C2  UNL     1     -33.081   7.420   4.273  1.00 20.00     0.039 A 
HETATM    3  C3  UNL     1     -34.138   5.335   4.288  1.00 20.00     0.209 A 
HETATM    4  C4  UNL     1     -32.428   6.852   3.053  1.00 20.00     0.126 A 
HETATM    5  O6  UNL     1     -34.888   4.463   4.696  1.00 20.00    -0.281 OA
HETATM    6  S10 UNL     1     -33.124   5.185   2.867  1.00 20.00    -0.084 SA
ENDROOT
BRANCH   2   7
HETATM    7  C5  UNL     1     -32.715   8.803   4.696  1.00 20.00     0.414 C 
HETATM    8  F7  UNL     1     -33.681   9.349   5.466  1.00 20.00    -0.166 F 
HETATM    9  F8  UNL     1     -31.569   8.809   5.410  1.00 20.00    -0.166 F 
HETATM   10  F9  UNL     1     -32.536   9.613   3.630  1.00 20.00    -0.166 F 
ENDBRANCH   2   7
TORSDOF 1
ENDMDL
MODEL 8
REMARK VINA RESULT:      -4.5      2.103      2.639
REMARK  1 active torsions:
REMARK  status: ('A' for Active; 'I' for Inactive)
REMARK    1  A    between atoms: C2_2  and  C5_5 
ROOT
HETATM    1  C1  UNL     1     -33.704   5.350   4.027  1.00 20.00     0.075 A 
HETATM    2  C2  UNL     1     -33.714   6.285   4.985  1.00 20.00     0.039 A 
HETATM    3  C3  UNL     1     -32.983   5.783   2.823  1.00 20.00     0.209 A 
HETATM    4  C4  UNL     1     -33.018   7.577   4.701  1.00 20.00     0.126 A 
HETATM    5  O6  UNL     1     -32.840   5.104   1.819  1.00 20.00    -0.281 OA
HETATM    6  S10 UNL     1     -32.356   7.407   3.019  1.00 20.00    -0.084 SA
ENDROOT
BRANCH   2   7
HETATM    7  C5  UNL     1     -34.377   6.111   6.312  1.00 20.00     0.414 C 
HETATM    8  F7  UNL     1     -35.610   5.578   6.174  1.00 20.00    -0.166 F 
HETATM    9  F8  UNL     1     -33.662   5.291   7.111  1.00 20.00    -0.166 F 
HETATM   10  F9  UNL     1     -34.511   7.293   6.952  1.00 20.00    -0.166 F 
ENDBRANCH   2   7
TORSDOF 1
ENDMDL
MODEL 9
REMARK VINA RESULT:      -4.3      3.421      4.044
REMARK  1 active torsions:
REMARK  status: ('A' for Active; 'I' for Inactive)
REMARK    1  A    between atoms: C2_2  and  C5_5 
ROOT
HETATM    1  C1  UNL     1     -32.630   6.720   3.273  1.00 20.00     0.075 A 
HETATM    2  C2  UNL     1     -33.138   7.349   4.340  1.00 20.00     0.039 A 
HETATM    3  C3  UNL     1     -33.168   5.364   3.106  1.00 20.00     0.209 A 
HETATM    4  C4  UNL     1     -34.138   6.609   5.170  1.00 20.00     0.126 A 
HETATM    5  O6  UNL     1     -32.856   4.600   2.208  1.00 20.00    -0.281 OA
HETATM    6  S10 UNL     1     -34.320   4.988   4.372  1.00 20.00    -0.084 SA
ENDROOT
BRANCH   2   7
HETATM    7  C5  UNL     1     -32.765   8.736   4.745  1.00 20.00     0.414 C 
HETATM    8  F7  UNL     1     -33.734   9.302   5.496  1.00 20.00    -0.166 F 
HETATM    9  F8  UNL     1     -31.627   8.744   5.471  1.00 20.00    -0.166 F 
HETATM   10  F9  UNL     1     -32.569   9.527   3.668  1.00 20.00    -0.166 F 
ENDBRANCH   2   7
TORSDOF 1
ENDMDL
