MODEL 1
REMARK VINA RESULT:      -4.8      0.000      0.000
REMARK  2 active torsions:
REMARK  status: ('A' for Active; 'I' for Inactive)
REMARK    1  A    between atoms: C6_6  and  N11_11 
REMARK    2  A    between atoms: C10_10  and  N11_11 
ROOT
HETATM    1  C1  UNL     1     -32.548   9.139   0.426  1.00 20.00     0.013 C 
HETATM    2  C2  UNL     1     -32.553   8.814   1.582  1.00 20.00    -0.087 C 
HETATM    3  C10 UNL     1     -32.557   8.422   2.994  1.00 20.00     0.362 C 
ENDROOT
BRANCH   3   4
HETATM    4  N11 UNL     1     -32.930   7.021   3.138  1.00 20.00     0.099 N 
HETATM    5  H28 UNL     1     -33.789   6.848   2.616  1.00 20.00     0.317 HD
BRANCH   4   6
HETATM    6  C6  UNL     1     -33.138   6.677   4.535  1.00 20.00     0.229 C 
HETATM    7  C4  UNL     1     -33.434   7.902   5.401  1.00 20.00     0.036 C 
HETATM    8  C3  UNL     1     -34.155   7.352   6.634  1.00 20.00     0.003 C 
HETATM    9  C5  UNL     1     -34.458   5.880   6.342  1.00 20.00     0.011 C 
HETATM   10  C7  UNL     1     -34.321   5.724   4.816  1.00 20.00    -0.017 C 
HETATM   11  C8  UNL     1     -35.629   6.147   4.118  1.00 20.00     0.017 C 
HETATM   12  C9  UNL     1     -34.000   4.276   4.429  1.00 20.00     0.017 C 
ENDBRANCH   4   6
ENDBRANCH   3   4
TORSDOF 2
ENDMDL
MODEL 2
REMARK VINA RESULT:      -4.2      8.850     10.604
REMARK  2 active torsions:
REMARK  status: ('A' for Active; 'I' for Inactive)
REMARK    1  A    between atoms: C6_6  and  N11_11 
REMARK    2  A    between atoms: C10_10  and  N11_11 
ROOT
HETATM    1  C1  UNL     1     -41.604   2.757  -3.974  1.00 20.00     0.013 C 
HETATM    2  C2  UNL     1     -42.238   3.325  -3.128  1.00 20.00    -0.087 C 
HETATM    3  C10 UNL     1     -43.016   4.016  -2.096  1.00 20.00     0.362 C 
ENDROOT
BRANCH   3   4
HETATM    4  N11 UNL     1     -42.176   4.946  -1.354  1.00 20.00     0.099 N 
HETATM    5  H28 UNL     1     -41.378   4.440  -0.967  1.00 20.00     0.317 HD
BRANCH   4   6
HETATM    6  C6  UNL     1     -42.919   5.573  -0.272  1.00 20.00     0.229 C 
HETATM    7  C4  UNL     1     -43.121   4.635   0.918  1.00 20.00     0.036 C 
HETATM    8  C3  UNL     1     -43.382   5.558   2.111  1.00 20.00     0.003 C 
HETATM    9  C5  UNL     1     -43.097   6.983   1.631  1.00 20.00     0.011 C 
HETATM   10  C7  UNL     1     -42.263   6.828   0.346  1.00 20.00    -0.017 C 
HETATM   11  C8  UNL     1     -40.775   6.632   0.697  1.00 20.00     0.017 C 
HETATM   12  C9  UNL     1     -42.400   8.055  -0.561  1.00 20.00     0.017 C 
ENDBRANCH   4   6
ENDBRANCH   3   4
TORSDOF 2
ENDMDL
MODEL 3
REMARK VINA RESULT:      -4.2     11.728     13.303
REMARK  2 active torsions:
REMARK  status: ('A' for Active; 'I' for Inactive)
REMARK    1  A    between atoms: C6_6  and  N11_11 
REMARK    2  A    between atoms: C10_10  and  N11_11 
ROOT
HETATM    1  C1  UNL     1     -33.531  17.112  -1.607  1.00 20.00     0.013 C 
HETATM    2  C2  UNL     1     -33.485  17.742  -2.628  1.00 20.00    -0.087 C 
HETATM    3  C10 UNL     1     -33.429  18.515  -3.871  1.00 20.00     0.362 C 
ENDROOT
BRANCH   3   4
HETATM    4  N11 UNL     1     -33.589  17.643  -5.027  1.00 20.00     0.099 N 
HETATM    5  H28 UNL     1     -33.705  18.215  -5.864  1.00 20.00     0.317 HD
BRANCH   4   6
HETATM    6  C6  UNL     1     -34.746  16.777  -4.872  1.00 20.00     0.229 C 
HETATM    7  C4  UNL     1     -35.960  17.277  -5.656  1.00 20.00     0.036 C 
HETATM    8  C3  UNL     1     -36.844  16.042  -5.850  1.00 20.00     0.003 C 
HETATM    9  C5  UNL     1     -36.020  14.839  -5.384  1.00 20.00     0.011 C 
HETATM   10  C7  UNL     1     -34.559  15.322  -5.358  1.00 20.00    -0.017 C 
HETATM   11  C8  UNL     1     -33.939  15.221  -6.766  1.00 20.00     0.017 C 
HETATM   12  C9  UNL     1     -33.714  14.494  -4.385  1.00 20.00     0.017 C 
ENDBRANCH   4   6
ENDBRANCH   3   4
TORSDOF 2
ENDMDL
MODEL 4
REMARK VINA RESULT:      -4.1      9.523     10.620
REMARK  2 active torsions:
REMARK  status: ('A' for Active; 'I' for Inactive)
REMARK    1  A    between atoms: C6_6  and  N11_11 
REMARK    2  A    between atoms: C10_10  and  N11_11 
ROOT
HETATM    1  C1  UNL     1     -38.912  11.626   3.647  1.00 20.00     0.013 C 
HETATM    2  C2  UNL     1     -39.229  11.821   4.788  1.00 20.00    -0.087 C 
HETATM    3  C10 UNL     1     -39.616  12.055   6.182  1.00 20.00     0.362 C 
ENDROOT
BRANCH   3   4
HETATM    4  N11 UNL     1     -39.600  13.478   6.489  1.00 20.00     0.099 N 
HETATM    5  H28 UNL     1     -39.051  13.631   7.336  1.00 20.00     0.317 HD
BRANCH   4   6
HETATM    6  C6  UNL     1     -40.948  13.985   6.692  1.00 20.00     0.229 C 
HETATM    7  C4  UNL     1     -41.957  12.869   6.964  1.00 20.00     0.036 C 
HETATM    8  C3  UNL     1     -43.122  13.553   7.684  1.00 20.00     0.003 C 
HETATM    9  C5  UNL     1     -42.658  14.975   8.010  1.00 20.00     0.011 C 
HETATM   10  C7  UNL     1     -41.124  14.949   7.887  1.00 20.00    -0.017 C 
HETATM   11  C8  UNL     1     -40.493  14.428   9.193  1.00 20.00     0.017 C 
HETATM   12  C9  UNL     1     -40.563  16.343   7.589  1.00 20.00     0.017 C 
ENDBRANCH   4   6
ENDBRANCH   3   4
TORSDOF 2
ENDMDL
MODEL 5
REMARK VINA RESULT:      -4.0     11.679     13.014
REMARK  2 active torsions:
REMARK  status: ('A' for Active; 'I' for Inactive)
REMARK    1  A    between atoms: C6_6  and  N11_11 
REMARK    2  A    between atoms: C10_10  and  N11_11 
ROOT
HETATM    1  C1  UNL     1     -35.887  14.429  -5.380  1.00 20.00     0.013 C 
HETATM    2  C2  UNL     1     -34.775  14.548  -4.944  1.00 20.00    -0.087 C 
HETATM    3  C10 UNL     1     -33.418  14.689  -4.411  1.00 20.00     0.362 C 
ENDROOT
BRANCH   3   4
HETATM    4  N11 UNL     1     -33.055  16.095  -4.291  1.00 20.00     0.099 N 
HETATM    5  H28 UNL     1     -32.091  16.164  -3.962  1.00 20.00     0.317 HD
BRANCH   4   6
HETATM    6  C6  UNL     1     -33.932  16.783  -3.357  1.00 20.00     0.229 C 
HETATM    7  C4  UNL     1     -33.316  16.914  -1.964  1.00 20.00     0.036 C 
HETATM    8  C3  UNL     1     -34.054  18.086  -1.311  1.00 20.00     0.003 C 
HETATM    9  C5  UNL     1     -34.897  18.736  -2.411  1.00 20.00     0.011 C 
HETATM   10  C7  UNL     1     -34.305  18.233  -3.740  1.00 20.00    -0.017 C 
HETATM   11  C8  UNL     1     -33.091  19.093  -4.142  1.00 20.00     0.017 C 
HETATM   12  C9  UNL     1     -35.341  18.283  -4.868  1.00 20.00     0.017 C 
ENDBRANCH   4   6
ENDBRANCH   3   4
TORSDOF 2
ENDMDL
MODEL 6
REMARK VINA RESULT:      -4.0      9.531     10.505
REMARK  2 active torsions:
REMARK  status: ('A' for Active; 'I' for Inactive)
REMARK    1  A    between atoms: C6_6  and  N11_11 
REMARK    2  A    between atoms: C10_10  and  N11_11 
ROOT
HETATM    1  C1  UNL     1     -38.943  11.728   3.480  1.00 20.00     0.013 C 
HETATM    2  C2  UNL     1     -39.204  11.730   4.652  1.00 20.00    -0.087 C 
HETATM    3  C10 UNL     1     -39.519  11.730   6.082  1.00 20.00     0.362 C 
ENDROOT
BRANCH   3   4
HETATM    4  N11 UNL     1     -40.895  12.155   6.307  1.00 20.00     0.099 N 
HETATM    5  H28 UNL     1     -41.497  11.722   5.606  1.00 20.00     0.317 HD
BRANCH   4   6
HETATM    6  C6  UNL     1     -41.016  13.601   6.219  1.00 20.00     0.229 C 
HETATM    7  C4  UNL     1     -42.048  14.039   5.179  1.00 20.00     0.036 C 
HETATM    8  C3  UNL     1     -42.452  15.456   5.592  1.00 20.00     0.003 C 
HETATM    9  C5  UNL     1     -41.827  15.704   6.968  1.00 20.00     0.011 C 
HETATM   10  C7  UNL     1     -41.466  14.311   7.515  1.00 20.00    -0.017 C 
HETATM   11  C8  UNL     1     -42.698  13.661   8.175  1.00 20.00     0.017 C 
HETATM   12  C9  UNL     1     -40.337  14.393   8.549  1.00 20.00     0.017 C 
ENDBRANCH   4   6
ENDBRANCH   3   4
TORSDOF 2
ENDMDL
MODEL 7
REMARK VINA RESULT:      -4.0     11.834     13.379
REMARK  2 active torsions:
REMARK  status: ('A' for Active; 'I' for Inactive)
REMARK    1  A    between atoms: C6_6  and  N11_11 
REMARK    2  A    between atoms: C10_10  and  N11_11 
ROOT
HETATM    1  C1  UNL     1     -33.615  17.795  -1.098  1.00 20.00     0.013 C 
HETATM    2  C2  UNL     1     -33.470  17.004  -1.990  1.00 20.00    -0.087 C 
HETATM    3  C10 UNL     1     -33.293  16.036  -3.075  1.00 20.00     0.362 C 
ENDROOT
BRANCH   3   4
HETATM    4  N11 UNL     1     -33.298  16.706  -4.369  1.00 20.00     0.099 N 
HETATM    5  H28 UNL     1     -33.692  17.641  -4.260  1.00 20.00     0.317 HD
BRANCH   4   6
HETATM    6  C6  UNL     1     -34.085  15.962  -5.339  1.00 20.00     0.229 C 
HETATM    7  C4  UNL     1     -34.727  14.712  -4.736  1.00 20.00     0.036 C 
HETATM    8  C3  UNL     1     -35.906  14.388  -5.657  1.00 20.00     0.003 C 
HETATM    9  C5  UNL     1     -36.051  15.574  -6.614  1.00 20.00     0.011 C 
HETATM   10  C7  UNL     1     -35.272  16.731  -5.962  1.00 20.00    -0.017 C 
HETATM   11  C8  UNL     1     -36.155  17.446  -4.919  1.00 20.00     0.017 C 
HETATM   12  C9  UNL     1     -34.813  17.754  -7.006  1.00 20.00     0.017 C 
ENDBRANCH   4   6
ENDBRANCH   3   4
TORSDOF 2
ENDMDL
MODEL 8
REMARK VINA RESULT:      -3.9      9.558     10.439
REMARK  2 active torsions:
REMARK  status: ('A' for Active; 'I' for Inactive)
REMARK    1  A    between atoms: C6_6  and  N11_11 
REMARK    2  A    between atoms: C10_10  and  N11_11 
ROOT
HETATM    1  C1  UNL     1     -38.962  11.581   3.782  1.00 20.00     0.013 C 
HETATM    2  C2  UNL     1     -39.111  11.881   4.935  1.00 20.00    -0.087 C 
HETATM    3  C10 UNL     1     -39.291  12.243   6.343  1.00 20.00     0.362 C 
ENDROOT
BRANCH   3   4
HETATM    4  N11 UNL     1     -39.754  13.619   6.466  1.00 20.00     0.099 N 
HETATM    5  H28 UNL     1     -38.947  14.236   6.558  1.00 20.00     0.317 HD
BRANCH   4   6
HETATM    6  C6  UNL     1     -40.615  13.778   7.627  1.00 20.00     0.229 C 
HETATM    7  C4  UNL     1     -40.332  15.070   8.393  1.00 20.00     0.036 C 
HETATM    8  C3  UNL     1     -41.613  15.356   9.180  1.00 20.00     0.003 C 
HETATM    9  C5  UNL     1     -42.665  14.365   8.673  1.00 20.00     0.011 C 
HETATM   10  C7  UNL     1     -42.130  13.844   7.327  1.00 20.00    -0.017 C 
HETATM   11  C8  UNL     1     -42.488  14.827   6.195  1.00 20.00     0.017 C 
HETATM   12  C9  UNL     1     -42.712  12.468   6.989  1.00 20.00     0.017 C 
ENDBRANCH   4   6
ENDBRANCH   3   4
TORSDOF 2
ENDMDL
MODEL 9
REMARK VINA RESULT:      -3.9     14.883     16.128
REMARK  2 active torsions:
REMARK  status: ('A' for Active; 'I' for Inactive)
REMARK    1  A    between atoms: C6_6  and  N11_11 
REMARK    2  A    between atoms: C10_10  and  N11_11 
ROOT
HETATM    1  C1  UNL     1     -26.940  19.011   5.676  1.00 20.00     0.013 C 
HETATM    2  C2  UNL     1     -26.449  19.117   6.767  1.00 20.00    -0.087 C 
HETATM    3  C10 UNL     1     -25.855  19.248   8.100  1.00 20.00     0.362 C 
ENDROOT
BRANCH   3   4
HETATM    4  N11 UNL     1     -24.401  19.194   8.023  1.00 20.00     0.099 N 
HETATM    5  H28 UNL     1     -24.122  18.322   7.572  1.00 20.00     0.317 HD
BRANCH   4   6
HETATM    6  C6  UNL     1     -23.805  19.263   9.347  1.00 20.00     0.229 C 
HETATM    7  C4  UNL     1     -24.740  18.738  10.437  1.00 20.00     0.036 C 
HETATM    8  C3  UNL     1     -23.821  18.358  11.600  1.00 20.00     0.003 C 
HETATM    9  C5  UNL     1     -22.387  18.452  11.072  1.00 20.00     0.011 C 
HETATM   10  C7  UNL     1     -22.510  18.442   9.537  1.00 20.00    -0.017 C 
HETATM   11  C8  UNL     1     -22.621  16.994   9.021  1.00 20.00     0.017 C 
HETATM   12  C9  UNL     1     -21.301  19.111   8.876  1.00 20.00     0.017 C 
ENDBRANCH   4   6
ENDBRANCH   3   4
TORSDOF 2
ENDMDL
