MODEL 1
REMARK VINA RESULT:      -3.8      0.000      0.000
REMARK  3 active torsions:
REMARK  status: ('A' for Active; 'I' for Inactive)
REMARK    1  A    between atoms: C1_1  and  C2_2 
REMARK    2  A    between atoms: C1_1  and  C3_3 
REMARK    3  A    between atoms: C3_3  and  O4_4 
ROOT
HETATM    1  C3  UNL     1     -34.711   5.926   4.635  1.00 20.00     0.216 C 
HETATM    2 CL6  UNL     1     -33.553   5.381   3.402  1.00 20.00    -0.096 Cl
ENDROOT
BRANCH   1   3
HETATM    3  C1  UNL     1     -34.047   6.783   5.706  1.00 20.00     0.079 C 
BRANCH   3   4
HETATM    4  C2  UNL     1     -33.527   8.115   5.194  1.00 20.00     0.226 C 
HETATM    5  F5  UNL     1     -32.209   7.974   4.887  1.00 20.00    -0.255 F 
ENDBRANCH   3   4
ENDBRANCH   1   3
BRANCH   1   6
HETATM    6  O4  UNL     1     -35.280   4.781   5.254  1.00 20.00    -0.380 OA
HETATM    7  H12 UNL     1     -34.857   4.005   4.848  1.00 20.00     0.211 HD
ENDBRANCH   1   6
TORSDOF 3
ENDMDL
MODEL 2
REMARK VINA RESULT:      -3.7      1.700      1.843
REMARK  3 active torsions:
REMARK  status: ('A' for Active; 'I' for Inactive)
REMARK    1  A    between atoms: C1_1  and  C2_2 
REMARK    2  A    between atoms: C1_1  and  C3_3 
REMARK    3  A    between atoms: C3_3  and  O4_4 
ROOT
HETATM    1  C3  UNL     1     -34.265   5.372   3.916  1.00 20.00     0.216 C 
HETATM    2 CL6  UNL     1     -32.950   5.348   2.722  1.00 20.00    -0.096 Cl
ENDROOT
BRANCH   1   3
HETATM    3  C1  UNL     1     -34.152   6.556   4.869  1.00 20.00     0.079 C 
BRANCH   3   4
HETATM    4  C2  UNL     1     -34.418   6.204   6.323  1.00 20.00     0.226 C 
HETATM    5  F5  UNL     1     -34.482   7.358   7.041  1.00 20.00    -0.255 F 
ENDBRANCH   3   4
ENDBRANCH   1   3
BRANCH   1   6
HETATM    6  O4  UNL     1     -34.208   4.170   4.671  1.00 20.00    -0.380 OA
HETATM    7  H12 UNL     1     -33.667   3.545   4.160  1.00 20.00     0.211 HD
ENDBRANCH   1   6
TORSDOF 3
ENDMDL
MODEL 3
REMARK VINA RESULT:      -3.7      2.685      2.956
REMARK  3 active torsions:
REMARK  status: ('A' for Active; 'I' for Inactive)
REMARK    1  A    between atoms: C1_1  and  C2_2 
REMARK    2  A    between atoms: C1_1  and  C3_3 
REMARK    3  A    between atoms: C3_3  and  O4_4 
ROOT
HETATM    1  C3  UNL     1     -33.663   7.648   4.776  1.00 20.00     0.216 C 
HETATM    2 CL6  UNL     1     -32.299   8.786   4.806  1.00 20.00    -0.096 Cl
ENDROOT
BRANCH   1   3
HETATM    3  C1  UNL     1     -33.984   7.102   6.162  1.00 20.00     0.079 C 
BRANCH   3   4
HETATM    4  C2  UNL     1     -34.690   5.756   6.146  1.00 20.00     0.226 C 
HETATM    5  F5  UNL     1     -33.911   4.854   6.803  1.00 20.00    -0.255 F 
ENDBRANCH   3   4
ENDBRANCH   1   3
BRANCH   1   6
HETATM    6  O4  UNL     1     -33.322   6.562   3.925  1.00 20.00    -0.380 OA
HETATM    7  H12 UNL     1     -33.154   5.798   4.502  1.00 20.00     0.211 HD
ENDBRANCH   1   6
TORSDOF 3
ENDMDL
MODEL 4
REMARK VINA RESULT:      -3.6      1.873      1.888
REMARK  3 active torsions:
REMARK  status: ('A' for Active; 'I' for Inactive)
REMARK    1  A    between atoms: C1_1  and  C2_2 
REMARK    2  A    between atoms: C1_1  and  C3_3 
REMARK    3  A    between atoms: C3_3  and  O4_4 
ROOT
HETATM    1  C3  UNL     1     -34.379   5.946   4.913  1.00 20.00     0.216 C 
HETATM    2 CL6  UNL     1     -34.288   5.294   6.563  1.00 20.00    -0.096 Cl
ENDROOT
BRANCH   1   3
HETATM    3  C1  UNL     1     -33.927   7.400   4.845  1.00 20.00     0.079 C 
BRANCH   3   4
HETATM    4  C2  UNL     1     -32.697   7.623   3.981  1.00 20.00     0.226 C 
HETATM    5  F5  UNL     1     -32.551   6.552   3.155  1.00 20.00    -0.255 F 
ENDBRANCH   3   4
ENDBRANCH   1   3
BRANCH   1   6
HETATM    6  O4  UNL     1     -35.728   5.866   4.473  1.00 20.00    -0.380 OA
HETATM    7  H12 UNL     1     -36.282   5.863   5.271  1.00 20.00     0.211 HD
ENDBRANCH   1   6
TORSDOF 3
ENDMDL
MODEL 5
REMARK VINA RESULT:      -3.6      3.013      3.389
REMARK  3 active torsions:
REMARK  status: ('A' for Active; 'I' for Inactive)
REMARK    1  A    between atoms: C1_1  and  C2_2 
REMARK    2  A    between atoms: C1_1  and  C3_3 
REMARK    3  A    between atoms: C3_3  and  O4_4 
ROOT
HETATM    1  C3  UNL     1     -33.702   7.502   5.021  1.00 20.00     0.216 C 
HETATM    2 CL6  UNL     1     -34.237   7.092   6.665  1.00 20.00    -0.096 Cl
ENDROOT
BRANCH   1   3
HETATM    3  C1  UNL     1     -33.736   6.295   4.090  1.00 20.00     0.079 C 
BRANCH   3   4
HETATM    4  C2  UNL     1     -34.596   5.150   4.598  1.00 20.00     0.226 C 
HETATM    5  F5  UNL     1     -33.939   3.982   4.363  1.00 20.00    -0.255 F 
ENDBRANCH   3   4
ENDBRANCH   1   3
BRANCH   1   6
HETATM    6  O4  UNL     1     -32.369   7.987   5.090  1.00 20.00    -0.380 OA
HETATM    7  H12 UNL     1     -32.291   8.686   4.419  1.00 20.00     0.211 HD
ENDBRANCH   1   6
TORSDOF 3
ENDMDL
MODEL 6
REMARK VINA RESULT:      -3.6      1.618      1.638
REMARK  3 active torsions:
REMARK  status: ('A' for Active; 'I' for Inactive)
REMARK    1  A    between atoms: C1_1  and  C2_2 
REMARK    2  A    between atoms: C1_1  and  C3_3 
REMARK    3  A    between atoms: C3_3  and  O4_4 
ROOT
HETATM    1  C3  UNL     1     -34.377   6.042   4.958  1.00 20.00     0.216 C 
HETATM    2 CL6  UNL     1     -34.253   5.276   6.557  1.00 20.00    -0.096 Cl
ENDROOT
BRANCH   1   3
HETATM    3  C1  UNL     1     -34.049   7.529   5.008  1.00 20.00     0.079 C 
BRANCH   3   4
HETATM    4  C2  UNL     1     -32.695   7.882   4.415  1.00 20.00     0.226 C 
HETATM    5  F5  UNL     1     -32.213   8.976   5.065  1.00 20.00    -0.255 F 
ENDBRANCH   3   4
ENDBRANCH   1   3
BRANCH   1   6
HETATM    6  O4  UNL     1     -35.708   5.883   4.486  1.00 20.00    -0.380 OA
HETATM    7  H12 UNL     1     -35.956   4.959   4.657  1.00 20.00     0.211 HD
ENDBRANCH   1   6
TORSDOF 3
ENDMDL
MODEL 7
REMARK VINA RESULT:      -3.5      2.970      3.193
REMARK  3 active torsions:
REMARK  status: ('A' for Active; 'I' for Inactive)
REMARK    1  A    between atoms: C1_1  and  C2_2 
REMARK    2  A    between atoms: C1_1  and  C3_3 
REMARK    3  A    between atoms: C3_3  and  O4_4 
ROOT
HETATM    1  C3  UNL     1     -32.549   7.785   4.572  1.00 20.00     0.216 C 
HETATM    2 CL6  UNL     1     -32.250   7.620   2.828  1.00 20.00    -0.096 Cl
ENDROOT
BRANCH   1   3
HETATM    3  C1  UNL     1     -33.943   7.308   4.962  1.00 20.00     0.079 C 
BRANCH   3   4
HETATM    4  C2  UNL     1     -34.067   6.889   6.417  1.00 20.00     0.226 C 
HETATM    5  F5  UNL     1     -34.894   5.810   6.485  1.00 20.00    -0.255 F 
ENDBRANCH   3   4
ENDBRANCH   1   3
BRANCH   1   6
HETATM    6  O4  UNL     1     -32.421   9.156   4.922  1.00 20.00    -0.380 OA
HETATM    7  H12 UNL     1     -33.305   9.550   4.832  1.00 20.00     0.211 HD
ENDBRANCH   1   6
TORSDOF 3
ENDMDL
MODEL 8
REMARK VINA RESULT:      -3.5      3.139      3.482
REMARK  3 active torsions:
REMARK  status: ('A' for Active; 'I' for Inactive)
REMARK    1  A    between atoms: C1_1  and  C2_2 
REMARK    2  A    between atoms: C1_1  and  C3_3 
REMARK    3  A    between atoms: C3_3  and  O4_4 
ROOT
HETATM    1  C3  UNL     1     -33.107   7.849   4.510  1.00 20.00     0.216 C 
HETATM    2 CL6  UNL     1     -33.929   6.896   5.765  1.00 20.00    -0.096 Cl
ENDROOT
BRANCH   1   3
HETATM    3  C1  UNL     1     -32.587   6.974   3.376  1.00 20.00     0.079 C 
BRANCH   3   4
HETATM    4  C2  UNL     1     -33.290   5.633   3.259  1.00 20.00     0.226 C 
HETATM    5  F5  UNL     1     -32.604   4.862   2.373  1.00 20.00    -0.255 F 
ENDBRANCH   3   4
ENDBRANCH   1   3
BRANCH   1   6
HETATM    6  O4  UNL     1     -32.008   8.524   5.107  1.00 20.00    -0.380 OA
HETATM    7  H12 UNL     1     -31.983   8.247   6.038  1.00 20.00     0.211 HD
ENDBRANCH   1   6
TORSDOF 3
ENDMDL
MODEL 9
REMARK VINA RESULT:      -3.4      2.604      2.986
REMARK  3 active torsions:
REMARK  status: ('A' for Active; 'I' for Inactive)
REMARK    1  A    between atoms: C1_1  and  C2_2 
REMARK    2  A    between atoms: C1_1  and  C3_3 
REMARK    3  A    between atoms: C3_3  and  O4_4 
ROOT
HETATM    1  C3  UNL     1     -33.273   7.402   5.409  1.00 20.00     0.216 C 
HETATM    2 CL6  UNL     1     -32.832   7.048   3.724  1.00 20.00    -0.096 Cl
ENDROOT
BRANCH   1   3
HETATM    3  C1  UNL     1     -34.315   6.429   5.945  1.00 20.00     0.079 C 
BRANCH   3   4
HETATM    4  C2  UNL     1     -34.827   5.442   4.910  1.00 20.00     0.226 C 
HETATM    5  F5  UNL     1     -35.950   5.958   4.341  1.00 20.00    -0.255 F 
ENDBRANCH   3   4
ENDBRANCH   1   3
BRANCH   1   6
HETATM    6  O4  UNL     1     -33.805   8.719   5.466  1.00 20.00    -0.380 OA
HETATM    7  H12 UNL     1     -33.049   9.327   5.418  1.00 20.00     0.211 HD
ENDBRANCH   1   6
TORSDOF 3
ENDMDL
