MODEL 1
REMARK VINA RESULT:      -5.3      0.000      0.000
REMARK  0 active torsions:
REMARK  status: ('A' for Active; 'I' for Inactive)
ROOT
HETATM    1  C1  UNL     1     -33.514   7.046   4.493  1.00 20.00    -0.081 C 
HETATM    2  C2  UNL     1     -33.590   8.228   5.119  1.00 20.00     0.015 C 
HETATM    3  C3  UNL     1     -32.534   6.763   3.386  1.00 20.00     0.034 C 
HETATM    4  C4  UNL     1     -33.081   5.495   2.747  1.00 20.00     0.005 C 
HETATM    5  C5  UNL     1     -33.701   4.741   3.917  1.00 20.00     0.013 C 
HETATM    6  C6  UNL     1     -34.389   5.832   4.764  1.00 20.00    -0.025 C 
HETATM    7  C7  UNL     1     -35.824   6.076   4.271  1.00 20.00     0.019 C 
HETATM    8  C8  UNL     1     -34.414   5.419   6.241  1.00 20.00     0.019 C 
ENDROOT
TORSDOF 0
ENDMDL
MODEL 2
REMARK VINA RESULT:      -5.1      0.765      2.602
REMARK  0 active torsions:
REMARK  status: ('A' for Active; 'I' for Inactive)
ROOT
HETATM    1  C1  UNL     1     -33.168   6.329   3.670  1.00 20.00    -0.081 C 
HETATM    2  C2  UNL     1     -32.998   5.247   2.900  1.00 20.00     0.015 C 
HETATM    3  C3  UNL     1     -32.331   7.573   3.536  1.00 20.00     0.034 C 
HETATM    4  C4  UNL     1     -32.606   8.325   4.829  1.00 20.00     0.005 C 
HETATM    5  C5  UNL     1     -34.055   7.977   5.146  1.00 20.00     0.013 C 
HETATM    6  C6  UNL     1     -34.184   6.481   4.792  1.00 20.00    -0.025 C 
HETATM    7  C7  UNL     1     -33.799   5.604   5.995  1.00 20.00     0.019 C 
HETATM    8  C8  UNL     1     -35.619   6.160   4.358  1.00 20.00     0.019 C 
ENDROOT
TORSDOF 0
ENDMDL
MODEL 3
REMARK VINA RESULT:      -4.5      0.784      2.581
REMARK  0 active torsions:
REMARK  status: ('A' for Active; 'I' for Inactive)
ROOT
HETATM    1  C1  UNL     1     -34.250   6.053   5.973  1.00 20.00    -0.081 C 
HETATM    2  C2  UNL     1     -34.741   5.161   6.843  1.00 20.00     0.015 C 
HETATM    3  C3  UNL     1     -33.535   7.308   6.398  1.00 20.00     0.034 C 
HETATM    4  C4  UNL     1     -33.533   8.156   5.136  1.00 20.00     0.005 C 
HETATM    5  C5  UNL     1     -33.430   7.132   4.013  1.00 20.00     0.013 C 
HETATM    6  C6  UNL     1     -34.346   5.972   4.457  1.00 20.00    -0.025 C 
HETATM    7  C7  UNL     1     -35.790   6.213   3.991  1.00 20.00     0.019 C 
HETATM    8  C8  UNL     1     -33.834   4.644   3.887  1.00 20.00     0.019 C 
ENDROOT
TORSDOF 0
ENDMDL
MODEL 4
REMARK VINA RESULT:      -4.3      1.158      2.930
REMARK  0 active torsions:
REMARK  status: ('A' for Active; 'I' for Inactive)
ROOT
HETATM    1  C1  UNL     1     -33.633   5.886   4.125  1.00 20.00    -0.081 C 
HETATM    2  C2  UNL     1     -33.262   5.640   2.862  1.00 20.00     0.015 C 
HETATM    3  C3  UNL     1     -34.130   4.816   5.061  1.00 20.00     0.034 C 
HETATM    4  C4  UNL     1     -34.786   5.605   6.183  1.00 20.00     0.005 C 
HETATM    5  C5  UNL     1     -33.943   6.871   6.274  1.00 20.00     0.013 C 
HETATM    6  C6  UNL     1     -33.643   7.246   4.807  1.00 20.00    -0.025 C 
HETATM    7  C7  UNL     1     -34.761   8.132   4.235  1.00 20.00     0.019 C 
HETATM    8  C8  UNL     1     -32.301   7.982   4.712  1.00 20.00     0.019 C 
ENDROOT
TORSDOF 0
ENDMDL
MODEL 5
REMARK VINA RESULT:      -4.3      0.984      2.462
REMARK  0 active torsions:
REMARK  status: ('A' for Active; 'I' for Inactive)
ROOT
HETATM    1  C1  UNL     1     -33.914   7.159   5.068  1.00 20.00    -0.081 C 
HETATM    2  C2  UNL     1     -33.599   8.244   4.349  1.00 20.00     0.015 C 
HETATM    3  C3  UNL     1     -33.541   6.997   6.518  1.00 20.00     0.034 C 
HETATM    4  C4  UNL     1     -33.740   5.510   6.769  1.00 20.00     0.005 C 
HETATM    5  C5  UNL     1     -34.910   5.146   5.864  1.00 20.00     0.013 C 
HETATM    6  C6  UNL     1     -34.657   5.932   4.561  1.00 20.00    -0.025 C 
HETATM    7  C7  UNL     1     -33.772   5.120   3.602  1.00 20.00     0.019 C 
HETATM    8  C8  UNL     1     -35.987   6.268   3.876  1.00 20.00     0.019 C 
ENDROOT
TORSDOF 0
ENDMDL
MODEL 6
REMARK VINA RESULT:      -3.8     15.845     17.311
REMARK  0 active torsions:
REMARK  status: ('A' for Active; 'I' for Inactive)
ROOT
HETATM    1  C1  UNL     1     -23.919  18.875   9.909  1.00 20.00    -0.081 C 
HETATM    2  C2  UNL     1     -24.994  19.131   9.152  1.00 20.00     0.015 C 
HETATM    3  C3  UNL     1     -22.517  19.235   9.494  1.00 20.00     0.034 C 
HETATM    4  C4  UNL     1     -21.650  18.416  10.437  1.00 20.00     0.005 C 
HETATM    5  C5  UNL     1     -22.461  18.370  11.725  1.00 20.00     0.013 C 
HETATM    6  C6  UNL     1     -23.920  18.179  11.261  1.00 20.00    -0.025 C 
HETATM    7  C7  UNL     1     -24.246  16.685  11.102  1.00 20.00     0.019 C 
HETATM    8  C8  UNL     1     -24.886  18.813  12.269  1.00 20.00     0.019 C 
ENDROOT
TORSDOF 0
ENDMDL
MODEL 7
REMARK VINA RESULT:      -3.5      8.274      9.072
REMARK  0 active torsions:
REMARK  status: ('A' for Active; 'I' for Inactive)
ROOT
HETATM    1  C1  UNL     1     -42.359   6.946   1.072  1.00 20.00    -0.081 C 
HETATM    2  C2  UNL     1     -43.417   7.263   1.830  1.00 20.00     0.015 C 
HETATM    3  C3  UNL     1     -41.265   7.924   0.737  1.00 20.00     0.034 C 
HETATM    4  C4  UNL     1     -40.541   7.259  -0.423  1.00 20.00     0.005 C 
HETATM    5  C5  UNL     1     -40.661   5.772  -0.118  1.00 20.00     0.013 C 
HETATM    6  C6  UNL     1     -42.097   5.597   0.419  1.00 20.00    -0.025 C 
HETATM    7  C7  UNL     1     -43.081   5.353  -0.736  1.00 20.00     0.019 C 
HETATM    8  C8  UNL     1     -42.156   4.424   1.405  1.00 20.00     0.019 C 
ENDROOT
TORSDOF 0
ENDMDL
MODEL 8
REMARK VINA RESULT:      -3.4     12.522     13.537
REMARK  0 active torsions:
REMARK  status: ('A' for Active; 'I' for Inactive)
ROOT
HETATM    1  C1  UNL     1     -34.915  16.654  -4.855  1.00 20.00    -0.081 C 
HETATM    2  C2  UNL     1     -35.725  17.562  -5.414  1.00 20.00     0.015 C 
HETATM    3  C3  UNL     1     -34.031  16.956  -3.674  1.00 20.00     0.034 C 
HETATM    4  C4  UNL     1     -33.047  15.796  -3.664  1.00 20.00     0.005 C 
HETATM    5  C5  UNL     1     -33.870  14.621  -4.178  1.00 20.00     0.013 C 
HETATM    6  C6  UNL     1     -34.732  15.215  -5.312  1.00 20.00    -0.025 C 
HETATM    7  C7  UNL     1     -33.978  15.162  -6.650  1.00 20.00     0.019 C 
HETATM    8  C8  UNL     1     -36.053  14.444  -5.434  1.00 20.00     0.019 C 
ENDROOT
TORSDOF 0
ENDMDL
MODEL 9
REMARK VINA RESULT:      -3.3      8.291      9.789
REMARK  0 active torsions:
REMARK  status: ('A' for Active; 'I' for Inactive)
ROOT
HETATM    1  C1  UNL     1     -42.443   5.776   1.139  1.00 20.00    -0.081 C 
HETATM    2  C2  UNL     1     -42.303   4.637   1.829  1.00 20.00     0.015 C 
HETATM    3  C3  UNL     1     -43.186   6.973   1.670  1.00 20.00     0.034 C 
HETATM    4  C4  UNL     1     -43.417   7.822   0.431  1.00 20.00     0.005 C 
HETATM    5  C5  UNL     1     -42.185   7.556  -0.424  1.00 20.00     0.013 C 
HETATM    6  C6  UNL     1     -41.916   6.045  -0.262  1.00 20.00    -0.025 C 
HETATM    7  C7  UNL     1     -42.708   5.239  -1.304  1.00 20.00     0.019 C 
HETATM    8  C8  UNL     1     -40.419   5.754  -0.414  1.00 20.00     0.019 C 
ENDROOT
TORSDOF 0
ENDMDL
