MODEL 1
REMARK VINA RESULT:      -4.4      0.000      0.000
REMARK  0 active torsions:
REMARK  status: ('A' for Active; 'I' for Inactive)
ROOT
HETATM    1  C1  UNL     1     -32.232   7.377   2.012  1.00 20.00     0.088 C 
HETATM    2  C2  UNL     1     -33.591   6.622   3.852  1.00 20.00    -0.062 C 
HETATM    3  C3  UNL     1     -32.842   6.349   2.770  1.00 20.00     0.097 C 
HETATM    4  C4  UNL     1     -33.788   8.065   4.274  1.00 20.00     0.036 C 
HETATM    5  C5  UNL     1     -33.402   8.275   5.735  1.00 20.00     0.004 C 
HETATM    6  C6  UNL     1     -34.130   7.302   6.657  1.00 20.00     0.001 C 
HETATM    7  C7  UNL     1     -33.905   5.852   6.224  1.00 20.00     0.013 C 
HETATM    8  C8  UNL     1     -34.270   5.569   4.742  1.00 20.00    -0.024 C 
HETATM    9  C9  UNL     1     -33.836   4.118   4.432  1.00 20.00     0.019 C 
HETATM   10  C10 UNL     1     -35.799   5.636   4.541  1.00 20.00     0.019 C 
HETATM   11  N11 UNL     1     -31.727   8.213   1.386  1.00 20.00    -0.192 NA
ENDROOT
TORSDOF 0
ENDMDL
MODEL 2
REMARK VINA RESULT:      -4.1      9.719     10.679
REMARK  0 active torsions:
REMARK  status: ('A' for Active; 'I' for Inactive)
ROOT
HETATM    1  C1  UNL     1     -39.299  12.144   5.651  1.00 20.00     0.088 C 
HETATM    2  C2  UNL     1     -41.175  13.175   6.756  1.00 20.00    -0.062 C 
HETATM    3  C3  UNL     1     -40.645  12.137   6.087  1.00 20.00     0.097 C 
HETATM    4  C4  UNL     1     -40.311  14.385   7.053  1.00 20.00     0.036 C 
HETATM    5  C5  UNL     1     -40.316  14.722   8.540  1.00 20.00     0.004 C 
HETATM    6  C6  UNL     1     -41.735  14.884   9.077  1.00 20.00     0.001 C 
HETATM    7  C7  UNL     1     -42.586  13.647   8.782  1.00 20.00     0.013 C 
HETATM    8  C8  UNL     1     -42.616  13.241   7.284  1.00 20.00    -0.024 C 
HETATM    9  C9  UNL     1     -43.377  11.898   7.188  1.00 20.00     0.019 C 
HETATM   10  C10 UNL     1     -43.417  14.273   6.462  1.00 20.00     0.019 C 
HETATM   11  N11 UNL     1     -38.196  12.142   5.290  1.00 20.00    -0.192 NA
ENDROOT
TORSDOF 0
ENDMDL
MODEL 3
REMARK VINA RESULT:      -4.1      1.661      2.228
REMARK  0 active torsions:
REMARK  status: ('A' for Active; 'I' for Inactive)
ROOT
HETATM    1  C1  UNL     1     -32.135   8.991   4.668  1.00 20.00     0.088 C 
HETATM    2  C2  UNL     1     -33.585   7.067   4.624  1.00 20.00    -0.062 C 
HETATM    3  C3  UNL     1     -32.634   7.821   4.047  1.00 20.00     0.097 C 
HETATM    4  C4  UNL     1     -34.140   7.478   5.974  1.00 20.00     0.036 C 
HETATM    5  C5  UNL     1     -34.042   6.340   6.985  1.00 20.00     0.004 C 
HETATM    6  C6  UNL     1     -34.691   5.063   6.461  1.00 20.00     0.001 C 
HETATM    7  C7  UNL     1     -34.107   4.657   5.108  1.00 20.00     0.013 C 
HETATM    8  C8  UNL     1     -34.165   5.775   4.031  1.00 20.00    -0.024 C 
HETATM    9  C9  UNL     1     -33.398   5.257   2.792  1.00 20.00     0.019 C 
HETATM   10  C10 UNL     1     -35.623   6.021   3.589  1.00 20.00     0.019 C 
HETATM   11  N11 UNL     1     -31.721   9.951   5.171  1.00 20.00    -0.192 NA
ENDROOT
TORSDOF 0
ENDMDL
MODEL 4
REMARK VINA RESULT:      -3.9     12.098     13.967
REMARK  0 active torsions:
REMARK  status: ('A' for Active; 'I' for Inactive)
ROOT
HETATM    1  C1  UNL     1     -35.886  15.426  -6.217  1.00 20.00     0.088 C 
HETATM    2  C2  UNL     1     -34.846  17.059  -4.783  1.00 20.00    -0.062 C 
HETATM    3  C3  UNL     1     -35.856  16.695  -5.591  1.00 20.00     0.097 C 
HETATM    4  C4  UNL     1     -33.708  16.088  -4.535  1.00 20.00     0.036 C 
HETATM    5  C5  UNL     1     -33.485  15.862  -3.043  1.00 20.00     0.004 C 
HETATM    6  C6  UNL     1     -33.292  17.178  -2.296  1.00 20.00     0.001 C 
HETATM    7  C7  UNL     1     -34.457  18.137  -2.546  1.00 20.00     0.013 C 
HETATM    8  C8  UNL     1     -34.746  18.404  -4.048  1.00 20.00    -0.024 C 
HETATM    9  C9  UNL     1     -36.036  19.253  -4.122  1.00 20.00     0.019 C 
HETATM   10  C10 UNL     1     -33.614  19.248  -4.673  1.00 20.00     0.019 C 
HETATM   11  N11 UNL     1     -35.917  14.388  -6.734  1.00 20.00    -0.192 NA
ENDROOT
TORSDOF 0
ENDMDL
MODEL 5
REMARK VINA RESULT:      -3.8     12.321     14.095
REMARK  0 active torsions:
REMARK  status: ('A' for Active; 'I' for Inactive)
ROOT
HETATM    1  C1  UNL     1     -32.603  18.964  -2.582  1.00 20.00     0.088 C 
HETATM    2  C2  UNL     1     -33.938  17.645  -4.092  1.00 20.00    -0.062 C 
HETATM    3  C3  UNL     1     -33.397  18.825  -3.745  1.00 20.00     0.097 C 
HETATM    4  C4  UNL     1     -33.693  16.431  -3.218  1.00 20.00     0.036 C 
HETATM    5  C5  UNL     1     -33.128  15.267  -4.026  1.00 20.00     0.004 C 
HETATM    6  C6  UNL     1     -34.003  14.940  -5.232  1.00 20.00     0.001 C 
HETATM    7  C7  UNL     1     -34.225  16.173  -6.109  1.00 20.00     0.013 C 
HETATM    8  C8  UNL     1     -34.791  17.401  -5.346  1.00 20.00    -0.024 C 
HETATM    9  C9  UNL     1     -34.802  18.590  -6.334  1.00 20.00     0.019 C 
HETATM   10  C10 UNL     1     -36.256  17.148  -4.929  1.00 20.00     0.019 C 
HETATM   11  N11 UNL     1     -31.951  19.087  -1.630  1.00 20.00    -0.192 NA
ENDROOT
TORSDOF 0
ENDMDL
MODEL 6
REMARK VINA RESULT:      -3.8     11.823     13.522
REMARK  0 active torsions:
REMARK  status: ('A' for Active; 'I' for Inactive)
ROOT
HETATM    1  C1  UNL     1     -33.052  17.129  -2.235  1.00 20.00     0.088 C 
HETATM    2  C2  UNL     1     -34.184  16.409  -4.237  1.00 20.00    -0.062 C 
HETATM    3  C3  UNL     1     -33.629  16.123  -3.047  1.00 20.00     0.097 C 
HETATM    4  C4  UNL     1     -34.194  17.845  -4.725  1.00 20.00     0.036 C 
HETATM    5  C5  UNL     1     -35.603  18.298  -5.091  1.00 20.00     0.004 C 
HETATM    6  C6  UNL     1     -36.260  17.347  -6.088  1.00 20.00     0.001 C 
HETATM    7  C7  UNL     1     -36.254  15.908  -5.570  1.00 20.00     0.013 C 
HETATM    8  C8  UNL     1     -34.849  15.385  -5.168  1.00 20.00    -0.024 C 
HETATM    9  C9  UNL     1     -35.046  13.992  -4.525  1.00 20.00     0.019 C 
HETATM   10  C10 UNL     1     -33.971  15.183  -6.421  1.00 20.00     0.019 C 
HETATM   11  N11 UNL     1     -32.578  17.948  -1.564  1.00 20.00    -0.192 NA
ENDROOT
TORSDOF 0
ENDMDL
MODEL 7
REMARK VINA RESULT:      -3.7      9.887     11.005
REMARK  0 active torsions:
REMARK  status: ('A' for Active; 'I' for Inactive)
ROOT
HETATM    1  C1  UNL     1     -39.510  12.119   5.175  1.00 20.00     0.088 C 
HETATM    2  C2  UNL     1     -40.981  13.506   6.485  1.00 20.00    -0.062 C 
HETATM    3  C3  UNL     1     -39.838  12.811   6.366  1.00 20.00     0.097 C 
HETATM    4  C4  UNL     1     -41.946  13.554   5.317  1.00 20.00     0.036 C 
HETATM    5  C5  UNL     1     -42.290  14.992   4.938  1.00 20.00     0.004 C 
HETATM    6  C6  UNL     1     -42.799  15.784   6.137  1.00 20.00     0.001 C 
HETATM    7  C7  UNL     1     -41.806  15.737   7.299  1.00 20.00     0.013 C 
HETATM    8  C8  UNL     1     -41.403  14.301   7.730  1.00 20.00    -0.024 C 
HETATM    9  C9  UNL     1     -40.287  14.437   8.791  1.00 20.00     0.019 C 
HETATM   10  C10 UNL     1     -42.591  13.591   8.414  1.00 20.00     0.019 C 
HETATM   11  N11 UNL     1     -39.234  11.551   4.202  1.00 20.00    -0.192 NA
ENDROOT
TORSDOF 0
ENDMDL
MODEL 8
REMARK VINA RESULT:      -3.7     12.500     13.980
REMARK  0 active torsions:
REMARK  status: ('A' for Active; 'I' for Inactive)
ROOT
HETATM    1  C1  UNL     1     -37.279  16.763  -5.945  1.00 20.00     0.088 C 
HETATM    2  C2  UNL     1     -35.221  17.083  -4.735  1.00 20.00    -0.062 C 
HETATM    3  C3  UNL     1     -36.518  17.378  -4.923  1.00 20.00     0.097 C 
HETATM    4  C4  UNL     1     -34.553  16.066  -5.640  1.00 20.00     0.036 C 
HETATM    5  C5  UNL     1     -33.883  14.958  -4.832  1.00 20.00     0.004 C 
HETATM    6  C6  UNL     1     -32.920  15.523  -3.793  1.00 20.00     0.001 C 
HETATM    7  C7  UNL     1     -33.616  16.534  -2.881  1.00 20.00     0.013 C 
HETATM    8  C8  UNL     1     -34.329  17.686  -3.640  1.00 20.00    -0.024 C 
HETATM    9  C9  UNL     1     -35.105  18.515  -2.590  1.00 20.00     0.019 C 
HETATM   10  C10 UNL     1     -33.292  18.631  -4.283  1.00 20.00     0.019 C 
HETATM   11  N11 UNL     1     -37.910  16.263  -6.780  1.00 20.00    -0.192 NA
ENDROOT
TORSDOF 0
ENDMDL
MODEL 9
REMARK VINA RESULT:      -3.5     12.455     13.981
REMARK  0 active torsions:
REMARK  status: ('A' for Active; 'I' for Inactive)
ROOT
HETATM    1  C1  UNL     1     -37.301  18.981  -3.534  1.00 20.00     0.088 C 
HETATM    2  C2  UNL     1     -35.053  18.298  -3.001  1.00 20.00    -0.062 C 
HETATM    3  C3  UNL     1     -36.219  18.856  -2.631  1.00 20.00     0.097 C 
HETATM    4  C4  UNL     1     -34.892  17.789  -4.419  1.00 20.00     0.036 C 
HETATM    5  C5  UNL     1     -34.438  16.333  -4.439  1.00 20.00     0.004 C 
HETATM    6  C6  UNL     1     -33.178  16.123  -3.606  1.00 20.00     0.001 C 
HETATM    7  C7  UNL     1     -33.366  16.628  -2.175  1.00 20.00     0.013 C 
HETATM    8  C8  UNL     1     -33.839  18.105  -2.081  1.00 20.00    -0.024 C 
HETATM    9  C9  UNL     1     -34.130  18.398  -0.591  1.00 20.00     0.019 C 
HETATM   10  C10 UNL     1     -32.707  19.061  -2.516  1.00 20.00     0.019 C 
HETATM   11  N11 UNL     1     -38.194  19.086  -4.268  1.00 20.00    -0.192 NA
ENDROOT
TORSDOF 0
ENDMDL
