MODEL 1
REMARK VINA RESULT:      -3.6      0.000      0.000
REMARK  0 active torsions:
REMARK  status: ('A' for Active; 'I' for Inactive)
ROOT
HETATM    1  C1  UNL     1     -34.378  15.477  -7.043  1.00 20.00     0.086 C 
HETATM    2  C2  UNL     1     -34.187  14.388  -4.168  1.00 20.00     0.003 C 
HETATM    3  C3  UNL     1     -33.668  15.623  -3.444  1.00 20.00     0.001 C 
HETATM    4  C4  UNL     1     -35.453  14.680  -4.977  1.00 20.00     0.042 C 
HETATM    5  C5  UNL     1     -33.486  16.810  -4.388  1.00 20.00     0.012 C 
HETATM    6  C6  UNL     1     -35.283  15.873  -5.940  1.00 20.00     0.132 C 
HETATM    7  C7  UNL     1     -34.769  17.160  -5.195  1.00 20.00    -0.013 C 
HETATM    8  C8  UNL     1     -34.418  18.308  -6.174  1.00 20.00     0.018 C 
HETATM    9  C9  UNL     1     -35.829  17.727  -4.215  1.00 20.00     0.018 C 
HETATM   10  N10 UNL     1     -33.667  15.167  -7.907  1.00 20.00    -0.195 NA
HETATM   11 CL11 UNL     1     -36.872  16.159  -6.754  1.00 20.00    -0.102 Cl
ENDROOT
TORSDOF 0
ENDMDL
MODEL 2
REMARK VINA RESULT:      -3.4      2.092      3.202
REMARK  0 active torsions:
REMARK  status: ('A' for Active; 'I' for Inactive)
ROOT
HETATM    1  C1  UNL     1     -35.841  17.669  -4.640  1.00 20.00     0.086 C 
HETATM    2  C2  UNL     1     -33.678  15.838  -3.434  1.00 20.00     0.003 C 
HETATM    3  C3  UNL     1     -34.000  14.531  -4.147  1.00 20.00     0.001 C 
HETATM    4  C4  UNL     1     -33.484  17.000  -4.412  1.00 20.00     0.042 C 
HETATM    5  C5  UNL     1     -35.178  14.676  -5.110  1.00 20.00     0.012 C 
HETATM    6  C6  UNL     1     -34.668  17.162  -5.387  1.00 20.00     0.132 C 
HETATM    7  C7  UNL     1     -34.992  15.822  -6.145  1.00 20.00    -0.013 C 
HETATM    8  C8  UNL     1     -36.289  15.919  -6.986  1.00 20.00     0.018 C 
HETATM    9  C9  UNL     1     -33.860  15.421  -7.127  1.00 20.00     0.018 C 
HETATM   10  N10 UNL     1     -36.761  18.066  -4.054  1.00 20.00    -0.195 NA
HETATM   11 CL11 UNL     1     -34.262  18.500  -6.533  1.00 20.00    -0.102 Cl
ENDROOT
TORSDOF 0
ENDMDL
MODEL 3
REMARK VINA RESULT:      -3.3     14.084     14.862
REMARK  0 active torsions:
REMARK  status: ('A' for Active; 'I' for Inactive)
ROOT
HETATM    1  C1  UNL     1     -40.832  12.656   6.374  1.00 20.00     0.086 C 
HETATM    2  C2  UNL     1     -43.415  12.170   7.980  1.00 20.00     0.003 C 
HETATM    3  C3  UNL     1     -43.258  13.222   9.072  1.00 20.00     0.001 C 
HETATM    4  C4  UNL     1     -43.283  12.767   6.577  1.00 20.00     0.042 C 
HETATM    5  C5  UNL     1     -41.972  14.031   8.909  1.00 20.00     0.012 C 
HETATM    6  C6  UNL     1     -41.986  13.583   6.396  1.00 20.00     0.132 C 
HETATM    7  C7  UNL     1     -41.828  14.687   7.507  1.00 20.00    -0.013 C 
HETATM    8  C8  UNL     1     -40.448  15.389   7.449  1.00 20.00     0.018 C 
HETATM    9  C9  UNL     1     -42.895  15.804   7.372  1.00 20.00     0.018 C 
HETATM   10  N10 UNL     1     -39.927  11.929   6.358  1.00 20.00    -0.195 NA
HETATM   11 CL11 UNL     1     -42.009  14.299   4.736  1.00 20.00    -0.102 Cl
ENDROOT
TORSDOF 0
ENDMDL
MODEL 4
REMARK VINA RESULT:      -3.1     13.855     14.828
REMARK  0 active torsions:
REMARK  status: ('A' for Active; 'I' for Inactive)
ROOT
HETATM    1  C1  UNL     1     -42.448  12.503   7.046  1.00 20.00     0.086 C 
HETATM    2  C2  UNL     1     -43.172  14.845   5.182  1.00 20.00     0.003 C 
HETATM    3  C3  UNL     1     -43.206  15.991   6.185  1.00 20.00     0.001 C 
HETATM    4  C4  UNL     1     -41.857  14.064   5.237  1.00 20.00     0.042 C 
HETATM    5  C5  UNL     1     -42.872  15.525   7.601  1.00 20.00     0.012 C 
HETATM    6  C6  UNL     1     -41.509  13.582   6.661  1.00 20.00     0.132 C 
HETATM    7  C7  UNL     1     -41.520  14.764   7.699  1.00 20.00    -0.013 C 
HETATM    8  C8  UNL     1     -41.356  14.269   9.158  1.00 20.00     0.018 C 
HETATM    9  C9  UNL     1     -40.368  15.771   7.445  1.00 20.00     0.018 C 
HETATM   10  N10 UNL     1     -43.183  11.658   7.349  1.00 20.00    -0.195 NA
HETATM   11 CL11 UNL     1     -39.899  12.763   6.591  1.00 20.00    -0.102 Cl
ENDROOT
TORSDOF 0
ENDMDL
MODEL 5
REMARK VINA RESULT:      -3.1      2.011      3.187
REMARK  0 active torsions:
REMARK  status: ('A' for Active; 'I' for Inactive)
ROOT
HETATM    1  C1  UNL     1     -35.800  14.602  -5.347  1.00 20.00     0.086 C 
HETATM    2  C2  UNL     1     -37.704  16.684  -6.584  1.00 20.00     0.003 C 
HETATM    3  C3  UNL     1     -37.411  17.883  -5.692  1.00 20.00     0.001 C 
HETATM    4  C4  UNL     1     -36.432  16.095  -7.200  1.00 20.00     0.042 C 
HETATM    5  C5  UNL     1     -36.352  17.570  -4.636  1.00 20.00     0.012 C 
HETATM    6  C6  UNL     1     -35.355  15.768  -6.145  1.00 20.00     0.132 C 
HETATM    7  C7  UNL     1     -35.031  17.010  -5.234  1.00 20.00    -0.013 C 
HETATM    8  C8  UNL     1     -34.091  16.648  -4.056  1.00 20.00     0.018 C 
HETATM    9  C9  UNL     1     -34.327  18.143  -6.025  1.00 20.00     0.018 C 
HETATM   10  N10 UNL     1     -36.148  13.689  -4.722  1.00 20.00    -0.195 NA
HETATM   11 CL11 UNL     1     -33.888  15.174  -7.017  1.00 20.00    -0.102 Cl
ENDROOT
TORSDOF 0
ENDMDL
MODEL 6
REMARK VINA RESULT:      -3.0      1.502      2.475
REMARK  0 active torsions:
REMARK  status: ('A' for Active; 'I' for Inactive)
ROOT
HETATM    1  C1  UNL     1     -34.354  15.422  -6.777  1.00 20.00     0.086 C 
HETATM    2  C2  UNL     1     -33.897  17.669  -4.721  1.00 20.00     0.003 C 
HETATM    3  C3  UNL     1     -34.920  18.690  -5.202  1.00 20.00     0.001 C 
HETATM    4  C4  UNL     1     -34.520  16.292  -4.480  1.00 20.00     0.042 C 
HETATM    5  C5  UNL     1     -35.701  18.192  -6.417  1.00 20.00     0.012 C 
HETATM    6  C6  UNL     1     -35.308  15.773  -5.701  1.00 20.00     0.132 C 
HETATM    7  C7  UNL     1     -36.383  16.813  -6.190  1.00 20.00    -0.013 C 
HETATM    8  C8  UNL     1     -37.053  16.388  -7.521  1.00 20.00     0.018 C 
HETATM    9  C9  UNL     1     -37.529  16.993  -5.160  1.00 20.00     0.018 C 
HETATM   10  N10 UNL     1     -33.605  15.148  -7.621  1.00 20.00    -0.195 NA
HETATM   11 CL11 UNL     1     -36.060  14.194  -5.244  1.00 20.00    -0.102 Cl
ENDROOT
TORSDOF 0
ENDMDL
MODEL 7
REMARK VINA RESULT:      -3.0      2.160      3.170
REMARK  0 active torsions:
REMARK  status: ('A' for Active; 'I' for Inactive)
ROOT
HETATM    1  C1  UNL     1     -35.859  15.048  -5.256  1.00 20.00     0.086 C 
HETATM    2  C2  UNL     1     -34.302  15.800  -7.805  1.00 20.00     0.003 C 
HETATM    3  C3  UNL     1     -34.660  17.276  -7.916  1.00 20.00     0.001 C 
HETATM    4  C4  UNL     1     -33.732  15.444  -6.429  1.00 20.00     0.042 C 
HETATM    5  C5  UNL     1     -35.573  17.734  -6.779  1.00 20.00     0.012 C 
HETATM    6  C6  UNL     1     -34.645  15.896  -5.270  1.00 20.00     0.132 C 
HETATM    7  C7  UNL     1     -35.001  17.426  -5.367  1.00 20.00    -0.013 C 
HETATM    8  C8  UNL     1     -36.062  17.851  -4.320  1.00 20.00     0.018 C 
HETATM    9  C9  UNL     1     -33.762  18.327  -5.128  1.00 20.00     0.018 C 
HETATM   10  N10 UNL     1     -36.811  14.384  -5.244  1.00 20.00    -0.195 NA
HETATM   11 CL11 UNL     1     -33.808  15.497  -3.718  1.00 20.00    -0.102 Cl
ENDROOT
TORSDOF 0
ENDMDL
MODEL 8
REMARK VINA RESULT:      -3.0     14.161     15.103
REMARK  0 active torsions:
REMARK  status: ('A' for Active; 'I' for Inactive)
ROOT
HETATM    1  C1  UNL     1     -42.328  13.358   8.439  1.00 20.00     0.086 C 
HETATM    2  C2  UNL     1     -41.329  13.394   5.526  1.00 20.00     0.003 C 
HETATM    3  C3  UNL     1     -42.153  14.549   4.970  1.00 20.00     0.001 C 
HETATM    4  C4  UNL     1     -40.555  13.787   6.786  1.00 20.00     0.042 C 
HETATM    5  C5  UNL     1     -43.059  15.171   6.032  1.00 20.00     0.012 C 
HETATM    6  C6  UNL     1     -41.458  14.412   7.870  1.00 20.00     0.132 C 
HETATM    7  C7  UNL     1     -42.295  15.621   7.309  1.00 20.00    -0.013 C 
HETATM    8  C8  UNL     1     -43.338  16.140   8.330  1.00 20.00     0.018 C 
HETATM    9  C9  UNL     1     -41.396  16.832   6.946  1.00 20.00     0.018 C 
HETATM   10  N10 UNL     1     -43.010  12.532   8.885  1.00 20.00    -0.195 NA
HETATM   11 CL11 UNL     1     -40.403  14.909   9.251  1.00 20.00    -0.102 Cl
ENDROOT
TORSDOF 0
ENDMDL
MODEL 9
REMARK VINA RESULT:      -2.9      1.780      3.276
REMARK  0 active torsions:
REMARK  status: ('A' for Active; 'I' for Inactive)
ROOT
HETATM    1  C1  UNL     1     -34.213  15.977  -4.580  1.00 20.00     0.086 C 
HETATM    2  C2  UNL     1     -35.811  18.575  -5.011  1.00 20.00     0.003 C 
HETATM    3  C3  UNL     1     -35.409  18.907  -6.442  1.00 20.00     0.001 C 
HETATM    4  C4  UNL     1     -36.357  17.150  -4.878  1.00 20.00     0.042 C 
HETATM    5  C5  UNL     1     -34.453  17.868  -7.027  1.00 20.00     0.012 C 
HETATM    6  C6  UNL     1     -35.399  16.089  -5.460  1.00 20.00     0.132 C 
HETATM    7  C7  UNL     1     -34.997  16.414  -6.946  1.00 20.00    -0.013 C 
HETATM    8  C8  UNL     1     -33.896  15.463  -7.480  1.00 20.00     0.018 C 
HETATM    9  C9  UNL     1     -36.199  16.282  -7.916  1.00 20.00     0.018 C 
HETATM   10  N10 UNL     1     -33.283  15.890  -3.891  1.00 20.00    -0.195 NA
HETATM   11 CL11 UNL     1     -36.207  14.478  -5.319  1.00 20.00    -0.102 Cl
ENDROOT
TORSDOF 0
ENDMDL
