MODEL 1
REMARK VINA RESULT:      -4.8      0.000      0.000
REMARK  1 active torsions:
REMARK  status: ('A' for Active; 'I' for Inactive)
REMARK    1  A    between atoms: C4_4  and  C9_9 
ROOT
HETATM    1  C1  UNL     1     -33.344   4.640   2.954  1.00 20.00     0.001 C 
HETATM    2  C2  UNL     1     -32.865   6.089   2.867  1.00 20.00     0.007 C 
HETATM    3  C3  UNL     1     -33.956   4.471   4.344  1.00 20.00     0.009 C 
HETATM    4  C4  UNL     1     -33.121   6.698   4.250  1.00 20.00     0.011 C 
HETATM    5  C5  UNL     1     -34.321   5.895   4.802  1.00 20.00    -0.043 C 
HETATM    6  C6  UNL     1     -35.674   6.320   4.205  1.00 20.00     0.015 C 
HETATM    7  C7  UNL     1     -34.407   5.971   6.332  1.00 20.00     0.015 C 
ENDROOT
BRANCH   4   8
HETATM    8  C9  UNL     1     -33.290   8.211   4.198  1.00 20.00     0.083 C 
HETATM    9  C8  UNL     1     -32.481   8.903   5.285  1.00 20.00     0.027 C 
HETATM   10 CL10 UNL     1     -32.778   8.815   2.597  1.00 20.00    -0.125 Cl
ENDBRANCH   4   8
TORSDOF 1
ENDMDL
MODEL 2
REMARK VINA RESULT:      -3.7      1.659      2.937
REMARK  1 active torsions:
REMARK  status: ('A' for Active; 'I' for Inactive)
REMARK    1  A    between atoms: C4_4  and  C9_9 
ROOT
HETATM    1  C1  UNL     1     -34.780   5.701   6.215  1.00 20.00     0.001 C 
HETATM    2  C2  UNL     1     -34.341   5.204   4.838  1.00 20.00     0.007 C 
HETATM    3  C3  UNL     1     -34.025   7.006   6.463  1.00 20.00     0.009 C 
HETATM    4  C4  UNL     1     -33.262   6.185   4.364  1.00 20.00     0.011 C 
HETATM    5  C5  UNL     1     -33.622   7.514   5.067  1.00 20.00    -0.043 C 
HETATM    6  C6  UNL     1     -34.794   8.262   4.408  1.00 20.00     0.015 C 
HETATM    7  C7  UNL     1     -32.418   8.459   5.156  1.00 20.00     0.015 C 
ENDROOT
BRANCH   4   8
HETATM    8  C9  UNL     1     -33.147   6.236   2.846  1.00 20.00     0.083 C 
HETATM    9  C8  UNL     1     -32.055   7.195   2.399  1.00 20.00     0.027 C 
HETATM   10 CL10 UNL     1     -32.799   4.600   2.218  1.00 20.00    -0.125 Cl
ENDBRANCH   4   8
TORSDOF 1
ENDMDL
MODEL 3
REMARK VINA RESULT:      -3.5      1.078      2.301
REMARK  1 active torsions:
REMARK  status: ('A' for Active; 'I' for Inactive)
REMARK    1  A    between atoms: C4_4  and  C9_9 
ROOT
HETATM    1  C1  UNL     1     -33.902   5.435   6.822  1.00 20.00     0.001 C 
HETATM    2  C2  UNL     1     -33.222   6.707   6.316  1.00 20.00     0.007 C 
HETATM    3  C3  UNL     1     -35.091   5.184   5.895  1.00 20.00     0.009 C 
HETATM    4  C4  UNL     1     -34.097   7.221   5.167  1.00 20.00     0.011 C 
HETATM    5  C5  UNL     1     -34.763   5.946   4.598  1.00 20.00    -0.043 C 
HETATM    6  C6  UNL     1     -33.829   5.109   3.705  1.00 20.00     0.015 C 
HETATM    7  C7  UNL     1     -36.041   6.268   3.815  1.00 20.00     0.015 C 
ENDROOT
BRANCH   4   8
HETATM    8  C9  UNL     1     -33.314   8.071   4.174  1.00 20.00     0.083 C 
HETATM    9  C8  UNL     1     -32.403   9.062   4.882  1.00 20.00     0.027 C 
HETATM   10 CL10 UNL     1     -32.337   7.010   3.119  1.00 20.00    -0.125 Cl
ENDBRANCH   4   8
TORSDOF 1
ENDMDL
MODEL 4
REMARK VINA RESULT:      -3.4     12.219     13.520
REMARK  1 active torsions:
REMARK  status: ('A' for Active; 'I' for Inactive)
REMARK    1  A    between atoms: C4_4  and  C9_9 
ROOT
HETATM    1  C1  UNL     1     -33.428  16.125  -3.700  1.00 20.00     0.001 C 
HETATM    2  C2  UNL     1     -33.119  16.638  -2.293  1.00 20.00     0.007 C 
HETATM    3  C3  UNL     1     -34.436  17.102  -4.303  1.00 20.00     0.009 C 
HETATM    4  C4  UNL     1     -34.037  17.847  -2.077  1.00 20.00     0.011 C 
HETATM    5  C5  UNL     1     -34.269  18.405  -3.501  1.00 20.00    -0.043 C 
HETATM    6  C6  UNL     1     -33.082  19.221  -4.044  1.00 20.00     0.015 C 
HETATM    7  C7  UNL     1     -35.538  19.263  -3.580  1.00 20.00     0.015 C 
ENDROOT
BRANCH   4   8
HETATM    8  C9  UNL     1     -33.479  18.826  -1.053  1.00 20.00     0.083 C 
HETATM    9  C8  UNL     1     -34.220  18.733   0.272  1.00 20.00     0.027 C 
HETATM   10 CL10 UNL     1     -31.743  18.492  -0.791  1.00 20.00    -0.125 Cl
ENDBRANCH   4   8
TORSDOF 1
ENDMDL
MODEL 5
REMARK VINA RESULT:      -3.4     12.162     13.757
REMARK  1 active torsions:
REMARK  status: ('A' for Active; 'I' for Inactive)
REMARK    1  A    between atoms: C4_4  and  C9_9 
ROOT
HETATM    1  C1  UNL     1     -33.248  17.081  -2.187  1.00 20.00     0.001 C 
HETATM    2  C2  UNL     1     -33.626  15.908  -3.092  1.00 20.00     0.007 C 
HETATM    3  C3  UNL     1     -33.316  18.335  -3.058  1.00 20.00     0.009 C 
HETATM    4  C4  UNL     1     -33.805  16.501  -4.494  1.00 20.00     0.011 C 
HETATM    5  C5  UNL     1     -34.236  17.964  -4.235  1.00 20.00    -0.043 C 
HETATM    6  C6  UNL     1     -35.713  18.108  -3.828  1.00 20.00     0.015 C 
HETATM    7  C7  UNL     1     -33.964  18.864  -5.446  1.00 20.00     0.015 C 
ENDROOT
BRANCH   4   8
HETATM    8  C9  UNL     1     -34.737  15.669  -5.364  1.00 20.00     0.083 C 
HETATM    9  C8  UNL     1     -34.123  15.376  -6.724  1.00 20.00     0.027 C 
HETATM   10 CL10 UNL     1     -35.113  14.131  -4.535  1.00 20.00    -0.125 Cl
ENDBRANCH   4   8
TORSDOF 1
ENDMDL
MODEL 6
REMARK VINA RESULT:      -3.4     12.531     13.808
REMARK  1 active torsions:
REMARK  status: ('A' for Active; 'I' for Inactive)
REMARK    1  A    between atoms: C4_4  and  C9_9 
ROOT
HETATM    1  C1  UNL     1     -33.145  15.887  -3.600  1.00 20.00     0.001 C 
HETATM    2  C2  UNL     1     -33.829  17.148  -4.128  1.00 20.00     0.007 C 
HETATM    3  C3  UNL     1     -33.985  14.707  -4.086  1.00 20.00     0.009 C 
HETATM    4  C4  UNL     1     -35.110  16.670  -4.823  1.00 20.00     0.011 C 
HETATM    5  C5  UNL     1     -34.771  15.238  -5.298  1.00 20.00    -0.043 C 
HETATM    6  C6  UNL     1     -33.897  15.198  -6.564  1.00 20.00     0.015 C 
HETATM    7  C7  UNL     1     -36.033  14.401  -5.540  1.00 20.00     0.015 C 
ENDROOT
BRANCH   4   8
HETATM    8  C9  UNL     1     -35.586  17.640  -5.897  1.00 20.00     0.083 C 
HETATM    9  C8  UNL     1     -36.885  18.323  -5.498  1.00 20.00     0.027 C 
HETATM   10 CL10 UNL     1     -34.328  18.875  -6.188  1.00 20.00    -0.125 Cl
ENDBRANCH   4   8
TORSDOF 1
ENDMDL
MODEL 7
REMARK VINA RESULT:      -3.2     10.408     11.536
REMARK  1 active torsions:
REMARK  status: ('A' for Active; 'I' for Inactive)
REMARK    1  A    between atoms: C4_4  and  C9_9 
ROOT
HETATM    1  C1  UNL     1     -42.397  14.904   4.983  1.00 20.00     0.001 C 
HETATM    2  C2  UNL     1     -42.217  15.411   6.415  1.00 20.00     0.007 C 
HETATM    3  C3  UNL     1     -41.457  13.710   4.828  1.00 20.00     0.009 C 
HETATM    4  C4  UNL     1     -41.099  14.556   7.024  1.00 20.00     0.011 C 
HETATM    5  C5  UNL     1     -41.190  13.214   6.261  1.00 20.00    -0.043 C 
HETATM    6  C6  UNL     1     -42.339  12.309   6.739  1.00 20.00     0.015 C 
HETATM    7  C7  UNL     1     -39.876  12.426   6.330  1.00 20.00     0.015 C 
ENDROOT
BRANCH   4   8
HETATM    8  C9  UNL     1     -41.190  14.475   8.542  1.00 20.00     0.083 C 
HETATM    9  C8  UNL     1     -40.115  15.316   9.213  1.00 20.00     0.027 C 
HETATM   10 CL10 UNL     1     -42.802  15.031   9.075  1.00 20.00    -0.125 Cl
ENDBRANCH   4   8
TORSDOF 1
ENDMDL
MODEL 8
REMARK VINA RESULT:      -3.2     10.557     11.802
REMARK  1 active torsions:
REMARK  status: ('A' for Active; 'I' for Inactive)
REMARK    1  A    between atoms: C4_4  and  C9_9 
ROOT
HETATM    1  C1  UNL     1     -43.264  12.679   8.138  1.00 20.00     0.001 C 
HETATM    2  C2  UNL     1     -42.363  13.794   8.670  1.00 20.00     0.007 C 
HETATM    3  C3  UNL     1     -43.253  12.806   6.616  1.00 20.00     0.009 C 
HETATM    4  C4  UNL     1     -41.932  14.605   7.442  1.00 20.00     0.011 C 
HETATM    5  C5  UNL     1     -41.967  13.584   6.282  1.00 20.00    -0.043 C 
HETATM    6  C6  UNL     1     -40.756  12.634   6.259  1.00 20.00     0.015 C 
HETATM    7  C7  UNL     1     -42.083  14.272   4.916  1.00 20.00     0.015 C 
ENDROOT
BRANCH   4   8
HETATM    8  C9  UNL     1     -40.612  15.332   7.659  1.00 20.00     0.083 C 
HETATM    9  C8  UNL     1     -40.750  16.828   7.423  1.00 20.00     0.027 C 
HETATM   10 CL10 UNL     1     -40.036  15.042   9.326  1.00 20.00    -0.125 Cl
ENDBRANCH   4   8
TORSDOF 1
ENDMDL
MODEL 9
REMARK VINA RESULT:      -3.1     12.749     13.797
REMARK  1 active torsions:
REMARK  status: ('A' for Active; 'I' for Inactive)
REMARK    1  A    between atoms: C4_4  and  C9_9 
ROOT
HETATM    1  C1  UNL     1     -26.869  -0.239  12.332  1.00 20.00     0.001 C 
HETATM    2  C2  UNL     1     -25.639  -1.083  11.996  1.00 20.00     0.007 C 
HETATM    3  C3  UNL     1     -28.005  -0.767  11.457  1.00 20.00     0.009 C 
HETATM    4  C4  UNL     1     -26.069  -2.014  10.857  1.00 20.00     0.011 C 
HETATM    5  C5  UNL     1     -27.589  -2.198  11.070  1.00 20.00    -0.043 C 
HETATM    6  C6  UNL     1     -27.938  -3.183  12.201  1.00 20.00     0.015 C 
HETATM    7  C7  UNL     1     -28.298  -2.645   9.786  1.00 20.00     0.015 C 
ENDROOT
BRANCH   4   8
HETATM    8  C9  UNL     1     -25.238  -3.290  10.803  1.00 20.00     0.083 C 
HETATM    9  C8  UNL     1     -24.271  -3.280   9.628  1.00 20.00     0.027 C 
HETATM   10 CL10 UNL     1     -24.323  -3.472  12.327  1.00 20.00    -0.125 Cl
ENDBRANCH   4   8
TORSDOF 1
ENDMDL
