MODEL 1
REMARK VINA RESULT:      -4.2      0.000      0.000
REMARK  2 active torsions:
REMARK  status: ('A' for Active; 'I' for Inactive)
REMARK    1  A    between atoms: C3_3  and  C9_9 
REMARK    2  A    between atoms: C7_7  and  C9_9 
ROOT
HETATM    1  C4  UNL     1     -33.003  16.458  -3.355  1.00 20.00     0.006 C 
HETATM    2  C5  UNL     1     -34.185  16.023  -4.212  1.00 20.00     0.020 C 
HETATM    3  C6  UNL     1     -34.874  18.030  -3.099  1.00 20.00     0.025 C 
HETATM    4  C7  UNL     1     -33.574  17.542  -2.432  1.00 20.00    -0.007 C 
HETATM    5  C8  UNL     1     -34.959  17.314  -4.446  1.00 20.00     0.082 C 
HETATM    6 CL12 UNL     1     -34.188  18.295  -5.727  1.00 20.00    -0.125 Cl
ENDROOT
BRANCH   4   7
HETATM    7  C9  UNL     1     -32.580  18.669  -2.179  1.00 20.00     0.071 C 
BRANCH   7   8
HETATM    8  C3  UNL     1     -32.096  18.677  -0.754  1.00 20.00     0.074 A 
HETATM    9  N10 UNL     1     -30.830  18.687  -0.398  1.00 20.00    -0.258 NA
HETATM   10  C1  UNL     1     -30.754  18.694   0.981  1.00 20.00     0.124 A 
HETATM   11  C2  UNL     1     -31.960  18.689   1.651  1.00 20.00     0.070 A 
HETATM   12  S11 UNL     1     -33.248  18.677   0.519  1.00 20.00    -0.085 SA
ENDBRANCH   7   8
ENDBRANCH   4   7
TORSDOF 2
ENDMDL
MODEL 2
REMARK VINA RESULT:      -4.1      1.733      2.259
REMARK  2 active torsions:
REMARK  status: ('A' for Active; 'I' for Inactive)
REMARK    1  A    between atoms: C3_3  and  C9_9 
REMARK    2  A    between atoms: C7_7  and  C9_9 
ROOT
HETATM    1  C4  UNL     1     -34.516  17.231  -4.337  1.00 20.00     0.006 C 
HETATM    2  C5  UNL     1     -34.373  16.410  -5.611  1.00 20.00     0.020 C 
HETATM    3  C6  UNL     1     -32.919  15.394  -4.000  1.00 20.00     0.025 C 
HETATM    4  C7  UNL     1     -33.362  16.759  -3.442  1.00 20.00    -0.007 C 
HETATM    5  C8  UNL     1     -33.904  15.048  -5.116  1.00 20.00     0.082 C 
HETATM    6 CL12 UNL     1     -35.276  14.100  -4.471  1.00 20.00    -0.125 Cl
ENDROOT
BRANCH   4   7
HETATM    7  C9  UNL     1     -33.757  16.699  -1.973  1.00 20.00     0.071 C 
BRANCH   7   8
HETATM    8  C3  UNL     1     -33.019  17.724  -1.153  1.00 20.00     0.074 A 
HETATM    9  N10 UNL     1     -31.896  18.301  -1.519  1.00 20.00    -0.258 NA
HETATM   10  C1  UNL     1     -31.505  19.183  -0.531  1.00 20.00     0.124 A 
HETATM   11  C2  UNL     1     -32.333  19.263   0.569  1.00 20.00     0.070 A 
HETATM   12  S11 UNL     1     -33.661  18.196   0.367  1.00 20.00    -0.085 SA
ENDBRANCH   7   8
ENDBRANCH   4   7
TORSDOF 2
ENDMDL
MODEL 3
REMARK VINA RESULT:      -3.9     12.119     12.828
REMARK  2 active torsions:
REMARK  status: ('A' for Active; 'I' for Inactive)
REMARK    1  A    between atoms: C3_3  and  C9_9 
REMARK    2  A    between atoms: C7_7  and  C9_9 
ROOT
HETATM    1  C4  UNL     1     -33.699   6.602   6.527  1.00 20.00     0.006 C 
HETATM    2  C5  UNL     1     -34.873   5.660   6.295  1.00 20.00     0.020 C 
HETATM    3  C6  UNL     1     -34.716   7.023   4.330  1.00 20.00     0.025 C 
HETATM    4  C7  UNL     1     -33.820   7.651   5.414  1.00 20.00    -0.007 C 
HETATM    5  C8  UNL     1     -34.986   5.587   4.778  1.00 20.00     0.082 C 
HETATM    6 CL12 UNL     1     -33.758   4.478   4.101  1.00 20.00    -0.125 Cl
ENDROOT
BRANCH   4   7
HETATM    7  C9  UNL     1     -32.462   8.086   4.880  1.00 20.00     0.071 C 
BRANCH   7   8
HETATM    8  C3  UNL     1     -32.518   8.417   3.412  1.00 20.00     0.074 A 
HETATM    9  N10 UNL     1     -32.903   9.576   2.925  1.00 20.00    -0.258 NA
HETATM   10  C1  UNL     1     -32.830   9.527   1.547  1.00 20.00     0.124 A 
HETATM   11  C2  UNL     1     -32.392   8.336   1.008  1.00 20.00     0.070 A 
HETATM   12  S11 UNL     1     -32.055   7.224   2.269  1.00 20.00    -0.085 SA
ENDBRANCH   7   8
ENDBRANCH   4   7
TORSDOF 2
ENDMDL
MODEL 4
REMARK VINA RESULT:      -3.9      3.384      5.414
REMARK  2 active torsions:
REMARK  status: ('A' for Active; 'I' for Inactive)
REMARK    1  A    between atoms: C3_3  and  C9_9 
REMARK    2  A    between atoms: C7_7  and  C9_9 
ROOT
HETATM    1  C4  UNL     1     -31.824  18.014  -1.219  1.00 20.00     0.006 C 
HETATM    2  C5  UNL     1     -32.139  19.262  -0.406  1.00 20.00     0.020 C 
HETATM    3  C6  UNL     1     -34.111  18.784  -1.680  1.00 20.00     0.025 C 
HETATM    4  C7  UNL     1     -32.966  17.919  -2.239  1.00 20.00    -0.007 C 
HETATM    5  C8  UNL     1     -33.658  19.252  -0.298  1.00 20.00     0.082 C 
HETATM    6 CL12 UNL     1     -34.199  18.104   0.962  1.00 20.00    -0.125 Cl
ENDROOT
BRANCH   4   7
HETATM    7  C9  UNL     1     -33.386  16.479  -2.503  1.00 20.00     0.071 C 
BRANCH   7   8
HETATM    8  C3  UNL     1     -33.822  16.277  -3.930  1.00 20.00     0.074 A 
HETATM    9  N10 UNL     1     -34.318  17.222  -4.698  1.00 20.00    -0.258 NA
HETATM   10  C1  UNL     1     -34.606  16.685  -5.937  1.00 20.00     0.124 A 
HETATM   11  C2  UNL     1     -34.327  15.344  -6.093  1.00 20.00     0.070 A 
HETATM   12  S11 UNL     1     -33.675  14.719  -4.635  1.00 20.00    -0.085 SA
ENDBRANCH   7   8
ENDBRANCH   4   7
TORSDOF 2
ENDMDL
MODEL 5
REMARK VINA RESULT:      -3.6      3.761      5.922
REMARK  2 active torsions:
REMARK  status: ('A' for Active; 'I' for Inactive)
REMARK    1  A    between atoms: C3_3  and  C9_9 
REMARK    2  A    between atoms: C7_7  and  C9_9 
ROOT
HETATM    1  C4  UNL     1     -33.415  16.624  -2.169  1.00 20.00     0.006 C 
HETATM    2  C5  UNL     1     -33.371  18.140  -2.035  1.00 20.00     0.020 C 
HETATM    3  C6  UNL     1     -33.735  17.690  -4.360  1.00 20.00     0.025 C 
HETATM    4  C7  UNL     1     -33.333  16.368  -3.680  1.00 20.00    -0.007 C 
HETATM    5  C8  UNL     1     -34.163  18.635  -3.239  1.00 20.00     0.082 C 
HETATM    6 CL12 UNL     1     -35.921  18.502  -2.942  1.00 20.00    -0.125 Cl
ENDROOT
BRANCH   4   7
HETATM    7  C9  UNL     1     -34.197  15.192  -4.114  1.00 20.00     0.071 C 
BRANCH   7   8
HETATM    8  C3  UNL     1     -34.671  15.341  -5.535  1.00 20.00     0.074 A 
HETATM    9  N10 UNL     1     -33.924  15.124  -6.596  1.00 20.00    -0.258 NA
HETATM   10  C1  UNL     1     -34.680  15.356  -7.728  1.00 20.00     0.124 A 
HETATM   11  C2  UNL     1     -35.986  15.744  -7.514  1.00 20.00     0.070 A 
HETATM   12  S11 UNL     1     -36.291  15.826  -5.828  1.00 20.00    -0.085 SA
ENDBRANCH   7   8
ENDBRANCH   4   7
TORSDOF 2
ENDMDL
MODEL 6
REMARK VINA RESULT:      -3.5      3.576      5.689
REMARK  2 active torsions:
REMARK  status: ('A' for Active; 'I' for Inactive)
REMARK    1  A    between atoms: C3_3  and  C9_9 
REMARK    2  A    between atoms: C7_7  and  C9_9 
ROOT
HETATM    1  C4  UNL     1     -34.558  19.228  -2.171  1.00 20.00     0.006 C 
HETATM    2  C5  UNL     1     -34.358  19.115  -0.666  1.00 20.00     0.020 C 
HETATM    3  C6  UNL     1     -33.623  17.031  -1.592  1.00 20.00     0.025 C 
HETATM    4  C7  UNL     1     -34.382  17.796  -2.693  1.00 20.00    -0.007 C 
HETATM    5  C8  UNL     1     -33.267  18.061  -0.522  1.00 20.00     0.082 C 
HETATM    6 CL12 UNL     1     -31.656  18.767  -0.842  1.00 20.00    -0.125 Cl
ENDROOT
BRANCH   4   7
HETATM    7  C9  UNL     1     -33.671  17.755  -4.039  1.00 20.00     0.071 C 
BRANCH   7   8
HETATM    8  C3  UNL     1     -34.308  16.764  -4.977  1.00 20.00     0.074 A 
HETATM    9  N10 UNL     1     -34.449  15.482  -4.722  1.00 20.00    -0.258 NA
HETATM   10  C1  UNL     1     -35.072  14.879  -5.797  1.00 20.00     0.124 A 
HETATM   11  C2  UNL     1     -35.395  15.709  -6.851  1.00 20.00     0.070 A 
HETATM   12  S11 UNL     1     -34.904  17.312  -6.491  1.00 20.00    -0.085 SA
ENDBRANCH   7   8
ENDBRANCH   4   7
TORSDOF 2
ENDMDL
MODEL 7
REMARK VINA RESULT:      -3.5      3.733      5.846
REMARK  2 active torsions:
REMARK  status: ('A' for Active; 'I' for Inactive)
REMARK    1  A    between atoms: C3_3  and  C9_9 
REMARK    2  A    between atoms: C7_7  and  C9_9 
ROOT
HETATM    1  C4  UNL     1     -33.272  16.842  -2.294  1.00 20.00     0.006 C 
HETATM    2  C5  UNL     1     -32.582  17.789  -1.322  1.00 20.00     0.020 C 
HETATM    3  C6  UNL     1     -33.360  19.149  -3.135  1.00 20.00     0.025 C 
HETATM    4  C7  UNL     1     -33.475  17.675  -3.566  1.00 20.00    -0.007 C 
HETATM    5  C8  UNL     1     -33.223  19.140  -1.613  1.00 20.00     0.082 C 
HETATM    6 CL12 UNL     1     -34.829  19.262  -0.838  1.00 20.00    -0.125 Cl
ENDROOT
BRANCH   4   7
HETATM    7  C9  UNL     1     -34.795  17.362  -4.258  1.00 20.00     0.071 C 
BRANCH   7   8
HETATM    8  C3  UNL     1     -34.585  16.840  -5.654  1.00 20.00     0.074 A 
HETATM    9  N10 UNL     1     -34.722  17.559  -6.746  1.00 20.00    -0.258 NA
HETATM   10  C1  UNL     1     -34.453  16.762  -7.842  1.00 20.00     0.124 A 
HETATM   11  C2  UNL     1     -34.116  15.453  -7.568  1.00 20.00     0.070 A 
HETATM   12  S11 UNL     1     -34.133  15.198  -5.872  1.00 20.00    -0.085 SA
ENDBRANCH   7   8
ENDBRANCH   4   7
TORSDOF 2
ENDMDL
MODEL 8
REMARK VINA RESULT:      -3.4      1.509      1.698
REMARK  2 active torsions:
REMARK  status: ('A' for Active; 'I' for Inactive)
REMARK    1  A    between atoms: C3_3  and  C9_9 
REMARK    2  A    between atoms: C7_7  and  C9_9 
ROOT
HETATM    1  C4  UNL     1     -33.140  15.694  -4.122  1.00 20.00     0.006 C 
HETATM    2  C5  UNL     1     -34.223  15.285  -5.111  1.00 20.00     0.020 C 
HETATM    3  C6  UNL     1     -35.062  17.216  -3.967  1.00 20.00     0.025 C 
HETATM    4  C7  UNL     1     -33.821  16.716  -3.204  1.00 20.00    -0.007 C 
HETATM    5  C8  UNL     1     -35.001  16.573  -5.351  1.00 20.00     0.082 C 
HETATM    6 CL12 UNL     1     -34.133  17.635  -6.498  1.00 20.00    -0.125 Cl
ENDROOT
BRANCH   4   7
HETATM    7  C9  UNL     1     -32.883  17.844  -2.797  1.00 20.00     0.071 C 
BRANCH   7   8
HETATM    8  C3  UNL     1     -32.940  18.114  -1.317  1.00 20.00     0.074 A 
HETATM    9  N10 UNL     1     -34.021  17.988  -0.579  1.00 20.00    -0.258 NA
HETATM   10  C1  UNL     1     -33.710  18.314   0.726  1.00 20.00     0.124 A 
HETATM   11  C2  UNL     1     -32.402  18.681   0.962  1.00 20.00     0.070 A 
HETATM   12  S11 UNL     1     -31.515  18.619  -0.505  1.00 20.00    -0.085 SA
ENDBRANCH   7   8
ENDBRANCH   4   7
TORSDOF 2
ENDMDL
MODEL 9
REMARK VINA RESULT:      -3.4     12.615     14.068
REMARK  2 active torsions:
REMARK  status: ('A' for Active; 'I' for Inactive)
REMARK    1  A    between atoms: C3_3  and  C9_9 
REMARK    2  A    between atoms: C7_7  and  C9_9 
ROOT
HETATM    1  C4  UNL     1     -40.559  14.335  10.154  1.00 20.00     0.006 C 
HETATM    2  C5  UNL     1     -40.423  15.547  11.066  1.00 20.00     0.020 C 
HETATM    3  C6  UNL     1     -40.781  16.412   8.861  1.00 20.00     0.025 C 
HETATM    4  C7  UNL     1     -40.471  14.908   8.734  1.00 20.00    -0.007 C 
HETATM    5  C8  UNL     1     -41.165  16.648  10.320  1.00 20.00     0.082 C 
HETATM    6 CL12 UNL     1     -42.932  16.484  10.539  1.00 20.00    -0.125 Cl
ENDROOT
BRANCH   4   7
HETATM    7  C9  UNL     1     -41.401  14.192   7.763  1.00 20.00     0.071 C 
BRANCH   7   8
HETATM    8  C3  UNL     1     -40.640  13.314   6.805  1.00 20.00     0.074 A 
HETATM    9  N10 UNL     1     -39.654  12.516   7.151  1.00 20.00    -0.258 NA
HETATM   10  C1  UNL     1     -39.191  11.865   6.024  1.00 20.00     0.124 A 
HETATM   11  C2  UNL     1     -39.830  12.177   4.842  1.00 20.00     0.070 A 
HETATM   12  S11 UNL     1     -41.063  13.331   5.142  1.00 20.00    -0.085 SA
ENDBRANCH   7   8
ENDBRANCH   4   7
TORSDOF 2
ENDMDL
