MODEL 1
REMARK VINA RESULT:      -5.0      0.000      0.000
REMARK  0 active torsions:
REMARK  status: ('A' for Active; 'I' for Inactive)
ROOT
HETATM    1  C1  UNL     1     -32.850   5.726   2.657  1.00 20.00     0.021 C 
HETATM    2  C2  UNL     1     -33.604   5.118   3.584  1.00 20.00     0.001 C 
HETATM    3  C3  UNL     1     -32.792   7.827   3.869  1.00 20.00     0.003 C 
HETATM    4  C4  UNL     1     -32.563   7.139   2.741  1.00 20.00     0.030 C 
HETATM    5  C5  UNL     1     -33.368   7.159   5.102  1.00 20.00     0.033 C 
HETATM    6  C6  UNL     1     -34.194   5.866   4.766  1.00 20.00     0.058 C 
HETATM    7  C7  UNL     1     -34.116   8.184   5.966  1.00 20.00     0.016 C 
HETATM    8  C8  UNL     1     -34.264   4.940   5.988  1.00 20.00     0.037 C 
HETATM    9 CL9  UNL     1     -31.855   7.906   1.367  1.00 20.00    -0.085 Cl
HETATM   10 CL10 UNL     1     -35.893   6.271   4.286  1.00 20.00    -0.115 Cl
ENDROOT
TORSDOF 0
ENDMDL
MODEL 2
REMARK VINA RESULT:      -3.8     12.232     13.420
REMARK  0 active torsions:
REMARK  status: ('A' for Active; 'I' for Inactive)
ROOT
HETATM    1  C1  UNL     1     -33.377  16.101  -3.319  1.00 20.00     0.021 C 
HETATM    2  C2  UNL     1     -33.913  15.077  -3.999  1.00 20.00     0.001 C 
HETATM    3  C3  UNL     1     -34.683  17.766  -4.505  1.00 20.00     0.003 C 
HETATM    4  C4  UNL     1     -33.668  17.469  -3.679  1.00 20.00     0.030 C 
HETATM    5  C5  UNL     1     -35.564  16.686  -5.101  1.00 20.00     0.033 C 
HETATM    6  C6  UNL     1     -34.850  15.289  -5.174  1.00 20.00     0.058 C 
HETATM    7  C7  UNL     1     -36.169  17.161  -6.429  1.00 20.00     0.016 C 
HETATM    8  C8  UNL     1     -35.886  14.157  -5.227  1.00 20.00     0.037 C 
HETATM    9 CL9  UNL     1     -32.714  18.717  -2.968  1.00 20.00    -0.085 Cl
HETATM   10 CL10 UNL     1     -33.812  15.152  -6.653  1.00 20.00    -0.115 Cl
ENDROOT
TORSDOF 0
ENDMDL
MODEL 3
REMARK VINA RESULT:      -3.7     12.021     13.603
REMARK  0 active torsions:
REMARK  status: ('A' for Active; 'I' for Inactive)
ROOT
HETATM    1  C1  UNL     1     -33.455  18.476  -3.734  1.00 20.00     0.021 C 
HETATM    2  C2  UNL     1     -34.066  18.264  -4.909  1.00 20.00     0.001 C 
HETATM    3  C3  UNL     1     -33.466  16.124  -3.136  1.00 20.00     0.003 C 
HETATM    4  C4  UNL     1     -33.283  17.405  -2.780  1.00 20.00     0.030 C 
HETATM    5  C5  UNL     1     -33.867  15.743  -4.548  1.00 20.00     0.033 C 
HETATM    6  C6  UNL     1     -34.606  16.902  -5.306  1.00 20.00     0.058 C 
HETATM    7  C7  UNL     1     -34.617  14.404  -4.547  1.00 20.00     0.016 C 
HETATM    8  C8  UNL     1     -34.485  16.715  -6.825  1.00 20.00     0.037 C 
HETATM    9 CL9  UNL     1     -32.773  17.813  -1.185  1.00 20.00    -0.085 Cl
HETATM   10 CL10 UNL     1     -36.371  16.942  -4.898  1.00 20.00    -0.115 Cl
ENDROOT
TORSDOF 0
ENDMDL
MODEL 4
REMARK VINA RESULT:      -3.2      9.945     11.874
REMARK  0 active torsions:
REMARK  status: ('A' for Active; 'I' for Inactive)
ROOT
HETATM    1  C1  UNL     1     -41.663  15.881   7.693  1.00 20.00     0.021 C 
HETATM    2  C2  UNL     1     -42.321  15.542   6.576  1.00 20.00     0.001 C 
HETATM    3  C3  UNL     1     -40.196  13.951   7.592  1.00 20.00     0.003 C 
HETATM    4  C4  UNL     1     -40.683  14.996   8.278  1.00 20.00     0.030 C 
HETATM    5  C5  UNL     1     -40.654  13.647   6.179  1.00 20.00     0.033 C 
HETATM    6  C6  UNL     1     -42.080  14.223   5.863  1.00 20.00     0.058 C 
HETATM    7  C7  UNL     1     -40.490  12.152   5.874  1.00 20.00     0.016 C 
HETATM    8  C8  UNL     1     -42.263  14.405   4.350  1.00 20.00     0.037 C 
HETATM    9 CL9  UNL     1     -40.107  15.357   9.863  1.00 20.00    -0.085 Cl
HETATM   10 CL10 UNL     1     -43.387  13.111   6.444  1.00 20.00    -0.115 Cl
ENDROOT
TORSDOF 0
ENDMDL
MODEL 5
REMARK VINA RESULT:      -3.2      1.869      2.966
REMARK  0 active torsions:
REMARK  status: ('A' for Active; 'I' for Inactive)
ROOT
HETATM    1  C1  UNL     1     -33.827   8.205   5.745  1.00 20.00     0.021 C 
HETATM    2  C2  UNL     1     -34.624   7.127   5.752  1.00 20.00     0.001 C 
HETATM    3  C3  UNL     1     -32.573   7.450   3.811  1.00 20.00     0.003 C 
HETATM    4  C4  UNL     1     -32.701   8.293   4.846  1.00 20.00     0.030 C 
HETATM    5  C5  UNL     1     -33.598   6.366   3.539  1.00 20.00     0.033 C 
HETATM    6  C6  UNL     1     -34.397   5.947   4.825  1.00 20.00     0.058 C 
HETATM    7  C7  UNL     1     -32.953   5.198   2.782  1.00 20.00     0.016 C 
HETATM    8  C8  UNL     1     -35.743   5.317   4.441  1.00 20.00     0.037 C 
HETATM    9 CL9  UNL     1     -31.553   9.555   5.104  1.00 20.00    -0.085 Cl
HETATM   10 CL10 UNL     1     -33.481   4.729   5.806  1.00 20.00    -0.115 Cl
ENDROOT
TORSDOF 0
ENDMDL
MODEL 6
REMARK VINA RESULT:      -3.2     10.129     11.803
REMARK  0 active torsions:
REMARK  status: ('A' for Active; 'I' for Inactive)
ROOT
HETATM    1  C1  UNL     1     -42.444  15.123   4.836  1.00 20.00     0.021 C 
HETATM    2  C2  UNL     1     -41.877  13.910   4.897  1.00 20.00     0.001 C 
HETATM    3  C3  UNL     1     -41.592  15.794   7.006  1.00 20.00     0.003 C 
HETATM    4  C4  UNL     1     -42.412  16.018   5.968  1.00 20.00     0.030 C 
HETATM    5  C5  UNL     1     -40.667  14.593   7.041  1.00 20.00     0.033 C 
HETATM    6  C6  UNL     1     -41.174  13.407   6.145  1.00 20.00     0.058 C 
HETATM    7  C7  UNL     1     -40.351  14.204   8.491  1.00 20.00     0.016 C 
HETATM    8  C8  UNL     1     -40.006  12.491   5.754  1.00 20.00     0.037 C 
HETATM    9 CL9  UNL     1     -43.415  17.420   5.923  1.00 20.00    -0.085 Cl
HETATM   10 CL10 UNL     1     -42.398  12.394   7.016  1.00 20.00    -0.115 Cl
ENDROOT
TORSDOF 0
ENDMDL
MODEL 7
REMARK VINA RESULT:      -3.2      9.774     11.472
REMARK  0 active torsions:
REMARK  status: ('A' for Active; 'I' for Inactive)
ROOT
HETATM    1  C1  UNL     1     -41.673  13.783   5.133  1.00 20.00     0.021 C 
HETATM    2  C2  UNL     1     -42.373  14.719   5.790  1.00 20.00     0.001 C 
HETATM    3  C3  UNL     1     -40.268  13.279   7.046  1.00 20.00     0.003 C 
HETATM    4  C4  UNL     1     -40.517  13.159   5.733  1.00 20.00     0.030 C 
HETATM    5  C5  UNL     1     -41.181  14.077   7.957  1.00 20.00     0.033 C 
HETATM    6  C6  UNL     1     -42.000  15.175   7.189  1.00 20.00     0.058 C 
HETATM    7  C7  UNL     1     -40.402  14.598   9.171  1.00 20.00     0.016 C 
HETATM    8  C8  UNL     1     -43.267  15.547   7.972  1.00 20.00     0.037 C 
HETATM    9 CL9  UNL     1     -39.497  12.201   4.725  1.00 20.00    -0.085 Cl
HETATM   10 CL10 UNL     1     -41.030  16.688   6.963  1.00 20.00    -0.115 Cl
ENDROOT
TORSDOF 0
ENDMDL
MODEL 8
REMARK VINA RESULT:      -3.2     12.215     13.680
REMARK  0 active torsions:
REMARK  status: ('A' for Active; 'I' for Inactive)
ROOT
HETATM    1  C1  UNL     1     -33.667  15.615  -3.491  1.00 20.00     0.021 C 
HETATM    2  C2  UNL     1     -33.295  16.791  -2.963  1.00 20.00     0.001 C 
HETATM    3  C3  UNL     1     -34.986  16.651  -5.244  1.00 20.00     0.003 C 
HETATM    4  C4  UNL     1     -34.636  15.551  -4.559  1.00 20.00     0.030 C 
HETATM    5  C5  UNL     1     -34.387  18.007  -4.927  1.00 20.00     0.033 C 
HETATM    6  C6  UNL     1     -33.863  18.112  -3.450  1.00 20.00     0.058 C 
HETATM    7  C7  UNL     1     -35.351  19.127  -5.340  1.00 20.00     0.016 C 
HETATM    8  C8  UNL     1     -32.799  19.213  -3.334  1.00 20.00     0.037 C 
HETATM    9 CL9  UNL     1     -35.287  14.009  -4.973  1.00 20.00    -0.085 Cl
HETATM   10 CL10 UNL     1     -35.202  18.519  -2.299  1.00 20.00    -0.115 Cl
ENDROOT
TORSDOF 0
ENDMDL
MODEL 9
REMARK VINA RESULT:      -3.1     12.305     13.716
REMARK  0 active torsions:
REMARK  status: ('A' for Active; 'I' for Inactive)
ROOT
HETATM    1  C1  UNL     1     -33.293  16.773  -2.337  1.00 20.00     0.021 C 
HETATM    2  C2  UNL     1     -33.641  16.498  -3.602  1.00 20.00     0.001 C 
HETATM    3  C3  UNL     1     -34.963  18.516  -2.099  1.00 20.00     0.003 C 
HETATM    4  C4  UNL     1     -33.873  17.891  -1.631  1.00 20.00     0.030 C 
HETATM    5  C5  UNL     1     -35.633  18.084  -3.390  1.00 20.00     0.033 C 
HETATM    6  C6  UNL     1     -34.654  17.334  -4.363  1.00 20.00     0.058 C 
HETATM    7  C7  UNL     1     -36.382  19.263  -4.024  1.00 20.00     0.016 C 
HETATM    8  C8  UNL     1     -35.440  16.445  -5.336  1.00 20.00     0.037 C 
HETATM    9 CL9  UNL     1     -33.160  18.363  -0.133  1.00 20.00    -0.085 Cl
HETATM   10 CL10 UNL     1     -33.679  18.500  -5.349  1.00 20.00    -0.115 Cl
ENDROOT
TORSDOF 0
ENDMDL
