MODEL 1
REMARK VINA RESULT:      -4.6      0.000      0.000
REMARK  2 active torsions:
REMARK  status: ('A' for Active; 'I' for Inactive)
REMARK    1  A    between atoms: C6_6  and  N11_11 
REMARK    2  A    between atoms: C10_10  and  N11_11 
ROOT
HETATM    1  C1  UNL     1     -32.926   9.583   1.340  1.00 20.00     0.013 C 
HETATM    2  C2  UNL     1     -32.695   9.258   2.472  1.00 20.00    -0.087 C 
HETATM    3  C10 UNL     1     -32.409   8.863   3.854  1.00 20.00     0.362 C 
ENDROOT
BRANCH   3   4
HETATM    4  N11 UNL     1     -33.523   8.108   4.414  1.00 20.00     0.099 N 
HETATM    5  H28 UNL     1     -34.366   8.306   3.874  1.00 20.00     0.317 HD
BRANCH   4   6
HETATM    6  C6  UNL     1     -33.254   6.679   4.379  1.00 20.00     0.229 C 
HETATM    7  C4  UNL     1     -32.952   6.175   2.967  1.00 20.00     0.036 C 
HETATM    8  C3  UNL     1     -33.251   4.675   3.008  1.00 20.00     0.003 C 
HETATM    9  C5  UNL     1     -33.928   4.401   4.354  1.00 20.00     0.011 C 
HETATM   10  C7  UNL     1     -34.409   5.773   4.862  1.00 20.00    -0.017 C 
HETATM   11  C8  UNL     1     -34.551   5.785   6.387  1.00 20.00     0.017 C 
HETATM   12  C9  UNL     1     -35.770   6.127   4.232  1.00 20.00     0.017 C 
ENDBRANCH   4   6
ENDBRANCH   3   4
TORSDOF 2
ENDMDL
MODEL 2
REMARK VINA RESULT:      -4.4     11.566     13.222
REMARK  2 active torsions:
REMARK  status: ('A' for Active; 'I' for Inactive)
REMARK    1  A    between atoms: C6_6  and  N11_11 
REMARK    2  A    between atoms: C10_10  and  N11_11 
ROOT
HETATM    1  C1  UNL     1     -33.338  17.336  -1.546  1.00 20.00     0.013 C 
HETATM    2  C2  UNL     1     -34.108  17.775  -2.357  1.00 20.00    -0.087 C 
HETATM    3  C10 UNL     1     -35.045  18.314  -3.345  1.00 20.00     0.362 C 
ENDROOT
BRANCH   3   4
HETATM    4  N11 UNL     1     -35.633  17.240  -4.136  1.00 20.00     0.099 N 
HETATM    5  H28 UNL     1     -36.482  17.584  -4.586  1.00 20.00     0.317 HD
BRANCH   4   6
HETATM    6  C6  UNL     1     -34.704  16.772  -5.153  1.00 20.00     0.229 C 
HETATM    7  C4  UNL     1     -35.047  17.302  -6.546  1.00 20.00     0.036 C 
HETATM    8  C3  UNL     1     -34.383  16.325  -7.518  1.00 20.00     0.003 C 
HETATM    9  C5  UNL     1     -33.882  15.147  -6.678  1.00 20.00     0.011 C 
HETATM   10  C7  UNL     1     -34.640  15.240  -5.340  1.00 20.00    -0.017 C 
HETATM   11  C8  UNL     1     -33.865  14.554  -4.210  1.00 20.00     0.017 C 
HETATM   12  C9  UNL     1     -36.026  14.579  -5.466  1.00 20.00     0.017 C 
ENDBRANCH   4   6
ENDBRANCH   3   4
TORSDOF 2
ENDMDL
MODEL 3
REMARK VINA RESULT:      -4.3     11.360     12.846
REMARK  2 active torsions:
REMARK  status: ('A' for Active; 'I' for Inactive)
REMARK    1  A    between atoms: C6_6  and  N11_11 
REMARK    2  A    between atoms: C10_10  and  N11_11 
ROOT
HETATM    1  C1  UNL     1     -33.664  17.405  -1.070  1.00 20.00     0.013 C 
HETATM    2  C2  UNL     1     -33.471  17.603  -2.238  1.00 20.00    -0.087 C 
HETATM    3  C10 UNL     1     -33.236  17.849  -3.663  1.00 20.00     0.362 C 
ENDROOT
BRANCH   3   4
HETATM    4  N11 UNL     1     -33.121  16.591  -4.390  1.00 20.00     0.099 N 
HETATM    5  H28 UNL     1     -32.446  15.991  -3.915  1.00 20.00     0.317 HD
BRANCH   4   6
HETATM    6  C6  UNL     1     -34.404  15.910  -4.461  1.00 20.00     0.229 C 
HETATM    7  C4  UNL     1     -34.310  14.441  -4.048  1.00 20.00     0.036 C 
HETATM    8  C3  UNL     1     -35.524  13.768  -4.692  1.00 20.00     0.003 C 
HETATM    9  C5  UNL     1     -36.146  14.801  -5.635  1.00 20.00     0.011 C 
HETATM   10  C7  UNL     1     -35.055  15.865  -5.861  1.00 20.00    -0.017 C 
HETATM   11  C8  UNL     1     -35.665  17.214  -6.257  1.00 20.00     0.017 C 
HETATM   12  C9  UNL     1     -34.090  15.410  -6.973  1.00 20.00     0.017 C 
ENDBRANCH   4   6
ENDBRANCH   3   4
TORSDOF 2
ENDMDL
MODEL 4
REMARK VINA RESULT:      -4.3      9.535     10.800
REMARK  2 active torsions:
REMARK  status: ('A' for Active; 'I' for Inactive)
REMARK    1  A    between atoms: C6_6  and  N11_11 
REMARK    2  A    between atoms: C10_10  and  N11_11 
ROOT
HETATM    1  C1  UNL     1     -38.942  11.728   3.440  1.00 20.00     0.013 C 
HETATM    2  C2  UNL     1     -39.189  11.704   4.615  1.00 20.00    -0.087 C 
HETATM    3  C10 UNL     1     -39.487  11.673   6.049  1.00 20.00     0.362 C 
ENDROOT
BRANCH   3   4
HETATM    4  N11 UNL     1     -40.830  12.177   6.306  1.00 20.00     0.099 N 
HETATM    5  H28 UNL     1     -41.168  11.790   7.188  1.00 20.00     0.317 HD
BRANCH   4   6
HETATM    6  C6  UNL     1     -40.836  13.630   6.386  1.00 20.00     0.229 C 
HETATM    7  C4  UNL     1     -40.708  14.137   7.822  1.00 20.00     0.036 C 
HETATM    8  C3  UNL     1     -41.280  15.556   7.795  1.00 20.00     0.003 C 
HETATM    9  C5  UNL     1     -41.926  15.740   6.419  1.00 20.00     0.011 C 
HETATM   10  C7  UNL     1     -42.114  14.318   5.857  1.00 20.00    -0.017 C 
HETATM   11  C8  UNL     1     -42.172  14.327   4.326  1.00 20.00     0.017 C 
HETATM   12  C9  UNL     1     -43.415  13.698   6.401  1.00 20.00     0.017 C 
ENDBRANCH   4   6
ENDBRANCH   3   4
TORSDOF 2
ENDMDL
MODEL 5
REMARK VINA RESULT:      -4.3     11.706     13.289
REMARK  2 active torsions:
REMARK  status: ('A' for Active; 'I' for Inactive)
REMARK    1  A    between atoms: C6_6  and  N11_11 
REMARK    2  A    between atoms: C10_10  and  N11_11 
ROOT
HETATM    1  C1  UNL     1     -33.197  17.115  -2.138  1.00 20.00     0.013 C 
HETATM    2  C2  UNL     1     -33.321  16.265  -2.977  1.00 20.00    -0.087 C 
HETATM    3  C10 UNL     1     -33.467  15.228  -4.000  1.00 20.00     0.362 C 
ENDROOT
BRANCH   3   4
HETATM    4  N11 UNL     1     -34.870  14.874  -4.178  1.00 20.00     0.099 N 
HETATM    5  H28 UNL     1     -35.446  15.503  -3.617  1.00 20.00     0.317 HD
BRANCH   4   6
HETATM    6  C6  UNL     1     -35.262  14.980  -5.575  1.00 20.00     0.229 C 
HETATM    7  C4  UNL     1     -34.063  15.168  -6.505  1.00 20.00     0.036 C 
HETATM    8  C3  UNL     1     -34.639  15.805  -7.772  1.00 20.00     0.003 C 
HETATM    9  C5  UNL     1     -36.090  16.176  -7.453  1.00 20.00     0.011 C 
HETATM   10  C7  UNL     1     -36.191  16.167  -5.916  1.00 20.00    -0.017 C 
HETATM   11  C8  UNL     1     -37.631  15.922  -5.453  1.00 20.00     0.017 C 
HETATM   12  C9  UNL     1     -35.704  17.511  -5.341  1.00 20.00     0.017 C 
ENDBRANCH   4   6
ENDBRANCH   3   4
TORSDOF 2
ENDMDL
MODEL 6
REMARK VINA RESULT:      -4.3      9.798     10.935
REMARK  2 active torsions:
REMARK  status: ('A' for Active; 'I' for Inactive)
REMARK    1  A    between atoms: C6_6  and  N11_11 
REMARK    2  A    between atoms: C10_10  and  N11_11 
ROOT
HETATM    1  C1  UNL     1     -38.983  11.714   3.649  1.00 20.00     0.013 C 
HETATM    2  C2  UNL     1     -39.178  11.880   4.823  1.00 20.00    -0.087 C 
HETATM    3  C10 UNL     1     -39.414  12.078   6.254  1.00 20.00     0.362 C 
ENDROOT
BRANCH   3   4
HETATM    4  N11 UNL     1     -39.666  13.485   6.545  1.00 20.00     0.099 N 
HETATM    5  H28 UNL     1     -39.650  14.013   5.672  1.00 20.00     0.317 HD
BRANCH   4   6
HETATM    6  C6  UNL     1     -40.958  13.661   7.190  1.00 20.00     0.229 C 
HETATM    7  C4  UNL     1     -42.088  13.885   6.184  1.00 20.00     0.036 C 
HETATM    8  C3  UNL     1     -43.193  14.586   6.977  1.00 20.00     0.003 C 
HETATM    9  C5  UNL     1     -42.590  14.952   8.336  1.00 20.00     0.011 C 
HETATM   10  C7  UNL     1     -41.063  14.868   8.147  1.00 20.00    -0.017 C 
HETATM   11  C8  UNL     1     -40.350  14.612   9.479  1.00 20.00     0.017 C 
HETATM   12  C9  UNL     1     -40.529  16.181   7.541  1.00 20.00     0.017 C 
ENDBRANCH   4   6
ENDBRANCH   3   4
TORSDOF 2
ENDMDL
MODEL 7
REMARK VINA RESULT:      -4.2     11.847     13.525
REMARK  2 active torsions:
REMARK  status: ('A' for Active; 'I' for Inactive)
REMARK    1  A    between atoms: C6_6  and  N11_11 
REMARK    2  A    between atoms: C10_10  and  N11_11 
ROOT
HETATM    1  C1  UNL     1     -34.045  15.512  -7.567  1.00 20.00     0.013 C 
HETATM    2  C2  UNL     1     -34.044  15.192  -6.410  1.00 20.00    -0.087 C 
HETATM    3  C10 UNL     1     -34.041  14.797  -4.999  1.00 20.00     0.362 C 
ENDROOT
BRANCH   3   4
HETATM    4  N11 UNL     1     -34.665  15.825  -4.175  1.00 20.00     0.099 N 
HETATM    5  H28 UNL     1     -35.088  15.385  -3.357  1.00 20.00     0.317 HD
BRANCH   4   6
HETATM    6  C6  UNL     1     -33.687  16.810  -3.741  1.00 20.00     0.229 C 
HETATM    7  C4  UNL     1     -33.344  16.679  -2.257  1.00 20.00     0.036 C 
HETATM    8  C3  UNL     1     -32.795  18.049  -1.852  1.00 20.00     0.003 C 
HETATM    9  C5  UNL     1     -33.050  18.987  -3.035  1.00 20.00     0.011 C 
HETATM   10  C7  UNL     1     -34.117  18.286  -3.898  1.00 20.00    -0.017 C 
HETATM   11  C8  UNL     1     -34.051  18.754  -5.355  1.00 20.00     0.017 C 
HETATM   12  C9  UNL     1     -35.525  18.577  -3.344  1.00 20.00     0.017 C 
ENDBRANCH   4   6
ENDBRANCH   3   4
TORSDOF 2
ENDMDL
MODEL 8
REMARK VINA RESULT:      -4.1     10.317     11.626
REMARK  2 active torsions:
REMARK  status: ('A' for Active; 'I' for Inactive)
REMARK    1  A    between atoms: C6_6  and  N11_11 
REMARK    2  A    between atoms: C10_10  and  N11_11 
ROOT
HETATM    1  C1  UNL     1     -41.136  13.989  11.410  1.00 20.00     0.013 C 
HETATM    2  C2  UNL     1     -40.762  14.468  10.373  1.00 20.00    -0.087 C 
HETATM    3  C10 UNL     1     -40.307  15.055   9.112  1.00 20.00     0.362 C 
ENDROOT
BRANCH   3   4
HETATM    4  N11 UNL     1     -40.028  14.014   8.130  1.00 20.00     0.099 N 
HETATM    5  H28 UNL     1     -40.472  13.145   8.430  1.00 20.00     0.317 HD
BRANCH   4   6
HETATM    6  C6  UNL     1     -40.533  14.386   6.818  1.00 20.00     0.229 C 
HETATM    7  C4  UNL     1     -41.593  15.485   6.889  1.00 20.00     0.036 C 
HETATM    8  C3  UNL     1     -42.387  15.357   5.588  1.00 20.00     0.003 C 
HETATM    9  C5  UNL     1     -41.922  14.061   4.918  1.00 20.00     0.011 C 
HETATM   10  C7  UNL     1     -41.221  13.251   6.026  1.00 20.00    -0.017 C 
HETATM   11  C8  UNL     1     -40.209  12.262   5.439  1.00 20.00     0.017 C 
HETATM   12  C9  UNL     1     -42.260  12.469   6.853  1.00 20.00     0.017 C 
ENDBRANCH   4   6
ENDBRANCH   3   4
TORSDOF 2
ENDMDL
MODEL 9
REMARK VINA RESULT:      -4.0     11.771     13.973
REMARK  2 active torsions:
REMARK  status: ('A' for Active; 'I' for Inactive)
REMARK    1  A    between atoms: C6_6  and  N11_11 
REMARK    2  A    between atoms: C10_10  and  N11_11 
ROOT
HETATM    1  C1  UNL     1     -33.308  16.989  -2.327  1.00 20.00     0.013 C 
HETATM    2  C2  UNL     1     -33.287  16.102  -3.137  1.00 20.00    -0.087 C 
HETATM    3  C10 UNL     1     -33.261  15.018  -4.122  1.00 20.00     0.362 C 
ENDROOT
BRANCH   3   4
HETATM    4  N11 UNL     1     -33.574  15.524  -5.453  1.00 20.00     0.099 N 
HETATM    5  H28 UNL     1     -33.603  14.742  -6.108  1.00 20.00     0.317 HD
BRANCH   4   6
HETATM    6  C6  UNL     1     -34.858  16.207  -5.462  1.00 20.00     0.229 C 
HETATM    7  C4  UNL     1     -35.988  15.321  -5.988  1.00 20.00     0.036 C 
HETATM    8  C3  UNL     1     -37.072  16.294  -6.454  1.00 20.00     0.003 C 
HETATM    9  C5  UNL     1     -36.454  17.694  -6.403  1.00 20.00     0.011 C 
HETATM   10  C7  UNL     1     -34.931  17.472  -6.346  1.00 20.00    -0.017 C 
HETATM   11  C8  UNL     1     -34.216  18.666  -5.704  1.00 20.00     0.017 C 
HETATM   12  C9  UNL     1     -34.370  17.261  -7.766  1.00 20.00     0.017 C 
ENDBRANCH   4   6
ENDBRANCH   3   4
TORSDOF 2
ENDMDL
