MODEL 1
REMARK VINA RESULT:      -4.3      0.000      0.000
REMARK  2 active torsions:
REMARK  status: ('A' for Active; 'I' for Inactive)
REMARK    1  A    between atoms: C3_3  and  C9_9 
REMARK    2  A    between atoms: C7_7  and  C9_9 
ROOT
HETATM    1  C4  UNL     1     -33.729  17.389  -0.977  1.00 20.00     0.006 C 
HETATM    2  C5  UNL     1     -33.679  18.343   0.219  1.00 20.00     0.020 C 
HETATM    3  C6  UNL     1     -32.231  19.263  -1.425  1.00 20.00     0.025 C 
HETATM    4  C7  UNL     1     -32.710  17.924  -1.997  1.00 20.00    -0.007 C 
HETATM    5  C8  UNL     1     -32.363  19.097   0.084  1.00 20.00     0.082 C 
HETATM    6 CL12 UNL     1     -31.010  18.138   0.746  1.00 20.00    -0.125 Cl
ENDROOT
BRANCH   4   7
HETATM    7  C9  UNL     1     -33.285  18.057  -3.399  1.00 20.00     0.071 C 
BRANCH   7   8
HETATM    8  C3  UNL     1     -33.668  16.720  -3.977  1.00 20.00     0.074 A 
HETATM    9  N10 UNL     1     -32.991  15.608  -3.793  1.00 20.00    -0.258 NA
HETATM   10  C1  UNL     1     -33.627  14.582  -4.463  1.00 20.00     0.124 A 
HETATM   11  C2  UNL     1     -34.774  14.927  -5.146  1.00 20.00     0.070 A 
HETATM   12  S11 UNL     1     -35.079  16.603  -4.947  1.00 20.00    -0.085 SA
ENDBRANCH   7   8
ENDBRANCH   4   7
TORSDOF 2
ENDMDL
MODEL 2
REMARK VINA RESULT:      -4.3      3.164      5.162
REMARK  2 active torsions:
REMARK  status: ('A' for Active; 'I' for Inactive)
REMARK    1  A    between atoms: C3_3  and  C9_9 
REMARK    2  A    between atoms: C7_7  and  C9_9 
ROOT
HETATM    1  C4  UNL     1     -33.471  18.244  -4.154  1.00 20.00     0.006 C 
HETATM    2  C5  UNL     1     -34.383  17.042  -4.405  1.00 20.00     0.020 C 
HETATM    3  C6  UNL     1     -33.483  16.749  -2.226  1.00 20.00     0.025 C 
HETATM    4  C7  UNL     1     -32.804  18.002  -2.790  1.00 20.00    -0.007 C 
HETATM    5  C8  UNL     1     -33.892  15.953  -3.459  1.00 20.00     0.082 C 
HETATM    6 CL12 UNL     1     -32.496  15.087  -4.158  1.00 20.00    -0.125 Cl
ENDROOT
BRANCH   4   7
HETATM    7  C9  UNL     1     -32.908  19.197  -1.855  1.00 20.00     0.071 C 
BRANCH   7   8
HETATM    8  C3  UNL     1     -32.223  18.938  -0.538  1.00 20.00     0.074 A 
HETATM    9  N10 UNL     1     -30.943  18.670  -0.405  1.00 20.00    -0.258 NA
HETATM   10  C1  UNL     1     -30.661  18.490   0.934  1.00 20.00     0.124 A 
HETATM   11  C2  UNL     1     -31.728  18.623   1.798  1.00 20.00     0.070 A 
HETATM   12  S11 UNL     1     -33.147  18.989   0.907  1.00 20.00    -0.085 SA
ENDBRANCH   7   8
ENDBRANCH   4   7
TORSDOF 2
ENDMDL
MODEL 3
REMARK VINA RESULT:      -4.0      1.758      2.397
REMARK  2 active torsions:
REMARK  status: ('A' for Active; 'I' for Inactive)
REMARK    1  A    between atoms: C3_3  and  C9_9 
REMARK    2  A    between atoms: C7_7  and  C9_9 
ROOT
HETATM    1  C4  UNL     1     -32.932  18.564  -3.218  1.00 20.00     0.006 C 
HETATM    2  C5  UNL     1     -32.531  19.075  -1.833  1.00 20.00     0.020 C 
HETATM    3  C6  UNL     1     -33.658  17.013  -1.480  1.00 20.00     0.025 C 
HETATM    4  C7  UNL     1     -33.755  17.286  -2.985  1.00 20.00    -0.007 C 
HETATM    5  C8  UNL     1     -33.480  18.392  -0.856  1.00 20.00     0.082 C 
HETATM    6 CL12 UNL     1     -35.036  19.263  -0.768  1.00 20.00    -0.125 Cl
ENDROOT
BRANCH   4   7
HETATM    7  C9  UNL     1     -33.283  16.110  -3.826  1.00 20.00     0.071 C 
BRANCH   7   8
HETATM    8  C3  UNL     1     -34.348  15.644  -4.784  1.00 20.00     0.074 A 
HETATM    9  N10 UNL     1     -34.930  14.467  -4.734  1.00 20.00    -0.258 NA
HETATM   10  C1  UNL     1     -35.852  14.380  -5.758  1.00 20.00     0.124 A 
HETATM   11  C2  UNL     1     -35.956  15.489  -6.571  1.00 20.00     0.070 A 
HETATM   12  S11 UNL     1     -34.860  16.697  -6.039  1.00 20.00    -0.085 SA
ENDBRANCH   7   8
ENDBRANCH   4   7
TORSDOF 2
ENDMDL
MODEL 4
REMARK VINA RESULT:      -3.9      3.064      5.208
REMARK  2 active torsions:
REMARK  status: ('A' for Active; 'I' for Inactive)
REMARK    1  A    between atoms: C3_3  and  C9_9 
REMARK    2  A    between atoms: C7_7  and  C9_9 
ROOT
HETATM    1  C4  UNL     1     -33.435  15.861  -3.474  1.00 20.00     0.006 C 
HETATM    2  C5  UNL     1     -33.255  14.729  -4.488  1.00 20.00     0.020 C 
HETATM    3  C6  UNL     1     -34.355  16.489  -5.644  1.00 20.00     0.025 C 
HETATM    4  C7  UNL     1     -34.242  16.956  -4.189  1.00 20.00    -0.007 C 
HETATM    5  C8  UNL     1     -34.314  14.969  -5.557  1.00 20.00     0.082 C 
HETATM    6 CL12 UNL     1     -35.893  14.310  -5.046  1.00 20.00    -0.125 Cl
ENDROOT
BRANCH   4   7
HETATM    7  C9  UNL     1     -33.615  18.337  -4.063  1.00 20.00     0.071 C 
BRANCH   7   8
HETATM    8  C3  UNL     1     -33.375  18.713  -2.624  1.00 20.00     0.074 A 
HETATM    9  N10 UNL     1     -32.191  18.947  -2.104  1.00 20.00    -0.258 NA
HETATM   10  C1  UNL     1     -32.343  19.263  -0.768  1.00 20.00     0.124 A 
HETATM   11  C2  UNL     1     -33.638  19.263  -0.293  1.00 20.00     0.070 A 
HETATM   12  S11 UNL     1     -34.716  18.854  -1.563  1.00 20.00    -0.085 SA
ENDBRANCH   7   8
ENDBRANCH   4   7
TORSDOF 2
ENDMDL
MODEL 5
REMARK VINA RESULT:      -3.6      3.313      5.447
REMARK  2 active torsions:
REMARK  status: ('A' for Active; 'I' for Inactive)
REMARK    1  A    between atoms: C3_3  and  C9_9 
REMARK    2  A    between atoms: C7_7  and  C9_9 
ROOT
HETATM    1  C4  UNL     1     -33.698  15.130  -4.076  1.00 20.00     0.006 C 
HETATM    2  C5  UNL     1     -34.029  14.999  -5.564  1.00 20.00     0.020 C 
HETATM    3  C6  UNL     1     -34.369  17.284  -5.006  1.00 20.00     0.025 C 
HETATM    4  C7  UNL     1     -34.021  16.582  -3.688  1.00 20.00    -0.007 C 
HETATM    5  C8  UNL     1     -34.941  16.177  -5.883  1.00 20.00     0.082 C 
HETATM    6 CL12 UNL     1     -36.631  15.811  -5.437  1.00 20.00    -0.125 Cl
ENDROOT
BRANCH   4   7
HETATM    7  C9  UNL     1     -32.886  17.267  -2.941  1.00 20.00     0.071 C 
BRANCH   7   8
HETATM    8  C3  UNL     1     -33.390  18.055  -1.760  1.00 20.00     0.074 A 
HETATM    9  N10 UNL     1     -34.632  18.454  -1.607  1.00 20.00    -0.258 NA
HETATM   10  C1  UNL     1     -34.735  19.146  -0.416  1.00 20.00     0.124 A 
HETATM   11  C2  UNL     1     -33.572  19.263   0.316  1.00 20.00     0.070 A 
HETATM   12  S11 UNL     1     -32.291  18.477  -0.511  1.00 20.00    -0.085 SA
ENDBRANCH   7   8
ENDBRANCH   4   7
TORSDOF 2
ENDMDL
MODEL 6
REMARK VINA RESULT:      -3.5      1.890      2.437
REMARK  2 active torsions:
REMARK  status: ('A' for Active; 'I' for Inactive)
REMARK    1  A    between atoms: C3_3  and  C9_9 
REMARK    2  A    between atoms: C7_7  and  C9_9 
ROOT
HETATM    1  C4  UNL     1     -33.229  16.617  -3.424  1.00 20.00     0.006 C 
HETATM    2  C5  UNL     1     -33.666  16.653  -1.958  1.00 20.00     0.020 C 
HETATM    3  C6  UNL     1     -34.053  18.833  -2.819  1.00 20.00     0.025 C 
HETATM    4  C7  UNL     1     -33.376  18.054  -3.952  1.00 20.00    -0.007 C 
HETATM    5  C8  UNL     1     -33.605  18.120  -1.550  1.00 20.00     0.082 C 
HETATM    6 CL12 UNL     1     -31.940  18.585  -1.103  1.00 20.00    -0.125 Cl
ENDROOT
BRANCH   4   7
HETATM    7  C9  UNL     1     -34.149  18.131  -5.260  1.00 20.00     0.071 C 
BRANCH   7   8
HETATM    8  C3  UNL     1     -34.962  16.887  -5.504  1.00 20.00     0.074 A 
HETATM    9  N10 UNL     1     -36.157  16.668  -5.001  1.00 20.00    -0.258 NA
HETATM   10  C1  UNL     1     -36.603  15.434  -5.431  1.00 20.00     0.124 A 
HETATM   11  C2  UNL     1     -35.743  14.734  -6.251  1.00 20.00     0.070 A 
HETATM   12  S11 UNL     1     -34.315  15.650  -6.502  1.00 20.00    -0.085 SA
ENDBRANCH   7   8
ENDBRANCH   4   7
TORSDOF 2
ENDMDL
MODEL 7
REMARK VINA RESULT:      -3.4      3.329      5.666
REMARK  2 active torsions:
REMARK  status: ('A' for Active; 'I' for Inactive)
REMARK    1  A    between atoms: C3_3  and  C9_9 
REMARK    2  A    between atoms: C7_7  and  C9_9 
ROOT
HETATM    1  C4  UNL     1     -35.305  14.761  -5.263  1.00 20.00     0.006 C 
HETATM    2  C5  UNL     1     -35.681  14.879  -6.741  1.00 20.00     0.020 C 
HETATM    3  C6  UNL     1     -34.750  16.976  -6.124  1.00 20.00     0.025 C 
HETATM    4  C7  UNL     1     -34.804  16.149  -4.833  1.00 20.00    -0.007 C 
HETATM    5  C8  UNL     1     -35.836  16.371  -7.004  1.00 20.00     0.082 C 
HETATM    6 CL12 UNL     1     -37.456  16.938  -6.509  1.00 20.00    -0.125 Cl
ENDROOT
BRANCH   4   7
HETATM    7  C9  UNL     1     -33.466  16.103  -4.111  1.00 20.00     0.071 C 
BRANCH   7   8
HETATM    8  C3  UNL     1     -33.414  17.082  -2.967  1.00 20.00     0.074 A 
HETATM    9  N10 UNL     1     -33.605  16.765  -1.706  1.00 20.00    -0.258 NA
HETATM   10  C1  UNL     1     -33.485  17.903  -0.934  1.00 20.00     0.124 A 
HETATM   11  C2  UNL     1     -33.207  19.068  -1.619  1.00 20.00     0.070 A 
HETATM   12  S11 UNL     1     -33.087  18.734  -3.297  1.00 20.00    -0.085 SA
ENDBRANCH   7   8
ENDBRANCH   4   7
TORSDOF 2
ENDMDL
MODEL 8
REMARK VINA RESULT:      -3.4      2.924      3.907
REMARK  2 active torsions:
REMARK  status: ('A' for Active; 'I' for Inactive)
REMARK    1  A    between atoms: C3_3  and  C9_9 
REMARK    2  A    between atoms: C7_7  and  C9_9 
ROOT
HETATM    1  C4  UNL     1     -33.293  15.946  -3.497  1.00 20.00     0.006 C 
HETATM    2  C5  UNL     1     -33.449  16.809  -2.243  1.00 20.00     0.020 C 
HETATM    3  C6  UNL     1     -34.989  17.667  -3.836  1.00 20.00     0.025 C 
HETATM    4  C7  UNL     1     -34.209  16.567  -4.564  1.00 20.00    -0.007 C 
HETATM    5  C8  UNL     1     -34.051  18.123  -2.725  1.00 20.00     0.082 C 
HETATM    6 CL12 UNL     1     -32.783  19.208  -3.358  1.00 20.00    -0.125 Cl
ENDROOT
BRANCH   4   7
HETATM    7  C9  UNL     1     -35.119  15.549  -5.235  1.00 20.00     0.071 C 
BRANCH   7   8
HETATM    8  C3  UNL     1     -36.114  16.208  -6.154  1.00 20.00     0.074 A 
HETATM    9  N10 UNL     1     -37.419  16.116  -6.027  1.00 20.00    -0.258 NA
HETATM   10  C1  UNL     1     -38.018  16.842  -7.037  1.00 20.00     0.124 A 
HETATM   11  C2  UNL     1     -37.163  17.472  -7.917  1.00 20.00     0.070 A 
HETATM   12  S11 UNL     1     -35.539  17.150  -7.468  1.00 20.00    -0.085 SA
ENDBRANCH   7   8
ENDBRANCH   4   7
TORSDOF 2
ENDMDL
MODEL 9
REMARK VINA RESULT:      -3.3      2.202      3.041
REMARK  2 active torsions:
REMARK  status: ('A' for Active; 'I' for Inactive)
REMARK    1  A    between atoms: C3_3  and  C9_9 
REMARK    2  A    between atoms: C7_7  and  C9_9 
ROOT
HETATM    1  C4  UNL     1     -33.730  18.378  -4.086  1.00 20.00     0.006 C 
HETATM    2  C5  UNL     1     -32.792  18.989  -3.043  1.00 20.00     0.020 C 
HETATM    3  C6  UNL     1     -33.266  16.783  -2.298  1.00 20.00     0.025 C 
HETATM    4  C7  UNL     1     -34.124  16.991  -3.551  1.00 20.00    -0.007 C 
HETATM    5  C8  UNL     1     -33.026  18.191  -1.767  1.00 20.00     0.082 C 
HETATM    6 CL12 UNL     1     -34.458  18.800  -0.890  1.00 20.00    -0.125 Cl
ENDROOT
BRANCH   4   7
HETATM    7  C9  UNL     1     -33.942  15.882  -4.577  1.00 20.00     0.071 C 
BRANCH   7   8
HETATM    8  C3  UNL     1     -34.800  16.101  -5.795  1.00 20.00     0.074 A 
HETATM    9  N10 UNL     1     -34.335  16.292  -7.009  1.00 20.00    -0.258 NA
HETATM   10  C1  UNL     1     -35.398  16.456  -7.875  1.00 20.00     0.124 A 
HETATM   11  C2  UNL     1     -36.654  16.390  -7.308  1.00 20.00     0.070 A 
HETATM   12  S11 UNL     1     -36.508  16.110  -5.621  1.00 20.00    -0.085 SA
ENDBRANCH   7   8
ENDBRANCH   4   7
TORSDOF 2
ENDMDL
