MODEL 1
REMARK VINA RESULT:      -3.2      0.000      0.000
REMARK  1 active torsions:
REMARK  status: ('A' for Active; 'I' for Inactive)
REMARK    1  A    between atoms: C4_4  and  S9_9 
ROOT
HETATM    1  C1  UNL     1     -34.029   7.065   6.141  1.00 20.00     0.020 C 
HETATM    2  C2  UNL     1     -33.867   8.528   5.747  1.00 20.00     0.075 C 
HETATM    3  C3  UNL     1     -32.736   7.571   3.424  1.00 20.00     0.089 C 
HETATM    4  C4  UNL     1     -32.989   6.169   3.991  1.00 20.00     0.061 C 
HETATM    5  C5  UNL     1     -34.214   6.071   4.959  1.00 20.00    -0.034 C 
HETATM    6  C6  UNL     1     -35.560   6.358   4.255  1.00 20.00     0.016 C 
HETATM    7  C7  UNL     1     -34.301   4.654   5.577  1.00 20.00     0.016 C 
HETATM    8  S8  UNL     1     -32.394   8.787   4.729  1.00 20.00    -0.168 SA
ENDROOT
BRANCH   4   9
HETATM    9  S9  UNL     1     -33.085   5.017   2.558  1.00 20.00    -0.176 SA
HETATM   10  H23 UNL     1     -33.516   5.945   1.697  1.00 20.00     0.102 HD
ENDBRANCH   4   9
TORSDOF 1
ENDMDL
MODEL 2
REMARK VINA RESULT:      -2.8     12.787     14.260
REMARK  1 active torsions:
REMARK  status: ('A' for Active; 'I' for Inactive)
REMARK    1  A    between atoms: C4_4  and  S9_9 
ROOT
HETATM    1  C1  UNL     1     -33.874  14.927  -5.662  1.00 20.00     0.020 C 
HETATM    2  C2  UNL     1     -33.859  14.783  -4.145  1.00 20.00     0.075 C 
HETATM    3  C3  UNL     1     -34.554  17.448  -4.083  1.00 20.00     0.089 C 
HETATM    4  C4  UNL     1     -34.524  17.393  -5.615  1.00 20.00     0.061 C 
HETATM    5  C5  UNL     1     -34.861  15.991  -6.221  1.00 20.00    -0.034 C 
HETATM    6  C6  UNL     1     -36.312  15.545  -5.934  1.00 20.00     0.016 C 
HETATM    7  C7  UNL     1     -34.672  16.009  -7.758  1.00 20.00     0.016 C 
HETATM    8  S8  UNL     1     -33.347  16.317  -3.333  1.00 20.00    -0.168 SA
ENDROOT
BRANCH   4   9
HETATM    9  S9  UNL     1     -35.616  18.744  -6.225  1.00 20.00    -0.176 SA
HETATM   10  H23 UNL     1     -34.758  19.169  -7.158  1.00 20.00     0.102 HD
ENDBRANCH   4   9
TORSDOF 1
ENDMDL
MODEL 3
REMARK VINA RESULT:      -2.8     12.471     13.958
REMARK  1 active torsions:
REMARK  status: ('A' for Active; 'I' for Inactive)
REMARK    1  A    between atoms: C4_4  and  S9_9 
ROOT
HETATM    1  C1  UNL     1     -33.537  16.329  -2.827  1.00 20.00     0.020 C 
HETATM    2  C2  UNL     1     -33.025  15.490  -3.991  1.00 20.00     0.075 C 
HETATM    3  C3  UNL     1     -34.917  16.799  -5.507  1.00 20.00     0.089 C 
HETATM    4  C4  UNL     1     -35.287  17.551  -4.223  1.00 20.00     0.061 C 
HETATM    5  C5  UNL     1     -34.109  17.724  -3.209  1.00 20.00    -0.034 C 
HETATM    6  C6  UNL     1     -32.969  18.612  -3.758  1.00 20.00     0.016 C 
HETATM    7  C7  UNL     1     -34.617  18.371  -1.898  1.00 20.00     0.016 C 
HETATM    8  S8  UNL     1     -34.343  15.109  -5.171  1.00 20.00    -0.168 SA
ENDROOT
BRANCH   4   9
HETATM    9  S9  UNL     1     -36.063  19.141  -4.733  1.00 20.00    -0.176 SA
HETATM   10  H23 UNL     1     -36.700  18.621  -5.788  1.00 20.00     0.102 HD
ENDBRANCH   4   9
TORSDOF 1
ENDMDL
MODEL 4
REMARK VINA RESULT:      -2.7     12.606     14.261
REMARK  1 active torsions:
REMARK  status: ('A' for Active; 'I' for Inactive)
REMARK    1  A    between atoms: C4_4  and  S9_9 
ROOT
HETATM    1  C1  UNL     1     -34.643  16.775  -5.834  1.00 20.00     0.020 C 
HETATM    2  C2  UNL     1     -34.951  15.403  -5.248  1.00 20.00     0.075 C 
HETATM    3  C3  UNL     1     -33.452  16.213  -3.082  1.00 20.00     0.089 C 
HETATM    4  C4  UNL     1     -33.259  17.537  -3.832  1.00 20.00     0.061 C 
HETATM    5  C5  UNL     1     -34.431  17.914  -4.796  1.00 20.00    -0.034 C 
HETATM    6  C6  UNL     1     -35.759  18.182  -4.053  1.00 20.00     0.016 C 
HETATM    7  C7  UNL     1     -34.078  19.189  -5.600  1.00 20.00     0.016 C 
HETATM    8  S8  UNL     1     -33.595  14.799  -4.213  1.00 20.00    -0.168 SA
ENDROOT
BRANCH   4   9
HETATM    9  S9  UNL     1     -32.899  18.825  -2.567  1.00 20.00    -0.176 SA
HETATM   10  H23 UNL     1     -33.774  18.353  -1.673  1.00 20.00     0.102 HD
ENDBRANCH   4   9
TORSDOF 1
ENDMDL
MODEL 5
REMARK VINA RESULT:      -2.6     12.768     13.972
REMARK  1 active torsions:
REMARK  status: ('A' for Active; 'I' for Inactive)
REMARK    1  A    between atoms: C4_4  and  S9_9 
ROOT
HETATM    1  C1  UNL     1     -35.425  18.368  -3.469  1.00 20.00     0.020 C 
HETATM    2  C2  UNL     1     -34.194  18.588  -2.599  1.00 20.00     0.075 C 
HETATM    3  C3  UNL     1     -33.240  16.251  -3.703  1.00 20.00     0.089 C 
HETATM    4  C4  UNL     1     -34.549  16.206  -4.502  1.00 20.00     0.061 C 
HETATM    5  C5  UNL     1     -35.174  17.608  -4.803  1.00 20.00    -0.034 C 
HETATM    6  C6  UNL     1     -34.288  18.475  -5.726  1.00 20.00     0.016 C 
HETATM    7  C7  UNL     1     -36.551  17.447  -5.491  1.00 20.00     0.016 C 
HETATM    8  S8  UNL     1     -33.458  17.021  -2.073  1.00 20.00    -0.168 SA
ENDROOT
BRANCH   4   9
HETATM    9  S9  UNL     1     -34.226  15.201  -6.010  1.00 20.00    -0.176 SA
HETATM   10  H23 UNL     1     -34.813  14.097  -5.536  1.00 20.00     0.102 HD
ENDBRANCH   4   9
TORSDOF 1
ENDMDL
MODEL 6
REMARK VINA RESULT:      -2.6     10.149     11.279
REMARK  1 active torsions:
REMARK  status: ('A' for Active; 'I' for Inactive)
REMARK    1  A    between atoms: C4_4  and  S9_9 
ROOT
HETATM    1  C1  UNL     1     -40.194  13.683   7.420  1.00 20.00     0.020 C 
HETATM    2  C2  UNL     1     -40.680  14.433   8.654  1.00 20.00     0.075 C 
HETATM    3  C3  UNL     1     -42.464  15.669   6.956  1.00 20.00     0.089 C 
HETATM    4  C4  UNL     1     -41.845  14.817   5.841  1.00 20.00     0.061 C 
HETATM    5  C5  UNL     1     -41.265  13.445   6.318  1.00 20.00    -0.034 C 
HETATM    6  C6  UNL     1     -42.352  12.488   6.858  1.00 20.00     0.016 C 
HETATM    7  C7  UNL     1     -40.549  12.727   5.148  1.00 20.00     0.016 C 
HETATM    8  S8  UNL     1     -41.254  16.099   8.241  1.00 20.00    -0.168 SA
ENDROOT
BRANCH   4   9
HETATM    9  S9  UNL     1     -43.112  14.663   4.514  1.00 20.00    -0.176 SA
HETATM   10  H23 UNL     1     -42.703  15.744   3.841  1.00 20.00     0.102 HD
ENDBRANCH   4   9
TORSDOF 1
ENDMDL
MODEL 7
REMARK VINA RESULT:      -2.6     13.192     14.554
REMARK  1 active torsions:
REMARK  status: ('A' for Active; 'I' for Inactive)
REMARK    1  A    between atoms: C4_4  and  S9_9 
ROOT
HETATM    1  C1  UNL     1     -36.365  16.273  -6.714  1.00 20.00     0.020 C 
HETATM    2  C2  UNL     1     -36.038  17.611  -7.364  1.00 20.00     0.075 C 
HETATM    3  C3  UNL     1     -34.334  18.005  -5.234  1.00 20.00     0.089 C 
HETATM    4  C4  UNL     1     -34.786  16.625  -4.742  1.00 20.00     0.061 C 
HETATM    5  C5  UNL     1     -35.218  15.639  -5.877  1.00 20.00    -0.034 C 
HETATM    6  C6  UNL     1     -34.051  15.255  -6.815  1.00 20.00     0.016 C 
HETATM    7  C7  UNL     1     -35.780  14.330  -5.269  1.00 20.00     0.016 C 
HETATM    8  S8  UNL     1     -35.651  18.877  -6.130  1.00 20.00    -0.168 SA
ENDROOT
BRANCH   4   9
HETATM    9  S9  UNL     1     -33.444  15.970  -3.665  1.00 20.00    -0.176 SA
HETATM   10  H23 UNL     1     -34.254  15.200  -2.931  1.00 20.00     0.102 HD
ENDBRANCH   4   9
TORSDOF 1
ENDMDL
MODEL 8
REMARK VINA RESULT:      -2.5     12.965     14.395
REMARK  1 active torsions:
REMARK  status: ('A' for Active; 'I' for Inactive)
REMARK    1  A    between atoms: C4_4  and  S9_9 
ROOT
HETATM    1  C1  UNL     1     -35.830  14.670  -6.267  1.00 20.00     0.020 C 
HETATM    2  C2  UNL     1     -35.460  14.100  -4.903  1.00 20.00     0.075 C 
HETATM    3  C3  UNL     1     -34.183  16.502  -4.466  1.00 20.00     0.089 C 
HETATM    4  C4  UNL     1     -34.656  16.900  -5.870  1.00 20.00     0.061 C 
HETATM    5  C5  UNL     1     -35.988  16.216  -6.324  1.00 20.00    -0.034 C 
HETATM    6  C6  UNL     1     -37.203  16.638  -5.468  1.00 20.00     0.016 C 
HETATM    7  C7  UNL     1     -36.304  16.577  -7.796  1.00 20.00     0.016 C 
HETATM    8  S8  UNL     1     -33.859  14.720  -4.331  1.00 20.00    -0.168 SA
ENDROOT
BRANCH   4   9
HETATM    9  S9  UNL     1     -34.716  18.739  -5.918  1.00 20.00    -0.176 SA
HETATM   10  H23 UNL     1     -34.319  18.898  -4.651  1.00 20.00     0.102 HD
ENDBRANCH   4   9
TORSDOF 1
ENDMDL
MODEL 9
REMARK VINA RESULT:      -2.5     15.857     16.988
REMARK  1 active torsions:
REMARK  status: ('A' for Active; 'I' for Inactive)
REMARK    1  A    between atoms: C4_4  and  S9_9 
ROOT
HETATM    1  C1  UNL     1     -24.679  19.017   9.727  1.00 20.00     0.020 C 
HETATM    2  C2  UNL     1     -24.130  18.599   8.369  1.00 20.00     0.075 C 
HETATM    3  C3  UNL     1     -21.686  18.432   9.630  1.00 20.00     0.089 C 
HETATM    4  C4  UNL     1     -22.423  18.860  10.906  1.00 20.00     0.061 C 
HETATM    5  C5  UNL     1     -23.928  18.438  10.959  1.00 20.00    -0.034 C 
HETATM    6  C6  UNL     1     -24.121  16.905  11.002  1.00 20.00     0.016 C 
HETATM    7  C7  UNL     1     -24.609  19.031  12.216  1.00 20.00     0.016 C 
HETATM    8  S8  UNL     1     -22.423  19.156   8.137  1.00 20.00    -0.168 SA
ENDROOT
BRANCH   4   9
HETATM    9  S9  UNL     1     -21.432  18.249  12.332  1.00 20.00    -0.176 SA
HETATM   10  H23 UNL     1     -22.442  17.569  12.886  1.00 20.00     0.102 HD
ENDBRANCH   4   9
TORSDOF 1
ENDMDL
