MODEL 1
REMARK VINA RESULT:      -3.3      0.000      0.000
REMARK  0 active torsions:
REMARK  status: ('A' for Active; 'I' for Inactive)
ROOT
HETATM    1  C1  UNL     1     -35.384  14.096  -4.669  1.00 20.00     0.086 C 
HETATM    2  C2  UNL     1     -33.184  17.140  -3.833  1.00 20.00     0.013 C 
HETATM    3  C3  UNL     1     -33.871  15.778  -3.737  1.00 20.00     0.043 C 
HETATM    4  C4  UNL     1     -34.167  18.291  -3.965  1.00 20.00     0.074 C 
HETATM    5  C5  UNL     1     -35.851  16.475  -5.217  1.00 20.00     0.081 C 
HETATM    6  C6  UNL     1     -34.759  15.407  -4.945  1.00 20.00     0.137 C 
HETATM    7  C7  UNL     1     -36.765  16.173  -6.411  1.00 20.00     0.024 C 
HETATM    8  N8  UNL     1     -35.874  13.066  -4.452  1.00 20.00    -0.195 NA
HETATM    9  S9  UNL     1     -35.155  18.154  -5.477  1.00 20.00    -0.162 SA
HETATM   10 CL10 UNL     1     -33.715  15.137  -6.391  1.00 20.00    -0.102 Cl
ENDROOT
TORSDOF 0
ENDMDL
MODEL 2
REMARK VINA RESULT:      -3.3     13.152     13.580
REMARK  0 active torsions:
REMARK  status: ('A' for Active; 'I' for Inactive)
ROOT
HETATM    1  C1  UNL     1     -40.159  12.532   6.342  1.00 20.00     0.086 C 
HETATM    2  C2  UNL     1     -42.817  14.900   4.880  1.00 20.00     0.013 C 
HETATM    3  C3  UNL     1     -41.697  13.865   4.983  1.00 20.00     0.043 C 
HETATM    4  C4  UNL     1     -42.461  16.224   5.536  1.00 20.00     0.074 C 
HETATM    5  C5  UNL     1     -40.852  14.742   7.245  1.00 20.00     0.081 C 
HETATM    6  C6  UNL     1     -41.277  13.496   6.422  1.00 20.00     0.137 C 
HETATM    7  C7  UNL     1     -40.430  14.447   8.689  1.00 20.00     0.024 C 
HETATM    8  N8  UNL     1     -39.281  11.775   6.277  1.00 20.00    -0.195 NA
HETATM    9  S9  UNL     1     -42.160  16.029   7.311  1.00 20.00    -0.162 SA
HETATM   10 CL10 UNL     1     -42.620  12.595   7.222  1.00 20.00    -0.102 Cl
ENDROOT
TORSDOF 0
ENDMDL
MODEL 3
REMARK VINA RESULT:      -3.2      1.816      2.426
REMARK  0 active torsions:
REMARK  status: ('A' for Active; 'I' for Inactive)
ROOT
HETATM    1  C1  UNL     1     -36.717  16.146  -5.979  1.00 20.00     0.086 C 
HETATM    2  C2  UNL     1     -33.408  15.120  -4.304  1.00 20.00     0.013 C 
HETATM    3  C3  UNL     1     -34.819  15.052  -4.890  1.00 20.00     0.043 C 
HETATM    4  C4  UNL     1     -33.276  16.153  -3.198  1.00 20.00     0.074 C 
HETATM    5  C5  UNL     1     -35.291  17.547  -4.502  1.00 20.00     0.081 C 
HETATM    6  C6  UNL     1     -35.332  16.369  -5.511  1.00 20.00     0.137 C 
HETATM    7  C7  UNL     1     -35.781  18.890  -5.058  1.00 20.00     0.024 C 
HETATM    8  N8  UNL     1     -37.804  15.970  -6.346  1.00 20.00    -0.195 NA
HETATM    9  S9  UNL     1     -33.616  17.826  -3.804  1.00 20.00    -0.162 SA
HETATM   10 CL10 UNL     1     -34.384  16.734  -7.002  1.00 20.00    -0.102 Cl
ENDROOT
TORSDOF 0
ENDMDL
MODEL 4
REMARK VINA RESULT:      -3.2      2.309      2.932
REMARK  0 active torsions:
REMARK  status: ('A' for Active; 'I' for Inactive)
ROOT
HETATM    1  C1  UNL     1     -34.449  15.748  -6.864  1.00 20.00     0.086 C 
HETATM    2  C2  UNL     1     -34.222  18.975  -4.780  1.00 20.00     0.013 C 
HETATM    3  C3  UNL     1     -34.206  18.011  -5.967  1.00 20.00     0.043 C 
HETATM    4  C4  UNL     1     -33.248  18.579  -3.683  1.00 20.00     0.074 C 
HETATM    5  C5  UNL     1     -33.641  15.963  -4.523  1.00 20.00     0.081 C 
HETATM    6  C6  UNL     1     -34.563  16.548  -5.626  1.00 20.00     0.137 C 
HETATM    7  C7  UNL     1     -33.947  14.513  -4.130  1.00 20.00     0.024 C 
HETATM    8  N8  UNL     1     -34.361  15.120  -7.836  1.00 20.00    -0.195 NA
HETATM    9  S9  UNL     1     -33.656  16.960  -2.982  1.00 20.00    -0.162 SA
HETATM   10 CL10 UNL     1     -36.303  16.453  -5.160  1.00 20.00    -0.102 Cl
ENDROOT
TORSDOF 0
ENDMDL
MODEL 5
REMARK VINA RESULT:      -3.1     13.669     13.997
REMARK  0 active torsions:
REMARK  status: ('A' for Active; 'I' for Inactive)
ROOT
HETATM    1  C1  UNL     1     -40.281  12.638   6.310  1.00 20.00     0.086 C 
HETATM    2  C2  UNL     1     -41.157  16.150   7.617  1.00 20.00     0.013 C 
HETATM    3  C3  UNL     1     -40.356  14.921   7.189  1.00 20.00     0.043 C 
HETATM    4  C4  UNL     1     -42.181  15.843   8.697  1.00 20.00     0.074 C 
HETATM    5  C5  UNL     1     -42.294  13.290   7.615  1.00 20.00     0.081 C 
HETATM    6  C6  UNL     1     -41.197  13.757   6.622  1.00 20.00     0.137 C 
HETATM    7  C7  UNL     1     -43.174  12.139   7.110  1.00 20.00     0.024 C 
HETATM    8  N8  UNL     1     -39.562  11.761   6.065  1.00 20.00    -0.195 NA
HETATM    9  S9  UNL     1     -43.417  14.650   8.124  1.00 20.00    -0.162 SA
HETATM   10 CL10 UNL     1     -41.899  14.249   5.034  1.00 20.00    -0.102 Cl
ENDROOT
TORSDOF 0
ENDMDL
MODEL 6
REMARK VINA RESULT:      -3.0      2.529      2.913
REMARK  0 active torsions:
REMARK  status: ('A' for Active; 'I' for Inactive)
ROOT
HETATM    1  C1  UNL     1     -34.587  16.581  -5.225  1.00 20.00     0.086 C 
HETATM    2  C2  UNL     1     -32.869  17.419  -1.885  1.00 20.00     0.013 C 
HETATM    3  C3  UNL     1     -33.315  16.662  -3.136  1.00 20.00     0.043 C 
HETATM    4  C4  UNL     1     -34.035  17.902  -1.038  1.00 20.00     0.074 C 
HETATM    5  C5  UNL     1     -35.473  18.028  -3.408  1.00 20.00     0.081 C 
HETATM    6  C6  UNL     1     -34.205  17.469  -4.105  1.00 20.00     0.137 C 
HETATM    7  C7  UNL     1     -36.399  18.849  -4.315  1.00 20.00     0.024 C 
HETATM    8  N8  UNL     1     -34.886  15.883  -6.103  1.00 20.00    -0.195 NA
HETATM    9  S9  UNL     1     -35.081  19.068  -1.947  1.00 20.00    -0.162 SA
HETATM   10 CL10 UNL     1     -33.224  18.783  -4.860  1.00 20.00    -0.102 Cl
ENDROOT
TORSDOF 0
ENDMDL
MODEL 7
REMARK VINA RESULT:      -3.0     13.251     13.586
REMARK  0 active torsions:
REMARK  status: ('A' for Active; 'I' for Inactive)
ROOT
HETATM    1  C1  UNL     1     -42.014  14.422   4.513  1.00 20.00     0.086 C 
HETATM    2  C2  UNL     1     -42.216  16.345   7.840  1.00 20.00     0.013 C 
HETATM    3  C3  UNL     1     -42.263  16.024   6.346  1.00 20.00     0.043 C 
HETATM    4  C4  UNL     1     -40.867  16.039   8.468  1.00 20.00     0.074 C 
HETATM    5  C5  UNL     1     -40.614  14.063   6.535  1.00 20.00     0.081 C 
HETATM    6  C6  UNL     1     -41.982  14.549   5.986  1.00 20.00     0.137 C 
HETATM    7  C7  UNL     1     -40.275  12.601   6.220  1.00 20.00     0.024 C 
HETATM    8  N8  UNL     1     -42.040  14.323   3.357  1.00 20.00    -0.195 NA
HETATM    9  S9  UNL     1     -40.462  14.277   8.352  1.00 20.00    -0.162 SA
HETATM   10 CL10 UNL     1     -43.342  13.521   6.578  1.00 20.00    -0.102 Cl
ENDROOT
TORSDOF 0
ENDMDL
MODEL 8
REMARK VINA RESULT:      -2.9      2.965      3.450
REMARK  0 active torsions:
REMARK  status: ('A' for Active; 'I' for Inactive)
ROOT
HETATM    1  C1  UNL     1     -35.002  18.220  -6.748  1.00 20.00     0.086 C 
HETATM    2  C2  UNL     1     -33.749  17.132  -3.276  1.00 20.00     0.013 C 
HETATM    3  C3  UNL     1     -33.984  17.963  -4.538  1.00 20.00     0.043 C 
HETATM    4  C4  UNL     1     -33.139  15.772  -3.569  1.00 20.00     0.074 C 
HETATM    5  C5  UNL     1     -34.439  15.912  -6.017  1.00 20.00     0.081 C 
HETATM    6  C6  UNL     1     -34.926  17.318  -5.578  1.00 20.00     0.137 C 
HETATM    7  C7  UNL     1     -35.335  15.211  -7.045  1.00 20.00     0.024 C 
HETATM    8  N8  UNL     1     -35.062  18.928  -7.666  1.00 20.00    -0.195 NA
HETATM    9  S9  UNL     1     -34.229  14.760  -4.603  1.00 20.00    -0.162 SA
HETATM   10 CL10 UNL     1     -36.602  17.267  -4.913  1.00 20.00    -0.102 Cl
ENDROOT
TORSDOF 0
ENDMDL
MODEL 9
REMARK VINA RESULT:      -2.9     13.837     14.353
REMARK  0 active torsions:
REMARK  status: ('A' for Active; 'I' for Inactive)
ROOT
HETATM    1  C1  UNL     1     -41.942  14.002   4.936  1.00 20.00     0.086 C 
HETATM    2  C2  UNL     1     -43.417  12.175   7.985  1.00 20.00     0.013 C 
HETATM    3  C3  UNL     1     -43.243  12.725   6.569  1.00 20.00     0.043 C 
HETATM    4  C4  UNL     1     -43.397  13.260   9.048  1.00 20.00     0.074 C 
HETATM    5  C5  UNL     1     -41.747  14.674   7.321  1.00 20.00     0.081 C 
HETATM    6  C6  UNL     1     -41.927  13.497   6.326  1.00 20.00     0.137 C 
HETATM    7  C7  UNL     1     -40.454  15.479   7.140  1.00 20.00     0.024 C 
HETATM    8  N8  UNL     1     -41.954  14.398   3.845  1.00 20.00    -0.195 NA
HETATM    9  S9  UNL     1     -41.812  14.136   9.076  1.00 20.00    -0.162 SA
HETATM   10 CL10 UNL     1     -40.540  12.346   6.395  1.00 20.00    -0.102 Cl
ENDROOT
TORSDOF 0
ENDMDL
