MODEL 1
REMARK VINA RESULT:      -3.9      0.000      0.000
REMARK  1 active torsions:
REMARK  status: ('A' for Active; 'I' for Inactive)
REMARK    1  A    between atoms: C7_7  and  C11_11 
ROOT
HETATM    1  C1  UNL     1     -33.558  18.388  -0.567  1.00 20.00     0.030 C 
HETATM    2  C2  UNL     1     -34.792  18.656  -1.421  1.00 20.00     0.036 C 
HETATM    3  C3  UNL     1     -35.146  18.982  -3.969  1.00 20.00     0.305 C 
HETATM    4  C4  UNL     1     -32.428  18.044  -1.534  1.00 20.00     0.235 C 
HETATM    5  C5  UNL     1     -33.424  16.729  -3.420  1.00 20.00     0.271 C 
HETATM    6  C6  UNL     1     -34.212  19.048  -2.768  1.00 20.00     0.216 C 
HETATM    7  C7  UNL     1     -34.294  16.834  -4.677  1.00 20.00     0.251 C 
HETATM    8  C10 UNL     1     -36.450  17.673  -5.490  1.00 20.00     0.310 C 
HETATM    9  N12 UNL     1     -35.512  17.613  -4.366  1.00 20.00     0.092 N 
HETATM   10  N13 UNL     1     -33.051  18.099  -2.915  1.00 20.00    -0.063 N 
HETATM   11  H36 UNL     1     -32.372  18.503  -3.576  1.00 20.00     0.280 HD
ENDROOT
BRANCH   7  12
HETATM   12  C11 UNL     1     -34.605  15.406  -5.151  1.00 20.00     0.012 C 
HETATM   13  C8  UNL     1     -34.043  15.181  -6.549  1.00 20.00     0.012 C 
HETATM   14  C9  UNL     1     -34.043  14.388  -4.167  1.00 20.00     0.012 C 
ENDBRANCH   7  12
TORSDOF 1
ENDMDL
MODEL 2
REMARK VINA RESULT:      -3.5      1.555      1.812
REMARK  1 active torsions:
REMARK  status: ('A' for Active; 'I' for Inactive)
REMARK    1  A    between atoms: C7_7  and  C11_11 
ROOT
HETATM    1  C1  UNL     1     -34.011  17.774  -1.584  1.00 20.00     0.030 C 
HETATM    2  C2  UNL     1     -34.395  18.804  -2.641  1.00 20.00     0.036 C 
HETATM    3  C3  UNL     1     -33.743  19.114  -5.132  1.00 20.00     0.305 C 
HETATM    4  C4  UNL     1     -33.290  16.647  -2.319  1.00 20.00     0.235 C 
HETATM    5  C5  UNL     1     -34.405  16.364  -4.546  1.00 20.00     0.271 C 
HETATM    6  C6  UNL     1     -33.399  18.553  -3.758  1.00 20.00     0.216 C 
HETATM    7  C7  UNL     1     -34.570  16.990  -5.934  1.00 20.00     0.251 C 
HETATM    8  C10 UNL     1     -35.143  19.085  -7.072  1.00 20.00     0.310 C 
HETATM    9  N12 UNL     1     -34.867  18.431  -5.790  1.00 20.00     0.092 N 
HETATM   10  N13 UNL     1     -33.301  17.050  -3.782  1.00 20.00    -0.063 N 
HETATM   11  H36 UNL     1     -32.406  16.780  -4.213  1.00 20.00     0.280 HD
ENDROOT
BRANCH   7  12
HETATM   12  C11 UNL     1     -35.683  16.222  -6.664  1.00 20.00     0.012 C 
HETATM   13  C8  UNL     1     -35.129  15.557  -7.918  1.00 20.00     0.012 C 
HETATM   14  C9  UNL     1     -36.312  15.193  -5.734  1.00 20.00     0.012 C 
ENDBRANCH   7  12
TORSDOF 1
ENDMDL
MODEL 3
REMARK VINA RESULT:      -3.5      1.367      2.809
REMARK  1 active torsions:
REMARK  status: ('A' for Active; 'I' for Inactive)
REMARK    1  A    between atoms: C7_7  and  C11_11 
ROOT
HETATM    1  C1  UNL     1     -32.962  19.179  -1.172  1.00 20.00     0.030 C 
HETATM    2  C2  UNL     1     -32.455  17.938  -1.899  1.00 20.00     0.036 C 
HETATM    3  C3  UNL     1     -33.649  15.887  -2.945  1.00 20.00     0.305 C 
HETATM    4  C4  UNL     1     -34.475  19.207  -1.365  1.00 20.00     0.235 C 
HETATM    5  C5  UNL     1     -34.957  18.358  -3.673  1.00 20.00     0.271 C 
HETATM    6  C6  UNL     1     -33.671  17.030  -1.939  1.00 20.00     0.216 C 
HETATM    7  C7  UNL     1     -34.998  17.097  -4.544  1.00 20.00     0.251 C 
HETATM    8  C10 UNL     1     -33.668  15.153  -5.223  1.00 20.00     0.310 C 
HETATM    9  N12 UNL     1     -33.754  16.324  -4.346  1.00 20.00     0.092 N 
HETATM   10  N13 UNL     1     -34.794  17.995  -2.220  1.00 20.00    -0.063 N 
HETATM   11  H36 UNL     1     -35.679  17.578  -1.898  1.00 20.00     0.280 HD
ENDROOT
BRANCH   7  12
HETATM   12  C11 UNL     1     -35.200  17.541  -6.000  1.00 20.00     0.012 C 
HETATM   13  C8  UNL     1     -36.668  17.857  -6.257  1.00 20.00     0.012 C 
HETATM   14  C9  UNL     1     -34.321  18.747  -6.312  1.00 20.00     0.012 C 
ENDBRANCH   7  12
TORSDOF 1
ENDMDL
MODEL 4
REMARK VINA RESULT:      -3.5     12.413     13.557
REMARK  1 active torsions:
REMARK  status: ('A' for Active; 'I' for Inactive)
REMARK    1  A    between atoms: C7_7  and  C11_11 
ROOT
HETATM    1  C1  UNL     1     -41.341  15.734  10.800  1.00 20.00     0.030 C 
HETATM    2  C2  UNL     1     -42.149  16.223   9.603  1.00 20.00     0.036 C 
HETATM    3  C3  UNL     1     -41.569  16.579   7.101  1.00 20.00     0.305 C 
HETATM    4  C4  UNL     1     -40.038  15.167  10.241  1.00 20.00     0.235 C 
HETATM    5  C5  UNL     1     -40.576  14.044   8.066  1.00 20.00     0.271 C 
HETATM    6  C6  UNL     1     -41.092  16.480   8.544  1.00 20.00     0.216 C 
HETATM    7  C7  UNL     1     -40.944  14.299   6.601  1.00 20.00     0.251 C 
HETATM    8  C10 UNL     1     -42.511  15.526   5.169  1.00 20.00     0.310 C 
HETATM    9  N12 UNL     1     -42.028  15.302   6.534  1.00 20.00     0.092 N 
HETATM   10  N13 UNL     1     -40.145  15.324   8.736  1.00 20.00    -0.063 N 
HETATM   11  H36 UNL     1     -39.223  15.582   8.358  1.00 20.00     0.280 HD
ENDROOT
BRANCH   7  12
HETATM   12  C11 UNL     1     -41.338  12.952   5.976  1.00 20.00     0.012 C 
HETATM   13  C8  UNL     1     -40.118  12.046   5.864  1.00 20.00     0.012 C 
HETATM   14  C9  UNL     1     -42.435  12.288   6.800  1.00 20.00     0.012 C 
ENDBRANCH   7  12
TORSDOF 1
ENDMDL
MODEL 5
REMARK VINA RESULT:      -3.4      1.684      4.753
REMARK  1 active torsions:
REMARK  status: ('A' for Active; 'I' for Inactive)
REMARK    1  A    between atoms: C7_7  and  C11_11 
ROOT
HETATM    1  C1  UNL     1     -36.328  17.728  -7.918  1.00 20.00     0.030 C 
HETATM    2  C2  UNL     1     -36.121  16.353  -7.292  1.00 20.00     0.036 C 
HETATM    3  C3  UNL     1     -34.104  15.230  -6.108  1.00 20.00     0.305 C 
HETATM    4  C4  UNL     1     -35.132  18.579  -7.500  1.00 20.00     0.235 C 
HETATM    5  C5  UNL     1     -34.523  17.926  -5.158  1.00 20.00     0.271 C 
HETATM    6  C6  UNL     1     -34.619  16.281  -7.084  1.00 20.00     0.216 C 
HETATM    7  C7  UNL     1     -33.875  16.827  -4.309  1.00 20.00     0.251 C 
HETATM    8  C10 UNL     1     -33.935  14.417  -3.864  1.00 20.00     0.310 C 
HETATM    9  N12 UNL     1     -34.428  15.513  -4.701  1.00 20.00     0.092 N 
HETATM   10  N13 UNL     1     -34.283  17.676  -6.624  1.00 20.00    -0.063 N 
HETATM   11  H36 UNL     1     -33.288  17.859  -6.815  1.00 20.00     0.280 HD
ENDROOT
BRANCH   7  12
HETATM   12  C11 UNL     1     -34.130  17.165  -2.832  1.00 20.00     0.012 C 
HETATM   13  C8  UNL     1     -32.810  17.396  -2.108  1.00 20.00     0.012 C 
HETATM   14  C9  UNL     1     -35.035  18.386  -2.718  1.00 20.00     0.012 C 
ENDBRANCH   7  12
TORSDOF 1
ENDMDL
MODEL 6
REMARK VINA RESULT:      -3.3      1.408      4.328
REMARK  1 active torsions:
REMARK  status: ('A' for Active; 'I' for Inactive)
REMARK    1  A    between atoms: C7_7  and  C11_11 
ROOT
HETATM    1  C1  UNL     1     -34.235  16.011  -7.473  1.00 20.00     0.030 C 
HETATM    2  C2  UNL     1     -35.199  17.118  -7.058  1.00 20.00     0.036 C 
HETATM    3  C3  UNL     1     -36.674  17.486  -4.957  1.00 20.00     0.305 C 
HETATM    4  C4  UNL     1     -34.018  15.140  -6.238  1.00 20.00     0.235 C 
HETATM    5  C5  UNL     1     -34.002  16.654  -4.241  1.00 20.00     0.271 C 
HETATM    6  C6  UNL     1     -35.936  16.519  -5.874  1.00 20.00     0.216 C 
HETATM    7  C7  UNL     1     -34.890  17.505  -3.327  1.00 20.00     0.251 C 
HETATM    8  C10 UNL     1     -36.599  19.263  -3.355  1.00 20.00     0.310 C 
HETATM    9  N12 UNL     1     -35.786  18.341  -4.153  1.00 20.00     0.092 N 
HETATM   10  N13 UNL     1     -34.843  15.786  -5.141  1.00 20.00    -0.063 N 
HETATM   11  H36 UNL     1     -35.266  15.049  -4.560  1.00 20.00     0.280 HD
ENDROOT
BRANCH   7  12
HETATM   12  C11 UNL     1     -33.969  18.334  -2.420  1.00 20.00     0.012 C 
HETATM   13  C8  UNL     1     -33.457  17.481  -1.266  1.00 20.00     0.012 C 
HETATM   14  C9  UNL     1     -32.811  18.910  -3.226  1.00 20.00     0.012 C 
ENDBRANCH   7  12
TORSDOF 1
ENDMDL
MODEL 7
REMARK VINA RESULT:      -3.2      1.877      3.440
REMARK  1 active torsions:
REMARK  status: ('A' for Active; 'I' for Inactive)
REMARK    1  A    between atoms: C7_7  and  C11_11 
ROOT
HETATM    1  C1  UNL     1     -33.116  17.228  -2.297  1.00 20.00     0.030 C 
HETATM    2  C2  UNL     1     -32.972  16.207  -3.421  1.00 20.00     0.036 C 
HETATM    3  C3  UNL     1     -34.617  15.300  -5.210  1.00 20.00     0.305 C 
HETATM    4  C4  UNL     1     -34.449  17.936  -2.522  1.00 20.00     0.235 C 
HETATM    5  C5  UNL     1     -34.767  18.177  -4.997  1.00 20.00     0.271 C 
HETATM    6  C6  UNL     1     -34.406  15.947  -3.847  1.00 20.00     0.216 C 
HETATM    7  C7  UNL     1     -35.103  17.412  -6.281  1.00 20.00     0.251 C 
HETATM    8  C10 UNL     1     -34.476  15.439  -7.595  1.00 20.00     0.310 C 
HETATM    9  N12 UNL     1     -34.290  16.179  -6.344  1.00 20.00     0.092 N 
HETATM   10  N13 UNL     1     -35.023  17.320  -3.784  1.00 20.00    -0.063 N 
HETATM   11  H36 UNL     1     -36.043  17.223  -3.678  1.00 20.00     0.280 HD
ENDROOT
BRANCH   7  12
HETATM   12  C11 UNL     1     -34.851  18.354  -7.467  1.00 20.00     0.012 C 
HETATM   13  C8  UNL     1     -36.094  19.188  -7.752  1.00 20.00     0.012 C 
HETATM   14  C9  UNL     1     -33.649  19.248  -7.186  1.00 20.00     0.012 C 
ENDBRANCH   7  12
TORSDOF 1
ENDMDL
MODEL 8
REMARK VINA RESULT:      -3.2     12.299     13.508
REMARK  1 active torsions:
REMARK  status: ('A' for Active; 'I' for Inactive)
REMARK    1  A    between atoms: C7_7  and  C11_11 
ROOT
HETATM    1  C1  UNL     1     -40.899  16.634   9.378  1.00 20.00     0.030 C 
HETATM    2  C2  UNL     1     -41.868  15.460   9.468  1.00 20.00     0.036 C 
HETATM    3  C3  UNL     1     -43.237  14.154   7.693  1.00 20.00     0.305 C 
HETATM    4  C4  UNL     1     -40.592  16.831   7.896  1.00 20.00     0.235 C 
HETATM    5  C5  UNL     1     -40.509  14.562   6.835  1.00 20.00     0.271 C 
HETATM    6  C6  UNL     1     -42.524  15.438   8.099  1.00 20.00     0.216 C 
HETATM    7  C7  UNL     1     -41.369  13.382   6.369  1.00 20.00     0.251 C 
HETATM    8  C10 UNL     1     -43.123  11.836   7.107  1.00 20.00     0.310 C 
HETATM    9  N12 UNL     1     -42.330  13.025   7.433  1.00 20.00     0.092 N 
HETATM   10  N13 UNL     1     -41.374  15.748   7.177  1.00 20.00    -0.063 N 
HETATM   11  H36 UNL     1     -41.746  16.129   6.295  1.00 20.00     0.280 HD
ENDROOT
BRANCH   7  12
HETATM   12  C11 UNL     1     -40.422  12.227   6.007  1.00 20.00     0.012 C 
HETATM   13  C8  UNL     1     -39.949  12.365   4.565  1.00 20.00     0.012 C 
HETATM   14  C9  UNL     1     -39.240  12.193   6.967  1.00 20.00     0.012 C 
ENDBRANCH   7  12
TORSDOF 1
ENDMDL
MODEL 9
REMARK VINA RESULT:      -3.2      1.413      4.332
REMARK  1 active torsions:
REMARK  status: ('A' for Active; 'I' for Inactive)
REMARK    1  A    between atoms: C7_7  and  C11_11 
ROOT
HETATM    1  C1  UNL     1     -37.944  17.632  -5.320  1.00 20.00     0.030 C 
HETATM    2  C2  UNL     1     -37.074  16.385  -5.204  1.00 20.00     0.036 C 
HETATM    3  C3  UNL     1     -34.562  15.929  -5.663  1.00 20.00     0.305 C 
HETATM    4  C4  UNL     1     -36.992  18.806  -5.534  1.00 20.00     0.235 C 
HETATM    5  C5  UNL     1     -34.938  18.371  -4.166  1.00 20.00     0.271 C 
HETATM    6  C6  UNL     1     -35.800  16.773  -5.935  1.00 20.00     0.216 C 
HETATM    7  C7  UNL     1     -33.665  17.522  -4.082  1.00 20.00     0.251 C 
HETATM    8  C10 UNL     1     -32.858  15.207  -4.145  1.00 20.00     0.310 C 
HETATM    9  N12 UNL     1     -34.007  16.102  -4.311  1.00 20.00     0.092 N 
HETATM   10  N13 UNL     1     -35.600  18.205  -5.510  1.00 20.00    -0.063 N 
HETATM   11  H36 UNL     1     -35.014  18.682  -6.210  1.00 20.00     0.280 HD
ENDROOT
BRANCH   7  12
HETATM   12  C11 UNL     1     -33.029  17.768  -2.705  1.00 20.00     0.012 C 
HETATM   13  C8  UNL     1     -32.590  19.221  -2.579  1.00 20.00     0.012 C 
HETATM   14  C9  UNL     1     -34.007  17.396  -1.598  1.00 20.00     0.012 C 
ENDBRANCH   7  12
TORSDOF 1
ENDMDL
