MODEL 1
REMARK VINA RESULT:      -3.8      0.000      0.000
REMARK  2 active torsions:
REMARK  status: ('A' for Active; 'I' for Inactive)
REMARK    1  A    between atoms: C5_5  and  N9_9 
REMARK    2  A    between atoms: C8_8  and  N9_9 
ROOT
HETATM    1  C1  UNL     1     -33.076  15.373  -3.958  1.00 20.00     0.013 C 
HETATM    2  C2  UNL     1     -33.288  16.232  -3.145  1.00 20.00    -0.087 C 
HETATM    3  C8  UNL     1     -33.551  17.277  -2.153  1.00 20.00     0.362 C 
ENDROOT
BRANCH   3   4
HETATM    4  N9  UNL     1     -32.585  18.360  -2.280  1.00 20.00     0.099 N 
HETATM    5  H23 UNL     1     -32.912  19.019  -2.986  1.00 20.00     0.317 HD
BRANCH   4   6
HETATM    6  C5  UNL     1     -32.419  19.051  -1.029  1.00 20.00     0.232 C 
HETATM    7  C3  UNL     1     -31.203  18.550  -0.258  1.00 20.00     0.051 C 
HETATM    8  C6  UNL     1     -31.243  19.238   1.103  1.00 20.00     0.045 C 
HETATM    9  C7  UNL     1     -30.413  18.519   2.152  1.00 20.00     0.021 C 
HETATM   10  S10 UNL     1     -33.010  19.263   1.550  1.00 20.00    -0.162 SA
HETATM   11  C4  UNL     1     -33.616  18.848  -0.110  1.00 20.00     0.109 C 
ENDBRANCH   4   6
ENDBRANCH   3   4
TORSDOF 2
ENDMDL
MODEL 2
REMARK VINA RESULT:      -3.8      3.409      6.045
REMARK  2 active torsions:
REMARK  status: ('A' for Active; 'I' for Inactive)
REMARK    1  A    between atoms: C5_5  and  N9_9 
REMARK    2  A    between atoms: C8_8  and  N9_9 
ROOT
HETATM    1  C1  UNL     1     -31.585  18.498  -0.610  1.00 20.00     0.013 C 
HETATM    2  C2  UNL     1     -32.584  18.100  -1.145  1.00 20.00    -0.087 C 
HETATM    3  C8  UNL     1     -33.805  17.621  -1.797  1.00 20.00     0.362 C 
ENDROOT
BRANCH   3   4
HETATM    4  N9  UNL     1     -33.610  16.277  -2.326  1.00 20.00     0.099 N 
HETATM    5  H23 UNL     1     -34.377  15.681  -2.017  1.00 20.00     0.317 HD
BRANCH   4   6
HETATM    6  C5  UNL     1     -33.571  16.291  -3.764  1.00 20.00     0.232 C 
HETATM    7  C3  UNL     1     -34.645  17.199  -4.355  1.00 20.00     0.051 C 
HETATM    8  C6  UNL     1     -34.600  16.991  -5.866  1.00 20.00     0.045 C 
HETATM    9  C7  UNL     1     -35.880  17.428  -6.558  1.00 20.00     0.021 C 
HETATM   10  S10 UNL     1     -34.305  15.205  -6.072  1.00 20.00    -0.162 SA
HETATM   11  C4  UNL     1     -33.819  14.907  -4.348  1.00 20.00     0.109 C 
ENDBRANCH   4   6
ENDBRANCH   3   4
TORSDOF 2
ENDMDL
MODEL 3
REMARK VINA RESULT:      -3.8      2.024      4.892
REMARK  2 active torsions:
REMARK  status: ('A' for Active; 'I' for Inactive)
REMARK    1  A    between atoms: C5_5  and  N9_9 
REMARK    2  A    between atoms: C8_8  and  N9_9 
ROOT
HETATM    1  C1  UNL     1     -30.276  18.557   2.407  1.00 20.00     0.013 C 
HETATM    2  C2  UNL     1     -30.790  18.602   1.323  1.00 20.00    -0.087 C 
HETATM    3  C8  UNL     1     -31.412  18.657  -0.003  1.00 20.00     0.362 C 
ENDROOT
BRANCH   3   4
HETATM    4  N9  UNL     1     -32.851  18.450   0.097  1.00 20.00     0.099 N 
HETATM    5  H23 UNL     1     -33.264  19.220   0.622  1.00 20.00     0.317 HD
BRANCH   4   6
HETATM    6  C5  UNL     1     -33.453  18.389  -1.208  1.00 20.00     0.232 C 
HETATM    7  C3  UNL     1     -33.432  16.975  -1.780  1.00 20.00     0.051 C 
HETATM    8  C6  UNL     1     -33.941  17.086  -3.215  1.00 20.00     0.045 C 
HETATM    9  C7  UNL     1     -33.544  15.897  -4.073  1.00 20.00     0.021 C 
HETATM   10  S10 UNL     1     -33.213  18.635  -3.840  1.00 20.00    -0.162 SA
HETATM   11  C4  UNL     1     -32.714  19.263  -2.212  1.00 20.00     0.109 C 
ENDBRANCH   4   6
ENDBRANCH   3   4
TORSDOF 2
ENDMDL
MODEL 4
REMARK VINA RESULT:      -3.7      2.565      3.453
REMARK  2 active torsions:
REMARK  status: ('A' for Active; 'I' for Inactive)
REMARK    1  A    between atoms: C5_5  and  N9_9 
REMARK    2  A    between atoms: C8_8  and  N9_9 
ROOT
HETATM    1  C1  UNL     1     -35.747  13.761  -4.736  1.00 20.00     0.013 C 
HETATM    2  C2  UNL     1     -34.766  14.354  -4.378  1.00 20.00    -0.087 C 
HETATM    3  C8  UNL     1     -33.568  15.074  -3.938  1.00 20.00     0.362 C 
ENDROOT
BRANCH   3   4
HETATM    4  N9  UNL     1     -33.454  16.351  -4.630  1.00 20.00     0.099 N 
HETATM    5  H23 UNL     1     -34.208  16.431  -5.312  1.00 20.00     0.317 HD
BRANCH   4   6
HETATM    6  C5  UNL     1     -33.536  17.447  -3.702  1.00 20.00     0.232 C 
HETATM    7  C3  UNL     1     -33.268  17.002  -2.268  1.00 20.00     0.051 C 
HETATM    8  C6  UNL     1     -33.550  18.213  -1.383  1.00 20.00     0.045 C 
HETATM    9  C7  UNL     1     -33.800  17.836   0.067  1.00 20.00     0.021 C 
HETATM   10  S10 UNL     1     -35.014  18.996  -2.133  1.00 20.00    -0.162 SA
HETATM   11  C4  UNL     1     -34.921  18.079  -3.697  1.00 20.00     0.109 C 
ENDBRANCH   4   6
ENDBRANCH   3   4
TORSDOF 2
ENDMDL
MODEL 5
REMARK VINA RESULT:      -3.7      3.941      6.522
REMARK  2 active torsions:
REMARK  status: ('A' for Active; 'I' for Inactive)
REMARK    1  A    between atoms: C5_5  and  N9_9 
REMARK    2  A    between atoms: C8_8  and  N9_9 
ROOT
HETATM    1  C1  UNL     1     -33.691  17.735  -0.801  1.00 20.00     0.013 C 
HETATM    2  C2  UNL     1     -33.513  17.100  -1.804  1.00 20.00    -0.087 C 
HETATM    3  C8  UNL     1     -33.293  16.319  -3.024  1.00 20.00     0.362 C 
ENDROOT
BRANCH   3   4
HETATM    4  N9  UNL     1     -33.335  17.181  -4.199  1.00 20.00     0.099 N 
HETATM    5  H23 UNL     1     -32.409  17.213  -4.624  1.00 20.00     0.317 HD
BRANCH   4   6
HETATM    6  C5  UNL     1     -34.283  16.691  -5.163  1.00 20.00     0.232 C 
HETATM    7  C3  UNL     1     -35.703  17.154  -4.854  1.00 20.00     0.051 C 
HETATM    8  C6  UNL     1     -36.614  16.434  -5.843  1.00 20.00     0.045 C 
HETATM    9  C7  UNL     1     -38.063  16.395  -5.387  1.00 20.00     0.021 C 
HETATM   10  S10 UNL     1     -35.910  14.759  -5.977  1.00 20.00    -0.162 SA
HETATM   11  C4  UNL     1     -34.329  15.170  -5.185  1.00 20.00     0.109 C 
ENDBRANCH   4   6
ENDBRANCH   3   4
TORSDOF 2
ENDMDL
MODEL 6
REMARK VINA RESULT:      -3.6     12.212     12.802
REMARK  2 active torsions:
REMARK  status: ('A' for Active; 'I' for Inactive)
REMARK    1  A    between atoms: C5_5  and  N9_9 
REMARK    2  A    between atoms: C8_8  and  N9_9 
ROOT
HETATM    1  C1  UNL     1     -38.957  11.621   4.049  1.00 20.00     0.013 C 
HETATM    2  C2  UNL     1     -39.628  12.014   4.964  1.00 20.00    -0.087 C 
HETATM    3  C8  UNL     1     -40.452  12.488   6.079  1.00 20.00     0.362 C 
ENDROOT
BRANCH   3   4
HETATM    4  N9  UNL     1     -39.934  13.747   6.600  1.00 20.00     0.099 N 
HETATM    5  H23 UNL     1     -39.809  14.402   5.828  1.00 20.00     0.317 HD
BRANCH   4   6
HETATM    6  C5  UNL     1     -40.839  14.316   7.562  1.00 20.00     0.232 C 
HETATM    7  C3  UNL     1     -40.228  14.367   8.959  1.00 20.00     0.051 C 
HETATM    8  C6  UNL     1     -41.339  14.829   9.897  1.00 20.00     0.045 C 
HETATM    9  C7  UNL     1     -41.065  14.482  11.350  1.00 20.00     0.021 C 
HETATM   10  S10 UNL     1     -42.836  13.991   9.280  1.00 20.00    -0.162 SA
HETATM   11  C4  UNL     1     -42.116  13.498   7.688  1.00 20.00     0.109 C 
ENDBRANCH   4   6
ENDBRANCH   3   4
TORSDOF 2
ENDMDL
MODEL 7
REMARK VINA RESULT:      -3.6     11.893     12.513
REMARK  2 active torsions:
REMARK  status: ('A' for Active; 'I' for Inactive)
REMARK    1  A    between atoms: C5_5  and  N9_9 
REMARK    2  A    between atoms: C8_8  and  N9_9 
ROOT
HETATM    1  C1  UNL     1     -38.911  11.631   3.644  1.00 20.00     0.013 C 
HETATM    2  C2  UNL     1     -39.258  11.795   4.782  1.00 20.00    -0.087 C 
HETATM    3  C8  UNL     1     -39.675  11.995   6.172  1.00 20.00     0.362 C 
ENDROOT
BRANCH   3   4
HETATM    4  N9  UNL     1     -41.129  11.993   6.276  1.00 20.00     0.099 N 
HETATM    5  H23 UNL     1     -41.418  11.245   6.907  1.00 20.00     0.317 HD
BRANCH   4   6
HETATM    6  C5  UNL     1     -41.609  13.251   6.782  1.00 20.00     0.232 C 
HETATM    7  C3  UNL     1     -40.529  14.008   7.547  1.00 20.00     0.051 C 
HETATM    8  C6  UNL     1     -41.212  15.226   8.163  1.00 20.00     0.045 C 
HETATM    9  C7  UNL     1     -40.430  15.815   9.324  1.00 20.00     0.021 C 
HETATM   10  S10 UNL     1     -42.843  14.614   8.696  1.00 20.00    -0.162 SA
HETATM   11  C4  UNL     1     -42.764  13.064   7.755  1.00 20.00     0.109 C 
ENDBRANCH   4   6
ENDBRANCH   3   4
TORSDOF 2
ENDMDL
MODEL 8
REMARK VINA RESULT:      -3.6     11.250     12.125
REMARK  2 active torsions:
REMARK  status: ('A' for Active; 'I' for Inactive)
REMARK    1  A    between atoms: C5_5  and  N9_9 
REMARK    2  A    between atoms: C8_8  and  N9_9 
ROOT
HETATM    1  C1  UNL     1     -38.931  11.635   3.695  1.00 20.00     0.013 C 
HETATM    2  C2  UNL     1     -39.269  11.826   4.832  1.00 20.00    -0.087 C 
HETATM    3  C8  UNL     1     -39.675  12.059   6.220  1.00 20.00     0.362 C 
ENDROOT
BRANCH   3   4
HETATM    4  N9  UNL     1     -41.127  12.032   6.341  1.00 20.00     0.099 N 
HETATM    5  H23 UNL     1     -41.394  11.311   7.011  1.00 20.00     0.317 HD
BRANCH   4   6
HETATM    6  C5  UNL     1     -41.629  13.304   6.787  1.00 20.00     0.232 C 
HETATM    7  C3  UNL     1     -42.186  14.134   5.635  1.00 20.00     0.051 C 
HETATM    8  C6  UNL     1     -42.524  15.503   6.216  1.00 20.00     0.045 C 
HETATM    9  C7  UNL     1     -42.631  16.583   5.154  1.00 20.00     0.021 C 
HETATM   10  S10 UNL     1     -41.172  15.849   7.388  1.00 20.00    -0.162 SA
HETATM   11  C4  UNL     1     -40.536  14.149   7.427  1.00 20.00     0.109 C 
ENDBRANCH   4   6
ENDBRANCH   3   4
TORSDOF 2
ENDMDL
MODEL 9
REMARK VINA RESULT:      -3.6     11.288     11.932
REMARK  2 active torsions:
REMARK  status: ('A' for Active; 'I' for Inactive)
REMARK    1  A    between atoms: C5_5  and  N9_9 
REMARK    2  A    between atoms: C8_8  and  N9_9 
ROOT
HETATM    1  C1  UNL     1     -38.949  11.723   3.471  1.00 20.00     0.013 C 
HETATM    2  C2  UNL     1     -39.241  11.693   4.636  1.00 20.00    -0.087 C 
HETATM    3  C8  UNL     1     -39.591  11.655   6.058  1.00 20.00     0.362 C 
ENDROOT
BRANCH   3   4
HETATM    4  N9  UNL     1     -40.954  12.129   6.263  1.00 20.00     0.099 N 
HETATM    5  H23 UNL     1     -41.293  11.792   7.164  1.00 20.00     0.317 HD
BRANCH   4   6
HETATM    6  C5  UNL     1     -41.007  13.566   6.244  1.00 20.00     0.232 C 
HETATM    7  C3  UNL     1     -40.484  14.174   7.542  1.00 20.00     0.051 C 
HETATM    8  C6  UNL     1     -40.752  15.673   7.453  1.00 20.00     0.045 C 
HETATM    9  C7  UNL     1     -40.744  16.354   8.810  1.00 20.00     0.021 C 
HETATM   10  S10 UNL     1     -42.384  15.799   6.651  1.00 20.00    -0.162 SA
HETATM   11  C4  UNL     1     -42.433  14.075   6.083  1.00 20.00     0.109 C 
ENDBRANCH   4   6
ENDBRANCH   3   4
TORSDOF 2
ENDMDL
