MODEL 1
REMARK VINA RESULT:      -4.0      0.000      0.000
REMARK  0 active torsions:
REMARK  status: ('A' for Active; 'I' for Inactive)
ROOT
HETATM    1  C1  UNL     1     -34.090  16.053  -7.679  1.00 20.00     0.064 C 
HETATM    2  C2  UNL     1     -33.191  16.717  -2.614  1.00 20.00     0.000 C 
HETATM    3  C3  UNL     1     -33.264  15.789  -3.822  1.00 20.00     0.003 C 
HETATM    4  C4  UNL     1     -33.706  18.115  -2.937  1.00 20.00     0.003 C 
HETATM    5  C5  UNL     1     -34.665  15.767  -4.433  1.00 20.00     0.038 C 
HETATM    6  C6  UNL     1     -35.103  18.065  -3.547  1.00 20.00     0.038 C 
HETATM    7  C7  UNL     1     -36.309  17.150  -7.523  1.00 20.00     0.045 C 
HETATM    8  C8  UNL     1     -34.443  17.847  -5.983  1.00 20.00     0.057 C 
HETATM    9  C9  UNL     1     -36.927  16.436  -6.331  1.00 20.00     0.170 C 
HETATM   10  C10 UNL     1     -34.797  17.310  -7.376  1.00 20.00     0.097 C 
HETATM   11  C11 UNL     1     -35.197  17.170  -4.808  1.00 20.00     0.062 C 
HETATM   12  N12 UNL     1     -33.532  15.064  -7.918  1.00 20.00    -0.197 NA
HETATM   13  O13 UNL     1     -36.602  17.099  -5.113  1.00 20.00    -0.380 OA
ENDROOT
TORSDOF 0
ENDMDL
MODEL 2
REMARK VINA RESULT:      -3.9     14.226     15.715
REMARK  0 active torsions:
REMARK  status: ('A' for Active; 'I' for Inactive)
ROOT
HETATM    1  C1  UNL     1     -40.883  16.369   9.383  1.00 20.00     0.064 C 
HETATM    2  C2  UNL     1     -42.100  14.396   4.743  1.00 20.00     0.000 C 
HETATM    3  C3  UNL     1     -42.339  15.443   5.825  1.00 20.00     0.003 C 
HETATM    4  C4  UNL     1     -41.126  13.316   5.198  1.00 20.00     0.003 C 
HETATM    5  C5  UNL     1     -42.755  14.802   7.149  1.00 20.00     0.038 C 
HETATM    6  C6  UNL     1     -41.562  12.695   6.522  1.00 20.00     0.038 C 
HETATM    7  C7  UNL     1     -41.146  14.166  10.492  1.00 20.00     0.045 C 
HETATM    8  C8  UNL     1     -40.384  14.293   8.095  1.00 20.00     0.057 C 
HETATM    9  C9  UNL     1     -42.497  13.709   9.961  1.00 20.00     0.170 C 
HETATM   10  C10 UNL     1     -40.373  14.989   9.462  1.00 20.00     0.097 C 
HETATM   11  C11 UNL     1     -41.762  13.730   7.656  1.00 20.00     0.062 C 
HETATM   12  N12 UNL     1     -41.284  17.457   9.319  1.00 20.00    -0.197 NA
HETATM   13  O13 UNL     1     -42.349  12.989   8.741  1.00 20.00    -0.380 OA
ENDROOT
TORSDOF 0
ENDMDL
MODEL 3
REMARK VINA RESULT:      -3.8     13.682     14.935
REMARK  0 active torsions:
REMARK  status: ('A' for Active; 'I' for Inactive)
ROOT
HETATM    1  C1  UNL     1     -42.353  14.278   5.358  1.00 20.00     0.064 C 
HETATM    2  C2  UNL     1     -41.188  16.897   9.681  1.00 20.00     0.000 C 
HETATM    3  C3  UNL     1     -41.204  16.822   8.158  1.00 20.00     0.003 C 
HETATM    4  C4  UNL     1     -41.603  15.578  10.321  1.00 20.00     0.003 C 
HETATM    5  C5  UNL     1     -40.384  15.640   7.642  1.00 20.00     0.038 C 
HETATM    6  C6  UNL     1     -40.772  14.414   9.788  1.00 20.00     0.038 C 
HETATM    7  C7  UNL     1     -41.115  12.272   6.129  1.00 20.00     0.045 C 
HETATM    8  C8  UNL     1     -42.217  13.798   7.801  1.00 20.00     0.057 C 
HETATM    9  C9  UNL     1     -39.787  12.873   6.566  1.00 20.00     0.170 C 
HETATM   10  C10 UNL     1     -42.286  13.221   6.381  1.00 20.00     0.097 C 
HETATM   11  C11 UNL     1     -40.811  14.281   8.246  1.00 20.00     0.062 C 
HETATM   12  N12 UNL     1     -42.407  15.111   4.552  1.00 20.00    -0.197 NA
HETATM   13  O13 UNL     1     -39.833  13.273   7.932  1.00 20.00    -0.380 OA
ENDROOT
TORSDOF 0
ENDMDL
MODEL 4
REMARK VINA RESULT:      -3.7      2.264      3.204
REMARK  0 active torsions:
REMARK  status: ('A' for Active; 'I' for Inactive)
ROOT
HETATM    1  C1  UNL     1     -37.690  17.873  -5.438  1.00 20.00     0.064 C 
HETATM    2  C2  UNL     1     -33.274  15.997  -3.466  1.00 20.00     0.000 C 
HETATM    3  C3  UNL     1     -34.195  17.185  -3.722  1.00 20.00     0.003 C 
HETATM    4  C4  UNL     1     -33.754  14.739  -4.180  1.00 20.00     0.003 C 
HETATM    5  C5  UNL     1     -34.420  17.413  -5.217  1.00 20.00     0.038 C 
HETATM    6  C6  UNL     1     -33.974  14.993  -5.668  1.00 20.00     0.038 C 
HETATM    7  C7  UNL     1     -37.231  16.870  -7.660  1.00 20.00     0.045 C 
HETATM    8  C8  UNL     1     -36.390  15.749  -5.569  1.00 20.00     0.057 C 
HETATM    9  C9  UNL     1     -35.797  17.312  -7.912  1.00 20.00     0.170 C 
HETATM   10  C10 UNL     1     -37.501  16.613  -6.179  1.00 20.00     0.097 C 
HETATM   11  C11 UNL     1     -34.947  16.163  -5.959  1.00 20.00     0.062 C 
HETATM   12  N12 UNL     1     -37.838  18.865  -4.854  1.00 20.00    -0.197 NA
HETATM   13  O13 UNL     1     -34.872  16.367  -7.383  1.00 20.00    -0.380 OA
ENDROOT
TORSDOF 0
ENDMDL
MODEL 5
REMARK VINA RESULT:      -3.5     14.213     14.927
REMARK  0 active torsions:
REMARK  status: ('A' for Active; 'I' for Inactive)
ROOT
HETATM    1  C1  UNL     1     -40.658  12.507   6.461  1.00 20.00     0.064 C 
HETATM    2  C2  UNL     1     -40.793  17.547   7.679  1.00 20.00     0.000 C 
HETATM    3  C3  UNL     1     -40.138  16.179   7.832  1.00 20.00     0.003 C 
HETATM    4  C4  UNL     1     -42.092  17.472   6.887  1.00 20.00     0.003 C 
HETATM    5  C5  UNL     1     -41.110  15.147   8.404  1.00 20.00     0.038 C 
HETATM    6  C6  UNL     1     -43.044  16.435   7.475  1.00 20.00     0.038 C 
HETATM    7  C7  UNL     1     -43.040  12.199   7.082  1.00 20.00     0.045 C 
HETATM    8  C8  UNL     1     -42.244  14.410   6.180  1.00 20.00     0.057 C 
HETATM    9  C9  UNL     1     -43.094  12.860   8.451  1.00 20.00     0.170 C 
HETATM   10  C10 UNL     1     -42.046  12.889   6.149  1.00 20.00     0.097 C 
HETATM   11  C11 UNL     1     -42.422  15.021   7.595  1.00 20.00     0.062 C 
HETATM   12  N12 UNL     1     -39.564  12.206   6.706  1.00 20.00    -0.197 NA
HETATM   13  O13 UNL     1     -43.386  14.250   8.335  1.00 20.00    -0.380 OA
ENDROOT
TORSDOF 0
ENDMDL
MODEL 6
REMARK VINA RESULT:      -3.5     13.191     14.570
REMARK  0 active torsions:
REMARK  status: ('A' for Active; 'I' for Inactive)
ROOT
HETATM    1  C1  UNL     1     -42.028  16.630   6.731  1.00 20.00     0.064 C 
HETATM    2  C2  UNL     1     -39.996  12.305   4.715  1.00 20.00     0.000 C 
HETATM    3  C3  UNL     1     -41.117  13.337   4.741  1.00 20.00     0.003 C 
HETATM    4  C4  UNL     1     -39.009  12.506   5.858  1.00 20.00     0.003 C 
HETATM    5  C5  UNL     1     -41.807  13.389   6.104  1.00 20.00     0.038 C 
HETATM    6  C6  UNL     1     -39.721  12.555   7.206  1.00 20.00     0.038 C 
HETATM    7  C7  UNL     1     -41.862  15.741   9.041  1.00 20.00     0.045 C 
HETATM    8  C8  UNL     1     -40.188  15.044   7.294  1.00 20.00     0.057 C 
HETATM    9  C9  UNL     1     -42.484  14.361   8.890  1.00 20.00     0.170 C 
HETATM   10  C10 UNL     1     -41.106  16.171   7.785  1.00 20.00     0.097 C 
HETATM   11  C11 UNL     1     -40.832  13.632   7.280  1.00 20.00     0.062 C 
HETATM   12  N12 UNL     1     -42.753  16.992   5.901  1.00 20.00    -0.197 NA
HETATM   13  O13 UNL     1     -41.501  13.394   8.532  1.00 20.00    -0.380 OA
ENDROOT
TORSDOF 0
ENDMDL
MODEL 7
REMARK VINA RESULT:      -3.5      1.570      3.559
REMARK  0 active torsions:
REMARK  status: ('A' for Active; 'I' for Inactive)
ROOT
HETATM    1  C1  UNL     1     -34.211  15.137  -6.717  1.00 20.00     0.064 C 
HETATM    2  C2  UNL     1     -37.353  19.263  -6.605  1.00 20.00     0.000 C 
HETATM    3  C3  UNL     1     -36.108  18.578  -7.159  1.00 20.00     0.003 C 
HETATM    4  C4  UNL     1     -37.978  18.472  -5.462  1.00 20.00     0.003 C 
HETATM    5  C5  UNL     1     -35.102  18.254  -6.055  1.00 20.00     0.038 C 
HETATM    6  C6  UNL     1     -36.953  18.161  -4.375  1.00 20.00     0.038 C 
HETATM    7  C7  UNL     1     -33.937  15.163  -4.251  1.00 20.00     0.045 C 
HETATM    8  C8  UNL     1     -36.083  15.966  -5.295  1.00 20.00     0.057 C 
HETATM    9  C9  UNL     1     -33.604  16.624  -3.989  1.00 20.00     0.170 C 
HETATM   10  C10 UNL     1     -34.902  14.995  -5.424  1.00 20.00     0.097 C 
HETATM   11  C11 UNL     1     -35.700  17.417  -4.900  1.00 20.00     0.062 C 
HETATM   12  N12 UNL     1     -33.666  15.249  -7.736  1.00 20.00    -0.197 NA
HETATM   13  O13 UNL     1     -34.787  17.390  -3.787  1.00 20.00    -0.380 OA
ENDROOT
TORSDOF 0
ENDMDL
MODEL 8
REMARK VINA RESULT:      -3.4      1.921      2.996
REMARK  0 active torsions:
REMARK  status: ('A' for Active; 'I' for Inactive)
ROOT
HETATM    1  C1  UNL     1     -35.642  14.443  -5.114  1.00 20.00     0.064 C 
HETATM    2  C2  UNL     1     -36.236  19.263  -3.291  1.00 20.00     0.000 C 
HETATM    3  C3  UNL     1     -36.856  17.991  -3.860  1.00 20.00     0.003 C 
HETATM    4  C4  UNL     1     -34.713  19.226  -3.338  1.00 20.00     0.003 C 
HETATM    5  C5  UNL     1     -36.323  17.678  -5.257  1.00 20.00     0.038 C 
HETATM    6  C6  UNL     1     -34.207  18.910  -4.742  1.00 20.00     0.038 C 
HETATM    7  C7  UNL     1     -33.949  15.180  -6.771  1.00 20.00     0.045 C 
HETATM    8  C8  UNL     1     -34.172  16.383  -4.571  1.00 20.00     0.057 C 
HETATM    9  C9  UNL     1     -34.639  16.376  -7.411  1.00 20.00     0.170 C 
HETATM   10  C10 UNL     1     -34.305  15.035  -5.292  1.00 20.00     0.097 C 
HETATM   11  C11 UNL     1     -34.780  17.594  -5.325  1.00 20.00     0.062 C 
HETATM   12  N12 UNL     1     -36.695  13.976  -4.972  1.00 20.00    -0.197 NA
HETATM   13  O13 UNL     1     -34.347  17.574  -6.698  1.00 20.00    -0.380 OA
ENDROOT
TORSDOF 0
ENDMDL
MODEL 9
REMARK VINA RESULT:      -3.4     14.157     15.284
REMARK  0 active torsions:
REMARK  status: ('A' for Active; 'I' for Inactive)
ROOT
HETATM    1  C1  UNL     1     -42.539  12.245   6.820  1.00 20.00     0.064 C 
HETATM    2  C2  UNL     1     -41.279  15.232  10.869  1.00 20.00     0.000 C 
HETATM    3  C3  UNL     1     -42.304  14.359  10.152  1.00 20.00     0.003 C 
HETATM    4  C4  UNL     1     -40.042  15.479  10.012  1.00 20.00     0.003 C 
HETATM    5  C5  UNL     1     -42.652  14.915   8.772  1.00 20.00     0.038 C 
HETATM    6  C6  UNL     1     -40.417  16.031   8.640  1.00 20.00     0.038 C 
HETATM    7  C7  UNL     1     -41.889  14.007   5.200  1.00 20.00     0.045 C 
HETATM    8  C8  UNL     1     -40.711  13.831   7.417  1.00 20.00     0.057 C 
HETATM    9  C9  UNL     1     -42.606  15.227   5.760  1.00 20.00     0.170 C 
HETATM   10  C10 UNL     1     -41.425  13.057   6.302  1.00 20.00     0.097 C 
HETATM   11  C11 UNL     1     -41.418  15.137   7.866  1.00 20.00     0.062 C 
HETATM   12  N12 UNL     1     -43.417  11.605   7.228  1.00 20.00    -0.197 NA
HETATM   13  O13 UNL     1     -41.790  15.908   6.708  1.00 20.00    -0.380 OA
ENDROOT
TORSDOF 0
ENDMDL
