MODEL 1
REMARK VINA RESULT:      -4.1      0.000      0.000
REMARK  1 active torsions:
REMARK  status: ('A' for Active; 'I' for Inactive)
REMARK    1  A    between atoms: C2_2  and  C3_3 
ROOT
HETATM    1  C1  UNL     1     -34.700  16.466  -4.934  1.00 20.00    -0.063 C 
HETATM    2  C2  UNL     1     -34.756  15.126  -4.988  1.00 20.00     0.088 C 
HETATM    3  C4  UNL     1     -33.502  17.191  -4.378  1.00 20.00     0.044 C 
HETATM    4  C5  UNL     1     -35.842  17.318  -5.417  1.00 20.00     0.108 C 
HETATM    5  C6  UNL     1     -35.288  18.346  -2.898  1.00 20.00     0.083 C 
HETATM    6  C7  UNL     1     -33.815  17.872  -3.017  1.00 20.00    -0.036 C 
HETATM    7  C8  UNL     1     -32.863  19.072  -2.844  1.00 20.00     0.016 C 
HETATM    8  C9  UNL     1     -33.540  16.880  -1.867  1.00 20.00     0.016 C 
HETATM    9  S12 UNL     1     -36.019  18.873  -4.481  1.00 20.00    -0.164 SA
ENDROOT
BRANCH   2  10
HETATM   10  C3  UNL     1     -35.975  14.393  -5.554  1.00 20.00     0.198 C 
HETATM   11  O10 UNL     1     -35.960  14.274  -6.814  1.00 20.00    -0.644 OA
HETATM   12  O11 UNL     1     -36.845  13.996  -4.729  1.00 20.00    -0.644 OA
ENDBRANCH   2  10
TORSDOF 1
ENDMDL
MODEL 2
REMARK VINA RESULT:      -3.5     12.608     13.662
REMARK  1 active torsions:
REMARK  status: ('A' for Active; 'I' for Inactive)
REMARK    1  A    between atoms: C2_2  and  C3_3 
ROOT
HETATM    1  C1  UNL     1     -41.456  13.651   6.356  1.00 20.00    -0.063 C 
HETATM    2  C2  UNL     1     -40.212  13.441   5.900  1.00 20.00     0.088 C 
HETATM    3  C4  UNL     1     -42.086  15.019   6.349  1.00 20.00     0.044 C 
HETATM    4  C5  UNL     1     -42.287  12.526   6.912  1.00 20.00     0.108 C 
HETATM    5  C6  UNL     1     -42.483  14.499   8.857  1.00 20.00     0.083 C 
HETATM    6  C7  UNL     1     -42.242  15.594   7.784  1.00 20.00    -0.036 C 
HETATM    7  C8  UNL     1     -43.417  16.592   7.782  1.00 20.00     0.016 C 
HETATM    8  C9  UNL     1     -40.964  16.368   8.172  1.00 20.00     0.016 C 
HETATM    9  S12 UNL     1     -43.417  13.061   8.240  1.00 20.00    -0.164 SA
ENDROOT
BRANCH   2  10
HETATM   10  C3  UNL     1     -39.575  12.048   5.908  1.00 20.00     0.198 C 
HETATM   11  O10 UNL     1     -38.982  11.764   6.990  1.00 20.00    -0.644 OA
HETATM   12  O11 UNL     1     -39.701  11.349   4.864  1.00 20.00    -0.644 OA
ENDBRANCH   2  10
TORSDOF 1
ENDMDL
MODEL 3
REMARK VINA RESULT:      -3.3     13.377     14.470
REMARK  1 active torsions:
REMARK  status: ('A' for Active; 'I' for Inactive)
REMARK    1  A    between atoms: C2_2  and  C3_3 
ROOT
HETATM    1  C1  UNL     1     -41.371  14.163   7.526  1.00 20.00    -0.063 C 
HETATM    2  C2  UNL     1     -40.223  13.977   6.856  1.00 20.00     0.088 C 
HETATM    3  C4  UNL     1     -41.625  15.404   8.341  1.00 20.00     0.044 C 
HETATM    4  C5  UNL     1     -42.465  13.130   7.508  1.00 20.00     0.108 C 
HETATM    5  C6  UNL     1     -42.143  13.685  10.210  1.00 20.00     0.083 C 
HETATM    6  C7  UNL     1     -41.627  15.107   9.866  1.00 20.00    -0.036 C 
HETATM    7  C8  UNL     1     -42.503  16.165  10.566  1.00 20.00     0.016 C 
HETATM    8  C9  UNL     1     -40.192  15.239  10.420  1.00 20.00     0.016 C 
HETATM    9  S12 UNL     1     -43.417  13.071   9.061  1.00 20.00    -0.164 SA
ENDROOT
BRANCH   2  10
HETATM   10  C3  UNL     1     -39.969  12.714   6.028  1.00 20.00     0.198 C 
HETATM   11  O10 UNL     1     -40.413  12.781   4.844  1.00 20.00    -0.644 OA
HETATM   12  O11 UNL     1     -39.361  11.764   6.596  1.00 20.00    -0.644 OA
ENDBRANCH   2  10
TORSDOF 1
ENDMDL
MODEL 4
REMARK VINA RESULT:      -3.2      3.190      4.680
REMARK  1 active torsions:
REMARK  status: ('A' for Active; 'I' for Inactive)
REMARK    1  A    between atoms: C2_2  and  C3_3 
ROOT
HETATM    1  C1  UNL     1     -33.644  17.410  -3.770  1.00 20.00    -0.063 C 
HETATM    2  C2  UNL     1     -33.710  18.247  -2.723  1.00 20.00     0.088 C 
HETATM    3  C4  UNL     1     -34.167  17.794  -5.129  1.00 20.00     0.044 C 
HETATM    4  C5  UNL     1     -33.053  16.033  -3.637  1.00 20.00     0.108 C 
HETATM    5  C6  UNL     1     -35.484  15.575  -4.898  1.00 20.00     0.083 C 
HETATM    6  C7  UNL     1     -35.451  17.003  -5.503  1.00 20.00    -0.036 C 
HETATM    7  C8  UNL     1     -35.542  16.923  -7.040  1.00 20.00     0.016 C 
HETATM    8  C9  UNL     1     -36.693  17.765  -4.995  1.00 20.00     0.016 C 
HETATM    9  S12 UNL     1     -33.839  14.809  -4.736  1.00 20.00    -0.164 SA
ENDROOT
BRANCH   2  10
HETATM   10  C3  UNL     1     -33.177  17.853  -1.342  1.00 20.00     0.198 C 
HETATM   11  O10 UNL     1     -31.951  18.118  -1.173  1.00 20.00    -0.644 OA
HETATM   12  O11 UNL     1     -33.992  17.318  -0.540  1.00 20.00    -0.644 OA
ENDBRANCH   2  10
TORSDOF 1
ENDMDL
MODEL 5
REMARK VINA RESULT:      -3.2     25.000     26.280
REMARK  1 active torsions:
REMARK  status: ('A' for Active; 'I' for Inactive)
REMARK    1  A    between atoms: C2_2  and  C3_3 
ROOT
HETATM    1  C1  UNL     1     -25.875  -2.930  11.317  1.00 20.00    -0.063 C 
HETATM    2  C2  UNL     1     -25.146  -3.772  10.568  1.00 20.00     0.088 C 
HETATM    3  C4  UNL     1     -27.208  -3.330  11.895  1.00 20.00     0.044 C 
HETATM    4  C5  UNL     1     -25.403  -1.531  11.609  1.00 20.00     0.108 C 
HETATM    5  C6  UNL     1     -28.009  -1.163  10.721  1.00 20.00     0.083 C 
HETATM    6  C7  UNL     1     -28.386  -2.588  11.207  1.00 20.00    -0.036 C 
HETATM    7  C8  UNL     1     -29.559  -2.506  12.205  1.00 20.00     0.016 C 
HETATM    8  C9  UNL     1     -28.863  -3.398   9.983  1.00 20.00     0.016 C 
HETATM    9  S12 UNL     1     -26.770  -0.335  11.769  1.00 20.00    -0.164 SA
ENDROOT
BRANCH   2  10
HETATM   10  C3  UNL     1     -23.792  -3.362   9.982  1.00 20.00     0.198 C 
HETATM   11  O10 UNL     1     -23.843  -3.029   8.761  1.00 20.00    -0.644 OA
HETATM   12  O11 UNL     1     -22.793  -3.399  10.754  1.00 20.00    -0.644 OA
ENDBRANCH   2  10
TORSDOF 1
ENDMDL
MODEL 6
REMARK VINA RESULT:      -3.2      2.571      3.795
REMARK  1 active torsions:
REMARK  status: ('A' for Active; 'I' for Inactive)
REMARK    1  A    between atoms: C2_2  and  C3_3 
ROOT
HETATM    1  C1  UNL     1     -34.652  16.618  -5.537  1.00 20.00    -0.063 C 
HETATM    2  C2  UNL     1     -34.185  16.196  -4.352  1.00 20.00     0.088 C 
HETATM    3  C4  UNL     1     -35.294  17.970  -5.704  1.00 20.00     0.044 C 
HETATM    4  C5  UNL     1     -34.569  15.752  -6.765  1.00 20.00     0.108 C 
HETATM    5  C6  UNL     1     -37.222  16.575  -6.730  1.00 20.00     0.083 C 
HETATM    6  C7  UNL     1     -36.823  17.860  -5.958  1.00 20.00    -0.036 C 
HETATM    7  C8  UNL     1     -37.275  19.106  -6.746  1.00 20.00     0.016 C 
HETATM    8  C9  UNL     1     -37.572  17.857  -4.608  1.00 20.00     0.016 C 
HETATM    9  S12 UNL     1     -35.959  16.012  -7.916  1.00 20.00    -0.164 SA
ENDROOT
BRANCH   2  10
HETATM   10  C3  UNL     1     -33.532  14.821  -4.186  1.00 20.00     0.198 C 
HETATM   11  O10 UNL     1     -34.360  13.884  -3.985  1.00 20.00    -0.644 OA
HETATM   12  O11 UNL     1     -32.273  14.766  -4.262  1.00 20.00    -0.644 OA
ENDBRANCH   2  10
TORSDOF 1
ENDMDL
MODEL 7
REMARK VINA RESULT:      -3.1     13.459     14.565
REMARK  1 active torsions:
REMARK  status: ('A' for Active; 'I' for Inactive)
REMARK    1  A    between atoms: C2_2  and  C3_3 
ROOT
HETATM    1  C1  UNL     1     -41.039  14.868   7.922  1.00 20.00    -0.063 C 
HETATM    2  C2  UNL     1     -40.422  13.782   7.429  1.00 20.00     0.088 C 
HETATM    3  C4  UNL     1     -40.439  15.689   9.032  1.00 20.00     0.044 C 
HETATM    4  C5  UNL     1     -42.376  15.315   7.396  1.00 20.00     0.108 C 
HETATM    5  C6  UNL     1     -42.742  15.282  10.149  1.00 20.00     0.083 C 
HETATM    6  C7  UNL     1     -41.225  15.531  10.363  1.00 20.00    -0.036 C 
HETATM    7  C8  UNL     1     -41.018  16.807  11.204  1.00 20.00     0.016 C 
HETATM    8  C9  UNL     1     -40.654  14.341  11.162  1.00 20.00     0.016 C 
HETATM    9  S12 UNL     1     -43.417  16.102   8.669  1.00 20.00    -0.164 SA
ENDROOT
BRANCH   2  10
HETATM   10  C3  UNL     1     -41.036  12.949   6.301  1.00 20.00     0.198 C 
HETATM   11  O10 UNL     1     -41.798  12.023   6.705  1.00 20.00    -0.644 OA
HETATM   12  O11 UNL     1     -40.725  13.263   5.117  1.00 20.00    -0.644 OA
ENDBRANCH   2  10
TORSDOF 1
ENDMDL
MODEL 8
REMARK VINA RESULT:      -3.0     12.803     13.782
REMARK  1 active torsions:
REMARK  status: ('A' for Active; 'I' for Inactive)
REMARK    1  A    between atoms: C2_2  and  C3_3 
ROOT
HETATM    1  C1  UNL     1     -41.059  15.110   7.067  1.00 20.00    -0.063 C 
HETATM    2  C2  UNL     1     -40.462  13.909   7.090  1.00 20.00     0.088 C 
HETATM    3  C4  UNL     1     -40.574  16.256   7.916  1.00 20.00     0.044 C 
HETATM    4  C5  UNL     1     -42.258  15.374   6.198  1.00 20.00     0.108 C 
HETATM    5  C6  UNL     1     -43.046  16.314   8.689  1.00 20.00     0.083 C 
HETATM    6  C7  UNL     1     -41.566  16.591   9.063  1.00 20.00    -0.036 C 
HETATM    7  C8  UNL     1     -41.390  18.076   9.441  1.00 20.00     0.016 C 
HETATM    8  C9  UNL     1     -41.223  15.743  10.307  1.00 20.00     0.016 C 
HETATM    9  S12 UNL     1     -43.417  16.579   6.925  1.00 20.00    -0.164 SA
ENDROOT
BRANCH   2  10
HETATM   10  C3  UNL     1     -40.959  12.746   6.225  1.00 20.00     0.198 C 
HETATM   11  O10 UNL     1     -41.865  12.053   6.773  1.00 20.00    -0.644 OA
HETATM   12  O11 UNL     1     -40.426  12.603   5.089  1.00 20.00    -0.644 OA
ENDBRANCH   2  10
TORSDOF 1
ENDMDL
MODEL 9
REMARK VINA RESULT:      -3.0     12.204     13.222
REMARK  1 active torsions:
REMARK  status: ('A' for Active; 'I' for Inactive)
REMARK    1  A    between atoms: C2_2  and  C3_3 
ROOT
HETATM    1  C1  UNL     1     -41.384  13.949   6.892  1.00 20.00    -0.063 C 
HETATM    2  C2  UNL     1     -41.143  13.181   5.818  1.00 20.00     0.088 C 
HETATM    3  C4  UNL     1     -42.629  14.789   7.007  1.00 20.00     0.044 C 
HETATM    4  C5  UNL     1     -40.411  14.021   8.038  1.00 20.00     0.108 C 
HETATM    5  C6  UNL     1     -40.923  16.688   7.454  1.00 20.00     0.083 C 
HETATM    6  C7  UNL     1     -42.319  16.307   6.892  1.00 20.00    -0.036 C 
HETATM    7  C8  UNL     1     -43.416  17.085   7.645  1.00 20.00     0.016 C 
HETATM    8  C9  UNL     1     -42.369  16.734   5.410  1.00 20.00     0.016 C 
HETATM    9  S12 UNL     1     -40.389  15.652   8.854  1.00 20.00    -0.164 SA
ENDROOT
BRANCH   2  10
HETATM   10  C3  UNL     1     -39.876  12.328   5.705  1.00 20.00     0.198 C 
HETATM   11  O10 UNL     1     -38.927  12.902   5.095  1.00 20.00    -0.644 OA
HETATM   12  O11 UNL     1     -39.910  11.173   6.216  1.00 20.00    -0.644 OA
ENDBRANCH   2  10
TORSDOF 1
ENDMDL
