MODEL 1
REMARK VINA RESULT:      -3.8      0.000      0.000
REMARK  2 active torsions:
REMARK  status: ('A' for Active; 'I' for Inactive)
REMARK    1  A    between atoms: C1_1  and  C5_5 
REMARK    2  A    between atoms: C1_1  and  C8_8 
ROOT
HETATM    1  C2  UNL     1     -35.244  15.484  -5.344  1.00 20.00     0.084 C 
HETATM    2  C3  UNL     1     -34.642  16.699  -6.031  1.00 20.00     0.085 C 
HETATM    3  C4  UNL     1     -33.071  15.977  -3.639  1.00 20.00     0.096 C 
HETATM    4  C5  UNL     1     -33.892  17.232  -3.379  1.00 20.00     0.126 C 
HETATM    5  S10 UNL     1     -34.064  14.592  -4.282  1.00 20.00    -0.167 SA
HETATM    6  S11 UNL     1     -34.377  18.106  -4.904  1.00 20.00    -0.155 SA
ENDROOT
BRANCH   4   7
HETATM    7  C1  UNL     1     -33.082  18.206  -2.581  1.00 20.00     0.144 C 
HETATM    8  O9  UNL     1     -32.698  19.263  -3.082  1.00 20.00    -0.296 OA
BRANCH   7   9
HETATM    9  C8  UNL     1     -32.736  17.806  -1.150  1.00 20.00     0.048 C 
HETATM   10  C6  UNL     1     -31.525  18.593  -0.667  1.00 20.00     0.017 C 
HETATM   11  C7  UNL     1     -33.928  18.018  -0.220  1.00 20.00     0.017 C 
ENDBRANCH   7   9
ENDBRANCH   4   7
TORSDOF 2
ENDMDL
MODEL 2
REMARK VINA RESULT:      -3.7     12.010     13.573
REMARK  2 active torsions:
REMARK  status: ('A' for Active; 'I' for Inactive)
REMARK    1  A    between atoms: C1_1  and  C5_5 
REMARK    2  A    between atoms: C1_1  and  C8_8 
ROOT
HETATM    1  C2  UNL     1     -42.592  14.040   9.211  1.00 20.00     0.084 C 
HETATM    2  C3  UNL     1     -42.398  15.206   8.255  1.00 20.00     0.085 C 
HETATM    3  C4  UNL     1     -42.741  12.686   6.758  1.00 20.00     0.096 C 
HETATM    4  C5  UNL     1     -41.289  13.139   6.713  1.00 20.00     0.126 C 
HETATM    5  S10 UNL     1     -43.415  12.606   8.448  1.00 20.00    -0.167 SA
HETATM    6  S11 UNL     1     -41.079  14.922   7.031  1.00 20.00    -0.155 SA
ENDROOT
BRANCH   4   7
HETATM    7  C1  UNL     1     -40.726  12.890   5.348  1.00 20.00     0.144 C 
HETATM    8  O9  UNL     1     -41.155  13.503   4.371  1.00 20.00    -0.296 OA
BRANCH   7   9
HETATM    9  C8  UNL     1     -39.637  11.828   5.235  1.00 20.00     0.048 C 
HETATM   10  C6  UNL     1     -39.108  11.775   3.807  1.00 20.00     0.017 C 
HETATM   11  C7  UNL     1     -38.506  12.098   6.224  1.00 20.00     0.017 C 
ENDBRANCH   7   9
ENDBRANCH   4   7
TORSDOF 2
ENDMDL
MODEL 3
REMARK VINA RESULT:      -3.4      2.324      4.620
REMARK  2 active torsions:
REMARK  status: ('A' for Active; 'I' for Inactive)
REMARK    1  A    between atoms: C1_1  and  C5_5 
REMARK    2  A    between atoms: C1_1  and  C8_8 
ROOT
HETATM    1  C2  UNL     1     -33.112  19.263  -2.485  1.00 20.00     0.084 C 
HETATM    2  C3  UNL     1     -34.430  19.178  -3.238  1.00 20.00     0.085 C 
HETATM    3  C4  UNL     1     -33.561  16.496  -2.365  1.00 20.00     0.096 C 
HETATM    4  C5  UNL     1     -33.363  16.659  -3.865  1.00 20.00     0.126 C 
HETATM    5  S10 UNL     1     -32.808  17.839  -1.392  1.00 20.00    -0.167 SA
HETATM    6  S11 UNL     1     -34.408  17.963  -4.595  1.00 20.00    -0.155 SA
ENDROOT
BRANCH   4   7
HETATM    7  C1  UNL     1     -33.735  15.388  -4.563  1.00 20.00     0.144 C 
HETATM    8  O9  UNL     1     -33.193  14.325  -4.263  1.00 20.00    -0.296 OA
BRANCH   7   9
HETATM    9  C8  UNL     1     -34.780  15.490  -5.670  1.00 20.00     0.048 C 
HETATM   10  C6  UNL     1     -34.122  15.280  -7.028  1.00 20.00     0.017 C 
HETATM   11  C7  UNL     1     -35.908  14.485  -5.451  1.00 20.00     0.017 C 
ENDBRANCH   7   9
ENDBRANCH   4   7
TORSDOF 2
ENDMDL
MODEL 4
REMARK VINA RESULT:      -3.3     11.979     13.388
REMARK  2 active torsions:
REMARK  status: ('A' for Active; 'I' for Inactive)
REMARK    1  A    between atoms: C1_1  and  C5_5 
REMARK    2  A    between atoms: C1_1  and  C8_8 
ROOT
HETATM    1  C2  UNL     1     -41.035  16.868   7.300  1.00 20.00     0.084 C 
HETATM    2  C3  UNL     1     -42.344  16.365   6.714  1.00 20.00     0.085 C 
HETATM    3  C4  UNL     1     -40.995  14.220   8.228  1.00 20.00     0.096 C 
HETATM    4  C5  UNL     1     -40.881  13.970   6.731  1.00 20.00     0.126 C 
HETATM    5  S10 UNL     1     -40.450  15.887   8.719  1.00 20.00    -0.167 SA
HETATM    6  S11 UNL     1     -42.161  14.827   5.756  1.00 20.00    -0.155 SA
ENDROOT
BRANCH   4   7
HETATM    7  C1  UNL     1     -41.053  12.509   6.451  1.00 20.00     0.144 C 
HETATM    8  O9  UNL     1     -42.110  11.938   6.719  1.00 20.00    -0.296 OA
BRANCH   7   9
HETATM    9  C8  UNL     1     -39.854  11.775   5.858  1.00 20.00     0.048 C 
HETATM   10  C6  UNL     1     -39.707  12.123   4.383  1.00 20.00     0.017 C 
HETATM   11  C7  UNL     1     -38.576  12.106   6.626  1.00 20.00     0.017 C 
ENDBRANCH   7   9
ENDBRANCH   4   7
TORSDOF 2
ENDMDL
MODEL 5
REMARK VINA RESULT:      -3.3      1.555      2.043
REMARK  2 active torsions:
REMARK  status: ('A' for Active; 'I' for Inactive)
REMARK    1  A    between atoms: C1_1  and  C5_5 
REMARK    2  A    between atoms: C1_1  and  C8_8 
ROOT
HETATM    1  C2  UNL     1     -34.219  15.324  -6.352  1.00 20.00     0.084 C 
HETATM    2  C3  UNL     1     -34.047  14.670  -4.990  1.00 20.00     0.085 C 
HETATM    3  C4  UNL     1     -35.601  17.168  -4.751  1.00 20.00     0.096 C 
HETATM    4  C5  UNL     1     -34.192  17.362  -4.209  1.00 20.00     0.126 C 
HETATM    5  S10 UNL     1     -35.632  16.471  -6.433  1.00 20.00    -0.167 SA
HETATM    6  S11 UNL     1     -33.382  15.801  -3.726  1.00 20.00    -0.155 SA
ENDROOT
BRANCH   4   7
HETATM    7  C1  UNL     1     -34.240  18.205  -2.972  1.00 20.00     0.144 C 
HETATM    8  O9  UNL     1     -35.063  19.114  -2.863  1.00 20.00    -0.296 OA
BRANCH   7   9
HETATM    9  C8  UNL     1     -33.208  17.901  -1.890  1.00 20.00     0.048 C 
HETATM   10  C6  UNL     1     -32.221  19.055  -1.774  1.00 20.00     0.017 C 
HETATM   11  C7  UNL     1     -33.886  17.627  -0.550  1.00 20.00     0.017 C 
ENDBRANCH   7   9
ENDBRANCH   4   7
TORSDOF 2
ENDMDL
MODEL 6
REMARK VINA RESULT:      -3.3      1.962      3.050
REMARK  2 active torsions:
REMARK  status: ('A' for Active; 'I' for Inactive)
REMARK    1  A    between atoms: C1_1  and  C5_5 
REMARK    2  A    between atoms: C1_1  and  C8_8 
ROOT
HETATM    1  C2  UNL     1     -35.975  16.692  -7.783  1.00 20.00     0.084 C 
HETATM    2  C3  UNL     1     -35.712  15.284  -7.274  1.00 20.00     0.085 C 
HETATM    3  C4  UNL     1     -35.898  17.181  -5.021  1.00 20.00     0.096 C 
HETATM    4  C5  UNL     1     -34.453  16.763  -5.248  1.00 20.00     0.126 C 
HETATM    5  S10 UNL     1     -36.714  17.789  -6.531  1.00 20.00    -0.167 SA
HETATM    6  S11 UNL     1     -34.290  15.181  -6.140  1.00 20.00    -0.155 SA
ENDROOT
BRANCH   4   7
HETATM    7  C1  UNL     1     -33.772  16.569  -3.929  1.00 20.00     0.144 C 
HETATM    8  O9  UNL     1     -33.174  15.523  -3.679  1.00 20.00    -0.296 OA
BRANCH   7   9
HETATM    9  C8  UNL     1     -33.890  17.706  -2.918  1.00 20.00     0.048 C 
HETATM   10  C6  UNL     1     -33.551  17.199  -1.522  1.00 20.00     0.017 C 
HETATM   11  C7  UNL     1     -32.991  18.877  -3.306  1.00 20.00     0.017 C 
ENDBRANCH   7   9
ENDBRANCH   4   7
TORSDOF 2
ENDMDL
MODEL 7
REMARK VINA RESULT:      -3.2      2.083      3.062
REMARK  2 active torsions:
REMARK  status: ('A' for Active; 'I' for Inactive)
REMARK    1  A    between atoms: C1_1  and  C5_5 
REMARK    2  A    between atoms: C1_1  and  C8_8 
ROOT
HETATM    1  C2  UNL     1     -37.597  16.675  -6.619  1.00 20.00     0.084 C 
HETATM    2  C3  UNL     1     -37.608  18.039  -5.947  1.00 20.00     0.085 C 
HETATM    3  C4  UNL     1     -34.845  17.220  -6.584  1.00 20.00     0.096 C 
HETATM    4  C5  UNL     1     -35.104  17.107  -5.088  1.00 20.00     0.126 C 
HETATM    5  S10 UNL     1     -36.092  16.359  -7.594  1.00 20.00    -0.167 SA
HETATM    6  S11 UNL     1     -36.488  18.145  -4.514  1.00 20.00    -0.155 SA
ENDROOT
BRANCH   4   7
HETATM    7  C1  UNL     1     -33.896  17.568  -4.333  1.00 20.00     0.144 C 
HETATM    8  O9  UNL     1     -33.468  18.713  -4.472  1.00 20.00    -0.296 OA
BRANCH   7   9
HETATM    9  C8  UNL     1     -33.219  16.546  -3.424  1.00 20.00     0.048 C 
HETATM   10  C6  UNL     1     -33.498  16.882  -1.965  1.00 20.00     0.017 C 
HETATM   11  C7  UNL     1     -33.683  15.129  -3.755  1.00 20.00     0.017 C 
ENDBRANCH   7   9
ENDBRANCH   4   7
TORSDOF 2
ENDMDL
MODEL 8
REMARK VINA RESULT:      -3.2     12.565     13.911
REMARK  2 active torsions:
REMARK  status: ('A' for Active; 'I' for Inactive)
REMARK    1  A    between atoms: C1_1  and  C5_5 
REMARK    2  A    between atoms: C1_1  and  C8_8 
ROOT
HETATM    1  C2  UNL     1     -42.748  17.581   7.754  1.00 20.00     0.084 C 
HETATM    2  C3  UNL     1     -43.116  16.566   8.824  1.00 20.00     0.085 C 
HETATM    3  C4  UNL     1     -40.376  16.086   7.838  1.00 20.00     0.096 C 
HETATM    4  C5  UNL     1     -41.329  15.027   7.303  1.00 20.00     0.126 C 
HETATM    5  S10 UNL     1     -40.952  17.787   7.535  1.00 20.00    -0.167 SA
HETATM    6  S11 UNL     1     -42.840  14.841   8.306  1.00 20.00    -0.155 SA
ENDROOT
BRANCH   4   7
HETATM    7  C1  UNL     1     -40.654  13.690   7.316  1.00 20.00     0.144 C 
HETATM    8  O9  UNL     1     -39.949  13.352   8.267  1.00 20.00    -0.296 OA
BRANCH   7   9
HETATM    9  C8  UNL     1     -40.857  12.803   6.092  1.00 20.00     0.048 C 
HETATM   10  C6  UNL     1     -41.371  13.636   4.925  1.00 20.00     0.017 C 
HETATM   11  C7  UNL     1     -39.564  12.082   5.719  1.00 20.00     0.017 C 
ENDBRANCH   7   9
ENDBRANCH   4   7
TORSDOF 2
ENDMDL
MODEL 9
REMARK VINA RESULT:      -3.1      2.009      4.945
REMARK  2 active torsions:
REMARK  status: ('A' for Active; 'I' for Inactive)
REMARK    1  A    between atoms: C1_1  and  C5_5 
REMARK    2  A    between atoms: C1_1  and  C8_8 
ROOT
HETATM    1  C2  UNL     1     -34.102  17.912  -1.201  1.00 20.00     0.084 C 
HETATM    2  C3  UNL     1     -32.872  17.367  -1.908  1.00 20.00     0.085 C 
HETATM    3  C4  UNL     1     -34.650  18.730  -3.828  1.00 20.00     0.096 C 
HETATM    4  C5  UNL     1     -34.728  17.221  -4.007  1.00 20.00     0.126 C 
HETATM    5  S10 UNL     1     -34.921  19.263  -2.108  1.00 20.00    -0.167 SA
HETATM    6  S11 UNL     1     -33.269  16.340  -3.359  1.00 20.00    -0.155 SA
ENDROOT
BRANCH   4   7
HETATM    7  C1  UNL     1     -34.799  16.891  -5.466  1.00 20.00     0.144 C 
HETATM    8  O9  UNL     1     -35.095  17.754  -6.292  1.00 20.00    -0.296 OA
BRANCH   7   9
HETATM    9  C8  UNL     1     -34.523  15.443  -5.859  1.00 20.00     0.048 C 
HETATM   10  C6  UNL     1     -35.797  14.618  -5.737  1.00 20.00     0.017 C 
HETATM   11  C7  UNL     1     -33.954  15.360  -7.274  1.00 20.00     0.017 C 
ENDBRANCH   7   9
ENDBRANCH   4   7
TORSDOF 2
ENDMDL
