MODEL 1
REMARK VINA RESULT:      -4.3      0.000      0.000
REMARK  2 active torsions:
REMARK  status: ('A' for Active; 'I' for Inactive)
REMARK    1  A    between atoms: C2_2  and  C6_6 
REMARK    2  A    between atoms: C6_6  and  O9_9 
ROOT
HETATM    1  C3  UNL     1     -24.139  17.574  10.086  1.00 20.00     0.058 C 
HETATM    2  C4  UNL     1     -22.015  18.656  10.649  1.00 20.00     0.116 C 
HETATM    3  C5  UNL     1     -24.008  17.055  11.517  1.00 20.00     0.046 C 
HETATM    4  C6  UNL     1     -22.720  17.831   9.570  1.00 20.00     0.089 C 
HETATM    5  C8  UNL     1     -25.292  17.205  12.316  1.00 20.00     0.021 C 
HETATM    6  S10 UNL     1     -22.657  18.041  12.238  1.00 20.00    -0.161 SA
ENDROOT
BRANCH   4   7
HETATM    7  C2  UNL     1     -22.741  18.529   8.246  1.00 20.00    -0.058 C 
HETATM    8  C1  UNL     1     -23.791  19.263   7.847  1.00 20.00     0.017 C 
HETATM    9  C7  UNL     1     -21.521  18.360   7.390  1.00 20.00     0.046 C 
ENDBRANCH   4   7
BRANCH   4  10
HETATM   10  O9  UNL     1     -22.051  16.580   9.406  1.00 20.00    -0.385 OA
HETATM   11  H24 UNL     1     -21.110  16.750   9.561  1.00 20.00     0.211 HD
ENDBRANCH   4  10
TORSDOF 2
ENDMDL
MODEL 2
REMARK VINA RESULT:      -3.8      1.751      4.006
REMARK  2 active torsions:
REMARK  status: ('A' for Active; 'I' for Inactive)
REMARK    1  A    between atoms: C2_2  and  C6_6 
REMARK    2  A    between atoms: C6_6  and  O9_9 
ROOT
HETATM    1  C3  UNL     1     -23.423  17.366   9.551  1.00 20.00     0.058 C 
HETATM    2  C4  UNL     1     -22.474  18.429  11.542  1.00 20.00     0.116 C 
HETATM    3  C5  UNL     1     -22.383  18.239   8.851  1.00 20.00     0.046 C 
HETATM    4  C6  UNL     1     -23.795  18.070  10.859  1.00 20.00     0.089 C 
HETATM    5  C8  UNL     1     -21.578  17.476   7.812  1.00 20.00     0.021 C 
HETATM    6  S10 UNL     1     -21.322  18.852  10.197  1.00 20.00    -0.161 SA
ENDROOT
BRANCH   4   7
HETATM    7  C2  UNL     1     -24.661  17.202  11.717  1.00 20.00    -0.058 C 
HETATM    8  C1  UNL     1     -24.380  15.907  11.928  1.00 20.00     0.017 C 
HETATM    9  C7  UNL     1     -25.861  17.862  12.328  1.00 20.00     0.046 C 
ENDBRANCH   4   7
BRANCH   4  10
HETATM   10  O9  UNL     1     -24.519  19.263  10.554  1.00 20.00    -0.385 OA
HETATM   11  H24 UNL     1     -25.047  19.471  11.340  1.00 20.00     0.211 HD
ENDBRANCH   4  10
TORSDOF 2
ENDMDL
MODEL 3
REMARK VINA RESULT:      -3.7     18.000     19.060
REMARK  2 active torsions:
REMARK  status: ('A' for Active; 'I' for Inactive)
REMARK    1  A    between atoms: C2_2  and  C6_6 
REMARK    2  A    between atoms: C6_6  and  O9_9 
ROOT
HETATM    1  C3  UNL     1     -41.396  13.565   4.872  1.00 20.00     0.058 C 
HETATM    2  C4  UNL     1     -40.515  14.062   7.102  1.00 20.00     0.116 C 
HETATM    3  C5  UNL     1     -42.562  14.412   5.377  1.00 20.00     0.046 C 
HETATM    4  C6  UNL     1     -40.738  12.928   6.099  1.00 20.00     0.089 C 
HETATM    5  C8  UNL     1     -43.006  15.460   4.370  1.00 20.00     0.021 C 
HETATM    6  S10 UNL     1     -41.940  15.181   6.905  1.00 20.00    -0.161 SA
ENDROOT
BRANCH   4   7
HETATM    7  C2  UNL     1     -39.463  12.235   5.735  1.00 20.00    -0.058 C 
HETATM    8  C1  UNL     1     -38.474  12.055   6.623  1.00 20.00     0.017 C 
HETATM    9  C7  UNL     1     -39.353  11.753   4.319  1.00 20.00     0.046 C 
ENDBRANCH   4   7
BRANCH   4  10
HETATM   10  O9  UNL     1     -41.630  11.961   6.656  1.00 20.00    -0.385 OA
HETATM   11  H24 UNL     1     -41.143  11.124   6.685  1.00 20.00     0.211 HD
ENDBRANCH   4  10
TORSDOF 2
ENDMDL
MODEL 4
REMARK VINA RESULT:      -3.7     15.995     17.256
REMARK  2 active torsions:
REMARK  status: ('A' for Active; 'I' for Inactive)
REMARK    1  A    between atoms: C2_2  and  C6_6 
REMARK    2  A    between atoms: C6_6  and  O9_9 
ROOT
HETATM    1  C3  UNL     1     -33.541  16.919  -2.223  1.00 20.00     0.058 C 
HETATM    2  C4  UNL     1     -35.231  18.062  -3.578  1.00 20.00     0.116 C 
HETATM    3  C5  UNL     1     -33.630  18.209  -1.409  1.00 20.00     0.046 C 
HETATM    4  C6  UNL     1     -33.925  17.269  -3.664  1.00 20.00     0.089 C 
HETATM    5  C8  UNL     1     -33.747  17.954   0.084  1.00 20.00     0.021 C 
HETATM    6  S10 UNL     1     -35.105  19.056  -2.057  1.00 20.00    -0.161 SA
ENDROOT
BRANCH   4   7
HETATM    7  C2  UNL     1     -34.062  16.039  -4.505  1.00 20.00    -0.058 C 
HETATM    8  C1  UNL     1     -33.557  14.858  -4.121  1.00 20.00     0.017 C 
HETATM    9  C7  UNL     1     -34.797  16.204  -5.802  1.00 20.00     0.046 C 
ENDBRANCH   4   7
BRANCH   4  10
HETATM   10  O9  UNL     1     -32.901  18.089  -4.232  1.00 20.00    -0.385 OA
HETATM   11  H24 UNL     1     -33.079  18.128  -5.184  1.00 20.00     0.211 HD
ENDBRANCH   4  10
TORSDOF 2
ENDMDL
MODEL 5
REMARK VINA RESULT:      -3.7     17.345     18.596
REMARK  2 active torsions:
REMARK  status: ('A' for Active; 'I' for Inactive)
REMARK    1  A    between atoms: C2_2  and  C6_6 
REMARK    2  A    between atoms: C6_6  and  O9_9 
ROOT
HETATM    1  C3  UNL     1     -34.128  15.636  -3.455  1.00 20.00     0.058 C 
HETATM    2  C4  UNL     1     -34.593  17.086  -5.372  1.00 20.00     0.116 C 
HETATM    3  C5  UNL     1     -33.194  16.786  -3.082  1.00 20.00     0.046 C 
HETATM    4  C6  UNL     1     -34.266  15.644  -4.980  1.00 20.00     0.089 C 
HETATM    5  C8  UNL     1     -33.330  17.206  -1.629  1.00 20.00     0.021 C 
HETATM    6  S10 UNL     1     -33.661  18.136  -4.211  1.00 20.00    -0.161 SA
ENDROOT
BRANCH   4   7
HETATM    7  C2  UNL     1     -35.315  14.680  -5.437  1.00 20.00    -0.058 C 
HETATM    8  C1  UNL     1     -35.763  13.692  -4.647  1.00 20.00     0.017 C 
HETATM    9  C7  UNL     1     -35.838  14.882  -6.828  1.00 20.00     0.046 C 
ENDBRANCH   4   7
BRANCH   4  10
HETATM   10  O9  UNL     1     -33.019  15.258  -5.561  1.00 20.00    -0.385 OA
HETATM   11  H24 UNL     1     -32.406  15.992  -5.407  1.00 20.00     0.211 HD
ENDBRANCH   4  10
TORSDOF 2
ENDMDL
MODEL 6
REMARK VINA RESULT:      -3.6     14.476     15.916
REMARK  2 active torsions:
REMARK  status: ('A' for Active; 'I' for Inactive)
REMARK    1  A    between atoms: C2_2  and  C6_6 
REMARK    2  A    between atoms: C6_6  and  O9_9 
ROOT
HETATM    1  C3  UNL     1     -33.293  16.980  -1.914  1.00 20.00     0.058 C 
HETATM    2  C4  UNL     1     -32.739  19.263  -2.606  1.00 20.00     0.116 C 
HETATM    3  C5  UNL     1     -33.953  16.951  -3.292  1.00 20.00     0.046 C 
HETATM    4  C6  UNL     1     -33.296  18.437  -1.444  1.00 20.00     0.089 C 
HETATM    5  C8  UNL     1     -33.607  15.701  -4.083  1.00 20.00     0.021 C 
HETATM    6  S10 UNL     1     -33.344  18.453  -4.121  1.00 20.00    -0.161 SA
ENDROOT
BRANCH   4   7
HETATM    7  C2  UNL     1     -32.495  18.607  -0.192  1.00 20.00    -0.058 C 
HETATM    8  C1  UNL     1     -31.157  18.515  -0.188  1.00 20.00     0.017 C 
HETATM    9  C7  UNL     1     -33.274  18.888   1.059  1.00 20.00     0.046 C 
ENDBRANCH   4   7
BRANCH   4  10
HETATM   10  O9  UNL     1     -34.641  18.835  -1.173  1.00 20.00    -0.385 OA
HETATM   11  H24 UNL     1     -34.684  19.029  -0.224  1.00 20.00     0.211 HD
ENDBRANCH   4  10
TORSDOF 2
ENDMDL
MODEL 7
REMARK VINA RESULT:      -3.4     16.939     18.362
REMARK  2 active torsions:
REMARK  status: ('A' for Active; 'I' for Inactive)
REMARK    1  A    between atoms: C2_2  and  C6_6 
REMARK    2  A    between atoms: C6_6  and  O9_9 
ROOT
HETATM    1  C3  UNL     1     -35.273  17.233  -4.623  1.00 20.00     0.058 C 
HETATM    2  C4  UNL     1     -33.538  15.746  -3.743  1.00 20.00     0.116 C 
HETATM    3  C5  UNL     1     -34.997  16.446  -5.904  1.00 20.00     0.046 C 
HETATM    4  C6  UNL     1     -33.986  17.209  -3.794  1.00 20.00     0.089 C 
HETATM    5  C8  UNL     1     -36.269  15.978  -6.591  1.00 20.00     0.021 C 
HETATM    6  S10 UNL     1     -33.976  15.039  -5.363  1.00 20.00    -0.161 SA
ENDROOT
BRANCH   4   7
HETATM    7  C2  UNL     1     -34.206  17.783  -2.430  1.00 20.00    -0.058 C 
HETATM    8  C1  UNL     1     -33.478  17.397  -1.372  1.00 20.00     0.017 C 
HETATM    9  C7  UNL     1     -35.288  18.815  -2.314  1.00 20.00     0.046 C 
ENDBRANCH   4   7
BRANCH   4  10
HETATM   10  O9  UNL     1     -32.992  17.993  -4.455  1.00 20.00    -0.385 OA
HETATM   11  H24 UNL     1     -32.898  18.808  -3.939  1.00 20.00     0.211 HD
ENDBRANCH   4  10
TORSDOF 2
ENDMDL
MODEL 8
REMARK VINA RESULT:      -3.4     15.075     16.489
REMARK  2 active torsions:
REMARK  status: ('A' for Active; 'I' for Inactive)
REMARK    1  A    between atoms: C2_2  and  C6_6 
REMARK    2  A    between atoms: C6_6  and  O9_9 
ROOT
HETATM    1  C3  UNL     1     -34.634  18.704  -2.299  1.00 20.00     0.058 C 
HETATM    2  C4  UNL     1     -33.078  16.852  -2.684  1.00 20.00     0.116 C 
HETATM    3  C5  UNL     1     -34.960  18.454  -3.771  1.00 20.00     0.046 C 
HETATM    4  C6  UNL     1     -33.188  18.252  -2.076  1.00 20.00     0.089 C 
HETATM    5  C8  UNL     1     -36.454  18.397  -4.040  1.00 20.00     0.021 C 
HETATM    6  S10 UNL     1     -34.154  16.867  -4.153  1.00 20.00    -0.161 SA
ENDROOT
BRANCH   4   7
HETATM    7  C2  UNL     1     -32.831  18.270  -0.623  1.00 20.00    -0.058 C 
HETATM    8  C1  UNL     1     -33.753  18.106   0.337  1.00 20.00     0.017 C 
HETATM    9  C7  UNL     1     -31.381  18.480  -0.301  1.00 20.00     0.046 C 
ENDBRANCH   4   7
BRANCH   4  10
HETATM   10  O9  UNL     1     -32.311  19.146  -2.764  1.00 20.00    -0.385 OA
HETATM   11  H24 UNL     1     -31.414  18.799  -2.639  1.00 20.00     0.211 HD
ENDBRANCH   4  10
TORSDOF 2
ENDMDL
MODEL 9
REMARK VINA RESULT:      -3.4     17.862     18.925
REMARK  2 active torsions:
REMARK  status: ('A' for Active; 'I' for Inactive)
REMARK    1  A    between atoms: C2_2  and  C6_6 
REMARK    2  A    between atoms: C6_6  and  O9_9 
ROOT
HETATM    1  C3  UNL     1     -40.535  14.361   6.808  1.00 20.00     0.058 C 
HETATM    2  C4  UNL     1     -41.980  12.397   6.579  1.00 20.00     0.116 C 
HETATM    3  C5  UNL     1     -41.865  15.035   7.143  1.00 20.00     0.046 C 
HETATM    4  C6  UNL     1     -40.850  13.172   5.896  1.00 20.00     0.089 C 
HETATM    5  C8  UNL     1     -41.785  15.908   8.384  1.00 20.00     0.021 C 
HETATM    6  S10 UNL     1     -43.030  13.655   7.375  1.00 20.00    -0.161 SA
ENDROOT
BRANCH   4   7
HETATM    7  C2  UNL     1     -39.638  12.325   5.668  1.00 20.00    -0.058 C 
HETATM    8  C1  UNL     1     -38.798  12.007   6.663  1.00 20.00     0.017 C 
HETATM    9  C7  UNL     1     -39.418  11.852   4.262  1.00 20.00     0.046 C 
ENDBRANCH   4   7
BRANCH   4  10
HETATM   10  O9  UNL     1     -41.299  13.663   4.632  1.00 20.00    -0.385 OA
HETATM   11  H24 UNL     1     -41.538  12.885   4.105  1.00 20.00     0.211 HD
ENDBRANCH   4  10
TORSDOF 2
ENDMDL
