MODEL 1
REMARK VINA RESULT:      -3.5      0.000      0.000
REMARK  0 active torsions:
REMARK  status: ('A' for Active; 'I' for Inactive)
ROOT
HETATM    1  C1  UNL     1     -33.673  16.690  -3.431  1.00 20.00    -0.053 C 
HETATM    2  C2  UNL     1     -33.515  16.686  -2.103  1.00 20.00     0.017 C 
HETATM    3  C3  UNL     1     -33.286  15.571  -4.336  1.00 20.00     0.073 C 
HETATM    4  C4  UNL     1     -34.347  17.740  -4.274  1.00 20.00     0.077 C 
HETATM    5  C5  UNL     1     -34.365  15.675  -5.412  1.00 20.00     0.059 C 
HETATM    6  C6  UNL     1     -35.633  18.310  -3.672  1.00 20.00     0.051 C 
HETATM    7  C7  UNL     1     -33.379  18.872  -4.628  1.00 20.00     0.051 C 
HETATM    8  C8  UNL     1     -33.852  15.207  -6.772  1.00 20.00     0.046 C 
HETATM    9  C9  UNL     1     -35.635  14.899  -5.042  1.00 20.00     0.046 C 
HETATM   10  O10 UNL     1     -34.692  17.076  -5.513  1.00 20.00    -0.366 OA
ENDROOT
TORSDOF 0
ENDMDL
MODEL 2
REMARK VINA RESULT:      -3.4     12.721     14.248
REMARK  0 active torsions:
REMARK  status: ('A' for Active; 'I' for Inactive)
ROOT
HETATM    1  C1  UNL     1     -42.312  13.236   7.040  1.00 20.00    -0.053 C 
HETATM    2  C2  UNL     1     -43.071  12.147   7.210  1.00 20.00     0.017 C 
HETATM    3  C3  UNL     1     -42.442  14.493   7.830  1.00 20.00     0.073 C 
HETATM    4  C4  UNL     1     -41.132  13.400   6.120  1.00 20.00     0.077 C 
HETATM    5  C5  UNL     1     -40.989  14.959   7.883  1.00 20.00     0.059 C 
HETATM    6  C6  UNL     1     -40.193  12.193   6.068  1.00 20.00     0.051 C 
HETATM    7  C7  UNL     1     -41.578  13.786   4.708  1.00 20.00     0.051 C 
HETATM    8  C8  UNL     1     -40.887  16.482   7.950  1.00 20.00     0.046 C 
HETATM    9  C9  UNL     1     -40.218  14.337   9.054  1.00 20.00     0.046 C 
HETATM   10  O10 UNL     1     -40.385  14.522   6.649  1.00 20.00    -0.366 OA
ENDROOT
TORSDOF 0
ENDMDL
MODEL 3
REMARK VINA RESULT:      -3.4     12.591     13.835
REMARK  0 active torsions:
REMARK  status: ('A' for Active; 'I' for Inactive)
ROOT
HETATM    1  C1  UNL     1     -42.224  13.811   7.611  1.00 20.00    -0.053 C 
HETATM    2  C2  UNL     1     -43.416  14.176   8.095  1.00 20.00     0.017 C 
HETATM    3  C3  UNL     1     -41.971  12.570   6.824  1.00 20.00     0.073 C 
HETATM    4  C4  UNL     1     -40.936  14.588   7.657  1.00 20.00     0.077 C 
HETATM    5  C5  UNL     1     -40.869  13.041   5.878  1.00 20.00     0.059 C 
HETATM    6  C6  UNL     1     -41.085  16.085   7.382  1.00 20.00     0.051 C 
HETATM    7  C7  UNL     1     -40.198  14.361   8.978  1.00 20.00     0.051 C 
HETATM    8  C8  UNL     1     -39.928  11.899   5.497  1.00 20.00     0.046 C 
HETATM    9  C9  UNL     1     -41.428  13.696   4.610  1.00 20.00     0.046 C 
HETATM   10  O10 UNL     1     -40.109  14.024   6.610  1.00 20.00    -0.366 OA
ENDROOT
TORSDOF 0
ENDMDL
MODEL 4
REMARK VINA RESULT:      -3.3     13.408     14.681
REMARK  0 active torsions:
REMARK  status: ('A' for Active; 'I' for Inactive)
ROOT
HETATM    1  C1  UNL     1     -42.123  14.365   6.193  1.00 20.00    -0.053 C 
HETATM    2  C2  UNL     1     -42.961  14.580   5.172  1.00 20.00     0.017 C 
HETATM    3  C3  UNL     1     -41.426  15.437   6.959  1.00 20.00     0.073 C 
HETATM    4  C4  UNL     1     -41.786  13.051   6.845  1.00 20.00     0.077 C 
HETATM    5  C5  UNL     1     -41.374  14.817   8.353  1.00 20.00     0.059 C 
HETATM    6  C6  UNL     1     -42.979  12.116   7.047  1.00 20.00     0.051 C 
HETATM    7  C7  UNL     1     -40.666  12.329   6.091  1.00 20.00     0.051 C 
HETATM    8  C8  UNL     1     -40.147  15.284   9.133  1.00 20.00     0.046 C 
HETATM    9  C9  UNL     1     -42.643  15.100   9.167  1.00 20.00     0.046 C 
HETATM   10  O10 UNL     1     -41.263  13.393   8.151  1.00 20.00    -0.366 OA
ENDROOT
TORSDOF 0
ENDMDL
MODEL 5
REMARK VINA RESULT:      -3.3     12.894     14.410
REMARK  0 active torsions:
REMARK  status: ('A' for Active; 'I' for Inactive)
ROOT
HETATM    1  C1  UNL     1     -40.852  13.064   6.322  1.00 20.00    -0.053 C 
HETATM    2  C2  UNL     1     -40.409  12.673   5.122  1.00 20.00     0.017 C 
HETATM    3  C3  UNL     1     -39.980  13.378   7.489  1.00 20.00     0.073 C 
HETATM    4  C4  UNL     1     -42.271  13.367   6.724  1.00 20.00     0.077 C 
HETATM    5  C5  UNL     1     -40.779  14.489   8.165  1.00 20.00     0.059 C 
HETATM    6  C6  UNL     1     -43.078  14.142   5.680  1.00 20.00     0.051 C 
HETATM    7  C7  UNL     1     -43.015  12.094   7.133  1.00 20.00     0.051 C 
HETATM    8  C8  UNL     1     -40.566  14.498   9.678  1.00 20.00     0.046 C 
HETATM    9  C9  UNL     1     -40.457  15.874   7.589  1.00 20.00     0.046 C 
HETATM   10  O10 UNL     1     -42.167  14.194   7.908  1.00 20.00    -0.366 OA
ENDROOT
TORSDOF 0
ENDMDL
MODEL 6
REMARK VINA RESULT:      -3.2      0.631      3.369
REMARK  0 active torsions:
REMARK  status: ('A' for Active; 'I' for Inactive)
ROOT
HETATM    1  C1  UNL     1     -33.688  15.551  -4.336  1.00 20.00    -0.053 C 
HETATM    2  C2  UNL     1     -32.587  14.795  -4.267  1.00 20.00     0.017 C 
HETATM    3  C3  UNL     1     -34.033  16.639  -3.377  1.00 20.00     0.073 C 
HETATM    4  C4  UNL     1     -34.738  15.549  -5.415  1.00 20.00     0.077 C 
HETATM    5  C5  UNL     1     -34.751  17.625  -4.295  1.00 20.00     0.059 C 
HETATM    6  C6  UNL     1     -34.189  15.434  -6.838  1.00 20.00     0.051 C 
HETATM    7  C7  UNL     1     -35.790  14.467  -5.162  1.00 20.00     0.051 C 
HETATM    8  C8  UNL     1     -35.817  18.421  -3.545  1.00 20.00     0.046 C 
HETATM    9  C9  UNL     1     -33.780  18.587  -4.992  1.00 20.00     0.046 C 
HETATM   10  O10 UNL     1     -35.410  16.827  -5.299  1.00 20.00    -0.366 OA
ENDROOT
TORSDOF 0
ENDMDL
MODEL 7
REMARK VINA RESULT:      -3.1     12.019     13.453
REMARK  0 active torsions:
REMARK  status: ('A' for Active; 'I' for Inactive)
ROOT
HETATM    1  C1  UNL     1     -33.201   5.960   3.609  1.00 20.00    -0.053 C 
HETATM    2  C2  UNL     1     -33.245   4.978   2.701  1.00 20.00     0.017 C 
HETATM    3  C3  UNL     1     -32.137   7.001   3.684  1.00 20.00     0.073 C 
HETATM    4  C4  UNL     1     -34.230   6.289   4.658  1.00 20.00     0.077 C 
HETATM    5  C5  UNL     1     -32.935   8.202   4.186  1.00 20.00     0.059 C 
HETATM    6  C6  UNL     1     -35.680   6.192   4.181  1.00 20.00     0.051 C 
HETATM    7  C7  UNL     1     -34.027   5.443   5.918  1.00 20.00     0.051 C 
HETATM    8  C8  UNL     1     -32.072   9.137   5.032  1.00 20.00     0.046 C 
HETATM    9  C9  UNL     1     -33.586   8.991   3.044  1.00 20.00     0.046 C 
HETATM   10  O10 UNL     1     -33.975   7.665   5.029  1.00 20.00    -0.366 OA
ENDROOT
TORSDOF 0
ENDMDL
MODEL 8
REMARK VINA RESULT:      -3.1     13.218     14.565
REMARK  0 active torsions:
REMARK  status: ('A' for Active; 'I' for Inactive)
ROOT
HETATM    1  C1  UNL     1     -42.199  14.271   5.970  1.00 20.00    -0.053 C 
HETATM    2  C2  UNL     1     -42.310  14.543   4.665  1.00 20.00     0.017 C 
HETATM    3  C3  UNL     1     -43.335  14.260   6.935  1.00 20.00     0.073 C 
HETATM    4  C4  UNL     1     -40.968  13.829   6.715  1.00 20.00     0.077 C 
HETATM    5  C5  UNL     1     -42.897  13.155   7.893  1.00 20.00     0.059 C 
HETATM    6  C6  UNL     1     -40.109  12.802   5.974  1.00 20.00     0.051 C 
HETATM    7  C7  UNL     1     -40.116  15.027   7.140  1.00 20.00     0.051 C 
HETATM    8  C8  UNL     1     -43.417  13.398   9.309  1.00 20.00     0.046 C 
HETATM    9  C9  UNL     1     -43.328  11.763   7.415  1.00 20.00     0.046 C 
HETATM   10  O10 UNL     1     -41.456  13.207   7.928  1.00 20.00    -0.366 OA
ENDROOT
TORSDOF 0
ENDMDL
MODEL 9
REMARK VINA RESULT:      -3.0     24.533     25.968
REMARK  0 active torsions:
REMARK  status: ('A' for Active; 'I' for Inactive)
ROOT
HETATM    1  C1  UNL     1     -25.555  -1.921  11.929  1.00 20.00    -0.053 C 
HETATM    2  C2  UNL     1     -24.410  -1.356  12.331  1.00 20.00     0.017 C 
HETATM    3  C3  UNL     1     -26.915  -1.463  12.331  1.00 20.00     0.073 C 
HETATM    4  C4  UNL     1     -25.730  -3.038  10.935  1.00 20.00     0.077 C 
HETATM    5  C5  UNL     1     -27.716  -1.775  11.069  1.00 20.00     0.059 C 
HETATM    6  C6  UNL     1     -24.826  -2.943   9.704  1.00 20.00     0.051 C 
HETATM    7  C7  UNL     1     -25.572  -4.405  11.605  1.00 20.00     0.051 C 
HETATM    8  C8  UNL     1     -29.170  -2.112  11.394  1.00 20.00     0.046 C 
HETATM    9  C9  UNL     1     -27.665  -0.633  10.047  1.00 20.00     0.046 C 
HETATM   10  O10 UNL     1     -27.103  -2.944  10.488  1.00 20.00    -0.366 OA
ENDROOT
TORSDOF 0
ENDMDL
