MODEL 1
REMARK VINA RESULT:      -3.3      0.000      0.000
REMARK  0 active torsions:
REMARK  status: ('A' for Active; 'I' for Inactive)
ROOT
HETATM    1  C1  UNL     1     -34.480  16.999  -4.469  1.00 20.00     0.086 C 
HETATM    2  C2  UNL     1     -33.332  16.994  -2.272  1.00 20.00     0.056 C 
HETATM    3  C3  UNL     1     -35.170  18.559  -2.682  1.00 20.00     0.115 C 
HETATM    4  C4  UNL     1     -33.225  17.797  -0.972  1.00 20.00     0.046 C 
HETATM    5  C5  UNL     1     -34.007  17.840  -3.360  1.00 20.00     0.135 C 
HETATM    6  C6  UNL     1     -31.883  18.488  -0.769  1.00 20.00     0.021 C 
HETATM    7  N7  UNL     1     -34.854  16.337  -5.345  1.00 20.00    -0.195 NA
HETATM    8  S8  UNL     1     -34.578  19.016  -1.027  1.00 20.00    -0.162 SA
HETATM    9 CL9  UNL     1     -32.866  19.016  -4.085  1.00 20.00    -0.102 Cl
ENDROOT
TORSDOF 0
ENDMDL
MODEL 2
REMARK VINA RESULT:      -3.3      2.757      3.753
REMARK  0 active torsions:
REMARK  status: ('A' for Active; 'I' for Inactive)
ROOT
HETATM    1  C1  UNL     1     -31.960  18.506  -1.131  1.00 20.00     0.086 C 
HETATM    2  C2  UNL     1     -32.929  19.096  -3.335  1.00 20.00     0.056 C 
HETATM    3  C3  UNL     1     -34.385  18.915  -1.374  1.00 20.00     0.115 C 
HETATM    4  C4  UNL     1     -34.275  19.263  -4.049  1.00 20.00     0.046 C 
HETATM    5  C5  UNL     1     -33.124  18.340  -2.014  1.00 20.00     0.135 C 
HETATM    6  C6  UNL     1     -34.560  18.205  -5.106  1.00 20.00     0.021 C 
HETATM    7  N7  UNL     1     -31.042  18.636  -0.434  1.00 20.00    -0.195 NA
HETATM    8  S8  UNL     1     -35.541  19.226  -2.739  1.00 20.00    -0.162 SA
HETATM    9 CL9  UNL     1     -33.293  16.576  -2.281  1.00 20.00    -0.102 Cl
ENDROOT
TORSDOF 0
ENDMDL
MODEL 3
REMARK VINA RESULT:      -3.3     16.043     16.769
REMARK  0 active torsions:
REMARK  status: ('A' for Active; 'I' for Inactive)
ROOT
HETATM    1  C1  UNL     1     -22.991  18.539   8.342  1.00 20.00     0.086 C 
HETATM    2  C2  UNL     1     -24.582  18.680  10.237  1.00 20.00     0.056 C 
HETATM    3  C3  UNL     1     -22.175  18.564  10.674  1.00 20.00     0.115 C 
HETATM    4  C4  UNL     1     -24.645  18.556  11.763  1.00 20.00     0.046 C 
HETATM    5  C5  UNL     1     -23.264  18.091   9.716  1.00 20.00     0.135 C 
HETATM    6  C6  UNL     1     -25.405  17.334  12.263  1.00 20.00     0.021 C 
HETATM    7  N7  UNL     1     -22.773  18.891   7.258  1.00 20.00    -0.195 NA
HETATM    8  S8  UNL     1     -22.915  18.519  12.332  1.00 20.00    -0.162 SA
HETATM    9 CL9  UNL     1     -23.322  16.301   9.648  1.00 20.00    -0.102 Cl
ENDROOT
TORSDOF 0
ENDMDL
MODEL 4
REMARK VINA RESULT:      -3.0     12.267     12.740
REMARK  0 active torsions:
REMARK  status: ('A' for Active; 'I' for Inactive)
ROOT
HETATM    1  C1  UNL     1     -40.149  12.403   5.237  1.00 20.00     0.086 C 
HETATM    2  C2  UNL     1     -40.453  14.177   6.942  1.00 20.00     0.056 C 
HETATM    3  C3  UNL     1     -42.138  12.417   6.703  1.00 20.00     0.115 C 
HETATM    4  C4  UNL     1     -41.492  14.740   7.916  1.00 20.00     0.046 C 
HETATM    5  C5  UNL     1     -41.133  13.257   5.920  1.00 20.00     0.135 C 
HETATM    6  C6  UNL     1     -42.013  16.123   7.548  1.00 20.00     0.021 C 
HETATM    7  N7  UNL     1     -39.374  11.729   4.698  1.00 20.00    -0.195 NA
HETATM    8  S8  UNL     1     -42.850  13.526   7.952  1.00 20.00    -0.162 SA
HETATM    9 CL9  UNL     1     -41.952  14.193   4.630  1.00 20.00    -0.102 Cl
ENDROOT
TORSDOF 0
ENDMDL
MODEL 5
REMARK VINA RESULT:      -3.0      4.228      4.736
REMARK  0 active torsions:
REMARK  status: ('A' for Active; 'I' for Inactive)
ROOT
HETATM    1  C1  UNL     1     -35.456  14.132  -4.811  1.00 20.00     0.086 C 
HETATM    2  C2  UNL     1     -36.139  16.439  -5.405  1.00 20.00     0.056 C 
HETATM    3  C3  UNL     1     -34.423  15.300  -6.729  1.00 20.00     0.115 C 
HETATM    4  C4  UNL     1     -35.740  17.617  -6.300  1.00 20.00     0.046 C 
HETATM    5  C5  UNL     1     -34.987  15.431  -5.316  1.00 20.00     0.135 C 
HETATM    6  C6  UNL     1     -35.209  18.828  -5.545  1.00 20.00     0.021 C 
HETATM    7  N7  UNL     1     -35.825  13.107  -4.414  1.00 20.00    -0.195 NA
HETATM    8  S8  UNL     1     -34.482  16.967  -7.446  1.00 20.00    -0.162 SA
HETATM    9 CL9  UNL     1     -33.719  15.975  -4.172  1.00 20.00    -0.102 Cl
ENDROOT
TORSDOF 0
ENDMDL
MODEL 6
REMARK VINA RESULT:      -2.9     12.521     12.966
REMARK  0 active torsions:
REMARK  status: ('A' for Active; 'I' for Inactive)
ROOT
HETATM    1  C1  UNL     1     -40.079  12.412   5.224  1.00 20.00     0.086 C 
HETATM    2  C2  UNL     1     -42.114  12.375   6.639  1.00 20.00     0.056 C 
HETATM    3  C3  UNL     1     -41.867  14.089   4.908  1.00 20.00     0.115 C 
HETATM    4  C4  UNL     1     -43.353  13.208   6.982  1.00 20.00     0.046 C 
HETATM    5  C5  UNL     1     -41.082  13.243   5.907  1.00 20.00     0.135 C 
HETATM    6  C6  UNL     1     -43.356  13.778   8.395  1.00 20.00     0.021 C 
HETATM    7  N7  UNL     1     -39.288  11.758   4.684  1.00 20.00    -0.195 NA
HETATM    8  S8  UNL     1     -43.413  14.544   5.746  1.00 20.00    -0.162 SA
HETATM    9 CL9  UNL     1     -40.167  14.283   7.045  1.00 20.00    -0.102 Cl
ENDROOT
TORSDOF 0
ENDMDL
MODEL 7
REMARK VINA RESULT:      -2.8      2.490      3.006
REMARK  0 active torsions:
REMARK  status: ('A' for Active; 'I' for Inactive)
ROOT
HETATM    1  C1  UNL     1     -35.648  15.377  -6.345  1.00 20.00     0.086 C 
HETATM    2  C2  UNL     1     -34.336  16.411  -4.514  1.00 20.00     0.056 C 
HETATM    3  C3  UNL     1     -36.530  17.323  -5.103  1.00 20.00     0.115 C 
HETATM    4  C4  UNL     1     -34.309  17.644  -3.604  1.00 20.00     0.046 C 
HETATM    5  C5  UNL     1     -35.295  16.645  -5.689  1.00 20.00     0.135 C 
HETATM    6  C6  UNL     1     -33.164  18.607  -3.885  1.00 20.00     0.021 C 
HETATM    7  N7  UNL     1     -35.927  14.378  -6.864  1.00 20.00    -0.195 NA
HETATM    8  S8  UNL     1     -35.918  18.466  -3.833  1.00 20.00    -0.162 SA
HETATM    9 CL9  UNL     1     -34.548  17.666  -6.958  1.00 20.00    -0.102 Cl
ENDROOT
TORSDOF 0
ENDMDL
MODEL 8
REMARK VINA RESULT:      -2.8     24.991     25.576
REMARK  0 active torsions:
REMARK  status: ('A' for Active; 'I' for Inactive)
ROOT
HETATM    1  C1  UNL     1     -25.240  -2.932  10.052  1.00 20.00     0.086 C 
HETATM    2  C2  UNL     1     -27.663  -2.429   9.913  1.00 20.00     0.056 C 
HETATM    3  C3  UNL     1     -26.295  -1.360  11.640  1.00 20.00     0.115 C 
HETATM    4  C4  UNL     1     -28.792  -1.736  10.684  1.00 20.00     0.046 C 
HETATM    5  C5  UNL     1     -26.453  -2.645  10.831  1.00 20.00     0.135 C 
HETATM    6  C6  UNL     1     -29.839  -2.685  11.251  1.00 20.00     0.021 C 
HETATM    7  N7  UNL     1     -24.282  -3.157   9.438  1.00 20.00    -0.195 NA
HETATM    8  S8  UNL     1     -27.980  -0.797  12.017  1.00 20.00    -0.162 SA
HETATM    9 CL9  UNL     1     -26.688  -4.054  11.913  1.00 20.00    -0.102 Cl
ENDROOT
TORSDOF 0
ENDMDL
MODEL 9
REMARK VINA RESULT:      -2.8     24.981     25.482
REMARK  0 active torsions:
REMARK  status: ('A' for Active; 'I' for Inactive)
ROOT
HETATM    1  C1  UNL     1     -29.356  -2.321  11.086  1.00 20.00     0.086 C 
HETATM    2  C2  UNL     1     -27.210  -3.481  10.641  1.00 20.00     0.056 C 
HETATM    3  C3  UNL     1     -27.310  -1.713  12.332  1.00 20.00     0.115 C 
HETATM    4  C4  UNL     1     -25.713  -3.397  10.954  1.00 20.00     0.046 C 
HETATM    5  C5  UNL     1     -27.897  -2.155  10.994  1.00 20.00     0.135 C 
HETATM    6  C6  UNL     1     -24.841  -3.035   9.759  1.00 20.00     0.021 C 
HETATM    7  N7  UNL     1     -30.506  -2.451  11.159  1.00 20.00    -0.195 NA
HETATM    8  S8  UNL     1     -25.549  -2.152  12.274  1.00 20.00    -0.162 SA
HETATM    9 CL9  UNL     1     -27.621  -0.911   9.734  1.00 20.00    -0.102 Cl
ENDROOT
TORSDOF 0
ENDMDL
