MODEL 1
REMARK VINA RESULT:      -4.3      0.000      0.000
REMARK  3 active torsions:
REMARK  status: ('A' for Active; 'I' for Inactive)
REMARK    1  A    between atoms: C6_6  and  C9_9 
REMARK    2  A    between atoms: C6_6  and  O10_10 
REMARK    3  A    between atoms: C8_8  and  C9_9 
ROOT
HETATM    1  C1  UNL     1     -33.639  17.147  -1.642  1.00 20.00     0.012 C 
HETATM    2  C2  UNL     1     -33.363  16.499  -2.614  1.00 20.00    -0.117 C 
HETATM    3  C8  UNL     1     -33.021  15.706  -3.802  1.00 20.00     0.096 C 
ENDROOT
BRANCH   3   4
HETATM    4  C9  UNL     1     -34.265  15.043  -4.368  1.00 20.00     0.050 C 
BRANCH   4   5
HETATM    5  C6  UNL     1     -34.429  15.372  -5.851  1.00 20.00     0.068 C 
HETATM    6  C3  UNL     1     -35.743  14.807  -6.430  1.00 20.00     0.053 C 
HETATM    7  C5  UNL     1     -36.762  15.921  -6.637  1.00 20.00     0.046 C 
HETATM    8  C7  UNL     1     -37.529  16.301  -5.378  1.00 20.00     0.021 C 
HETATM    9  S11 UNL     1     -35.728  17.290  -7.210  1.00 20.00    -0.162 SA
HETATM   10  C4  UNL     1     -34.348  16.883  -6.110  1.00 20.00     0.112 C 
BRANCH   5  11
HETATM   11  O10 UNL     1     -33.354  14.727  -6.546  1.00 20.00    -0.389 OA
HETATM   12  H25 UNL     1     -33.596  13.793  -6.616  1.00 20.00     0.210 HD
ENDBRANCH   5  11
ENDBRANCH   4   5
ENDBRANCH   3   4
TORSDOF 3
ENDMDL
MODEL 2
REMARK VINA RESULT:      -4.3      1.309      1.786
REMARK  3 active torsions:
REMARK  status: ('A' for Active; 'I' for Inactive)
REMARK    1  A    between atoms: C6_6  and  C9_9 
REMARK    2  A    between atoms: C6_6  and  O10_10 
REMARK    3  A    between atoms: C8_8  and  C9_9 
ROOT
HETATM    1  C1  UNL     1     -33.308  16.652  -2.489  1.00 20.00     0.012 C 
HETATM    2  C2  UNL     1     -33.406  15.879  -3.404  1.00 20.00    -0.117 C 
HETATM    3  C8  UNL     1     -33.523  14.934  -4.522  1.00 20.00     0.096 C 
ENDROOT
BRANCH   3   4
HETATM    4  C9  UNL     1     -34.984  14.677  -4.844  1.00 20.00     0.050 C 
BRANCH   4   5
HETATM    5  C6  UNL     1     -35.307  15.094  -6.278  1.00 20.00     0.068 C 
HETATM    6  C3  UNL     1     -36.316  16.260  -6.331  1.00 20.00     0.053 C 
HETATM    7  C5  UNL     1     -35.614  17.562  -6.697  1.00 20.00     0.046 C 
HETATM    8  C7  UNL     1     -34.941  18.255  -5.520  1.00 20.00     0.021 C 
HETATM    9  S11 UNL     1     -34.397  17.016  -7.918  1.00 20.00    -0.162 SA
HETATM   10  C4  UNL     1     -34.039  15.461  -7.062  1.00 20.00     0.112 C 
BRANCH   5  11
HETATM   11  O10 UNL     1     -35.931  13.970  -6.912  1.00 20.00    -0.389 OA
HETATM   12  H25 UNL     1     -36.766  14.294  -7.280  1.00 20.00     0.210 HD
ENDBRANCH   5  11
ENDBRANCH   4   5
ENDBRANCH   3   4
TORSDOF 3
ENDMDL
MODEL 3
REMARK VINA RESULT:      -4.1     12.715     14.178
REMARK  3 active torsions:
REMARK  status: ('A' for Active; 'I' for Inactive)
REMARK    1  A    between atoms: C6_6  and  C9_9 
REMARK    2  A    between atoms: C6_6  and  O10_10 
REMARK    3  A    between atoms: C8_8  and  C9_9 
ROOT
HETATM    1  C1  UNL     1     -38.910  11.662   3.862  1.00 20.00     0.012 C 
HETATM    2  C2  UNL     1     -39.587  11.862   4.833  1.00 20.00    -0.117 C 
HETATM    3  C8  UNL     1     -40.414  12.103   6.023  1.00 20.00     0.096 C 
ENDROOT
BRANCH   3   4
HETATM    4  C9  UNL     1     -40.861  13.553   6.068  1.00 20.00     0.050 C 
BRANCH   4   5
HETATM    5  C6  UNL     1     -40.799  14.098   7.495  1.00 20.00     0.068 C 
HETATM    6  C3  UNL     1     -40.396  15.586   7.532  1.00 20.00     0.053 C 
HETATM    7  C5  UNL     1     -41.604  16.463   7.839  1.00 20.00     0.046 C 
HETATM    8  C7  UNL     1     -42.471  16.771   6.627  1.00 20.00     0.021 C 
HETATM    9  S11 UNL     1     -42.506  15.468   9.051  1.00 20.00    -0.162 SA
HETATM   10  C4  UNL     1     -42.127  13.894   8.239  1.00 20.00     0.112 C 
BRANCH   5  11
HETATM   11  O10 UNL     1     -39.772  13.368   8.179  1.00 20.00    -0.389 OA
HETATM   12  H25 UNL     1     -39.019  13.971   8.262  1.00 20.00     0.210 HD
ENDBRANCH   5  11
ENDBRANCH   4   5
ENDBRANCH   3   4
TORSDOF 3
ENDMDL
MODEL 4
REMARK VINA RESULT:      -4.1     12.419     13.831
REMARK  3 active torsions:
REMARK  status: ('A' for Active; 'I' for Inactive)
REMARK    1  A    between atoms: C6_6  and  C9_9 
REMARK    2  A    between atoms: C6_6  and  O10_10 
REMARK    3  A    between atoms: C8_8  and  C9_9 
ROOT
HETATM    1  C1  UNL     1     -38.904  11.716   3.434  1.00 20.00     0.012 C 
HETATM    2  C2  UNL     1     -39.284  11.683   4.573  1.00 20.00    -0.117 C 
HETATM    3  C8  UNL     1     -39.747  11.639   5.966  1.00 20.00     0.096 C 
ENDROOT
BRANCH   3   4
HETATM    4  C9  UNL     1     -39.956  13.046   6.496  1.00 20.00     0.050 C 
BRANCH   4   5
HETATM    5  C6  UNL     1     -41.429  13.292   6.820  1.00 20.00     0.068 C 
HETATM    6  C3  UNL     1     -41.613  14.038   8.158  1.00 20.00     0.053 C 
HETATM    7  C5  UNL     1     -41.995  15.494   7.913  1.00 20.00     0.046 C 
HETATM    8  C7  UNL     1     -40.812  16.404   7.617  1.00 20.00     0.021 C 
HETATM    9  S11 UNL     1     -43.098  15.370   6.485  1.00 20.00    -0.162 SA
HETATM   10  C4  UNL     1     -42.140  14.053   5.692  1.00 20.00     0.112 C 
BRANCH   5  11
HETATM   11  O10 UNL     1     -42.047  12.007   6.969  1.00 20.00    -0.389 OA
HETATM   12  H25 UNL     1     -41.557  11.401   6.395  1.00 20.00     0.210 HD
ENDBRANCH   5  11
ENDBRANCH   4   5
ENDBRANCH   3   4
TORSDOF 3
ENDMDL
MODEL 5
REMARK VINA RESULT:      -4.0     18.763     19.742
REMARK  3 active torsions:
REMARK  status: ('A' for Active; 'I' for Inactive)
REMARK    1  A    between atoms: C6_6  and  C9_9 
REMARK    2  A    between atoms: C6_6  and  O10_10 
REMARK    3  A    between atoms: C8_8  and  C9_9 
ROOT
HETATM    1  C1  UNL     1     -21.293  17.725   7.139  1.00 20.00     0.012 C 
HETATM    2  C2  UNL     1     -22.206  18.099   7.823  1.00 20.00    -0.117 C 
HETATM    3  C8  UNL     1     -23.326  18.556   8.656  1.00 20.00     0.096 C 
ENDROOT
BRANCH   3   4
HETATM    4  C9  UNL     1     -22.807  19.220   9.918  1.00 20.00     0.050 C 
BRANCH   4   5
HETATM    5  C6  UNL     1     -23.021  18.321  11.135  1.00 20.00     0.068 C 
HETATM    6  C3  UNL     1     -23.790  19.040  12.262  1.00 20.00     0.053 C 
HETATM    7  C5  UNL     1     -25.230  18.542  12.332  1.00 20.00     0.046 C 
HETATM    8  C7  UNL     1     -26.164  19.204  11.329  1.00 20.00     0.021 C 
HETATM    9  S11 UNL     1     -25.046  16.776  11.987  1.00 20.00    -0.162 SA
HETATM   10  C4  UNL     1     -23.738  17.017  10.758  1.00 20.00     0.112 C 
BRANCH   5  11
HETATM   11  O10 UNL     1     -21.723  17.999  11.653  1.00 20.00    -0.389 OA
HETATM   12  H25 UNL     1     -21.097  18.152  10.932  1.00 20.00     0.210 HD
ENDBRANCH   5  11
ENDBRANCH   4   5
ENDBRANCH   3   4
TORSDOF 3
ENDMDL
MODEL 6
REMARK VINA RESULT:      -4.0      1.377      1.806
REMARK  3 active torsions:
REMARK  status: ('A' for Active; 'I' for Inactive)
REMARK    1  A    between atoms: C6_6  and  C9_9 
REMARK    2  A    between atoms: C6_6  and  O10_10 
REMARK    3  A    between atoms: C8_8  and  C9_9 
ROOT
HETATM    1  C1  UNL     1     -33.239  16.578  -2.740  1.00 20.00     0.012 C 
HETATM    2  C2  UNL     1     -33.636  15.710  -3.469  1.00 20.00    -0.117 C 
HETATM    3  C8  UNL     1     -34.123  14.646  -4.358  1.00 20.00     0.096 C 
ENDROOT
BRANCH   3   4
HETATM    4  C9  UNL     1     -33.976  15.065  -5.810  1.00 20.00     0.050 C 
BRANCH   4   5
HETATM    5  C6  UNL     1     -35.345  15.261  -6.461  1.00 20.00     0.068 C 
HETATM    6  C3  UNL     1     -36.328  16.008  -5.536  1.00 20.00     0.053 C 
HETATM    7  C5  UNL     1     -36.515  17.447  -6.001  1.00 20.00     0.046 C 
HETATM    8  C7  UNL     1     -35.421  18.397  -5.535  1.00 20.00     0.021 C 
HETATM    9  S11 UNL     1     -36.508  17.276  -7.802  1.00 20.00    -0.162 SA
HETATM   10  C4  UNL     1     -35.234  15.989  -7.808  1.00 20.00     0.112 C 
BRANCH   5  11
HETATM   11  O10 UNL     1     -35.893  13.956  -6.688  1.00 20.00    -0.389 OA
HETATM   12  H25 UNL     1     -36.346  13.995  -7.542  1.00 20.00     0.210 HD
ENDBRANCH   5  11
ENDBRANCH   4   5
ENDBRANCH   3   4
TORSDOF 3
ENDMDL
MODEL 7
REMARK VINA RESULT:      -3.8      1.497      2.020
REMARK  3 active torsions:
REMARK  status: ('A' for Active; 'I' for Inactive)
REMARK    1  A    between atoms: C6_6  and  C9_9 
REMARK    2  A    between atoms: C6_6  and  O10_10 
REMARK    3  A    between atoms: C8_8  and  C9_9 
ROOT
HETATM    1  C1  UNL     1     -32.637  18.620  -2.152  1.00 20.00     0.012 C 
HETATM    2  C2  UNL     1     -33.079  17.529  -2.390  1.00 20.00    -0.117 C 
HETATM    3  C8  UNL     1     -33.621  16.194  -2.678  1.00 20.00     0.096 C 
ENDROOT
BRANCH   3   4
HETATM    4  C9  UNL     1     -33.158  15.722  -4.044  1.00 20.00     0.050 C 
BRANCH   4   5
HETATM    5  C6  UNL     1     -34.351  15.336  -4.920  1.00 20.00     0.068 C 
HETATM    6  C3  UNL     1     -35.472  16.394  -4.873  1.00 20.00     0.053 C 
HETATM    7  C5  UNL     1     -35.495  17.209  -6.161  1.00 20.00     0.046 C 
HETATM    8  C7  UNL     1     -34.483  18.346  -6.194  1.00 20.00     0.021 C 
HETATM    9  S11 UNL     1     -35.119  15.962  -7.416  1.00 20.00    -0.162 SA
HETATM   10  C4  UNL     1     -33.928  15.081  -6.374  1.00 20.00     0.112 C 
BRANCH   5  11
HETATM   11  O10 UNL     1     -34.894  14.125  -4.379  1.00 20.00    -0.389 OA
HETATM   12  H25 UNL     1     -35.806  14.070  -4.699  1.00 20.00     0.210 HD
ENDBRANCH   5  11
ENDBRANCH   4   5
ENDBRANCH   3   4
TORSDOF 3
ENDMDL
MODEL 8
REMARK VINA RESULT:      -3.8      1.828      2.333
REMARK  3 active torsions:
REMARK  status: ('A' for Active; 'I' for Inactive)
REMARK    1  A    between atoms: C6_6  and  C9_9 
REMARK    2  A    between atoms: C6_6  and  O10_10 
REMARK    3  A    between atoms: C8_8  and  C9_9 
ROOT
HETATM    1  C1  UNL     1     -31.855  18.480  -0.982  1.00 20.00     0.012 C 
HETATM    2  C2  UNL     1     -32.726  17.787  -1.434  1.00 20.00    -0.117 C 
HETATM    3  C8  UNL     1     -33.793  16.941  -1.984  1.00 20.00     0.096 C 
ENDROOT
BRANCH   3   4
HETATM    4  C9  UNL     1     -33.326  16.270  -3.263  1.00 20.00     0.050 C 
BRANCH   4   5
HETATM    5  C6  UNL     1     -34.031  16.868  -4.480  1.00 20.00     0.068 C 
HETATM    6  C3  UNL     1     -34.089  15.879  -5.663  1.00 20.00     0.053 C 
HETATM    7  C5  UNL     1     -35.495  15.311  -5.819  1.00 20.00     0.046 C 
HETATM    8  C7  UNL     1     -35.801  14.148  -4.886  1.00 20.00     0.021 C 
HETATM    9  S11 UNL     1     -36.535  16.742  -5.442  1.00 20.00    -0.162 SA
HETATM   10  C4  UNL     1     -35.444  17.358  -4.134  1.00 20.00     0.112 C 
BRANCH   5  11
HETATM   11  O10 UNL     1     -33.248  17.989  -4.910  1.00 20.00    -0.389 OA
HETATM   12  H25 UNL     1     -32.509  17.626  -5.419  1.00 20.00     0.210 HD
ENDBRANCH   5  11
ENDBRANCH   4   5
ENDBRANCH   3   4
TORSDOF 3
ENDMDL
MODEL 9
REMARK VINA RESULT:      -3.7     12.370     13.446
REMARK  3 active torsions:
REMARK  status: ('A' for Active; 'I' for Inactive)
REMARK    1  A    between atoms: C6_6  and  C9_9 
REMARK    2  A    between atoms: C6_6  and  O10_10 
REMARK    3  A    between atoms: C8_8  and  C9_9 
ROOT
HETATM    1  C1  UNL     1     -32.542   9.222   0.940  1.00 20.00     0.012 C 
HETATM    2  C2  UNL     1     -32.492   8.294   1.700  1.00 20.00    -0.117 C 
HETATM    3  C8  UNL     1     -32.431   7.155   2.626  1.00 20.00     0.096 C 
ENDROOT
BRANCH   3   4
HETATM    4  C9  UNL     1     -32.223   7.644   4.048  1.00 20.00     0.050 C 
BRANCH   4   5
HETATM    5  C6  UNL     1     -33.520   7.551   4.851  1.00 20.00     0.068 C 
HETATM    6  C3  UNL     1     -34.622   6.786   4.089  1.00 20.00     0.053 C 
HETATM    7  C5  UNL     1     -34.809   5.390   4.672  1.00 20.00     0.046 C 
HETATM    8  C7  UNL     1     -33.804   4.366   4.163  1.00 20.00     0.021 C 
HETATM    9  S11 UNL     1     -34.602   5.681   6.446  1.00 20.00    -0.162 SA
HETATM   10  C4  UNL     1     -33.290   6.910   6.227  1.00 20.00     0.112 C 
BRANCH   5  11
HETATM   11  O10 UNL     1     -33.994   8.890   5.041  1.00 20.00    -0.389 OA
HETATM   12  H25 UNL     1     -34.841   8.948   4.576  1.00 20.00     0.210 HD
ENDBRANCH   5  11
ENDBRANCH   4   5
ENDBRANCH   3   4
TORSDOF 3
ENDMDL
