MODEL 1
REMARK VINA RESULT:      -3.8      0.000      0.000
REMARK  0 active torsions:
REMARK  status: ('A' for Active; 'I' for Inactive)
ROOT
HETATM    1  C1  UNL     1     -35.678  14.142  -4.817  1.00 20.00     0.088 C 
HETATM    2  C2  UNL     1     -34.528  16.256  -4.904  1.00 20.00    -0.057 C 
HETATM    3  C3  UNL     1     -35.545  15.468  -5.292  1.00 20.00     0.097 C 
HETATM    4  C4  UNL     1     -33.487  15.733  -3.939  1.00 20.00     0.037 C 
HETATM    5  C5  UNL     1     -33.444  16.550  -2.646  1.00 20.00     0.014 C 
HETATM    6  C6  UNL     1     -33.152  18.029  -2.878  1.00 20.00     0.075 C 
HETATM    7  C7  UNL     1     -34.299  17.677  -5.379  1.00 20.00     0.072 C 
HETATM    8  C8  UNL     1     -35.250  18.199  -6.458  1.00 20.00     0.026 C 
HETATM    9  N9  UNL     1     -35.795  13.052  -4.434  1.00 20.00    -0.192 NA
HETATM   10  S10 UNL     1     -34.406  18.808  -3.939  1.00 20.00    -0.160 SA
ENDROOT
TORSDOF 0
ENDMDL
MODEL 2
REMARK VINA RESULT:      -3.7      2.951      4.134
REMARK  0 active torsions:
REMARK  status: ('A' for Active; 'I' for Inactive)
ROOT
HETATM    1  C1  UNL     1     -32.168  18.644  -1.496  1.00 20.00     0.088 C 
HETATM    2  C2  UNL     1     -33.942  17.766  -2.868  1.00 20.00    -0.057 C 
HETATM    3  C3  UNL     1     -33.283  18.816  -2.351  1.00 20.00     0.097 C 
HETATM    4  C4  UNL     1     -33.501  16.357  -2.541  1.00 20.00     0.037 C 
HETATM    5  C5  UNL     1     -33.088  15.582  -3.793  1.00 20.00     0.014 C 
HETATM    6  C6  UNL     1     -34.197  15.485  -4.836  1.00 20.00     0.075 C 
HETATM    7  C7  UNL     1     -35.155  17.861  -3.772  1.00 20.00     0.072 C 
HETATM    8  C8  UNL     1     -35.716  19.263  -4.018  1.00 20.00     0.026 C 
HETATM    9  N9  UNL     1     -31.254  18.513  -0.793  1.00 20.00    -0.192 NA
HETATM   10  S10 UNL     1     -34.740  17.126  -5.400  1.00 20.00    -0.160 SA
ENDROOT
TORSDOF 0
ENDMDL
MODEL 3
REMARK VINA RESULT:      -3.7      2.727      4.107
REMARK  0 active torsions:
REMARK  status: ('A' for Active; 'I' for Inactive)
ROOT
HETATM    1  C1  UNL     1     -33.287  17.682  -1.069  1.00 20.00     0.088 C 
HETATM    2  C2  UNL     1     -33.521  17.009  -3.369  1.00 20.00    -0.057 C 
HETATM    3  C3  UNL     1     -33.539  16.705  -2.061  1.00 20.00     0.097 C 
HETATM    4  C4  UNL     1     -33.226  18.424  -3.816  1.00 20.00     0.037 C 
HETATM    5  C5  UNL     1     -34.392  19.031  -4.599  1.00 20.00     0.014 C 
HETATM    6  C6  UNL     1     -34.768  18.228  -5.840  1.00 20.00     0.075 C 
HETATM    7  C7  UNL     1     -33.758  16.022  -4.495  1.00 20.00     0.072 C 
HETATM    8  C8  UNL     1     -33.925  14.555  -4.094  1.00 20.00     0.026 C 
HETATM    9  N9  UNL     1     -33.081  18.476  -0.248  1.00 20.00    -0.192 NA
HETATM   10  S10 UNL     1     -35.257  16.527  -5.422  1.00 20.00    -0.160 SA
ENDROOT
TORSDOF 0
ENDMDL
MODEL 4
REMARK VINA RESULT:      -3.7     12.640     13.888
REMARK  0 active torsions:
REMARK  status: ('A' for Active; 'I' for Inactive)
ROOT
HETATM    1  C1  UNL     1     -32.084   8.915   4.519  1.00 20.00     0.088 C 
HETATM    2  C2  UNL     1     -33.429   6.941   4.218  1.00 20.00    -0.057 C 
HETATM    3  C3  UNL     1     -32.363   7.684   3.880  1.00 20.00     0.097 C 
HETATM    4  C4  UNL     1     -34.370   7.413   5.304  1.00 20.00     0.037 C 
HETATM    5  C5  UNL     1     -34.430   6.432   6.476  1.00 20.00     0.014 C 
HETATM    6  C6  UNL     1     -34.869   5.029   6.067  1.00 20.00     0.075 C 
HETATM    7  C7  UNL     1     -33.812   5.624   3.572  1.00 20.00     0.072 C 
HETATM    8  C8  UNL     1     -32.966   5.177   2.378  1.00 20.00     0.026 C 
HETATM    9  N9  UNL     1     -31.848   9.927   5.037  1.00 20.00    -0.192 NA
HETATM   10  S10 UNL     1     -33.745   4.299   4.838  1.00 20.00    -0.160 SA
ENDROOT
TORSDOF 0
ENDMDL
MODEL 5
REMARK VINA RESULT:      -3.7     11.575     12.882
REMARK  0 active torsions:
REMARK  status: ('A' for Active; 'I' for Inactive)
ROOT
HETATM    1  C1  UNL     1     -32.492   8.665   1.606  1.00 20.00     0.088 C 
HETATM    2  C2  UNL     1     -32.861   7.403   3.624  1.00 20.00    -0.057 C 
HETATM    3  C3  UNL     1     -32.879   8.573   2.965  1.00 20.00     0.097 C 
HETATM    4  C4  UNL     1     -32.418   6.140   2.920  1.00 20.00     0.037 C 
HETATM    5  C5  UNL     1     -33.526   5.086   2.884  1.00 20.00     0.014 C 
HETATM    6  C6  UNL     1     -34.024   4.687   4.269  1.00 20.00     0.075 C 
HETATM    7  C7  UNL     1     -33.238   7.221   5.081  1.00 20.00     0.072 C 
HETATM    8  C8  UNL     1     -33.562   8.493   5.868  1.00 20.00     0.026 C 
HETATM    9  N9  UNL     1     -32.175   8.749   0.493  1.00 20.00    -0.192 NA
HETATM   10  S10 UNL     1     -34.693   6.110   5.183  1.00 20.00    -0.160 SA
ENDROOT
TORSDOF 0
ENDMDL
MODEL 6
REMARK VINA RESULT:      -3.6      1.711      2.054
REMARK  0 active torsions:
REMARK  status: ('A' for Active; 'I' for Inactive)
ROOT
HETATM    1  C1  UNL     1     -33.834  15.124  -4.374  1.00 20.00     0.088 C 
HETATM    2  C2  UNL     1     -34.020  17.406  -3.628  1.00 20.00    -0.057 C 
HETATM    3  C3  UNL     1     -34.347  16.437  -4.499  1.00 20.00     0.097 C 
HETATM    4  C4  UNL     1     -33.081  17.111  -2.480  1.00 20.00     0.037 C 
HETATM    5  C5  UNL     1     -33.747  17.343  -1.122  1.00 20.00     0.014 C 
HETATM    6  C6  UNL     1     -34.261  18.767  -0.939  1.00 20.00     0.075 C 
HETATM    7  C7  UNL     1     -34.505  18.841  -3.701  1.00 20.00     0.072 C 
HETATM    8  C8  UNL     1     -35.347  19.216  -4.922  1.00 20.00     0.026 C 
HETATM    9  N9  UNL     1     -33.418  14.045  -4.280  1.00 20.00    -0.192 NA
HETATM   10  S10 UNL     1     -35.493  19.210  -2.201  1.00 20.00    -0.160 SA
ENDROOT
TORSDOF 0
ENDMDL
MODEL 7
REMARK VINA RESULT:      -3.6     13.060     13.920
REMARK  0 active torsions:
REMARK  status: ('A' for Active; 'I' for Inactive)
ROOT
HETATM    1  C1  UNL     1     -39.269  12.129   5.694  1.00 20.00     0.088 C 
HETATM    2  C2  UNL     1     -41.202  13.147   6.707  1.00 20.00    -0.057 C 
HETATM    3  C3  UNL     1     -40.586  12.062   6.210  1.00 20.00     0.097 C 
HETATM    4  C4  UNL     1     -40.493  14.483   6.726  1.00 20.00     0.037 C 
HETATM    5  C5  UNL     1     -40.326  15.021   8.148  1.00 20.00     0.014 C 
HETATM    6  C6  UNL     1     -41.649  15.195   8.886  1.00 20.00     0.075 C 
HETATM    7  C7  UNL     1     -42.615  13.168   7.258  1.00 20.00     0.072 C 
HETATM    8  C8  UNL     1     -43.416  11.871   7.133  1.00 20.00     0.026 C 
HETATM    9  N9  UNL     1     -38.190  12.174   5.269  1.00 20.00    -0.192 NA
HETATM   10  S10 UNL     1     -42.554  13.624   9.033  1.00 20.00    -0.160 SA
ENDROOT
TORSDOF 0
ENDMDL
MODEL 8
REMARK VINA RESULT:      -3.4     12.141     13.085
REMARK  0 active torsions:
REMARK  status: ('A' for Active; 'I' for Inactive)
ROOT
HETATM    1  C1  UNL     1     -39.533  12.112   5.199  1.00 20.00     0.088 C 
HETATM    2  C2  UNL     1     -40.929  13.573   6.510  1.00 20.00    -0.057 C 
HETATM    3  C3  UNL     1     -39.779  12.897   6.351  1.00 20.00     0.097 C 
HETATM    4  C4  UNL     1     -42.003  13.506   5.446  1.00 20.00     0.037 C 
HETATM    5  C5  UNL     1     -42.309  14.883   4.856  1.00 20.00     0.014 C 
HETATM    6  C6  UNL     1     -42.760  15.900   5.899  1.00 20.00     0.075 C 
HETATM    7  C7  UNL     1     -41.281  14.418   7.718  1.00 20.00     0.072 C 
HETATM    8  C8  UNL     1     -40.281  14.404   8.877  1.00 20.00     0.026 C 
HETATM    9  N9  UNL     1     -39.324  11.465   4.259  1.00 20.00    -0.192 NA
HETATM   10  S10 UNL     1     -41.498  16.158   7.183  1.00 20.00    -0.160 SA
ENDROOT
TORSDOF 0
ENDMDL
MODEL 9
REMARK VINA RESULT:      -3.2      2.152      2.823
REMARK  0 active torsions:
REMARK  status: ('A' for Active; 'I' for Inactive)
ROOT
HETATM    1  C1  UNL     1     -37.522  16.811  -5.685  1.00 20.00     0.088 C 
HETATM    2  C2  UNL     1     -35.228  17.050  -4.995  1.00 20.00    -0.057 C 
HETATM    3  C3  UNL     1     -36.498  17.487  -4.980  1.00 20.00     0.097 C 
HETATM    4  C4  UNL     1     -34.859  15.810  -5.778  1.00 20.00     0.037 C 
HETATM    5  C5  UNL     1     -34.290  14.712  -4.877  1.00 20.00     0.014 C 
HETATM    6  C6  UNL     1     -33.050  15.151  -4.103  1.00 20.00     0.075 C 
HETATM    7  C7  UNL     1     -34.068  17.724  -4.287  1.00 20.00     0.072 C 
HETATM    8  C8  UNL     1     -34.370  19.055  -3.596  1.00 20.00     0.026 C 
HETATM    9  N9  UNL     1     -38.369  16.263  -6.260  1.00 20.00    -0.192 NA
HETATM   10  S10 UNL     1     -33.393  16.576  -3.027  1.00 20.00    -0.160 SA
ENDROOT
TORSDOF 0
ENDMDL
