MODEL 1
REMARK VINA RESULT:      -3.5      0.000      0.000
REMARK  1 active torsions:
REMARK  status: ('A' for Active; 'I' for Inactive)
REMARK    1  A    between atoms: C5_5  and  O9_9 
ROOT
HETATM    1  C1  UNL     1     -24.187  16.974  11.068  1.00 20.00     0.098 C 
HETATM    2  C2  UNL     1     -22.498  18.790  10.786  1.00 20.00     0.069 C 
HETATM    3  C3  UNL     1     -24.756  19.098   9.897  1.00 20.00     0.128 C 
HETATM    4  C4  UNL     1     -22.158  18.643   9.302  1.00 20.00     0.047 C 
HETATM    5  C5  UNL     1     -23.968  18.429  11.020  1.00 20.00     0.157 C 
HETATM    6  C6  UNL     1     -21.651  17.259   8.914  1.00 20.00     0.021 C 
HETATM    7  N8  UNL     1     -24.360  15.827  11.107  1.00 20.00    -0.194 NA
HETATM    8  S10 UNL     1     -23.703  19.028   8.418  1.00 20.00    -0.161 SA
ENDROOT
BRANCH   5   9
HETATM    9  O9  UNL     1     -24.364  18.988  12.272  1.00 20.00    -0.369 OA
HETATM   10  C7  UNL     1     -25.769  19.181  12.331  1.00 20.00     0.204 C 
ENDBRANCH   5   9
TORSDOF 1
ENDMDL
MODEL 2
REMARK VINA RESULT:      -3.3      2.077      2.441
REMARK  1 active torsions:
REMARK  status: ('A' for Active; 'I' for Inactive)
REMARK    1  A    between atoms: C5_5  and  O9_9 
ROOT
HETATM    1  C1  UNL     1     -24.544  18.595   9.243  1.00 20.00     0.098 C 
HETATM    2  C2  UNL     1     -22.831  16.787   9.401  1.00 20.00     0.069 C 
HETATM    3  C3  UNL     1     -22.850  18.576  11.069  1.00 20.00     0.128 C 
HETATM    4  C4  UNL     1     -21.581  17.528   8.924  1.00 20.00     0.047 C 
HETATM    5  C5  UNL     1     -23.752  17.753  10.153  1.00 20.00     0.157 C 
HETATM    6  C6  UNL     1     -21.712  18.138   7.534  1.00 20.00     0.021 C 
HETATM    7  N8  UNL     1     -25.170  19.259   8.525  1.00 20.00    -0.194 NA
HETATM    8  S10 UNL     1     -21.294  18.828  10.167  1.00 20.00    -0.161 SA
ENDROOT
BRANCH   5   9
HETATM    9  O9  UNL     1     -24.648  16.977  10.947  1.00 20.00    -0.369 OA
HETATM   10  C7  UNL     1     -25.119  17.713  12.066  1.00 20.00     0.204 C 
ENDBRANCH   5   9
TORSDOF 1
ENDMDL
MODEL 3
REMARK VINA RESULT:      -3.3     18.881     19.728
REMARK  1 active torsions:
REMARK  status: ('A' for Active; 'I' for Inactive)
REMARK    1  A    between atoms: C5_5  and  O9_9 
ROOT
HETATM    1  C1  UNL     1     -35.960  15.034  -5.470  1.00 20.00     0.098 C 
HETATM    2  C2  UNL     1     -34.360  16.911  -5.856  1.00 20.00     0.069 C 
HETATM    3  C3  UNL     1     -33.642  14.963  -4.561  1.00 20.00     0.128 C 
HETATM    4  C4  UNL     1     -34.349  17.572  -4.476  1.00 20.00     0.047 C 
HETATM    5  C5  UNL     1     -34.554  15.398  -5.705  1.00 20.00     0.157 C 
HETATM    6  C6  UNL     1     -35.722  18.018  -3.990  1.00 20.00     0.021 C 
HETATM    7  N8  UNL     1     -37.069  14.747  -5.285  1.00 20.00    -0.194 NA
HETATM    8  S10 UNL     1     -33.649  16.320  -3.353  1.00 20.00    -0.161 SA
ENDROOT
BRANCH   5   9
HETATM    9  O9  UNL     1     -34.121  14.778  -6.915  1.00 20.00    -0.369 OA
HETATM   10  C7  UNL     1     -33.833  15.742  -7.916  1.00 20.00     0.204 C 
ENDBRANCH   5   9
TORSDOF 1
ENDMDL
MODEL 4
REMARK VINA RESULT:      -3.3     18.028     18.962
REMARK  1 active torsions:
REMARK  status: ('A' for Active; 'I' for Inactive)
REMARK    1  A    between atoms: C5_5  and  O9_9 
ROOT
HETATM    1  C1  UNL     1     -41.481  13.567   5.046  1.00 20.00     0.098 C 
HETATM    2  C2  UNL     1     -40.531  13.888   7.331  1.00 20.00     0.069 C 
HETATM    3  C3  UNL     1     -42.570  12.566   7.049  1.00 20.00     0.128 C 
HETATM    4  C4  UNL     1     -41.517  14.901   7.916  1.00 20.00     0.047 C 
HETATM    5  C5  UNL     1     -41.262  12.951   6.364  1.00 20.00     0.157 C 
HETATM    6  C6  UNL     1     -41.638  16.187   7.109  1.00 20.00     0.021 C 
HETATM    7  N8  UNL     1     -41.653  14.052   4.005  1.00 20.00    -0.194 NA
HETATM    8  S10 UNL     1     -43.116  14.031   7.976  1.00 20.00    -0.161 SA
ENDROOT
BRANCH   5   9
HETATM    9  O9  UNL     1     -40.459  11.785   6.192  1.00 20.00    -0.369 OA
HETATM   10  C7  UNL     1     -39.139  12.120   5.790  1.00 20.00     0.204 C 
ENDBRANCH   5   9
TORSDOF 1
ENDMDL
MODEL 5
REMARK VINA RESULT:      -3.2     19.057     19.761
REMARK  1 active torsions:
REMARK  status: ('A' for Active; 'I' for Inactive)
REMARK    1  A    between atoms: C5_5  and  O9_9 
ROOT
HETATM    1  C1  UNL     1     -34.403  15.351  -6.930  1.00 20.00     0.098 C 
HETATM    2  C2  UNL     1     -34.974  14.582  -4.625  1.00 20.00     0.069 C 
HETATM    3  C3  UNL     1     -35.242  16.942  -5.208  1.00 20.00     0.128 C 
HETATM    4  C4  UNL     1     -33.783  15.127  -3.834  1.00 20.00     0.047 C 
HETATM    5  C5  UNL     1     -35.306  15.530  -5.782  1.00 20.00     0.157 C 
HETATM    6  C6  UNL     1     -32.429  14.638  -4.332  1.00 20.00     0.021 C 
HETATM    7  N8  UNL     1     -33.691  15.209  -7.836  1.00 20.00    -0.194 NA
HETATM    8  S10 UNL     1     -33.903  16.938  -3.980  1.00 20.00    -0.161 SA
ENDROOT
BRANCH   5   9
HETATM    9  O9  UNL     1     -36.639  15.254  -6.207  1.00 20.00    -0.369 OA
HETATM   10  C7  UNL     1     -37.579  16.069  -5.524  1.00 20.00     0.204 C 
ENDBRANCH   5   9
TORSDOF 1
ENDMDL
MODEL 6
REMARK VINA RESULT:      -3.2     19.033     19.748
REMARK  1 active torsions:
REMARK  status: ('A' for Active; 'I' for Inactive)
REMARK    1  A    between atoms: C5_5  and  O9_9 
ROOT
HETATM    1  C1  UNL     1     -35.245  14.158  -4.758  1.00 20.00     0.098 C 
HETATM    2  C2  UNL     1     -33.937  15.341  -6.523  1.00 20.00     0.069 C 
HETATM    3  C3  UNL     1     -35.037  16.640  -4.766  1.00 20.00     0.128 C 
HETATM    4  C4  UNL     1     -35.063  15.929  -7.375  1.00 20.00     0.047 C 
HETATM    5  C5  UNL     1     -34.365  15.300  -5.053  1.00 20.00     0.157 C 
HETATM    6  C6  UNL     1     -36.039  14.892  -7.917  1.00 20.00     0.021 C 
HETATM    7  N8  UNL     1     -35.939  13.257  -4.524  1.00 20.00    -0.194 NA
HETATM    8  S10 UNL     1     -35.923  17.106  -6.282  1.00 20.00    -0.161 SA
ENDROOT
BRANCH   5   9
HETATM    9  O9  UNL     1     -33.188  15.183  -4.256  1.00 20.00    -0.369 OA
HETATM   10  C7  UNL     1     -33.140  16.187  -3.253  1.00 20.00     0.204 C 
ENDBRANCH   5   9
TORSDOF 1
ENDMDL
MODEL 7
REMARK VINA RESULT:      -3.2     16.088     16.957
REMARK  1 active torsions:
REMARK  status: ('A' for Active; 'I' for Inactive)
REMARK    1  A    between atoms: C5_5  and  O9_9 
ROOT
HETATM    1  C1  UNL     1     -33.265  18.579  -3.986  1.00 20.00     0.098 C 
HETATM    2  C2  UNL     1     -33.456  16.943  -2.111  1.00 20.00     0.069 C 
HETATM    3  C3  UNL     1     -35.293  18.499  -2.542  1.00 20.00     0.128 C 
HETATM    4  C4  UNL     1     -33.240  17.857  -0.904  1.00 20.00     0.047 C 
HETATM    5  C5  UNL     1     -34.177  17.712  -3.222  1.00 20.00     0.157 C 
HETATM    6  C6  UNL     1     -31.921  18.619  -0.930  1.00 20.00     0.021 C 
HETATM    7  N8  UNL     1     -32.546  19.262  -4.589  1.00 20.00    -0.194 NA
HETATM    8  S10 UNL     1     -34.646  19.014  -0.924  1.00 20.00    -0.161 SA
ENDROOT
BRANCH   5   9
HETATM    9  O9  UNL     1     -34.750  16.758  -4.116  1.00 20.00    -0.369 OA
HETATM   10  C7  UNL     1     -33.896  15.637  -4.292  1.00 20.00     0.204 C 
ENDBRANCH   5   9
TORSDOF 1
ENDMDL
MODEL 8
REMARK VINA RESULT:      -3.1     19.304     20.094
REMARK  1 active torsions:
REMARK  status: ('A' for Active; 'I' for Inactive)
REMARK    1  A    between atoms: C5_5  and  O9_9 
ROOT
HETATM    1  C1  UNL     1     -34.089  15.252  -6.853  1.00 20.00     0.098 C 
HETATM    2  C2  UNL     1     -34.750  16.863  -5.065  1.00 20.00     0.069 C 
HETATM    3  C3  UNL     1     -36.107  14.863  -5.446  1.00 20.00     0.128 C 
HETATM    4  C4  UNL     1     -35.950  17.548  -5.720  1.00 20.00     0.047 C 
HETATM    5  C5  UNL     1     -34.680  15.399  -5.513  1.00 20.00     0.157 C 
HETATM    6  C6  UNL     1     -35.637  18.203  -7.060  1.00 20.00     0.021 C 
HETATM    7  N8  UNL     1     -33.623  15.135  -7.909  1.00 20.00    -0.194 NA
HETATM    8  S10 UNL     1     -37.196  16.236  -5.927  1.00 20.00    -0.161 SA
ENDROOT
BRANCH   5   9
HETATM    9  O9  UNL     1     -33.866  14.693  -4.579  1.00 20.00    -0.369 OA
HETATM   10  C7  UNL     1     -33.133  15.585  -3.752  1.00 20.00     0.204 C 
ENDBRANCH   5   9
TORSDOF 1
ENDMDL
MODEL 9
REMARK VINA RESULT:      -3.1     19.542     20.247
REMARK  1 active torsions:
REMARK  status: ('A' for Active; 'I' for Inactive)
REMARK    1  A    between atoms: C5_5  and  O9_9 
ROOT
HETATM    1  C1  UNL     1     -36.094  13.984  -4.890  1.00 20.00     0.098 C 
HETATM    2  C2  UNL     1     -35.728  16.450  -4.985  1.00 20.00     0.069 C 
HETATM    3  C3  UNL     1     -35.799  15.163  -7.064  1.00 20.00     0.128 C 
HETATM    4  C4  UNL     1     -34.236  16.510  -5.316  1.00 20.00     0.047 C 
HETATM    5  C5  UNL     1     -36.357  15.219  -5.644  1.00 20.00     0.157 C 
HETATM    6  C6  UNL     1     -33.346  15.790  -4.311  1.00 20.00     0.021 C 
HETATM    7  N8  UNL     1     -35.888  13.009  -4.294  1.00 20.00    -0.194 NA
HETATM    8  S10 UNL     1     -34.083  15.750  -6.965  1.00 20.00    -0.161 SA
ENDROOT
BRANCH   5   9
HETATM    9  O9  UNL     1     -37.768  15.424  -5.701  1.00 20.00    -0.369 OA
HETATM   10  C7  UNL     1     -38.109  16.765  -5.382  1.00 20.00     0.204 C 
ENDBRANCH   5   9
TORSDOF 1
ENDMDL
