MODEL 1
REMARK VINA RESULT:      -3.4      0.000      0.000
REMARK  1 active torsions:
REMARK  status: ('A' for Active; 'I' for Inactive)
REMARK    1  A    between atoms: C5_5  and  O9_9 
ROOT
HETATM    1  C1  UNL     1     -34.195  14.819  -4.352  1.00 20.00     0.022 C 
HETATM    2  C2  UNL     1     -32.996  15.602  -3.833  1.00 20.00     0.075 C 
HETATM    3  C3  UNL     1     -34.247  17.817  -4.902  1.00 20.00     0.112 C 
HETATM    4  C4  UNL     1     -34.858  15.394  -5.636  1.00 20.00    -0.015 C 
HETATM    5  C5  UNL     1     -35.358  16.866  -5.392  1.00 20.00     0.069 C 
HETATM    6  C6  UNL     1     -33.859  15.308  -6.812  1.00 20.00     0.018 C 
HETATM    7  C7  UNL     1     -36.042  14.452  -5.977  1.00 20.00     0.018 C 
HETATM    8  C8  UNL     1     -36.006  17.497  -6.639  1.00 20.00     0.047 C 
HETATM    9  S10 UNL     1     -33.447  17.287  -3.357  1.00 20.00    -0.166 SA
ENDROOT
BRANCH   5  10
HETATM   10  O9  UNL     1     -36.384  16.834  -4.384  1.00 20.00    -0.389 OA
HETATM   11  H26 UNL     1     -36.988  16.126  -4.646  1.00 20.00     0.210 HD
ENDBRANCH   5  10
TORSDOF 1
ENDMDL
MODEL 2
REMARK VINA RESULT:      -3.0     13.246     14.027
REMARK  1 active torsions:
REMARK  status: ('A' for Active; 'I' for Inactive)
REMARK    1  A    between atoms: C5_5  and  O9_9 
ROOT
HETATM    1  C1  UNL     1     -41.575  13.896   5.039  1.00 20.00     0.022 C 
HETATM    2  C2  UNL     1     -42.783  14.815   4.917  1.00 20.00     0.075 C 
HETATM    3  C3  UNL     1     -42.199  15.577   7.504  1.00 20.00     0.112 C 
HETATM    4  C4  UNL     1     -41.285  13.367   6.473  1.00 20.00    -0.015 C 
HETATM    5  C5  UNL     1     -41.039  14.561   7.466  1.00 20.00     0.069 C 
HETATM    6  C6  UNL     1     -42.451  12.461   6.931  1.00 20.00     0.018 C 
HETATM    7  C7  UNL     1     -40.028  12.466   6.361  1.00 20.00     0.018 C 
HETATM    8  C8  UNL     1     -40.767  14.098   8.911  1.00 20.00     0.047 C 
HETATM    9  S10 UNL     1     -42.581  16.325   5.892  1.00 20.00    -0.166 SA
ENDROOT
BRANCH   5  10
HETATM   10  O9  UNL     1     -39.855  15.263   7.046  1.00 20.00    -0.389 OA
HETATM   11  H26 UNL     1     -39.816  15.160   6.086  1.00 20.00     0.210 HD
ENDBRANCH   5  10
TORSDOF 1
ENDMDL
MODEL 3
REMARK VINA RESULT:      -3.0      1.608      2.850
REMARK  1 active torsions:
REMARK  status: ('A' for Active; 'I' for Inactive)
REMARK    1  A    between atoms: C5_5  and  O9_9 
ROOT
HETATM    1  C1  UNL     1     -34.062  17.940  -5.195  1.00 20.00     0.022 C 
HETATM    2  C2  UNL     1     -33.885  17.546  -3.734  1.00 20.00     0.075 C 
HETATM    3  C3  UNL     1     -34.497  14.988  -4.570  1.00 20.00     0.112 C 
HETATM    4  C4  UNL     1     -35.089  17.087  -5.993  1.00 20.00    -0.015 C 
HETATM    5  C5  UNL     1     -34.676  15.569  -5.987  1.00 20.00     0.069 C 
HETATM    6  C6  UNL     1     -36.503  17.306  -5.406  1.00 20.00     0.018 C 
HETATM    7  C7  UNL     1     -35.104  17.656  -7.435  1.00 20.00     0.018 C 
HETATM    8  C8  UNL     1     -35.671  14.670  -6.746  1.00 20.00     0.047 C 
HETATM    9  S10 UNL     1     -33.257  15.858  -3.564  1.00 20.00    -0.166 SA
ENDROOT
BRANCH   5  10
HETATM   10  O9  UNL     1     -33.419  15.440  -6.676  1.00 20.00    -0.389 OA
HETATM   11  H26 UNL     1     -33.145  16.342  -6.892  1.00 20.00     0.210 HD
ENDBRANCH   5  10
TORSDOF 1
ENDMDL
MODEL 4
REMARK VINA RESULT:      -3.0      2.180      2.858
REMARK  1 active torsions:
REMARK  status: ('A' for Active; 'I' for Inactive)
REMARK    1  A    between atoms: C5_5  and  O9_9 
ROOT
HETATM    1  C1  UNL     1     -33.789  15.070  -5.904  1.00 20.00     0.022 C 
HETATM    2  C2  UNL     1     -34.248  14.575  -4.539  1.00 20.00     0.075 C 
HETATM    3  C3  UNL     1     -36.800  15.139  -5.427  1.00 20.00     0.112 C 
HETATM    4  C4  UNL     1     -34.685  16.165  -6.550  1.00 20.00    -0.015 C 
HETATM    5  C5  UNL     1     -36.157  15.641  -6.736  1.00 20.00     0.069 C 
HETATM    6  C6  UNL     1     -34.630  17.446  -5.687  1.00 20.00     0.018 C 
HETATM    7  C7  UNL     1     -34.039  16.511  -7.916  1.00 20.00     0.018 C 
HETATM    8  C8  UNL     1     -37.099  16.693  -7.353  1.00 20.00     0.047 C 
HETATM    9  S10 UNL     1     -35.879  13.796  -4.618  1.00 20.00    -0.166 SA
ENDROOT
BRANCH   5  10
HETATM   10  O9  UNL     1     -36.131  14.540  -7.663  1.00 20.00    -0.389 OA
HETATM   11  H26 UNL     1     -37.053  14.272  -7.777  1.00 20.00     0.210 HD
ENDBRANCH   5  10
TORSDOF 1
ENDMDL
MODEL 5
REMARK VINA RESULT:      -3.0      1.672      2.841
REMARK  1 active torsions:
REMARK  status: ('A' for Active; 'I' for Inactive)
REMARK    1  A    between atoms: C5_5  and  O9_9 
ROOT
HETATM    1  C1  UNL     1     -34.727  17.582  -6.386  1.00 20.00     0.022 C 
HETATM    2  C2  UNL     1     -34.544  18.601  -5.269  1.00 20.00     0.075 C 
HETATM    3  C3  UNL     1     -34.039  16.423  -3.651  1.00 20.00     0.112 C 
HETATM    4  C4  UNL     1     -35.267  16.194  -5.936  1.00 20.00    -0.015 C 
HETATM    5  C5  UNL     1     -34.300  15.535  -4.884  1.00 20.00     0.069 C 
HETATM    6  C6  UNL     1     -36.702  16.357  -5.384  1.00 20.00     0.018 C 
HETATM    7  C7  UNL     1     -35.370  15.328  -7.218  1.00 20.00     0.018 C 
HETATM    8  C8  UNL     1     -34.796  14.164  -4.384  1.00 20.00     0.047 C 
HETATM    9  S10 UNL     1     -33.330  18.050  -4.047  1.00 20.00    -0.166 SA
ENDROOT
BRANCH   5  10
HETATM   10  O9  UNL     1     -33.035  15.290  -5.524  1.00 20.00    -0.389 OA
HETATM   11  H26 UNL     1     -32.674  14.501  -5.097  1.00 20.00     0.210 HD
ENDBRANCH   5  10
TORSDOF 1
ENDMDL
MODEL 6
REMARK VINA RESULT:      -2.9     13.940     14.626
REMARK  1 active torsions:
REMARK  status: ('A' for Active; 'I' for Inactive)
REMARK    1  A    between atoms: C5_5  and  O9_9 
ROOT
HETATM    1  C1  UNL     1     -40.513  15.183   7.067  1.00 20.00     0.022 C 
HETATM    2  C2  UNL     1     -41.418  16.403   7.173  1.00 20.00     0.075 C 
HETATM    3  C3  UNL     1     -43.417  14.605   7.795  1.00 20.00     0.112 C 
HETATM    4  C4  UNL     1     -41.216  13.872   6.611  1.00 20.00    -0.015 C 
HETATM    5  C5  UNL     1     -42.373  13.486   7.605  1.00 20.00     0.069 C 
HETATM    6  C6  UNL     1     -41.728  14.044   5.163  1.00 20.00     0.018 C 
HETATM    7  C7  UNL     1     -40.120  12.776   6.577  1.00 20.00     0.018 C 
HETATM    8  C8  UNL     1     -43.121  12.205   7.191  1.00 20.00     0.047 C 
HETATM    9  S10 UNL     1     -42.722  16.171   8.405  1.00 20.00    -0.166 SA
ENDROOT
BRANCH   5  10
HETATM   10  O9  UNL     1     -41.790  13.207   8.890  1.00 20.00    -0.389 OA
HETATM   11  H26 UNL     1     -41.258  12.409   8.770  1.00 20.00     0.210 HD
ENDBRANCH   5  10
TORSDOF 1
ENDMDL
MODEL 7
REMARK VINA RESULT:      -2.8      1.838      3.142
REMARK  1 active torsions:
REMARK  status: ('A' for Active; 'I' for Inactive)
REMARK    1  A    between atoms: C5_5  and  O9_9 
ROOT
HETATM    1  C1  UNL     1     -35.997  16.586  -7.070  1.00 20.00     0.022 C 
HETATM    2  C2  UNL     1     -37.214  17.300  -6.499  1.00 20.00     0.075 C 
HETATM    3  C3  UNL     1     -35.666  17.694  -4.249  1.00 20.00     0.112 C 
HETATM    4  C4  UNL     1     -35.092  15.875  -6.022  1.00 20.00    -0.015 C 
HETATM    5  C5  UNL     1     -34.550  16.906  -4.965  1.00 20.00     0.069 C 
HETATM    6  C6  UNL     1     -35.882  14.725  -5.359  1.00 20.00     0.018 C 
HETATM    7  C7  UNL     1     -33.928  15.227  -6.817  1.00 20.00     0.018 C 
HETATM    8  C8  UNL     1     -33.662  16.255  -3.887  1.00 20.00     0.047 C 
HETATM    9  S10 UNL     1     -36.745  18.634  -5.370  1.00 20.00    -0.166 SA
ENDROOT
BRANCH   5  10
HETATM   10  O9  UNL     1     -33.711  17.856  -5.648  1.00 20.00    -0.389 OA
HETATM   11  H26 UNL     1     -32.819  17.713  -5.305  1.00 20.00     0.210 HD
ENDBRANCH   5  10
TORSDOF 1
ENDMDL
MODEL 8
REMARK VINA RESULT:      -2.8     25.077     26.222
REMARK  1 active torsions:
REMARK  status: ('A' for Active; 'I' for Inactive)
REMARK    1  A    between atoms: C5_5  and  O9_9 
ROOT
HETATM    1  C1  UNL     1     -27.174  -0.842  11.116  1.00 20.00     0.022 C 
HETATM    2  C2  UNL     1     -26.290  -0.428  12.284  1.00 20.00     0.075 C 
HETATM    3  C3  UNL     1     -25.209  -2.960  12.090  1.00 20.00     0.112 C 
HETATM    4  C4  UNL     1     -27.519  -2.357  11.049  1.00 20.00    -0.015 C 
HETATM    5  C5  UNL     1     -26.208  -3.222  10.945  1.00 20.00     0.069 C 
HETATM    6  C6  UNL     1     -28.374  -2.743  12.277  1.00 20.00     0.018 C 
HETATM    7  C7  UNL     1     -28.413  -2.548   9.796  1.00 20.00     0.018 C 
HETATM    8  C8  UNL     1     -26.487  -4.737  10.897  1.00 20.00     0.047 C 
HETATM    9  S10 UNL     1     -24.669  -1.228  12.219  1.00 20.00    -0.166 SA
ENDROOT
BRANCH   5  10
HETATM   10  O9  UNL     1     -25.551  -2.900   9.707  1.00 20.00    -0.389 OA
HETATM   11  H26 UNL     1     -25.473  -3.735   9.226  1.00 20.00     0.210 HD
ENDBRANCH   5  10
TORSDOF 1
ENDMDL
MODEL 9
REMARK VINA RESULT:      -2.7     14.222     14.893
REMARK  1 active torsions:
REMARK  status: ('A' for Active; 'I' for Inactive)
REMARK    1  A    between atoms: C5_5  and  O9_9 
ROOT
HETATM    1  C1  UNL     1     -43.319  12.872   6.668  1.00 20.00     0.022 C 
HETATM    2  C2  UNL     1     -43.417  12.106   7.981  1.00 20.00     0.075 C 
HETATM    3  C3  UNL     1     -41.772  14.071   9.006  1.00 20.00     0.112 C 
HETATM    4  C4  UNL     1     -41.986  13.641   6.446  1.00 20.00    -0.015 C 
HETATM    5  C5  UNL     1     -41.751  14.691   7.594  1.00 20.00     0.069 C 
HETATM    6  C6  UNL     1     -40.822  12.629   6.339  1.00 20.00     0.018 C 
HETATM    7  C7  UNL     1     -42.107  14.340   5.067  1.00 20.00     0.018 C 
HETATM    8  C8  UNL     1     -40.431  15.470   7.439  1.00 20.00     0.047 C 
HETATM    9  S10 UNL     1     -43.320  13.208   9.412  1.00 20.00    -0.166 SA
ENDROOT
BRANCH   5  10
HETATM   10  O9  UNL     1     -42.801  15.673   7.531  1.00 20.00    -0.389 OA
HETATM   11  H26 UNL     1     -42.598  16.319   8.220  1.00 20.00     0.210 HD
ENDBRANCH   5  10
TORSDOF 1
ENDMDL
