MODEL 1
REMARK VINA RESULT:      -3.2      0.000      0.000
REMARK  1 active torsions:
REMARK  status: ('A' for Active; 'I' for Inactive)
REMARK    1  A    between atoms: C6_6  and  O10_10 
ROOT
HETATM    1  C1  UNL     1     -33.302  15.509  -7.918  1.00 20.00     0.015 C 
HETATM    2  C2  UNL     1     -34.182  15.356  -7.116  1.00 20.00    -0.077 C 
HETATM    3  C3  UNL     1     -35.628  17.675  -5.641  1.00 20.00     0.023 C 
HETATM    4  C4  UNL     1     -35.060  17.607  -4.227  1.00 20.00     0.075 C 
HETATM    5  C5  UNL     1     -34.647  14.921  -4.739  1.00 20.00     0.126 C 
HETATM    6  C6  UNL     1     -35.270  15.166  -6.128  1.00 20.00     0.135 C 
HETATM    7  C7  UNL     1     -36.287  16.365  -6.151  1.00 20.00    -0.004 C 
HETATM    8  C8  UNL     1     -37.542  16.057  -5.293  1.00 20.00     0.019 C 
HETATM    9  C9  UNL     1     -36.811  16.619  -7.589  1.00 20.00     0.019 C 
HETATM   10  S11 UNL     1     -33.761  16.356  -4.058  1.00 20.00    -0.165 SA
ENDROOT
BRANCH   6  11
HETATM   11  O10 UNL     1     -35.949  13.961  -6.506  1.00 20.00    -0.376 OA
HETATM   12  H25 UNL     1     -36.086  13.462  -5.689  1.00 20.00     0.211 HD
ENDBRANCH   6  11
TORSDOF 1
ENDMDL
MODEL 2
REMARK VINA RESULT:      -3.2      2.066      3.572
REMARK  1 active torsions:
REMARK  status: ('A' for Active; 'I' for Inactive)
REMARK    1  A    between atoms: C6_6  and  O10_10 
ROOT
HETATM    1  C1  UNL     1     -33.295  18.612  -4.391  1.00 20.00     0.015 C 
HETATM    2  C2  UNL     1     -34.178  17.880  -4.744  1.00 20.00    -0.077 C 
HETATM    3  C3  UNL     1     -33.753  15.337  -6.476  1.00 20.00     0.023 C 
HETATM    4  C4  UNL     1     -34.276  15.749  -7.849  1.00 20.00     0.075 C 
HETATM    5  C5  UNL     1     -35.889  17.526  -6.477  1.00 20.00     0.126 C 
HETATM    6  C6  UNL     1     -35.268  16.975  -5.179  1.00 20.00     0.135 C 
HETATM    7  C7  UNL     1     -34.767  15.490  -5.310  1.00 20.00    -0.004 C 
HETATM    8  C8  UNL     1     -35.951  14.513  -5.533  1.00 20.00     0.019 C 
HETATM    9  C9  UNL     1     -34.072  15.021  -4.006  1.00 20.00     0.019 C 
HETATM   10  S11 UNL     1     -34.771  17.490  -7.911  1.00 20.00    -0.165 SA
ENDROOT
BRANCH   6  11
HETATM   11  O10 UNL     1     -36.276  17.046  -4.162  1.00 20.00    -0.376 OA
HETATM   12  H25 UNL     1     -36.961  16.413  -4.418  1.00 20.00     0.211 HD
ENDBRANCH   6  11
TORSDOF 1
ENDMDL
MODEL 3
REMARK VINA RESULT:      -3.1     13.754     15.160
REMARK  1 active torsions:
REMARK  status: ('A' for Active; 'I' for Inactive)
REMARK    1  A    between atoms: C6_6  and  O10_10 
ROOT
HETATM    1  C1  UNL     1     -42.837  16.828   7.147  1.00 20.00     0.015 C 
HETATM    2  C2  UNL     1     -42.182  15.826   7.235  1.00 20.00    -0.077 C 
HETATM    3  C3  UNL     1     -43.245  12.980   6.593  1.00 20.00     0.023 C 
HETATM    4  C4  UNL     1     -43.417  12.345   7.969  1.00 20.00     0.075 C 
HETATM    5  C5  UNL     1     -41.429  14.079   8.795  1.00 20.00     0.126 C 
HETATM    6  C6  UNL     1     -41.372  14.590   7.342  1.00 20.00     0.135 C 
HETATM    7  C7  UNL     1     -41.819  13.514   6.286  1.00 20.00    -0.004 C 
HETATM    8  C8  UNL     1     -40.827  12.322   6.240  1.00 20.00     0.019 C 
HETATM    9  C9  UNL     1     -41.828  14.111   4.855  1.00 20.00     0.019 C 
HETATM   10  S11 UNL     1     -43.073  13.503   9.318  1.00 20.00    -0.165 SA
ENDROOT
BRANCH   6  11
HETATM   11  O10 UNL     1     -40.017  14.975   7.081  1.00 20.00    -0.376 OA
HETATM   12  H25 UNL     1     -39.548  14.895   7.923  1.00 20.00     0.211 HD
ENDBRANCH   6  11
TORSDOF 1
ENDMDL
MODEL 4
REMARK VINA RESULT:      -3.1      1.545      2.641
REMARK  1 active torsions:
REMARK  status: ('A' for Active; 'I' for Inactive)
REMARK    1  A    between atoms: C6_6  and  O10_10 
ROOT
HETATM    1  C1  UNL     1     -33.288  15.932  -3.752  1.00 20.00     0.015 C 
HETATM    2  C2  UNL     1     -34.200  15.732  -4.506  1.00 20.00    -0.077 C 
HETATM    3  C3  UNL     1     -34.782  17.439  -7.035  1.00 20.00     0.023 C 
HETATM    4  C4  UNL     1     -36.001  18.265  -6.635  1.00 20.00     0.075 C 
HETATM    5  C5  UNL     1     -36.585  16.191  -4.902  1.00 20.00     0.126 C 
HETATM    6  C6  UNL     1     -35.325  15.484  -5.439  1.00 20.00     0.135 C 
HETATM    7  C7  UNL     1     -34.957  15.901  -6.910  1.00 20.00    -0.004 C 
HETATM    8  C8  UNL     1     -36.037  15.427  -7.917  1.00 20.00     0.019 C 
HETATM    9  C9  UNL     1     -33.634  15.230  -7.362  1.00 20.00     0.019 C 
HETATM   10  S11 UNL     1     -36.480  18.006  -4.907  1.00 20.00    -0.165 SA
ENDROOT
BRANCH   6  11
HETATM   11  O10 UNL     1     -35.577  14.074  -5.395  1.00 20.00    -0.376 OA
HETATM   12  H25 UNL     1     -35.712  13.855  -4.463  1.00 20.00     0.211 HD
ENDBRANCH   6  11
TORSDOF 1
ENDMDL
MODEL 5
REMARK VINA RESULT:      -3.0      2.033      3.145
REMARK  1 active torsions:
REMARK  status: ('A' for Active; 'I' for Inactive)
REMARK    1  A    between atoms: C6_6  and  O10_10 
ROOT
HETATM    1  C1  UNL     1     -33.331  16.372  -3.596  1.00 20.00     0.015 C 
HETATM    2  C2  UNL     1     -34.269  16.728  -4.255  1.00 20.00    -0.077 C 
HETATM    3  C3  UNL     1     -34.428  16.486  -7.347  1.00 20.00     0.023 C 
HETATM    4  C4  UNL     1     -34.234  17.922  -7.827  1.00 20.00     0.075 C 
HETATM    5  C5  UNL     1     -35.282  18.668  -5.380  1.00 20.00     0.126 C 
HETATM    6  C6  UNL     1     -35.429  17.166  -5.067  1.00 20.00     0.135 C 
HETATM    7  C7  UNL     1     -35.602  16.277  -6.352  1.00 20.00    -0.004 C 
HETATM    8  C8  UNL     1     -36.941  16.581  -7.072  1.00 20.00     0.019 C 
HETATM    9  C9  UNL     1     -35.654  14.772  -5.982  1.00 20.00     0.019 C 
HETATM   10  S11 UNL     1     -33.882  19.068  -6.469  1.00 20.00    -0.165 SA
ENDROOT
BRANCH   6  11
HETATM   11  O10 UNL     1     -36.582  17.018  -4.230  1.00 20.00    -0.376 OA
HETATM   12  H25 UNL     1     -37.227  16.516  -4.747  1.00 20.00     0.211 HD
ENDBRANCH   6  11
TORSDOF 1
ENDMDL
MODEL 6
REMARK VINA RESULT:      -3.0     13.761     14.991
REMARK  1 active torsions:
REMARK  status: ('A' for Active; 'I' for Inactive)
REMARK    1  A    between atoms: C6_6  and  O10_10 
ROOT
HETATM    1  C1  UNL     1     -39.897  12.256   5.961  1.00 20.00     0.015 C 
HETATM    2  C2  UNL     1     -40.826  13.003   6.103  1.00 20.00    -0.077 C 
HETATM    3  C3  UNL     1     -41.820  14.055   8.851  1.00 20.00     0.023 C 
HETATM    4  C4  UNL     1     -43.107  13.271   9.089  1.00 20.00     0.075 C 
HETATM    5  C5  UNL     1     -43.274  13.102   6.334  1.00 20.00     0.126 C 
HETATM    6  C6  UNL     1     -41.972  13.926   6.278  1.00 20.00     0.135 C 
HETATM    7  C7  UNL     1     -41.774  14.862   7.526  1.00 20.00    -0.004 C 
HETATM    8  C8  UNL     1     -42.851  15.977   7.571  1.00 20.00     0.019 C 
HETATM    9  C9  UNL     1     -40.409  15.595   7.458  1.00 20.00     0.019 C 
HETATM   10  S11 UNL     1     -43.417  12.036   7.800  1.00 20.00    -0.165 SA
ENDROOT
BRANCH   6  11
HETATM   11  O10 UNL     1     -42.026  14.725   5.090  1.00 20.00    -0.376 OA
HETATM   12  H25 UNL     1     -42.718  14.336   4.536  1.00 20.00     0.211 HD
ENDBRANCH   6  11
TORSDOF 1
ENDMDL
MODEL 7
REMARK VINA RESULT:      -3.0     14.055     15.297
REMARK  1 active torsions:
REMARK  status: ('A' for Active; 'I' for Inactive)
REMARK    1  A    between atoms: C6_6  and  O10_10 
ROOT
HETATM    1  C1  UNL     1     -40.762  17.342   7.505  1.00 20.00     0.015 C 
HETATM    2  C2  UNL     1     -40.779  16.142   7.535  1.00 20.00    -0.077 C 
HETATM    3  C3  UNL     1     -43.355  14.437   7.853  1.00 20.00     0.023 C 
HETATM    4  C4  UNL     1     -43.276  13.935   9.292  1.00 20.00     0.075 C 
HETATM    5  C5  UNL     1     -40.537  14.192   9.017  1.00 20.00     0.126 C 
HETATM    6  C6  UNL     1     -40.799  14.660   7.572  1.00 20.00     0.135 C 
HETATM    7  C7  UNL     1     -42.131  14.086   6.964  1.00 20.00    -0.004 C 
HETATM    8  C8  UNL     1     -42.052  12.548   6.787  1.00 20.00     0.019 C 
HETATM    9  C9  UNL     1     -42.386  14.662   5.547  1.00 20.00     0.019 C 
HETATM   10  S11 UNL     1     -41.859  14.620  10.190  1.00 20.00    -0.165 SA
ENDROOT
BRANCH   6  11
HETATM   11  O10 UNL     1     -39.689  14.225   6.777  1.00 20.00    -0.376 OA
HETATM   12  H25 UNL     1     -39.589  14.881   6.073  1.00 20.00     0.211 HD
ENDBRANCH   6  11
TORSDOF 1
ENDMDL
MODEL 8
REMARK VINA RESULT:      -3.0      2.288      3.522
REMARK  1 active torsions:
REMARK  status: ('A' for Active; 'I' for Inactive)
REMARK    1  A    between atoms: C6_6  and  O10_10 
ROOT
HETATM    1  C1  UNL     1     -33.512  16.299  -3.058  1.00 20.00     0.015 C 
HETATM    2  C2  UNL     1     -33.921  16.831  -4.053  1.00 20.00    -0.077 C 
HETATM    3  C3  UNL     1     -36.927  17.318  -4.666  1.00 20.00     0.023 C 
HETATM    4  C4  UNL     1     -37.245  16.280  -5.737  1.00 20.00     0.075 C 
HETATM    5  C5  UNL     1     -34.564  16.432  -6.395  1.00 20.00     0.126 C 
HETATM    6  C6  UNL     1     -34.426  17.489  -5.282  1.00 20.00     0.135 C 
HETATM    7  C7  UNL     1     -35.757  18.281  -5.007  1.00 20.00    -0.004 C 
HETATM    8  C8  UNL     1     -36.154  19.155  -6.224  1.00 20.00     0.019 C 
HETATM    9  C9  UNL     1     -35.582  19.263  -3.820  1.00 20.00     0.019 C 
HETATM   10  S11 UNL     1     -35.846  15.181  -6.079  1.00 20.00    -0.165 SA
ENDROOT
BRANCH   6  11
HETATM   11  O10 UNL     1     -33.405  18.407  -5.692  1.00 20.00    -0.376 OA
HETATM   12  H25 UNL     1     -33.154  18.902  -4.900  1.00 20.00     0.211 HD
ENDBRANCH   6  11
TORSDOF 1
ENDMDL
MODEL 9
REMARK VINA RESULT:      -2.9     25.881     26.631
REMARK  1 active torsions:
REMARK  status: ('A' for Active; 'I' for Inactive)
REMARK    1  A    between atoms: C6_6  and  O10_10 
ROOT
HETATM    1  C1  UNL     1     -26.543  -0.107  12.187  1.00 20.00     0.015 C 
HETATM    2  C2  UNL     1     -26.830  -0.996  11.433  1.00 20.00    -0.077 C 
HETATM    3  C3  UNL     1     -27.717  -3.834  12.332  1.00 20.00     0.023 C 
HETATM    4  C4  UNL     1     -26.497  -4.700  12.033  1.00 20.00     0.075 C 
HETATM    5  C5  UNL     1     -25.901  -2.832  10.083  1.00 20.00     0.126 C 
HETATM    6  C6  UNL     1     -27.187  -2.093  10.502  1.00 20.00     0.135 C 
HETATM    7  C7  UNL     1     -28.278  -3.042  11.120  1.00 20.00    -0.004 C 
HETATM    8  C8  UNL     1     -28.818  -4.042  10.064  1.00 20.00     0.019 C 
HETATM    9  C9  UNL     1     -29.508  -2.232  11.603  1.00 20.00     0.019 C 
HETATM   10  S11 UNL     1     -25.086  -3.732  11.437  1.00 20.00    -0.165 SA
ENDROOT
BRANCH   6  11
HETATM   11  O10 UNL     1     -27.716  -1.464   9.328  1.00 20.00    -0.376 OA
HETATM   12  H25 UNL     1     -28.674  -1.596   9.361  1.00 20.00     0.211 HD
ENDBRANCH   6  11
TORSDOF 1
ENDMDL
