MODEL 1
REMARK VINA RESULT:      -4.2      0.000      0.000
REMARK  3 active torsions:
REMARK  status: ('A' for Active; 'I' for Inactive)
REMARK    1  A    between atoms: C6_6  and  C9_9 
REMARK    2  A    between atoms: C6_6  and  O10_10 
REMARK    3  A    between atoms: C8_8  and  C9_9 
ROOT
HETATM    1  C1  UNL     1     -38.913  11.704   3.948  1.00 20.00     0.012 C 
HETATM    2  C2  UNL     1     -39.641  11.885   4.885  1.00 20.00    -0.117 C 
HETATM    3  C8  UNL     1     -40.531  12.102   6.033  1.00 20.00     0.096 C 
ENDROOT
BRANCH   3   4
HETATM    4  C9  UNL     1     -40.942  13.561   6.109  1.00 20.00     0.050 C 
BRANCH   4   5
HETATM    5  C6  UNL     1     -40.778  14.096   7.530  1.00 20.00     0.068 C 
HETATM    6  C3  UNL     1     -42.069  13.949   8.342  1.00 20.00     0.053 C 
HETATM    7  C5  UNL     1     -41.944  14.776   9.623  1.00 20.00     0.046 C 
HETATM    8  C7  UNL     1     -41.319  14.020  10.789  1.00 20.00     0.021 C 
HETATM    9  S11 UNL     1     -40.913  16.206   9.169  1.00 20.00    -0.162 SA
HETATM   10  C4  UNL     1     -40.432  15.582   7.528  1.00 20.00     0.112 C 
BRANCH   5  11
HETATM   11  O10 UNL     1     -39.713  13.372   8.144  1.00 20.00    -0.389 OA
HETATM   12  H25 UNL     1     -38.965  13.986   8.208  1.00 20.00     0.210 HD
ENDBRANCH   5  11
ENDBRANCH   4   5
ENDBRANCH   3   4
TORSDOF 3
ENDMDL
MODEL 2
REMARK VINA RESULT:      -4.2     12.553     14.728
REMARK  3 active torsions:
REMARK  status: ('A' for Active; 'I' for Inactive)
REMARK    1  A    between atoms: C6_6  and  C9_9 
REMARK    2  A    between atoms: C6_6  and  O10_10 
REMARK    3  A    between atoms: C8_8  and  C9_9 
ROOT
HETATM    1  C1  UNL     1     -33.732  17.824  -0.639  1.00 20.00     0.012 C 
HETATM    2  C2  UNL     1     -33.403  17.419  -1.720  1.00 20.00    -0.117 C 
HETATM    3  C8  UNL     1     -32.996  16.928  -3.042  1.00 20.00     0.096 C 
ENDROOT
BRANCH   3   4
HETATM    4  C9  UNL     1     -33.669  15.600  -3.337  1.00 20.00     0.050 C 
BRANCH   4   5
HETATM    5  C6  UNL     1     -34.036  15.495  -4.815  1.00 20.00     0.068 C 
HETATM    6  C3  UNL     1     -34.470  16.848  -5.388  1.00 20.00     0.053 C 
HETATM    7  C5  UNL     1     -35.118  16.621  -6.755  1.00 20.00     0.046 C 
HETATM    8  C7  UNL     1     -34.133  16.631  -7.917  1.00 20.00     0.021 C 
HETATM    9  S11 UNL     1     -35.937  14.999  -6.631  1.00 20.00    -0.162 SA
HETATM   10  C4  UNL     1     -35.204  14.536  -5.032  1.00 20.00     0.112 C 
BRANCH   5  11
HETATM   11  O10 UNL     1     -32.893  14.998  -5.510  1.00 20.00    -0.389 OA
HETATM   12  H25 UNL     1     -32.184  14.924  -4.853  1.00 20.00     0.210 HD
ENDBRANCH   5  11
ENDBRANCH   4   5
ENDBRANCH   3   4
TORSDOF 3
ENDMDL
MODEL 3
REMARK VINA RESULT:      -4.0     12.088     14.187
REMARK  3 active torsions:
REMARK  status: ('A' for Active; 'I' for Inactive)
REMARK    1  A    between atoms: C6_6  and  C9_9 
REMARK    2  A    between atoms: C6_6  and  O10_10 
REMARK    3  A    between atoms: C8_8  and  C9_9 
ROOT
HETATM    1  C1  UNL     1     -33.825  18.069   0.104  1.00 20.00     0.012 C 
HETATM    2  C2  UNL     1     -33.589  17.552  -0.953  1.00 20.00    -0.117 C 
HETATM    3  C8  UNL     1     -33.299  16.916  -2.244  1.00 20.00     0.096 C 
ENDROOT
BRANCH   3   4
HETATM    4  C9  UNL     1     -33.667  17.850  -3.382  1.00 20.00     0.050 C 
BRANCH   4   5
HETATM    5  C6  UNL     1     -34.476  17.112  -4.448  1.00 20.00     0.068 C 
HETATM    6  C3  UNL     1     -33.958  15.687  -4.665  1.00 20.00     0.053 C 
HETATM    7  C5  UNL     1     -34.588  15.122  -5.940  1.00 20.00     0.046 C 
HETATM    8  C7  UNL     1     -35.925  14.426  -5.715  1.00 20.00     0.021 C 
HETATM    9  S11 UNL     1     -34.795  16.555  -7.044  1.00 20.00    -0.162 SA
HETATM   10  C4  UNL     1     -34.390  17.817  -5.799  1.00 20.00     0.112 C 
BRANCH   5  11
HETATM   11  O10 UNL     1     -35.837  17.094  -4.020  1.00 20.00    -0.389 OA
HETATM   12  H25 UNL     1     -36.183  17.987  -4.167  1.00 20.00     0.210 HD
ENDBRANCH   5  11
ENDBRANCH   4   5
ENDBRANCH   3   4
TORSDOF 3
ENDMDL
MODEL 4
REMARK VINA RESULT:      -4.0     12.714     14.198
REMARK  3 active torsions:
REMARK  status: ('A' for Active; 'I' for Inactive)
REMARK    1  A    between atoms: C6_6  and  C9_9 
REMARK    2  A    between atoms: C6_6  and  O10_10 
REMARK    3  A    between atoms: C8_8  and  C9_9 
ROOT
HETATM    1  C1  UNL     1     -31.442  18.723  -0.375  1.00 20.00     0.012 C 
HETATM    2  C2  UNL     1     -32.420  18.156  -0.776  1.00 20.00    -0.117 C 
HETATM    3  C8  UNL     1     -33.617  17.459  -1.263  1.00 20.00     0.096 C 
ENDROOT
BRANCH   3   4
HETATM    4  C9  UNL     1     -34.189  18.181  -2.469  1.00 20.00     0.050 C 
BRANCH   4   5
HETATM    5  C6  UNL     1     -33.964  17.370  -3.744  1.00 20.00     0.068 C 
HETATM    6  C3  UNL     1     -35.269  17.158  -4.518  1.00 20.00     0.053 C 
HETATM    7  C5  UNL     1     -35.040  16.092  -5.591  1.00 20.00     0.046 C 
HETATM    8  C7  UNL     1     -34.536  16.646  -6.917  1.00 20.00     0.021 C 
HETATM    9  S11 UNL     1     -33.817  14.949  -4.873  1.00 20.00    -0.162 SA
HETATM   10  C4  UNL     1     -33.415  15.981  -3.429  1.00 20.00     0.112 C 
BRANCH   5  11
HETATM   11  O10 UNL     1     -33.015  18.075  -4.542  1.00 20.00    -0.389 OA
HETATM   12  H25 UNL     1     -33.036  18.997  -4.243  1.00 20.00     0.210 HD
ENDBRANCH   5  11
ENDBRANCH   4   5
ENDBRANCH   3   4
TORSDOF 3
ENDMDL
MODEL 5
REMARK VINA RESULT:      -3.9     12.465     13.108
REMARK  3 active torsions:
REMARK  status: ('A' for Active; 'I' for Inactive)
REMARK    1  A    between atoms: C6_6  and  C9_9 
REMARK    2  A    between atoms: C6_6  and  O10_10 
REMARK    3  A    between atoms: C8_8  and  C9_9 
ROOT
HETATM    1  C1  UNL     1     -35.923  13.559  -4.654  1.00 20.00     0.012 C 
HETATM    2  C2  UNL     1     -34.972  14.276  -4.503  1.00 20.00    -0.117 C 
HETATM    3  C8  UNL     1     -33.807  15.149  -4.317  1.00 20.00     0.096 C 
ENDROOT
BRANCH   3   4
HETATM    4  C9  UNL     1     -34.160  16.579  -4.686  1.00 20.00     0.050 C 
BRANCH   4   5
HETATM    5  C6  UNL     1     -33.807  17.535  -3.549  1.00 20.00     0.068 C 
HETATM    6  C3  UNL     1     -33.354  16.779  -2.295  1.00 20.00     0.053 C 
HETATM    7  C5  UNL     1     -33.324  17.753  -1.115  1.00 20.00     0.046 C 
HETATM    8  C7  UNL     1     -31.998  18.487  -0.952  1.00 20.00     0.021 C 
HETATM    9  S11 UNL     1     -34.669  18.937  -1.440  1.00 20.00    -0.162 SA
HETATM   10  C4  UNL     1     -35.011  18.378  -3.137  1.00 20.00     0.112 C 
BRANCH   5  11
HETATM   11  O10 UNL     1     -32.773  18.399  -4.016  1.00 20.00    -0.389 OA
HETATM   12  H25 UNL     1     -32.034  17.827  -4.277  1.00 20.00     0.210 HD
ENDBRANCH   5  11
ENDBRANCH   4   5
ENDBRANCH   3   4
TORSDOF 3
ENDMDL
MODEL 6
REMARK VINA RESULT:      -3.9      1.666      2.170
REMARK  3 active torsions:
REMARK  status: ('A' for Active; 'I' for Inactive)
REMARK    1  A    between atoms: C6_6  and  C9_9 
REMARK    2  A    between atoms: C6_6  and  O10_10 
REMARK    3  A    between atoms: C8_8  and  C9_9 
ROOT
HETATM    1  C1  UNL     1     -38.933  11.643   3.810  1.00 20.00     0.012 C 
HETATM    2  C2  UNL     1     -39.296  11.900   4.925  1.00 20.00    -0.117 C 
HETATM    3  C8  UNL     1     -39.734  12.214   6.291  1.00 20.00     0.096 C 
ENDROOT
BRANCH   3   4
HETATM    4  C9  UNL     1     -41.228  12.481   6.313  1.00 20.00     0.050 C 
BRANCH   4   5
HETATM    5  C6  UNL     1     -41.523  13.860   6.900  1.00 20.00     0.068 C 
HETATM    6  C3  UNL     1     -40.335  14.398   7.706  1.00 20.00     0.053 C 
HETATM    7  C5  UNL     1     -40.797  15.611   8.517  1.00 20.00     0.046 C 
HETATM    8  C7  UNL     1     -40.680  16.935   7.772  1.00 20.00     0.021 C 
HETATM    9  S11 UNL     1     -42.536  15.269   8.936  1.00 20.00    -0.162 SA
HETATM   10  C4  UNL     1     -42.712  13.815   7.856  1.00 20.00     0.112 C 
BRANCH   5  11
HETATM   11  O10 UNL     1     -41.831  14.734   5.815  1.00 20.00    -0.389 OA
HETATM   12  H25 UNL     1     -42.706  15.108   6.005  1.00 20.00     0.210 HD
ENDBRANCH   5  11
ENDBRANCH   4   5
ENDBRANCH   3   4
TORSDOF 3
ENDMDL
MODEL 7
REMARK VINA RESULT:      -3.8     12.205     13.309
REMARK  3 active torsions:
REMARK  status: ('A' for Active; 'I' for Inactive)
REMARK    1  A    between atoms: C6_6  and  C9_9 
REMARK    2  A    between atoms: C6_6  and  O10_10 
REMARK    3  A    between atoms: C8_8  and  C9_9 
ROOT
HETATM    1  C1  UNL     1     -30.643  18.522   1.858  1.00 20.00     0.012 C 
HETATM    2  C2  UNL     1     -31.573  18.519   1.100  1.00 20.00    -0.117 C 
HETATM    3  C8  UNL     1     -32.715  18.518   0.176  1.00 20.00     0.096 C 
ENDROOT
BRANCH   3   4
HETATM    4  C9  UNL     1     -32.257  18.141  -1.221  1.00 20.00     0.050 C 
BRANCH   4   5
HETATM    5  C6  UNL     1     -33.454  17.825  -2.116  1.00 20.00     0.068 C 
HETATM    6  C3  UNL     1     -33.166  18.159  -3.583  1.00 20.00     0.053 C 
HETATM    7  C5  UNL     1     -34.481  18.124  -4.365  1.00 20.00     0.046 C 
HETATM    8  C7  UNL     1     -34.837  16.750  -4.918  1.00 20.00     0.021 C 
HETATM    9  S11 UNL     1     -35.751  18.682  -3.185  1.00 20.00    -0.162 SA
HETATM   10  C4  UNL     1     -34.679  18.643  -1.716  1.00 20.00     0.112 C 
BRANCH   5  11
HETATM   11  O10 UNL     1     -33.752  16.438  -1.965  1.00 20.00    -0.389 OA
HETATM   12  H25 UNL     1     -32.958  16.026  -1.591  1.00 20.00     0.210 HD
ENDBRANCH   5  11
ENDBRANCH   4   5
ENDBRANCH   3   4
TORSDOF 3
ENDMDL
MODEL 8
REMARK VINA RESULT:      -3.6      1.613      1.915
REMARK  3 active torsions:
REMARK  status: ('A' for Active; 'I' for Inactive)
REMARK    1  A    between atoms: C6_6  and  C9_9 
REMARK    2  A    between atoms: C6_6  and  O10_10 
REMARK    3  A    between atoms: C8_8  and  C9_9 
ROOT
HETATM    1  C1  UNL     1     -39.069  11.731   4.558  1.00 20.00     0.012 C 
HETATM    2  C2  UNL     1     -39.960  12.067   5.288  1.00 20.00    -0.117 C 
HETATM    3  C8  UNL     1     -41.051  12.474   6.182  1.00 20.00     0.096 C 
ENDROOT
BRANCH   3   4
HETATM    4  C9  UNL     1     -41.138  13.987   6.247  1.00 20.00     0.050 C 
BRANCH   4   5
HETATM    5  C6  UNL     1     -41.506  14.449   7.656  1.00 20.00     0.068 C 
HETATM    6  C3  UNL     1     -40.325  14.312   8.622  1.00 20.00     0.053 C 
HETATM    7  C5  UNL     1     -40.836  14.483  10.054  1.00 20.00     0.046 C 
HETATM    8  C7  UNL     1     -40.853  15.927  10.538  1.00 20.00     0.021 C 
HETATM    9  S11 UNL     1     -42.523  13.797  10.043  1.00 20.00    -0.162 SA
HETATM   10  C4  UNL     1     -42.642  13.611   8.237  1.00 20.00     0.112 C 
BRANCH   5  11
HETATM   11  O10 UNL     1     -41.929  15.808   7.568  1.00 20.00    -0.389 OA
HETATM   12  H25 UNL     1     -42.081  15.988   6.627  1.00 20.00     0.210 HD
ENDBRANCH   5  11
ENDBRANCH   4   5
ENDBRANCH   3   4
TORSDOF 3
ENDMDL
MODEL 9
REMARK VINA RESULT:      -3.5     12.685     13.760
REMARK  3 active torsions:
REMARK  status: ('A' for Active; 'I' for Inactive)
REMARK    1  A    between atoms: C6_6  and  C9_9 
REMARK    2  A    between atoms: C6_6  and  O10_10 
REMARK    3  A    between atoms: C8_8  and  C9_9 
ROOT
HETATM    1  C1  UNL     1     -33.993  15.732  -7.918  1.00 20.00     0.012 C 
HETATM    2  C2  UNL     1     -34.484  15.862  -6.830  1.00 20.00    -0.117 C 
HETATM    3  C8  UNL     1     -35.089  16.022  -5.502  1.00 20.00     0.096 C 
ENDROOT
BRANCH   3   4
HETATM    4  C9  UNL     1     -34.046  15.801  -4.422  1.00 20.00     0.050 C 
BRANCH   4   5
HETATM    5  C6  UNL     1     -33.832  17.075  -3.607  1.00 20.00     0.068 C 
HETATM    6  C3  UNL     1     -33.292  16.765  -2.206  1.00 20.00     0.053 C 
HETATM    7  C5  UNL     1     -33.400  18.026  -1.346  1.00 20.00     0.046 C 
HETATM    8  C7  UNL     1     -32.185  18.941  -1.433  1.00 20.00     0.021 C 
HETATM    9  S11 UNL     1     -34.888  18.888  -1.947  1.00 20.00    -0.162 SA
HETATM   10  C4  UNL     1     -35.140  17.836  -3.411  1.00 20.00     0.112 C 
BRANCH   5  11
HETATM   11  O10 UNL     1     -32.918  17.899  -4.327  1.00 20.00    -0.389 OA
HETATM   12  H25 UNL     1     -32.656  18.611  -3.723  1.00 20.00     0.210 HD
ENDBRANCH   5  11
ENDBRANCH   4   5
ENDBRANCH   3   4
TORSDOF 3
ENDMDL
