MODEL 1
REMARK VINA RESULT:      -3.9      0.000      0.000
REMARK  2 active torsions:
REMARK  status: ('A' for Active; 'I' for Inactive)
REMARK    1  A    between atoms: C2_2  and  C3_3 
REMARK    2  A    between atoms: C3_3  and  C7_7 
ROOT
HETATM    1  C4  UNL     1     -34.593  15.524  -5.739  1.00 20.00     0.084 C 
HETATM    2  C5  UNL     1     -35.408  16.775  -5.451  1.00 20.00     0.085 C 
HETATM    3  C6  UNL     1     -33.002  16.049  -3.534  1.00 20.00     0.097 C 
HETATM    4  C7  UNL     1     -33.823  17.300  -3.243  1.00 20.00     0.131 C 
HETATM    5  S10 UNL     1     -34.006  14.701  -4.229  1.00 20.00    -0.167 SA
HETATM    6  S11 UNL     1     -34.409  18.124  -4.756  1.00 20.00    -0.155 SA
ENDROOT
BRANCH   4   7
HETATM    7  C3  UNL     1     -32.971  18.298  -2.522  1.00 20.00     0.169 C 
HETATM    8  O9  UNL     1     -32.418  19.208  -3.142  1.00 20.00    -0.291 OA
BRANCH   7   9
HETATM    9  C2  UNL     1     -32.792  18.187  -1.037  1.00 20.00    -0.024 C 
HETATM   10  C1  UNL     1     -33.812  17.857  -0.232  1.00 20.00     0.022 C 
HETATM   11  C8  UNL     1     -31.418  18.464  -0.503  1.00 20.00     0.051 C 
ENDBRANCH   7   9
ENDBRANCH   4   7
TORSDOF 2
ENDMDL
MODEL 2
REMARK VINA RESULT:      -3.6     12.000     13.543
REMARK  2 active torsions:
REMARK  status: ('A' for Active; 'I' for Inactive)
REMARK    1  A    between atoms: C2_2  and  C3_3 
REMARK    2  A    between atoms: C3_3  and  C7_7 
ROOT
HETATM    1  C4  UNL     1     -43.171  14.305   8.855  1.00 20.00     0.084 C 
HETATM    2  C5  UNL     1     -41.705  14.704   8.905  1.00 20.00     0.085 C 
HETATM    3  C6  UNL     1     -42.659  12.682   6.671  1.00 20.00     0.097 C 
HETATM    4  C7  UNL     1     -41.188  13.078   6.724  1.00 20.00     0.131 C 
HETATM    5  S10 UNL     1     -43.417  12.585   8.320  1.00 20.00    -0.167 SA
HETATM    6  S11 UNL     1     -40.943  14.801   7.258  1.00 20.00    -0.155 SA
ENDROOT
BRANCH   4   7
HETATM    7  C3  UNL     1     -40.592  12.972   5.355  1.00 20.00     0.169 C 
HETATM    8  O9  UNL     1     -41.144  13.509   4.393  1.00 20.00    -0.291 OA
BRANCH   7   9
HETATM    9  C2  UNL     1     -39.318  12.206   5.156  1.00 20.00    -0.024 C 
HETATM   10  C1  UNL     1     -38.409  12.096   6.135  1.00 20.00     0.022 C 
HETATM   11  C8  UNL     1     -39.117  11.574   3.811  1.00 20.00     0.051 C 
ENDBRANCH   7   9
ENDBRANCH   4   7
TORSDOF 2
ENDMDL
MODEL 3
REMARK VINA RESULT:      -3.4      2.523      4.881
REMARK  2 active torsions:
REMARK  status: ('A' for Active; 'I' for Inactive)
REMARK    1  A    between atoms: C2_2  and  C3_3 
REMARK    2  A    between atoms: C3_3  and  C7_7 
ROOT
HETATM    1  C4  UNL     1     -34.345  18.880  -2.165  1.00 20.00     0.084 C 
HETATM    2  C5  UNL     1     -34.627  19.061  -3.648  1.00 20.00     0.085 C 
HETATM    3  C6  UNL     1     -33.482  16.293  -2.641  1.00 20.00     0.097 C 
HETATM    4  C7  UNL     1     -33.759  16.477  -4.129  1.00 20.00     0.131 C 
HETATM    5  S10 UNL     1     -32.903  17.821  -1.844  1.00 20.00    -0.167 SA
HETATM    6  S11 UNL     1     -35.205  17.536  -4.449  1.00 20.00    -0.155 SA
ENDROOT
BRANCH   4   7
HETATM    7  C3  UNL     1     -34.065  15.148  -4.747  1.00 20.00     0.169 C 
HETATM    8  O9  UNL     1     -33.946  14.113  -4.090  1.00 20.00    -0.291 OA
BRANCH   7   9
HETATM    9  C2  UNL     1     -34.518  15.080  -6.176  1.00 20.00    -0.024 C 
HETATM   10  C1  UNL     1     -33.707  15.434  -7.183  1.00 20.00     0.022 C 
HETATM   11  C8  UNL     1     -35.918  14.598  -6.414  1.00 20.00     0.051 C 
ENDBRANCH   7   9
ENDBRANCH   4   7
TORSDOF 2
ENDMDL
MODEL 4
REMARK VINA RESULT:      -3.4     11.759     13.018
REMARK  2 active torsions:
REMARK  status: ('A' for Active; 'I' for Inactive)
REMARK    1  A    between atoms: C2_2  and  C3_3 
REMARK    2  A    between atoms: C3_3  and  C7_7 
ROOT
HETATM    1  C4  UNL     1     -42.418  16.526   7.388  1.00 20.00     0.084 C 
HETATM    2  C5  UNL     1     -42.518  16.175   5.912  1.00 20.00     0.085 C 
HETATM    3  C6  UNL     1     -40.650  14.430   7.770  1.00 20.00     0.097 C 
HETATM    4  C7  UNL     1     -40.746  14.082   6.290  1.00 20.00     0.131 C 
HETATM    5  S10 UNL     1     -40.764  16.219   8.076  1.00 20.00    -0.167 SA
HETATM    6  S11 UNL     1     -42.404  14.388   5.602  1.00 20.00    -0.155 SA
ENDROOT
BRANCH   4   7
HETATM    7  C3  UNL     1     -40.476  12.621   6.102  1.00 20.00     0.169 C 
HETATM    8  O9  UNL     1     -41.293  11.783   6.484  1.00 20.00    -0.291 OA
BRANCH   7   9
HETATM    9  C2  UNL     1     -39.201  12.180   5.446  1.00 20.00    -0.024 C 
HETATM   10  C1  UNL     1     -38.031  12.211   6.100  1.00 20.00     0.022 C 
HETATM   11  C8  UNL     1     -39.305  11.706   4.027  1.00 20.00     0.051 C 
ENDBRANCH   7   9
ENDBRANCH   4   7
TORSDOF 2
ENDMDL
MODEL 5
REMARK VINA RESULT:      -3.3      2.018      2.985
REMARK  2 active torsions:
REMARK  status: ('A' for Active; 'I' for Inactive)
REMARK    1  A    between atoms: C2_2  and  C3_3 
REMARK    2  A    between atoms: C3_3  and  C7_7 
ROOT
HETATM    1  C4  UNL     1     -36.782  16.349  -7.185  1.00 20.00     0.084 C 
HETATM    2  C5  UNL     1     -35.384  15.927  -7.608  1.00 20.00     0.085 C 
HETATM    3  C6  UNL     1     -35.791  17.201  -4.744  1.00 20.00     0.097 C 
HETATM    4  C7  UNL     1     -34.388  16.783  -5.170  1.00 20.00     0.131 C 
HETATM    5  S10 UNL     1     -36.785  17.830  -6.131  1.00 20.00    -0.167 SA
HETATM    6  S11 UNL     1     -34.387  15.299  -6.225  1.00 20.00    -0.155 SA
ENDROOT
BRANCH   4   7
HETATM    7  C3  UNL     1     -33.580  16.440  -3.958  1.00 20.00     0.169 C 
HETATM    8  O9  UNL     1     -33.081  15.320  -3.840  1.00 20.00    -0.291 OA
BRANCH   7   9
HETATM    9  C2  UNL     1     -33.379  17.467  -2.883  1.00 20.00    -0.024 C 
HETATM   10  C1  UNL     1     -33.600  17.180  -1.592  1.00 20.00     0.022 C 
HETATM   11  C8  UNL     1     -32.922  18.824  -3.328  1.00 20.00     0.051 C 
ENDBRANCH   7   9
ENDBRANCH   4   7
TORSDOF 2
ENDMDL
MODEL 6
REMARK VINA RESULT:      -3.2      2.226      3.387
REMARK  2 active torsions:
REMARK  status: ('A' for Active; 'I' for Inactive)
REMARK    1  A    between atoms: C2_2  and  C3_3 
REMARK    2  A    between atoms: C3_3  and  C7_7 
ROOT
HETATM    1  C4  UNL     1     -37.742  17.016  -7.431  1.00 20.00     0.084 C 
HETATM    2  C5  UNL     1     -38.083  16.915  -5.953  1.00 20.00     0.085 C 
HETATM    3  C6  UNL     1     -35.046  16.852  -6.824  1.00 20.00     0.097 C 
HETATM    4  C7  UNL     1     -35.388  16.746  -5.343  1.00 20.00     0.131 C 
HETATM    5  S10 UNL     1     -36.278  16.040  -7.886  1.00 20.00    -0.167 SA
HETATM    6  S11 UNL     1     -36.853  17.725  -4.888  1.00 20.00    -0.155 SA
ENDROOT
BRANCH   4   7
HETATM    7  C3  UNL     1     -34.252  17.283  -4.529  1.00 20.00     0.169 C 
HETATM    8  O9  UNL     1     -33.892  18.454  -4.659  1.00 20.00    -0.291 OA
BRANCH   7   9
HETATM    9  C2  UNL     1     -33.550  16.388  -3.551  1.00 20.00    -0.024 C 
HETATM   10  C1  UNL     1     -33.363  16.757  -2.276  1.00 20.00     0.022 C 
HETATM   11  C8  UNL     1     -33.072  15.067  -4.074  1.00 20.00     0.051 C 
ENDBRANCH   7   9
ENDBRANCH   4   7
TORSDOF 2
ENDMDL
MODEL 7
REMARK VINA RESULT:      -3.2      2.239      3.417
REMARK  2 active torsions:
REMARK  status: ('A' for Active; 'I' for Inactive)
REMARK    1  A    between atoms: C2_2  and  C3_3 
REMARK    2  A    between atoms: C3_3  and  C7_7 
ROOT
HETATM    1  C4  UNL     1     -37.778  17.033  -7.494  1.00 20.00     0.084 C 
HETATM    2  C5  UNL     1     -38.158  16.978  -6.023  1.00 20.00     0.085 C 
HETATM    3  C6  UNL     1     -35.103  16.806  -6.816  1.00 20.00     0.097 C 
HETATM    4  C7  UNL     1     -35.484  16.745  -5.342  1.00 20.00     0.131 C 
HETATM    5  S10 UNL     1     -36.333  16.004  -7.890  1.00 20.00    -0.167 SA
HETATM    6  S11 UNL     1     -36.931  17.777  -4.947  1.00 20.00    -0.155 SA
ENDROOT
BRANCH   4   7
HETATM    7  C3  UNL     1     -34.354  17.270  -4.512  1.00 20.00     0.169 C 
HETATM    8  O9  UNL     1     -34.043  18.460  -4.565  1.00 20.00    -0.291 OA
BRANCH   7   9
HETATM    9  C2  UNL     1     -33.597  16.337  -3.613  1.00 20.00    -0.024 C 
HETATM   10  C1  UNL     1     -33.144  15.155  -4.055  1.00 20.00     0.022 C 
HETATM   11  C8  UNL     1     -33.377  16.796  -2.202  1.00 20.00     0.051 C 
ENDBRANCH   7   9
ENDBRANCH   4   7
TORSDOF 2
ENDMDL
MODEL 8
REMARK VINA RESULT:      -3.1     12.567     13.716
REMARK  2 active torsions:
REMARK  status: ('A' for Active; 'I' for Inactive)
REMARK    1  A    between atoms: C2_2  and  C3_3 
REMARK    2  A    between atoms: C3_3  and  C7_7 
ROOT
HETATM    1  C4  UNL     1     -42.650  17.630   8.390  1.00 20.00     0.084 C 
HETATM    2  C5  UNL     1     -43.406  16.632   7.527  1.00 20.00     0.085 C 
HETATM    3  C6  UNL     1     -40.324  16.166   8.051  1.00 20.00     0.097 C 
HETATM    4  C7  UNL     1     -41.081  15.169   7.182  1.00 20.00     0.131 C 
HETATM    5  S10 UNL     1     -40.930  17.869   7.851  1.00 20.00    -0.167 SA
HETATM    6  S11 UNL     1     -42.802  14.929   7.723  1.00 20.00    -0.155 SA
ENDROOT
BRANCH   4   7
HETATM    7  C3  UNL     1     -40.421  13.828   7.270  1.00 20.00     0.169 C 
HETATM    8  O9  UNL     1     -40.019  13.403   8.354  1.00 20.00    -0.291 OA
BRANCH   7   9
HETATM    9  C2  UNL     1     -40.249  13.002   6.030  1.00 20.00    -0.024 C 
HETATM   10  C1  UNL     1     -40.979  13.232   4.930  1.00 20.00     0.022 C 
HETATM   11  C8  UNL     1     -39.222  11.910   6.088  1.00 20.00     0.051 C 
ENDBRANCH   7   9
ENDBRANCH   4   7
TORSDOF 2
ENDMDL
MODEL 9
REMARK VINA RESULT:      -3.1     24.767     25.696
REMARK  2 active torsions:
REMARK  status: ('A' for Active; 'I' for Inactive)
REMARK    1  A    between atoms: C2_2  and  C3_3 
REMARK    2  A    between atoms: C3_3  and  C7_7 
ROOT
HETATM    1  C4  UNL     1     -28.871  -1.744  10.804  1.00 20.00     0.084 C 
HETATM    2  C5  UNL     1     -28.365  -1.160  12.114  1.00 20.00     0.085 C 
HETATM    3  C6  UNL     1     -26.376  -2.845  10.328  1.00 20.00     0.097 C 
HETATM    4  C7  UNL     1     -25.871  -2.265  11.643  1.00 20.00     0.131 C 
HETATM    5  S10 UNL     1     -28.121  -3.352  10.412  1.00 20.00    -0.167 SA
HETATM    6  S11 UNL     1     -26.622  -0.653  12.035  1.00 20.00    -0.155 SA
ENDROOT
BRANCH   4   7
HETATM    7  C3  UNL     1     -24.395  -2.031  11.551  1.00 20.00     0.169 C 
HETATM    8  O9  UNL     1     -23.911  -0.957  11.914  1.00 20.00    -0.291 OA
BRANCH   7   9
HETATM    9  C2  UNL     1     -23.503  -3.110  11.013  1.00 20.00    -0.024 C 
HETATM   10  C1  UNL     1     -23.278  -4.239  11.701  1.00 20.00     0.022 C 
HETATM   11  C8  UNL     1     -22.881  -2.861   9.671  1.00 20.00     0.051 C 
ENDBRANCH   7   9
ENDBRANCH   4   7
TORSDOF 2
ENDMDL
