MODEL 1
REMARK VINA RESULT:      -3.0      0.000      0.000
REMARK  0 active torsions:
REMARK  status: ('A' for Active; 'I' for Inactive)
ROOT
HETATM    1  C1  UNL     1     -40.404  14.278   6.505  1.00 20.00     0.056 C 
HETATM    2  C2  UNL     1     -41.513  14.378   7.533  1.00 20.00     0.094 C 
HETATM    3  C3  UNL     1     -40.289  12.778   6.209  1.00 20.00     0.056 C 
HETATM    4  C4  UNL     1     -42.384  13.157   7.231  1.00 20.00     0.068 C 
HETATM    5  C5  UNL     1     -40.166  12.508   4.707  1.00 20.00     0.045 C 
HETATM    6  C6  UNL     1     -39.114  12.120   6.935  1.00 20.00     0.045 C 
HETATM    7  C7  UNL     1     -43.138  12.533   8.407  1.00 20.00     0.047 C 
HETATM    8  C8  UNL     1     -43.413  13.502   6.137  1.00 20.00     0.047 C 
HETATM    9  O9  UNL     1     -41.499  12.158   6.685  1.00 20.00    -0.369 OA
HETATM   10 BR10 UNL     1     -40.737  14.405   9.326  1.00 20.00    -0.088 Br
ENDROOT
TORSDOF 0
ENDMDL
MODEL 2
REMARK VINA RESULT:      -3.0     13.545     14.829
REMARK  0 active torsions:
REMARK  status: ('A' for Active; 'I' for Inactive)
ROOT
HETATM    1  C1  UNL     1     -35.724  16.822  -5.862  1.00 20.00     0.056 C 
HETATM    2  C2  UNL     1     -34.916  16.534  -4.613  1.00 20.00     0.094 C 
HETATM    3  C3  UNL     1     -34.958  16.115  -6.986  1.00 20.00     0.056 C 
HETATM    4  C4  UNL     1     -34.238  15.200  -4.931  1.00 20.00     0.068 C 
HETATM    5  C5  UNL     1     -35.902  15.351  -7.917  1.00 20.00     0.045 C 
HETATM    6  C6  UNL     1     -34.104  17.076  -7.816  1.00 20.00     0.045 C 
HETATM    7  C7  UNL     1     -32.875  14.941  -4.285  1.00 20.00     0.047 C 
HETATM    8  C8  UNL     1     -35.170  14.032  -4.555  1.00 20.00     0.047 C 
HETATM    9  O9  UNL     1     -34.068  15.168  -6.363  1.00 20.00    -0.369 OA
HETATM   10 BR10 UNL     1     -33.687  18.016  -4.278  1.00 20.00    -0.088 Br
ENDROOT
TORSDOF 0
ENDMDL
MODEL 3
REMARK VINA RESULT:      -3.0      1.918      2.948
REMARK  0 active torsions:
REMARK  status: ('A' for Active; 'I' for Inactive)
ROOT
HETATM    1  C1  UNL     1     -41.962  12.861   6.717  1.00 20.00     0.056 C 
HETATM    2  C2  UNL     1     -42.294  14.209   7.325  1.00 20.00     0.094 C 
HETATM    3  C3  UNL     1     -40.601  13.070   6.042  1.00 20.00     0.056 C 
HETATM    4  C4  UNL     1     -40.919  14.824   7.591  1.00 20.00     0.068 C 
HETATM    5  C5  UNL     1     -39.646  11.909   6.329  1.00 20.00     0.045 C 
HETATM    6  C6  UNL     1     -40.714  13.263   4.528  1.00 20.00     0.045 C 
HETATM    7  C7  UNL     1     -40.816  16.349   7.528  1.00 20.00     0.047 C 
HETATM    8  C8  UNL     1     -40.396  14.370   8.968  1.00 20.00     0.047 C 
HETATM    9  O9  UNL     1     -40.034  14.274   6.595  1.00 20.00    -0.369 OA
HETATM   10 BR10 UNL     1     -43.417  15.221   6.088  1.00 20.00    -0.088 Br
ENDROOT
TORSDOF 0
ENDMDL
MODEL 4
REMARK VINA RESULT:      -3.0     20.111     21.973
REMARK  0 active torsions:
REMARK  status: ('A' for Active; 'I' for Inactive)
ROOT
HETATM    1  C1  UNL     1     -27.286  -1.957  12.284  1.00 20.00     0.056 C 
HETATM    2  C2  UNL     1     -25.911  -2.580  12.152  1.00 20.00     0.094 C 
HETATM    3  C3  UNL     1     -27.760  -1.761  10.839  1.00 20.00     0.056 C 
HETATM    4  C4  UNL     1     -25.988  -3.323  10.817  1.00 20.00     0.068 C 
HETATM    5  C5  UNL     1     -29.216  -2.197  10.659  1.00 20.00     0.045 C 
HETATM    6  C6  UNL     1     -27.605  -0.318  10.356  1.00 20.00     0.045 C 
HETATM    7  C7  UNL     1     -24.687  -3.465  10.025  1.00 20.00     0.047 C 
HETATM    8  C8  UNL     1     -26.569  -4.734  11.032  1.00 20.00     0.047 C 
HETATM    9  O9  UNL     1     -26.929  -2.592  10.005  1.00 20.00    -0.369 OA
HETATM   10 BR10 UNL     1     -24.553  -1.178  12.231  1.00 20.00    -0.088 Br
ENDROOT
TORSDOF 0
ENDMDL
MODEL 5
REMARK VINA RESULT:      -2.9      1.907      2.915
REMARK  0 active torsions:
REMARK  status: ('A' for Active; 'I' for Inactive)
ROOT
HETATM    1  C1  UNL     1     -42.820  14.700   7.193  1.00 20.00     0.056 C 
HETATM    2  C2  UNL     1     -42.198  15.529   8.299  1.00 20.00     0.094 C 
HETATM    3  C3  UNL     1     -41.985  13.415   7.160  1.00 20.00     0.056 C 
HETATM    4  C4  UNL     1     -41.601  14.477   9.235  1.00 20.00     0.068 C 
HETATM    5  C5  UNL     1     -42.869  12.171   7.047  1.00 20.00     0.045 C 
HETATM    6  C6  UNL     1     -40.958  13.406   6.025  1.00 20.00     0.045 C 
HETATM    7  C7  UNL     1     -40.354  14.877  10.026  1.00 20.00     0.047 C 
HETATM    8  C8  UNL     1     -42.667  14.000  10.240  1.00 20.00     0.047 C 
HETATM    9  O9  UNL     1     -41.261  13.348   8.404  1.00 20.00    -0.369 OA
HETATM   10 BR10 UNL     1     -40.899  16.769   7.528  1.00 20.00    -0.088 Br
ENDROOT
TORSDOF 0
ENDMDL
MODEL 6
REMARK VINA RESULT:      -2.8     13.115     14.097
REMARK  0 active torsions:
REMARK  status: ('A' for Active; 'I' for Inactive)
ROOT
HETATM    1  C1  UNL     1     -34.047  15.628  -5.736  1.00 20.00     0.056 C 
HETATM    2  C2  UNL     1     -33.984  16.840  -4.828  1.00 20.00     0.094 C 
HETATM    3  C3  UNL     1     -35.535  15.255  -5.776  1.00 20.00     0.056 C 
HETATM    4  C4  UNL     1     -35.364  17.479  -4.996  1.00 20.00     0.068 C 
HETATM    5  C5  UNL     1     -35.998  14.938  -7.199  1.00 20.00     0.045 C 
HETATM    6  C6  UNL     1     -35.873  14.075  -4.863  1.00 20.00     0.045 C 
HETATM    7  C7  UNL     1     -35.924  18.246  -3.797  1.00 20.00     0.047 C 
HETATM    8  C8  UNL     1     -35.360  18.429  -6.208  1.00 20.00     0.047 C 
HETATM    9  O9  UNL     1     -36.271  16.400  -5.301  1.00 20.00    -0.369 OA
HETATM   10 BR10 UNL     1     -33.564  16.267  -3.008  1.00 20.00    -0.088 Br
ENDROOT
TORSDOF 0
ENDMDL
MODEL 7
REMARK VINA RESULT:      -2.8     20.147     21.962
REMARK  0 active torsions:
REMARK  status: ('A' for Active; 'I' for Inactive)
ROOT
HETATM    1  C1  UNL     1     -26.432  -3.283  12.313  1.00 20.00     0.056 C 
HETATM    2  C2  UNL     1     -27.673  -2.582  11.797  1.00 20.00     0.094 C 
HETATM    3  C3  UNL     1     -25.297  -2.757  11.425  1.00 20.00     0.056 C 
HETATM    4  C4  UNL     1     -27.125  -1.276  11.219  1.00 20.00     0.068 C 
HETATM    5  C5  UNL     1     -24.060  -2.394  12.249  1.00 20.00     0.045 C 
HETATM    6  C6  UNL     1     -24.898  -3.747  10.329  1.00 20.00     0.045 C 
HETATM    7  C7  UNL     1     -27.888  -0.664  10.042  1.00 20.00     0.047 C 
HETATM    8  C8  UNL     1     -27.026  -0.210  12.326  1.00 20.00     0.047 C 
HETATM    9  O9  UNL     1     -25.782  -1.564  10.780  1.00 20.00    -0.369 OA
HETATM   10 BR10 UNL     1     -28.578  -3.733  10.504  1.00 20.00    -0.088 Br
ENDROOT
TORSDOF 0
ENDMDL
MODEL 8
REMARK VINA RESULT:      -2.8     12.825     14.089
REMARK  0 active torsions:
REMARK  status: ('A' for Active; 'I' for Inactive)
ROOT
HETATM    1  C1  UNL     1     -34.573  17.037  -5.784  1.00 20.00     0.056 C 
HETATM    2  C2  UNL     1     -33.636  16.542  -4.701  1.00 20.00     0.094 C 
HETATM    3  C3  UNL     1     -35.721  17.708  -5.022  1.00 20.00     0.056 C 
HETATM    4  C4  UNL     1     -33.887  17.514  -3.546  1.00 20.00     0.068 C 
HETATM    5  C5  UNL     1     -36.107  19.049  -5.650  1.00 20.00     0.045 C 
HETATM    6  C6  UNL     1     -36.965  16.822  -4.926  1.00 20.00     0.045 C 
HETATM    7  C7  UNL     1     -33.697  16.973  -2.128  1.00 20.00     0.047 C 
HETATM    8  C8  UNL     1     -32.992  18.759  -3.703  1.00 20.00     0.047 C 
HETATM    9  O9  UNL     1     -35.255  17.951  -3.680  1.00 20.00    -0.369 OA
HETATM   10 BR10 UNL     1     -34.039  14.673  -4.297  1.00 20.00    -0.088 Br
ENDROOT
TORSDOF 0
ENDMDL
MODEL 9
REMARK VINA RESULT:      -2.7      2.183      3.520
REMARK  0 active torsions:
REMARK  status: ('A' for Active; 'I' for Inactive)
ROOT
HETATM    1  C1  UNL     1     -41.025  15.850   7.571  1.00 20.00     0.056 C 
HETATM    2  C2  UNL     1     -41.574  14.932   6.497  1.00 20.00     0.094 C 
HETATM    3  C3  UNL     1     -41.259  15.089   8.882  1.00 20.00     0.056 C 
HETATM    4  C4  UNL     1     -41.409  13.538   7.107  1.00 20.00     0.068 C 
HETATM    5  C5  UNL     1     -40.031  15.148   9.794  1.00 20.00     0.045 C 
HETATM    6  C6  UNL     1     -42.480  15.597   9.651  1.00 20.00     0.045 C 
HETATM    7  C7  UNL     1     -42.425  12.474   6.689  1.00 20.00     0.047 C 
HETATM    8  C8  UNL     1     -40.000  12.994   6.804  1.00 20.00     0.047 C 
HETATM    9  O9  UNL     1     -41.503  13.712   8.535  1.00 20.00    -0.369 OA
HETATM   10 BR10 UNL     1     -43.417  15.435   6.092  1.00 20.00    -0.088 Br
ENDROOT
TORSDOF 0
ENDMDL
