MODEL 1
REMARK VINA RESULT:      -3.4      0.000      0.000
REMARK  0 active torsions:
REMARK  status: ('A' for Active; 'I' for Inactive)
ROOT
HETATM    1  C1  UNL     1     -35.589  15.194  -7.485  1.00 20.00     0.067 C 
HETATM    2  C2  UNL     1     -33.590  15.488  -6.077  1.00 20.00     0.059 C 
HETATM    3  C3  UNL     1     -34.640  16.178  -6.934  1.00 20.00     0.129 C 
HETATM    4  C4  UNL     1     -34.181  15.516  -4.663  1.00 20.00     0.056 C 
HETATM    5  C5  UNL     1     -35.268  17.174  -5.944  1.00 20.00     0.071 C 
HETATM    6  C6  UNL     1     -34.901  14.213  -4.306  1.00 20.00     0.045 C 
HETATM    7  C7  UNL     1     -33.114  15.815  -3.610  1.00 20.00     0.045 C 
HETATM    8  C8  UNL     1     -34.470  18.488  -5.911  1.00 20.00     0.047 C 
HETATM    9  C9  UNL     1     -36.742  17.504  -6.192  1.00 20.00     0.047 C 
HETATM   10  N10 UNL     1     -36.336  14.419  -7.918  1.00 20.00    -0.197 NA
HETATM   11  O11 UNL     1     -35.156  16.575  -4.637  1.00 20.00    -0.369 OA
ENDROOT
TORSDOF 0
ENDMDL
MODEL 2
REMARK VINA RESULT:      -3.3     14.055     15.070
REMARK  0 active torsions:
REMARK  status: ('A' for Active; 'I' for Inactive)
ROOT
HETATM    1  C1  UNL     1     -40.028  12.761   6.544  1.00 20.00     0.067 C 
HETATM    2  C2  UNL     1     -40.483  15.123   7.075  1.00 20.00     0.059 C 
HETATM    3  C3  UNL     1     -40.962  13.882   6.335  1.00 20.00     0.129 C 
HETATM    4  C4  UNL     1     -41.164  15.030   8.445  1.00 20.00     0.056 C 
HETATM    5  C5  UNL     1     -42.359  13.661   6.938  1.00 20.00     0.071 C 
HETATM    6  C6  UNL     1     -40.255  14.407   9.507  1.00 20.00     0.045 C 
HETATM    7  C7  UNL     1     -41.652  16.395   8.927  1.00 20.00     0.045 C 
HETATM    8  C8  UNL     1     -43.416  14.485   6.186  1.00 20.00     0.047 C 
HETATM    9  C9  UNL     1     -42.825  12.204   6.994  1.00 20.00     0.047 C 
HETATM   10  N10 UNL     1     -39.293  11.879   6.708  1.00 20.00    -0.197 NA
HETATM   11  O11 UNL     1     -42.306  14.167   8.287  1.00 20.00    -0.369 OA
ENDROOT
TORSDOF 0
ENDMDL
MODEL 3
REMARK VINA RESULT:      -3.3      1.703      2.567
REMARK  0 active torsions:
REMARK  status: ('A' for Active; 'I' for Inactive)
ROOT
HETATM    1  C1  UNL     1     -35.902  14.092  -5.203  1.00 20.00     0.067 C 
HETATM    2  C2  UNL     1     -34.682  15.920  -6.315  1.00 20.00     0.059 C 
HETATM    3  C3  UNL     1     -36.005  15.178  -6.195  1.00 20.00     0.129 C 
HETATM    4  C4  UNL     1     -34.797  17.062  -5.300  1.00 20.00     0.056 C 
HETATM    5  C5  UNL     1     -36.976  16.303  -5.799  1.00 20.00     0.071 C 
HETATM    6  C6  UNL     1     -34.143  16.719  -3.959  1.00 20.00     0.045 C 
HETATM    7  C7  UNL     1     -34.202  18.361  -5.841  1.00 20.00     0.045 C 
HETATM    8  C8  UNL     1     -37.521  17.018  -7.047  1.00 20.00     0.047 C 
HETATM    9  C9  UNL     1     -38.158  15.873  -4.928  1.00 20.00     0.047 C 
HETATM   10  N10 UNL     1     -35.821  13.238  -4.423  1.00 20.00    -0.197 NA
HETATM   11  O11 UNL     1     -36.202  17.269  -5.060  1.00 20.00    -0.369 OA
ENDROOT
TORSDOF 0
ENDMDL
MODEL 4
REMARK VINA RESULT:      -3.3      2.398      3.992
REMARK  0 active torsions:
REMARK  status: ('A' for Active; 'I' for Inactive)
ROOT
HETATM    1  C1  UNL     1     -33.550  16.775  -3.021  1.00 20.00     0.067 C 
HETATM    2  C2  UNL     1     -34.258  17.978  -5.050  1.00 20.00     0.059 C 
HETATM    3  C3  UNL     1     -33.586  16.731  -4.494  1.00 20.00     0.129 C 
HETATM    4  C4  UNL     1     -35.736  17.589  -5.168  1.00 20.00     0.056 C 
HETATM    5  C5  UNL     1     -34.461  15.605  -5.070  1.00 20.00     0.071 C 
HETATM    6  C6  UNL     1     -36.558  18.045  -3.960  1.00 20.00     0.045 C 
HETATM    7  C7  UNL     1     -36.363  18.137  -6.449  1.00 20.00     0.045 C 
HETATM    8  C8  UNL     1     -33.981  15.204  -6.475  1.00 20.00     0.047 C 
HETATM    9  C9  UNL     1     -34.556  14.343  -4.208  1.00 20.00     0.047 C 
HETATM   10  N10 UNL     1     -33.521  16.809  -1.862  1.00 20.00    -0.197 NA
HETATM   11  O11 UNL     1     -35.788  16.151  -5.213  1.00 20.00    -0.369 OA
ENDROOT
TORSDOF 0
ENDMDL
MODEL 5
REMARK VINA RESULT:      -3.2      1.004      1.004
REMARK  0 active torsions:
REMARK  status: ('A' for Active; 'I' for Inactive)
ROOT
HETATM    1  C1  UNL     1     -36.394  16.241  -7.484  1.00 20.00     0.067 C 
HETATM    2  C2  UNL     1     -34.230  15.489  -6.580  1.00 20.00     0.059 C 
HETATM    3  C3  UNL     1     -35.101  16.685  -6.932  1.00 20.00     0.129 C 
HETATM    4  C4  UNL     1     -34.566  15.196  -5.114  1.00 20.00     0.056 C 
HETATM    5  C5  UNL     1     -35.209  17.418  -5.584  1.00 20.00     0.071 C 
HETATM    6  C6  UNL     1     -35.621  14.097  -4.965  1.00 20.00     0.045 C 
HETATM    7  C7  UNL     1     -33.320  14.820  -4.313  1.00 20.00     0.045 C 
HETATM    8  C8  UNL     1     -34.022  18.374  -5.385  1.00 20.00     0.047 C 
HETATM    9  C9  UNL     1     -36.507  18.199  -5.364  1.00 20.00     0.047 C 
HETATM   10  N10 UNL     1     -37.411  15.893  -7.918  1.00 20.00    -0.197 NA
HETATM   11  O11 UNL     1     -35.116  16.406  -4.561  1.00 20.00    -0.369 OA
ENDROOT
TORSDOF 0
ENDMDL
MODEL 6
REMARK VINA RESULT:      -3.1     25.346     26.396
REMARK  0 active torsions:
REMARK  status: ('A' for Active; 'I' for Inactive)
ROOT
HETATM    1  C1  UNL     1     -28.579  -3.152  10.011  1.00 20.00     0.067 C 
HETATM    2  C2  UNL     1     -26.146  -2.772  10.009  1.00 20.00     0.059 C 
HETATM    3  C3  UNL     1     -27.520  -2.138  10.164  1.00 20.00     0.129 C 
HETATM    4  C4  UNL     1     -25.748  -3.162  11.437  1.00 20.00     0.056 C 
HETATM    5  C5  UNL     1     -27.438  -1.519  11.570  1.00 20.00     0.071 C 
HETATM    6  C6  UNL     1     -26.061  -4.627  11.751  1.00 20.00     0.045 C 
HETATM    7  C7  UNL     1     -24.269  -2.887  11.706  1.00 20.00     0.045 C 
HETATM    8  C8  UNL     1     -26.824  -0.111  11.512  1.00 20.00     0.047 C 
HETATM    9  C9  UNL     1     -28.763  -1.443  12.331  1.00 20.00     0.047 C 
HETATM   10  N10 UNL     1     -29.413  -3.949   9.891  1.00 20.00    -0.197 NA
HETATM   11  O11 UNL     1     -26.532  -2.347  12.328  1.00 20.00    -0.369 OA
ENDROOT
TORSDOF 0
ENDMDL
MODEL 7
REMARK VINA RESULT:      -3.1     14.097     15.308
REMARK  0 active torsions:
REMARK  status: ('A' for Active; 'I' for Inactive)
ROOT
HETATM    1  C1  UNL     1     -42.550  13.796   9.183  1.00 20.00     0.067 C 
HETATM    2  C2  UNL     1     -43.060  14.202   6.808  1.00 20.00     0.059 C 
HETATM    3  C3  UNL     1     -42.623  14.822   8.127  1.00 20.00     0.129 C 
HETATM    4  C4  UNL     1     -41.745  13.823   6.117  1.00 20.00     0.056 C 
HETATM    5  C5  UNL     1     -41.267  15.448   7.761  1.00 20.00     0.071 C 
HETATM    6  C6  UNL     1     -41.369  12.356   6.342  1.00 20.00     0.045 C 
HETATM    7  C7  UNL     1     -41.791  14.115   4.618  1.00 20.00     0.045 C 
HETATM    8  C8  UNL     1     -41.455  16.863   7.189  1.00 20.00     0.047 C 
HETATM    9  C9  UNL     1     -40.247  15.513   8.900  1.00 20.00     0.047 C 
HETATM   10  N10 UNL     1     -42.493  12.989  10.014  1.00 20.00    -0.197 NA
HETATM   11  O11 UNL     1     -40.712  14.633   6.708  1.00 20.00    -0.369 OA
ENDROOT
TORSDOF 0
ENDMDL
MODEL 8
REMARK VINA RESULT:      -3.1      1.576      2.713
REMARK  0 active torsions:
REMARK  status: ('A' for Active; 'I' for Inactive)
ROOT
HETATM    1  C1  UNL     1     -35.938  14.395  -5.153  1.00 20.00     0.067 C 
HETATM    2  C2  UNL     1     -34.255  16.165  -4.839  1.00 20.00     0.059 C 
HETATM    3  C3  UNL     1     -34.754  15.046  -5.741  1.00 20.00     0.129 C 
HETATM    4  C4  UNL     1     -34.986  17.413  -5.348  1.00 20.00     0.056 C 
HETATM    5  C5  UNL     1     -35.031  15.788  -7.060  1.00 20.00     0.071 C 
HETATM    6  C6  UNL     1     -36.248  17.722  -4.537  1.00 20.00     0.045 C 
HETATM    7  C7  UNL     1     -34.073  18.638  -5.359  1.00 20.00     0.045 C 
HETATM    8  C8  UNL     1     -33.756  15.875  -7.916  1.00 20.00     0.047 C 
HETATM    9  C9  UNL     1     -36.156  15.204  -7.917  1.00 20.00     0.047 C 
HETATM   10  N10 UNL     1     -36.870  13.883  -4.691  1.00 20.00    -0.197 NA
HETATM   11  O11 UNL     1     -35.395  17.136  -6.701  1.00 20.00    -0.369 OA
ENDROOT
TORSDOF 0
ENDMDL
MODEL 9
REMARK VINA RESULT:      -3.1      1.889      3.166
REMARK  0 active torsions:
REMARK  status: ('A' for Active; 'I' for Inactive)
ROOT
HETATM    1  C1  UNL     1     -35.446  17.696  -6.350  1.00 20.00     0.067 C 
HETATM    2  C2  UNL     1     -35.366  17.425  -3.904  1.00 20.00     0.059 C 
HETATM    3  C3  UNL     1     -35.562  16.730  -5.243  1.00 20.00     0.129 C 
HETATM    4  C4  UNL     1     -33.862  17.302  -3.632  1.00 20.00     0.056 C 
HETATM    5  C5  UNL     1     -34.456  15.660  -5.220  1.00 20.00     0.071 C 
HETATM    6  C6  UNL     1     -33.088  18.552  -4.059  1.00 20.00     0.045 C 
HETATM    7  C7  UNL     1     -33.577  17.002  -2.161  1.00 20.00     0.045 C 
HETATM    8  C8  UNL     1     -34.946  14.384  -4.516  1.00 20.00     0.047 C 
HETATM    9  C9  UNL     1     -33.888  15.276  -6.588  1.00 20.00     0.047 C 
HETATM   10  N10 UNL     1     -35.355  18.455  -7.222  1.00 20.00    -0.197 NA
HETATM   11  O11 UNL     1     -33.382  16.200  -4.424  1.00 20.00    -0.369 OA
ENDROOT
TORSDOF 0
ENDMDL
