MODEL 1
REMARK VINA RESULT:      -3.3      0.000      0.000
REMARK  1 active torsions:
REMARK  status: ('A' for Active; 'I' for Inactive)
REMARK    1  A    between atoms: C4_4  and  S9_9 
ROOT
HETATM    1  C1  UNL     1     -24.231  17.797  10.092  1.00 20.00     0.025 C 
HETATM    2  C2  UNL     1     -22.092  19.159   9.846  1.00 20.00     0.088 C 
HETATM    3  C3  UNL     1     -23.178  18.568  12.330  1.00 20.00     0.082 C 
HETATM    4  C4  UNL     1     -23.599  19.095   9.577  1.00 20.00     0.054 C 
HETATM    5  C5  UNL     1     -24.294  17.742  11.645  1.00 20.00    -0.038 C 
HETATM    6  C6  UNL     1     -24.211  16.268  12.090  1.00 20.00     0.015 C 
HETATM    7  C7  UNL     1     -25.652  18.300  12.119  1.00 20.00     0.015 C 
HETATM    8  S8  UNL     1     -21.582  18.493  11.467  1.00 20.00    -0.167 SA
ENDROOT
BRANCH   4   9
HETATM    9  S9  UNL     1     -23.887  19.262   7.778  1.00 20.00    -0.177 SA
HETATM   10  H23 UNL     1     -22.693  18.780   7.415  1.00 20.00     0.102 HD
ENDBRANCH   4   9
TORSDOF 1
ENDMDL
MODEL 2
REMARK VINA RESULT:      -3.2     15.798     16.860
REMARK  1 active torsions:
REMARK  status: ('A' for Active; 'I' for Inactive)
REMARK    1  A    between atoms: C4_4  and  S9_9 
ROOT
HETATM    1  C1  UNL     1     -34.148   7.417   4.744  1.00 20.00     0.025 C 
HETATM    2  C2  UNL     1     -32.175   7.137   3.157  1.00 20.00     0.088 C 
HETATM    3  C3  UNL     1     -33.636   4.966   4.081  1.00 20.00     0.082 C 
HETATM    4  C4  UNL     1     -32.636   7.576   4.551  1.00 20.00     0.054 C 
HETATM    5  C5  UNL     1     -34.581   5.927   4.841  1.00 20.00    -0.038 C 
HETATM    6  C6  UNL     1     -36.019   5.794   4.300  1.00 20.00     0.015 C 
HETATM    7  C7  UNL     1     -34.596   5.497   6.324  1.00 20.00     0.015 C 
HETATM    8  S8  UNL     1     -33.011   5.646   2.517  1.00 20.00    -0.167 SA
ENDROOT
BRANCH   4   9
HETATM    9  S9  UNL     1     -32.150   9.320   4.812  1.00 20.00    -0.177 SA
HETATM   10  H23 UNL     1     -33.024   9.547   5.799  1.00 20.00     0.102 HD
ENDBRANCH   4   9
TORSDOF 1
ENDMDL
MODEL 3
REMARK VINA RESULT:      -3.1     15.514     16.856
REMARK  1 active torsions:
REMARK  status: ('A' for Active; 'I' for Inactive)
REMARK    1  A    between atoms: C4_4  and  S9_9 
ROOT
HETATM    1  C1  UNL     1     -32.974  16.749  -2.388  1.00 20.00     0.025 C 
HETATM    2  C2  UNL     1     -33.820  17.593  -4.638  1.00 20.00     0.088 C 
HETATM    3  C3  UNL     1     -33.829  19.194  -2.372  1.00 20.00     0.082 C 
HETATM    4  C4  UNL     1     -34.026  16.598  -3.491  1.00 20.00     0.054 C 
HETATM    5  C5  UNL     1     -33.157  18.056  -1.566  1.00 20.00    -0.038 C 
HETATM    6  C6  UNL     1     -31.778  18.514  -1.051  1.00 20.00     0.015 C 
HETATM    7  C7  UNL     1     -34.044  17.763  -0.337  1.00 20.00     0.015 C 
HETATM    8  S8  UNL     1     -33.305  19.263  -4.110  1.00 20.00    -0.167 SA
ENDROOT
BRANCH   4   9
HETATM    9  S9  UNL     1     -33.987  14.899  -4.168  1.00 20.00    -0.177 SA
HETATM   10  H23 UNL     1     -35.065  15.048  -4.945  1.00 20.00     0.102 HD
ENDBRANCH   4   9
TORSDOF 1
ENDMDL
MODEL 4
REMARK VINA RESULT:      -2.7     18.205     19.540
REMARK  1 active torsions:
REMARK  status: ('A' for Active; 'I' for Inactive)
REMARK    1  A    between atoms: C4_4  and  S9_9 
ROOT
HETATM    1  C1  UNL     1     -34.467  17.340  -5.486  1.00 20.00     0.025 C 
HETATM    2  C2  UNL     1     -33.414  16.294  -3.415  1.00 20.00     0.088 C 
HETATM    3  C3  UNL     1     -35.004  14.828  -5.153  1.00 20.00     0.082 C 
HETATM    4  C4  UNL     1     -34.410  17.326  -3.955  1.00 20.00     0.054 C 
HETATM    5  C5  UNL     1     -35.149  16.069  -6.067  1.00 20.00    -0.038 C 
HETATM    6  C6  UNL     1     -34.549  15.777  -7.456  1.00 20.00     0.015 C 
HETATM    7  C7  UNL     1     -36.657  16.341  -6.254  1.00 20.00     0.015 C 
HETATM    8  S8  UNL     1     -33.389  14.714  -4.329  1.00 20.00    -0.167 SA
ENDROOT
BRANCH   4   9
HETATM    9  S9  UNL     1     -33.944  18.981  -3.329  1.00 20.00    -0.177 SA
HETATM   10  H23 UNL     1     -34.438  18.794  -2.100  1.00 20.00     0.102 HD
ENDBRANCH   4   9
TORSDOF 1
ENDMDL
MODEL 5
REMARK VINA RESULT:      -2.7     18.748     20.115
REMARK  1 active torsions:
REMARK  status: ('A' for Active; 'I' for Inactive)
REMARK    1  A    between atoms: C4_4  and  S9_9 
ROOT
HETATM    1  C1  UNL     1     -35.238  16.542  -4.838  1.00 20.00     0.025 C 
HETATM    2  C2  UNL     1     -34.664  17.825  -6.963  1.00 20.00     0.088 C 
HETATM    3  C3  UNL     1     -34.039  15.139  -6.656  1.00 20.00     0.082 C 
HETATM    4  C4  UNL     1     -34.419  17.679  -5.457  1.00 20.00     0.054 C 
HETATM    5  C5  UNL     1     -34.728  15.138  -5.270  1.00 20.00    -0.038 C 
HETATM    6  C6  UNL     1     -35.918  14.158  -5.270  1.00 20.00     0.015 C 
HETATM    7  C7  UNL     1     -33.701  14.630  -4.234  1.00 20.00     0.015 C 
HETATM    8  S8  UNL     1     -34.829  16.245  -7.861  1.00 20.00    -0.167 SA
ENDROOT
BRANCH   4   9
HETATM    9  S9  UNL     1     -34.823  19.263  -4.636  1.00 20.00    -0.177 SA
HETATM   10  H23 UNL     1     -35.318  19.849  -5.731  1.00 20.00     0.102 HD
ENDBRANCH   4   9
TORSDOF 1
ENDMDL
MODEL 6
REMARK VINA RESULT:      -2.6     17.298     18.619
REMARK  1 active torsions:
REMARK  status: ('A' for Active; 'I' for Inactive)
REMARK    1  A    between atoms: C4_4  and  S9_9 
ROOT
HETATM    1  C1  UNL     1     -35.127  17.521  -3.787  1.00 20.00     0.025 C 
HETATM    2  C2  UNL     1     -35.276  15.490  -5.318  1.00 20.00     0.088 C 
HETATM    3  C3  UNL     1     -32.961  16.107  -3.918  1.00 20.00     0.082 C 
HETATM    4  C4  UNL     1     -35.304  17.020  -5.224  1.00 20.00     0.054 C 
HETATM    5  C5  UNL     1     -33.681  17.307  -3.257  1.00 20.00    -0.038 C 
HETATM    6  C6  UNL     1     -33.738  17.114  -1.729  1.00 20.00     0.015 C 
HETATM    7  C7  UNL     1     -32.843  18.572  -3.540  1.00 20.00     0.015 C 
HETATM    8  S8  UNL     1     -34.049  14.687  -4.231  1.00 20.00    -0.167 SA
ENDROOT
BRANCH   4   9
HETATM    9  S9  UNL     1     -36.890  17.624  -5.909  1.00 20.00    -0.177 SA
HETATM   10  H23 UNL     1     -37.432  16.411  -6.059  1.00 20.00     0.102 HD
ENDBRANCH   4   9
TORSDOF 1
ENDMDL
MODEL 7
REMARK VINA RESULT:      -2.6     18.097     19.096
REMARK  1 active torsions:
REMARK  status: ('A' for Active; 'I' for Inactive)
REMARK    1  A    between atoms: C4_4  and  S9_9 
ROOT
HETATM    1  C1  UNL     1     -41.938  14.263   5.505  1.00 20.00     0.025 C 
HETATM    2  C2  UNL     1     -41.701  16.481   6.735  1.00 20.00     0.088 C 
HETATM    3  C3  UNL     1     -41.284  14.048   8.002  1.00 20.00     0.082 C 
HETATM    4  C4  UNL     1     -42.650  15.525   6.005  1.00 20.00     0.054 C 
HETATM    5  C5  UNL     1     -41.533  13.310   6.664  1.00 20.00    -0.038 C 
HETATM    6  C6  UNL     1     -40.269  12.533   6.246  1.00 20.00     0.015 C 
HETATM    7  C7  UNL     1     -42.661  12.283   6.896  1.00 20.00     0.015 C 
HETATM    8  S8  UNL     1     -40.470  15.660   7.804  1.00 20.00    -0.167 SA
ENDROOT
BRANCH   4   9
HETATM    9  S9  UNL     1     -43.417  16.411   4.601  1.00 20.00    -0.177 SA
HETATM   10  H23 UNL     1     -42.958  17.618   4.949  1.00 20.00     0.102 HD
ENDBRANCH   4   9
TORSDOF 1
ENDMDL
MODEL 8
REMARK VINA RESULT:      -2.6     18.157     19.572
REMARK  1 active torsions:
REMARK  status: ('A' for Active; 'I' for Inactive)
REMARK    1  A    between atoms: C4_4  and  S9_9 
ROOT
HETATM    1  C1  UNL     1     -34.422  15.752  -4.186  1.00 20.00     0.025 C 
HETATM    2  C2  UNL     1     -35.235  18.125  -3.739  1.00 20.00     0.088 C 
HETATM    3  C3  UNL     1     -35.630  16.874  -6.184  1.00 20.00     0.082 C 
HETATM    4  C4  UNL     1     -34.022  17.198  -3.873  1.00 20.00     0.054 C 
HETATM    5  C5  UNL     1     -34.971  15.587  -5.631  1.00 20.00    -0.038 C 
HETATM    6  C6  UNL     1     -35.984  14.425  -5.645  1.00 20.00     0.015 C 
HETATM    7  C7  UNL     1     -33.810  15.209  -6.575  1.00 20.00     0.015 C 
HETATM    8  S8  UNL     1     -36.572  17.802  -4.939  1.00 20.00    -0.167 SA
ENDROOT
BRANCH   4   9
HETATM    9  S9  UNL     1     -33.057  17.260  -2.320  1.00 20.00    -0.177 SA
HETATM   10  H23 UNL     1     -34.102  17.045  -1.514  1.00 20.00     0.102 HD
ENDBRANCH   4   9
TORSDOF 1
ENDMDL
MODEL 9
REMARK VINA RESULT:      -2.6     18.004     19.253
REMARK  1 active torsions:
REMARK  status: ('A' for Active; 'I' for Inactive)
REMARK    1  A    between atoms: C4_4  and  S9_9 
ROOT
HETATM    1  C1  UNL     1     -40.801  14.470   6.987  1.00 20.00     0.025 C 
HETATM    2  C2  UNL     1     -42.597  14.713   8.778  1.00 20.00     0.088 C 
HETATM    3  C3  UNL     1     -42.935  13.062   6.574  1.00 20.00     0.082 C 
HETATM    4  C4  UNL     1     -41.796  15.412   7.674  1.00 20.00     0.054 C 
HETATM    5  C5  UNL     1     -41.506  13.410   6.095  1.00 20.00    -0.038 C 
HETATM    6  C6  UNL     1     -40.635  12.138   6.057  1.00 20.00     0.015 C 
HETATM    7  C7  UNL     1     -41.611  13.949   4.652  1.00 20.00     0.015 C 
HETATM    8  S8  UNL     1     -43.103  13.005   8.382  1.00 20.00    -0.167 SA
ENDROOT
BRANCH   4   9
HETATM    9  S9  UNL     1     -40.911  16.840   8.399  1.00 20.00    -0.177 SA
HETATM   10  H23 UNL     1     -41.745  16.991   9.435  1.00 20.00     0.102 HD
ENDBRANCH   4   9
TORSDOF 1
ENDMDL
