MODEL 1
REMARK VINA RESULT:      -3.9      0.000      0.000
REMARK  3 active torsions:
REMARK  status: ('A' for Active; 'I' for Inactive)
REMARK    1  A    between atoms: C4_4  and  C7_7 
REMARK    2  A    between atoms: C4_4  and  O9_9 
REMARK    3  A    between atoms: C7_7  and  C8_8 
ROOT
HETATM    1  C1  UNL     1     -34.505  16.749  -5.909  1.00 20.00     0.053 C 
HETATM    2  C2  UNL     1     -35.763  14.657  -6.066  1.00 20.00     0.112 C 
HETATM    3  C3  UNL     1     -35.811  17.245  -5.299  1.00 20.00     0.046 C 
HETATM    4  C4  UNL     1     -34.411  15.240  -5.653  1.00 20.00     0.067 C 
HETATM    5  C5  UNL     1     -36.268  18.567  -5.892  1.00 20.00     0.021 C 
HETATM    6  S10 UNL     1     -37.007  15.914  -5.645  1.00 20.00    -0.162 SA
ENDROOT
BRANCH   4   7
HETATM    7  C7  UNL     1     -34.051  14.908  -4.203  1.00 20.00     0.038 C 
BRANCH   7   8
HETATM    8  C8  UNL     1     -32.995  15.866  -3.663  1.00 20.00    -0.002 C 
HETATM    9  C6  UNL     1     -33.475  16.561  -2.399  1.00 20.00     0.005 C 
ENDBRANCH   7   8
ENDBRANCH   4   7
BRANCH   4  10
HETATM   10  O9  UNL     1     -33.380  14.688  -6.471  1.00 20.00    -0.389 OA
HETATM   11  H26 UNL     1     -33.045  15.414  -7.019  1.00 20.00     0.210 HD
ENDBRANCH   4  10
TORSDOF 3
ENDMDL
MODEL 2
REMARK VINA RESULT:      -3.8      1.696      2.076
REMARK  3 active torsions:
REMARK  status: ('A' for Active; 'I' for Inactive)
REMARK    1  A    between atoms: C4_4  and  C7_7 
REMARK    2  A    between atoms: C4_4  and  O9_9 
REMARK    3  A    between atoms: C7_7  and  C8_8 
ROOT
HETATM    1  C1  UNL     1     -33.873  15.373  -6.290  1.00 20.00     0.053 C 
HETATM    2  C2  UNL     1     -34.554  14.196  -4.257  1.00 20.00     0.112 C 
HETATM    3  C3  UNL     1     -35.381  15.536  -6.449  1.00 20.00     0.046 C 
HETATM    4  C4  UNL     1     -33.572  15.238  -4.793  1.00 20.00     0.067 C 
HETATM    5  C5  UNL     1     -35.864  15.183  -7.846  1.00 20.00     0.021 C 
HETATM    6  S10 UNL     1     -36.092  14.417  -5.199  1.00 20.00    -0.162 SA
ENDROOT
BRANCH   4   7
HETATM    7  C7  UNL     1     -33.671  16.571  -4.047  1.00 20.00     0.038 C 
BRANCH   7   8
HETATM    8  C8  UNL     1     -33.505  16.377  -2.544  1.00 20.00    -0.002 C 
HETATM    9  C6  UNL     1     -32.941  17.626  -1.885  1.00 20.00     0.005 C 
ENDBRANCH   7   8
ENDBRANCH   4   7
BRANCH   4  10
HETATM   10  O9  UNL     1     -32.234  14.769  -4.624  1.00 20.00    -0.389 OA
HETATM   11  H26 UNL     1     -31.789  14.895  -5.475  1.00 20.00     0.210 HD
ENDBRANCH   4  10
TORSDOF 3
ENDMDL
MODEL 3
REMARK VINA RESULT:      -3.7      3.664      5.136
REMARK  3 active torsions:
REMARK  status: ('A' for Active; 'I' for Inactive)
REMARK    1  A    between atoms: C4_4  and  C7_7 
REMARK    2  A    between atoms: C4_4  and  O9_9 
REMARK    3  A    between atoms: C7_7  and  C8_8 
ROOT
HETATM    1  C1  UNL     1     -33.467  16.915  -1.671  1.00 20.00     0.053 C 
HETATM    2  C2  UNL     1     -34.908  18.877  -1.910  1.00 20.00     0.112 C 
HETATM    3  C3  UNL     1     -33.369  17.063  -3.186  1.00 20.00     0.046 C 
HETATM    4  C4  UNL     1     -33.758  18.300  -1.083  1.00 20.00     0.067 C 
HETATM    5  C5  UNL     1     -33.582  15.749  -3.917  1.00 20.00     0.021 C 
HETATM    6  S10 UNL     1     -34.663  18.275  -3.607  1.00 20.00    -0.162 SA
ENDROOT
BRANCH   4   7
HETATM    7  C7  UNL     1     -32.528  19.212  -1.078  1.00 20.00     0.038 C 
BRANCH   7   8
HETATM    8  C8  UNL     1     -31.337  18.527  -0.417  1.00 20.00    -0.002 C 
HETATM    9  C6  UNL     1     -30.910  19.260   0.845  1.00 20.00     0.005 C 
ENDBRANCH   7   8
ENDBRANCH   4   7
BRANCH   4  10
HETATM   10  O9  UNL     1     -34.170  18.155   0.277  1.00 20.00    -0.389 OA
HETATM   11  H26 UNL     1     -33.664  17.413   0.640  1.00 20.00     0.210 HD
ENDBRANCH   4  10
TORSDOF 3
ENDMDL
MODEL 4
REMARK VINA RESULT:      -3.7     12.620     13.752
REMARK  3 active torsions:
REMARK  status: ('A' for Active; 'I' for Inactive)
REMARK    1  A    between atoms: C4_4  and  C7_7 
REMARK    2  A    between atoms: C4_4  and  O9_9 
REMARK    3  A    between atoms: C7_7  and  C8_8 
ROOT
HETATM    1  C1  UNL     1     -40.502  14.543   6.807  1.00 20.00     0.053 C 
HETATM    2  C2  UNL     1     -42.683  13.436   6.778  1.00 20.00     0.112 C 
HETATM    3  C3  UNL     1     -40.612  14.261   8.301  1.00 20.00     0.046 C 
HETATM    4  C4  UNL     1     -41.330  13.485   6.067  1.00 20.00     0.067 C 
HETATM    5  C5  UNL     1     -40.278  15.474   9.152  1.00 20.00     0.021 C 
HETATM    6  S10 UNL     1     -42.343  13.741   8.537  1.00 20.00    -0.162 SA
ENDROOT
BRANCH   4   7
HETATM    7  C7  UNL     1     -40.642  12.118   6.026  1.00 20.00     0.038 C 
BRANCH   7   8
HETATM    8  C8  UNL     1     -39.198  12.241   5.551  1.00 20.00    -0.002 C 
HETATM    9  C6  UNL     1     -39.014  11.614   4.178  1.00 20.00     0.005 C 
ENDBRANCH   7   8
ENDBRANCH   4   7
BRANCH   4  10
HETATM   10  O9  UNL     1     -41.513  13.896   4.713  1.00 20.00    -0.389 OA
HETATM   11  H26 UNL     1     -42.145  13.276   4.320  1.00 20.00     0.210 HD
ENDBRANCH   4  10
TORSDOF 3
ENDMDL
MODEL 5
REMARK VINA RESULT:      -3.7     12.645     13.610
REMARK  3 active torsions:
REMARK  status: ('A' for Active; 'I' for Inactive)
REMARK    1  A    between atoms: C4_4  and  C7_7 
REMARK    2  A    between atoms: C4_4  and  O9_9 
REMARK    3  A    between atoms: C7_7  and  C8_8 
ROOT
HETATM    1  C1  UNL     1     -42.638  14.213   6.416  1.00 20.00     0.053 C 
HETATM    2  C2  UNL     1     -40.592  13.808   7.693  1.00 20.00     0.112 C 
HETATM    3  C3  UNL     1     -42.067  15.626   6.348  1.00 20.00     0.046 C 
HETATM    4  C4  UNL     1     -41.464  13.240   6.573  1.00 20.00     0.067 C 
HETATM    5  C5  UNL     1     -43.096  16.690   6.692  1.00 20.00     0.021 C 
HETATM    6  S10 UNL     1     -40.695  15.617   7.548  1.00 20.00    -0.162 SA
ENDROOT
BRANCH   4   7
HETATM    7  C7  UNL     1     -40.684  13.039   5.271  1.00 20.00     0.038 C 
BRANCH   7   8
HETATM    8  C8  UNL     1     -39.700  11.881   5.391  1.00 20.00    -0.002 C 
HETATM    9  C6  UNL     1     -38.950  11.657   4.087  1.00 20.00     0.005 C 
ENDBRANCH   7   8
ENDBRANCH   4   7
BRANCH   4  10
HETATM   10  O9  UNL     1     -41.965  11.960   6.957  1.00 20.00    -0.389 OA
HETATM   11  H26 UNL     1     -42.211  11.504   6.138  1.00 20.00     0.210 HD
ENDBRANCH   4  10
TORSDOF 3
ENDMDL
MODEL 6
REMARK VINA RESULT:      -3.7      3.309      5.046
REMARK  3 active torsions:
REMARK  status: ('A' for Active; 'I' for Inactive)
REMARK    1  A    between atoms: C4_4  and  C7_7 
REMARK    2  A    between atoms: C4_4  and  O9_9 
REMARK    3  A    between atoms: C7_7  and  C8_8 
ROOT
HETATM    1  C1  UNL     1     -32.191  18.391  -1.579  1.00 20.00     0.053 C 
HETATM    2  C2  UNL     1     -34.532  18.761  -2.183  1.00 20.00     0.112 C 
HETATM    3  C3  UNL     1     -32.775  18.380  -0.169  1.00 20.00     0.046 C 
HETATM    4  C4  UNL     1     -33.293  17.941  -2.545  1.00 20.00     0.067 C 
HETATM    5  C5  UNL     1     -31.990  19.254   0.795  1.00 20.00     0.021 C 
HETATM    6  S10 UNL     1     -34.479  18.991  -0.381  1.00 20.00    -0.162 SA
ENDROOT
BRANCH   4   7
HETATM    7  C7  UNL     1     -33.553  16.434  -2.487  1.00 20.00     0.038 C 
BRANCH   7   8
HETATM    8  C8  UNL     1     -33.106  15.746  -3.773  1.00 20.00    -0.002 C 
HETATM    9  C6  UNL     1     -34.001  14.564  -4.106  1.00 20.00     0.005 C 
ENDBRANCH   7   8
ENDBRANCH   4   7
BRANCH   4  10
HETATM   10  O9  UNL     1     -32.894  18.240  -3.883  1.00 20.00    -0.389 OA
HETATM   11  H26 UNL     1     -32.148  17.655  -4.085  1.00 20.00     0.210 HD
ENDBRANCH   4  10
TORSDOF 3
ENDMDL
MODEL 7
REMARK VINA RESULT:      -3.6      3.955      5.907
REMARK  3 active torsions:
REMARK  status: ('A' for Active; 'I' for Inactive)
REMARK    1  A    between atoms: C4_4  and  C7_7 
REMARK    2  A    between atoms: C4_4  and  O9_9 
REMARK    3  A    between atoms: C7_7  and  C8_8 
ROOT
HETATM    1  C1  UNL     1     -31.841  18.633  -0.713  1.00 20.00     0.053 C 
HETATM    2  C2  UNL     1     -34.182  19.226  -1.103  1.00 20.00     0.112 C 
HETATM    3  C3  UNL     1     -32.373  18.311   0.680  1.00 20.00     0.046 C 
HETATM    4  C4  UNL     1     -32.998  18.468  -1.705  1.00 20.00     0.067 C 
HETATM    5  C5  UNL     1     -31.512  18.900   1.785  1.00 20.00     0.021 C 
HETATM    6  S10 UNL     1     -34.052  19.019   0.698  1.00 20.00    -0.162 SA
ENDROOT
BRANCH   4   7
HETATM    7  C7  UNL     1     -33.328  17.001  -1.992  1.00 20.00     0.038 C 
BRANCH   7   8
HETATM    8  C8  UNL     1     -33.306  16.712  -3.489  1.00 20.00    -0.002 C 
HETATM    9  C6  UNL     1     -33.625  15.253  -3.773  1.00 20.00     0.005 C 
ENDBRANCH   7   8
ENDBRANCH   4   7
BRANCH   4  10
HETATM   10  O9  UNL     1     -32.633  19.060  -2.952  1.00 20.00    -0.389 OA
HETATM   11  H26 UNL     1     -32.480  20.000  -2.777  1.00 20.00     0.210 HD
ENDBRANCH   4  10
TORSDOF 3
ENDMDL
MODEL 8
REMARK VINA RESULT:      -3.4      1.568      3.305
REMARK  3 active torsions:
REMARK  status: ('A' for Active; 'I' for Inactive)
REMARK    1  A    between atoms: C4_4  and  C7_7 
REMARK    2  A    between atoms: C4_4  and  O9_9 
REMARK    3  A    between atoms: C7_7  and  C8_8 
ROOT
HETATM    1  C1  UNL     1     -33.423  15.488  -4.162  1.00 20.00     0.053 C 
HETATM    2  C2  UNL     1     -34.242  16.926  -5.963  1.00 20.00     0.112 C 
HETATM    3  C3  UNL     1     -34.036  16.581  -3.293  1.00 20.00     0.046 C 
HETATM    4  C4  UNL     1     -34.177  15.471  -5.497  1.00 20.00     0.067 C 
HETATM    5  C5  UNL     1     -33.103  17.041  -2.186  1.00 20.00     0.021 C 
HETATM    6  S10 UNL     1     -34.401  17.933  -4.459  1.00 20.00    -0.162 SA
ENDROOT
BRANCH   4   7
HETATM    7  C7  UNL     1     -35.563  14.831  -5.385  1.00 20.00     0.038 C 
BRANCH   7   8
HETATM    8  C8  UNL     1     -36.597  15.609  -6.192  1.00 20.00    -0.002 C 
HETATM    9  C6  UNL     1     -37.721  16.119  -5.304  1.00 20.00     0.005 C 
ENDBRANCH   7   8
ENDBRANCH   4   7
BRANCH   4  10
HETATM   10  O9  UNL     1     -33.440  14.696  -6.442  1.00 20.00    -0.389 OA
HETATM   11  H26 UNL     1     -33.999  13.939  -6.673  1.00 20.00     0.210 HD
ENDBRANCH   4  10
TORSDOF 3
ENDMDL
MODEL 9
REMARK VINA RESULT:      -3.1      1.644      1.917
REMARK  3 active torsions:
REMARK  status: ('A' for Active; 'I' for Inactive)
REMARK    1  A    between atoms: C4_4  and  C7_7 
REMARK    2  A    between atoms: C4_4  and  O9_9 
REMARK    3  A    between atoms: C7_7  and  C8_8 
ROOT
HETATM    1  C1  UNL     1     -35.865  17.317  -5.053  1.00 20.00     0.053 C 
HETATM    2  C2  UNL     1     -34.357  16.133  -6.571  1.00 20.00     0.112 C 
HETATM    3  C3  UNL     1     -36.799  16.170  -5.422  1.00 20.00     0.046 C 
HETATM    4  C4  UNL     1     -34.424  16.816  -5.204  1.00 20.00     0.067 C 
HETATM    5  C5  UNL     1     -38.192  16.648  -5.797  1.00 20.00     0.021 C 
HETATM    6  S10 UNL     1     -35.977  15.351  -6.827  1.00 20.00    -0.162 SA
ENDROOT
BRANCH   4   7
HETATM    7  C7  UNL     1     -33.998  15.886  -4.065  1.00 20.00     0.038 C 
BRANCH   7   8
HETATM    8  C8  UNL     1     -32.980  16.561  -3.153  1.00 20.00    -0.002 C 
HETATM    9  C6  UNL     1     -33.607  16.957  -1.825  1.00 20.00     0.005 C 
ENDBRANCH   7   8
ENDBRANCH   4   7
BRANCH   4  10
HETATM   10  O9  UNL     1     -33.534  17.932  -5.180  1.00 20.00    -0.389 OA
HETATM   11  H26 UNL     1     -32.779  17.694  -5.739  1.00 20.00     0.210 HD
ENDBRANCH   4  10
TORSDOF 3
ENDMDL
