MODEL 1
REMARK VINA RESULT:      -3.3      0.000      0.000
REMARK  0 active torsions:
REMARK  status: ('A' for Active; 'I' for Inactive)
ROOT
HETATM    1  C1  UNL     1     -35.199  14.058  -4.726  1.00 20.00     0.086 C 
HETATM    2  C2  UNL     1     -35.022  16.548  -4.877  1.00 20.00     0.056 C 
HETATM    3  C3  UNL     1     -34.029  15.156  -6.629  1.00 20.00     0.115 C 
HETATM    4  C4  UNL     1     -36.056  16.825  -5.976  1.00 20.00     0.046 C 
HETATM    5  C5  UNL     1     -34.359  15.193  -5.141  1.00 20.00     0.135 C 
HETATM    6  C6  UNL     1     -37.461  16.344  -5.640  1.00 20.00     0.021 C 
HETATM    7  N7  UNL     1     -35.861  13.164  -4.399  1.00 20.00    -0.195 NA
HETATM    8  S8  UNL     1     -35.426  15.972  -7.460  1.00 20.00    -0.162 SA
HETATM    9 CL9  UNL     1     -32.852  15.054  -4.180  1.00 20.00    -0.102 Cl
ENDROOT
TORSDOF 0
ENDMDL
MODEL 2
REMARK VINA RESULT:      -3.1      2.536      2.977
REMARK  0 active torsions:
REMARK  status: ('A' for Active; 'I' for Inactive)
ROOT
HETATM    1  C1  UNL     1     -34.188  15.210  -6.432  1.00 20.00     0.086 C 
HETATM    2  C2  UNL     1     -35.739  16.616  -5.063  1.00 20.00     0.056 C 
HETATM    3  C3  UNL     1     -33.905  15.419  -3.968  1.00 20.00     0.115 C 
HETATM    4  C4  UNL     1     -34.835  17.824  -4.788  1.00 20.00     0.046 C 
HETATM    5  C5  UNL     1     -34.878  15.351  -5.140  1.00 20.00     0.135 C 
HETATM    6  C6  UNL     1     -34.341  18.528  -6.046  1.00 20.00     0.021 C 
HETATM    7  N7  UNL     1     -33.644  15.099  -7.450  1.00 20.00    -0.195 NA
HETATM    8  S8  UNL     1     -33.428  17.169  -3.830  1.00 20.00    -0.162 SA
HETATM    9 CL9  UNL     1     -35.915  13.897  -4.986  1.00 20.00    -0.102 Cl
ENDROOT
TORSDOF 0
ENDMDL
MODEL 3
REMARK VINA RESULT:      -3.1      2.016      2.387
REMARK  0 active torsions:
REMARK  status: ('A' for Active; 'I' for Inactive)
ROOT
HETATM    1  C1  UNL     1     -34.150  15.279  -6.637  1.00 20.00     0.086 C 
HETATM    2  C2  UNL     1     -36.373  15.328  -5.489  1.00 20.00     0.056 C 
HETATM    3  C3  UNL     1     -34.640  16.932  -4.842  1.00 20.00     0.115 C 
HETATM    4  C4  UNL     1     -36.985  16.573  -6.143  1.00 20.00     0.046 C 
HETATM    5  C5  UNL     1     -34.857  15.518  -5.368  1.00 20.00     0.135 C 
HETATM    6  C6  UNL     1     -37.097  16.486  -7.659  1.00 20.00     0.021 C 
HETATM    7  N7  UNL     1     -33.594  15.090  -7.637  1.00 20.00    -0.195 NA
HETATM    8  S8  UNL     1     -35.900  17.957  -5.661  1.00 20.00    -0.162 SA
HETATM    9 CL9  UNL     1     -34.184  14.328  -4.210  1.00 20.00    -0.102 Cl
ENDROOT
TORSDOF 0
ENDMDL
MODEL 4
REMARK VINA RESULT:      -3.0      2.215      2.890
REMARK  0 active torsions:
REMARK  status: ('A' for Active; 'I' for Inactive)
ROOT
HETATM    1  C1  UNL     1     -35.808  14.212  -5.156  1.00 20.00     0.086 C 
HETATM    2  C2  UNL     1     -34.227  15.981  -5.950  1.00 20.00     0.056 C 
HETATM    3  C3  UNL     1     -36.588  16.532  -5.609  1.00 20.00     0.115 C 
HETATM    4  C4  UNL     1     -34.067  16.797  -4.662  1.00 20.00     0.046 C 
HETATM    5  C5  UNL     1     -35.644  15.402  -6.007  1.00 20.00     0.135 C 
HETATM    6  C6  UNL     1     -33.527  15.996  -3.484  1.00 20.00     0.021 C 
HETATM    7  N7  UNL     1     -35.936  13.275  -4.486  1.00 20.00    -0.195 NA
HETATM    8  S8  UNL     1     -35.731  17.441  -4.286  1.00 20.00    -0.162 SA
HETATM    9 CL9  UNL     1     -36.015  14.859  -7.674  1.00 20.00    -0.102 Cl
ENDROOT
TORSDOF 0
ENDMDL
MODEL 5
REMARK VINA RESULT:      -3.0     13.814     14.357
REMARK  0 active torsions:
REMARK  status: ('A' for Active; 'I' for Inactive)
ROOT
HETATM    1  C1  UNL     1     -40.351  12.788   6.428  1.00 20.00     0.086 C 
HETATM    2  C2  UNL     1     -41.259  15.065   6.921  1.00 20.00     0.056 C 
HETATM    3  C3  UNL     1     -42.783  13.151   6.814  1.00 20.00     0.115 C 
HETATM    4  C4  UNL     1     -41.529  14.927   8.425  1.00 20.00     0.046 C 
HETATM    5  C5  UNL     1     -41.483  13.709   6.244  1.00 20.00     0.135 C 
HETATM    6  C6  UNL     1     -40.293  14.585   9.247  1.00 20.00     0.021 C 
HETATM    7  N7  UNL     1     -39.458  12.062   6.573  1.00 20.00    -0.195 NA
HETATM    8  S8  UNL     1     -42.781  13.610   8.574  1.00 20.00    -0.162 SA
HETATM    9 CL9  UNL     1     -41.642  13.931   4.472  1.00 20.00    -0.102 Cl
ENDROOT
TORSDOF 0
ENDMDL
MODEL 6
REMARK VINA RESULT:      -3.0      4.271      5.063
REMARK  0 active torsions:
REMARK  status: ('A' for Active; 'I' for Inactive)
ROOT
HETATM    1  C1  UNL     1     -35.450  18.406  -3.151  1.00 20.00     0.086 C 
HETATM    2  C2  UNL     1     -33.567  16.892  -2.506  1.00 20.00     0.056 C 
HETATM    3  C3  UNL     1     -33.090  18.977  -3.698  1.00 20.00     0.115 C 
HETATM    4  C4  UNL     1     -32.981  17.678  -1.327  1.00 20.00     0.046 C 
HETATM    5  C5  UNL     1     -34.133  17.876  -3.535  1.00 20.00     0.135 C 
HETATM    6  C6  UNL     1     -33.968  17.922  -0.193  1.00 20.00     0.021 C 
HETATM    7  N7  UNL     1     -36.489  18.824  -2.848  1.00 20.00    -0.195 NA
HETATM    8  S8  UNL     1     -32.416  19.262  -2.033  1.00 20.00    -0.162 SA
HETATM    9 CL9  UNL     1     -34.386  17.042  -5.101  1.00 20.00    -0.102 Cl
ENDROOT
TORSDOF 0
ENDMDL
MODEL 7
REMARK VINA RESULT:      -2.9      2.121      2.807
REMARK  0 active torsions:
REMARK  status: ('A' for Active; 'I' for Inactive)
ROOT
HETATM    1  C1  UNL     1     -34.393  16.763  -4.652  1.00 20.00     0.086 C 
HETATM    2  C2  UNL     1     -33.993  15.243  -6.598  1.00 20.00     0.056 C 
HETATM    3  C3  UNL     1     -36.217  15.345  -5.578  1.00 20.00     0.115 C 
HETATM    4  C4  UNL     1     -34.695  16.035  -7.707  1.00 20.00     0.046 C 
HETATM    5  C5  UNL     1     -34.728  15.472  -5.273  1.00 20.00     0.135 C 
HETATM    6  C6  UNL     1     -34.136  17.436  -7.917  1.00 20.00     0.021 C 
HETATM    7  N7  UNL     1     -34.128  17.780  -4.163  1.00 20.00    -0.195 NA
HETATM    8  S8  UNL     1     -36.448  16.116  -7.210  1.00 20.00    -0.162 SA
HETATM    9 CL9  UNL     1     -34.244  14.223  -4.082  1.00 20.00    -0.102 Cl
ENDROOT
TORSDOF 0
ENDMDL
MODEL 8
REMARK VINA RESULT:      -2.9     13.442     13.918
REMARK  0 active torsions:
REMARK  status: ('A' for Active; 'I' for Inactive)
ROOT
HETATM    1  C1  UNL     1     -42.279  12.477   6.869  1.00 20.00     0.086 C 
HETATM    2  C2  UNL     1     -40.522  14.252   6.998  1.00 20.00     0.056 C 
HETATM    3  C3  UNL     1     -41.922  14.077   4.997  1.00 20.00     0.115 C 
HETATM    4  C4  UNL     1     -41.401  15.483   7.249  1.00 20.00     0.046 C 
HETATM    5  C5  UNL     1     -41.286  13.259   6.116  1.00 20.00     0.135 C 
HETATM    6  C6  UNL     1     -42.251  15.391   8.509  1.00 20.00     0.021 C 
HETATM    7  N7  UNL     1     -43.061  11.860   7.463  1.00 20.00    -0.195 NA
HETATM    8  S8  UNL     1     -42.461  15.631   5.773  1.00 20.00    -0.162 SA
HETATM    9 CL9  UNL     1     -40.150  12.059   5.422  1.00 20.00    -0.102 Cl
ENDROOT
TORSDOF 0
ENDMDL
MODEL 9
REMARK VINA RESULT:      -2.9      1.391      1.499
REMARK  0 active torsions:
REMARK  status: ('A' for Active; 'I' for Inactive)
ROOT
HETATM    1  C1  UNL     1     -36.057  15.108  -5.381  1.00 20.00     0.086 C 
HETATM    2  C2  UNL     1     -34.418  16.978  -5.114  1.00 20.00     0.056 C 
HETATM    3  C3  UNL     1     -34.018  15.250  -6.802  1.00 20.00     0.115 C 
HETATM    4  C4  UNL     1     -34.758  17.814  -6.353  1.00 20.00     0.046 C 
HETATM    5  C5  UNL     1     -34.638  15.495  -5.430  1.00 20.00     0.135 C 
HETATM    6  C6  UNL     1     -36.205  18.289  -6.403  1.00 20.00     0.021 C 
HETATM    7  N7  UNL     1     -37.175  14.803  -5.342  1.00 20.00    -0.195 NA
HETATM    8  S8  UNL     1     -34.390  16.738  -7.779  1.00 20.00    -0.162 SA
HETATM    9 CL9  UNL     1     -33.818  14.481  -4.201  1.00 20.00    -0.102 Cl
ENDROOT
TORSDOF 0
ENDMDL
