MODEL 1
REMARK VINA RESULT:      -3.0      0.000      0.000
REMARK  5 active torsions:
REMARK  status: ('A' for Active; 'I' for Inactive)
REMARK    1  A    between atoms: C4_4  and  C7_7 
REMARK    2  A    between atoms: C4_4  and  O8_8 
REMARK    3  A    between atoms: C5_5  and  C7_7 
REMARK    4  A    between atoms: C5_5  and  S9_9 
REMARK    5  A    between atoms: C6_6  and  C7_7 
ROOT
HETATM    1  C7  UNL     1     -32.885  18.068  -2.442  1.00 20.00     0.022 C 
ENDROOT
BRANCH   1   2
HETATM    2  C4  UNL     1     -33.392  16.611  -2.455  1.00 20.00     0.172 C 
BRANCH   2   3
HETATM    3  O8  UNL     1     -32.896  15.917  -3.594  1.00 20.00    -0.396 OA
HETATM    4  C3  UNL     1     -33.836  14.968  -4.074  1.00 20.00     0.201 C 
ENDBRANCH   2   3
ENDBRANCH   1   2
BRANCH   1   5
HETATM    5  C5  UNL     1     -33.691  18.969  -3.412  1.00 20.00     0.077 C 
BRANCH   5   6
HETATM    6  S9  UNL     1     -35.472  18.606  -3.506  1.00 20.00    -0.182 SA
HETATM    7  H25 UNL     1     -35.436  18.060  -4.730  1.00 20.00     0.101 HD
ENDBRANCH   5   6
ENDBRANCH   1   5
BRANCH   1   8
HETATM    8  C6  UNL     1     -32.780  18.631  -0.989  1.00 20.00    -0.016 C 
HETATM    9  C1  UNL     1     -33.760  17.943  -0.030  1.00 20.00     0.010 C 
HETATM   10  C2  UNL     1     -31.365  18.495  -0.413  1.00 20.00     0.010 C 
ENDBRANCH   1   8
TORSDOF 5
ENDMDL
MODEL 2
REMARK VINA RESULT:      -2.9     11.360     12.604
REMARK  5 active torsions:
REMARK  status: ('A' for Active; 'I' for Inactive)
REMARK    1  A    between atoms: C4_4  and  C7_7 
REMARK    2  A    between atoms: C4_4  and  O8_8 
REMARK    3  A    between atoms: C5_5  and  C7_7 
REMARK    4  A    between atoms: C5_5  and  S9_9 
REMARK    5  A    between atoms: C6_6  and  C7_7 
ROOT
HETATM    1  C7  UNL     1     -40.905  12.745   5.918  1.00 20.00     0.022 C 
ENDROOT
BRANCH   1   2
HETATM    2  C4  UNL     1     -40.634  13.625   7.156  1.00 20.00     0.172 C 
BRANCH   2   3
HETATM    3  O8  UNL     1     -41.544  13.311   8.204  1.00 20.00    -0.396 OA
HETATM    4  C3  UNL     1     -42.071  14.486   8.803  1.00 20.00     0.201 C 
ENDBRANCH   2   3
ENDBRANCH   1   2
BRANCH   1   5
HETATM    5  C5  UNL     1     -41.342  13.588   4.694  1.00 20.00     0.077 C 
BRANCH   5   6
HETATM    6  S9  UNL     1     -42.784  14.664   4.969  1.00 20.00    -0.182 SA
HETATM    7  H25 UNL     1     -43.313  14.498   3.749  1.00 20.00     0.101 HD
ENDBRANCH   5   6
ENDBRANCH   1   5
BRANCH   1   8
HETATM    8  C6  UNL     1     -39.719  11.771   5.630  1.00 20.00    -0.016 C 
HETATM    9  C1  UNL     1     -39.270  11.823   4.163  1.00 20.00     0.010 C 
HETATM   10  C2  UNL     1     -38.502  12.058   6.518  1.00 20.00     0.010 C 
ENDBRANCH   1   8
TORSDOF 5
ENDMDL
MODEL 3
REMARK VINA RESULT:      -2.9      2.577      3.787
REMARK  5 active torsions:
REMARK  status: ('A' for Active; 'I' for Inactive)
REMARK    1  A    between atoms: C4_4  and  C7_7 
REMARK    2  A    between atoms: C4_4  and  O8_8 
REMARK    3  A    between atoms: C5_5  and  C7_7 
REMARK    4  A    between atoms: C5_5  and  S9_9 
REMARK    5  A    between atoms: C6_6  and  C7_7 
ROOT
HETATM    1  C7  UNL     1     -34.576  16.267  -4.949  1.00 20.00     0.022 C 
ENDROOT
BRANCH   1   2
HETATM    2  C4  UNL     1     -35.565  15.309  -5.646  1.00 20.00     0.172 C 
BRANCH   2   3
HETATM    3  O8  UNL     1     -34.977  14.743  -6.812  1.00 20.00    -0.396 OA
HETATM    4  C3  UNL     1     -34.223  15.707  -7.533  1.00 20.00     0.201 C 
ENDBRANCH   2   3
ENDBRANCH   1   2
BRANCH   1   5
HETATM    5  C5  UNL     1     -35.248  17.607  -4.559  1.00 20.00     0.077 C 
BRANCH   5   6
HETATM    6  S9  UNL     1     -37.013  17.742  -4.985  1.00 20.00    -0.182 SA
HETATM    7  H25 UNL     1     -37.469  17.570  -3.737  1.00 20.00     0.101 HD
ENDBRANCH   5   6
ENDBRANCH   1   5
BRANCH   1   8
HETATM    8  C6  UNL     1     -33.824  15.566  -3.773  1.00 20.00    -0.016 C 
HETATM    9  C1  UNL     1     -32.596  14.782  -4.258  1.00 20.00     0.010 C 
HETATM   10  C2  UNL     1     -33.368  16.561  -2.698  1.00 20.00     0.010 C 
ENDBRANCH   1   8
TORSDOF 5
ENDMDL
MODEL 4
REMARK VINA RESULT:      -2.8     12.292     13.318
REMARK  5 active torsions:
REMARK  status: ('A' for Active; 'I' for Inactive)
REMARK    1  A    between atoms: C4_4  and  C7_7 
REMARK    2  A    between atoms: C4_4  and  O8_8 
REMARK    3  A    between atoms: C5_5  and  C7_7 
REMARK    4  A    between atoms: C5_5  and  S9_9 
REMARK    5  A    between atoms: C6_6  and  C7_7 
ROOT
HETATM    1  C7  UNL     1     -41.117  13.420   6.040  1.00 20.00     0.022 C 
ENDROOT
BRANCH   1   2
HETATM    2  C4  UNL     1     -40.466  14.379   7.058  1.00 20.00     0.172 C 
BRANCH   2   3
HETATM    3  O8  UNL     1     -40.122  13.685   8.252  1.00 20.00    -0.396 OA
HETATM    4  C3  UNL     1     -40.460  14.439   9.407  1.00 20.00     0.201 C 
ENDBRANCH   2   3
ENDBRANCH   1   2
BRANCH   1   5
HETATM    5  C5  UNL     1     -40.397  12.049   5.995  1.00 20.00     0.077 C 
BRANCH   5   6
HETATM    6  S9  UNL     1     -39.267  11.812   4.587  1.00 20.00    -0.182 SA
HETATM    7  H25 UNL     1     -39.145  13.113   4.290  1.00 20.00     0.101 HD
ENDBRANCH   5   6
ENDBRANCH   1   5
BRANCH   1   8
HETATM    8  C6  UNL     1     -42.662  13.321   6.245  1.00 20.00    -0.016 C 
HETATM    9  C1  UNL     1     -43.051  12.144   7.150  1.00 20.00     0.010 C 
HETATM   10  C2  UNL     1     -43.253  14.604   6.841  1.00 20.00     0.010 C 
ENDBRANCH   1   8
TORSDOF 5
ENDMDL
MODEL 5
REMARK VINA RESULT:      -2.8      2.320      2.976
REMARK  5 active torsions:
REMARK  status: ('A' for Active; 'I' for Inactive)
REMARK    1  A    between atoms: C4_4  and  C7_7 
REMARK    2  A    between atoms: C4_4  and  O8_8 
REMARK    3  A    between atoms: C5_5  and  C7_7 
REMARK    4  A    between atoms: C5_5  and  S9_9 
REMARK    5  A    between atoms: C6_6  and  C7_7 
ROOT
HETATM    1  C7  UNL     1     -33.795  16.964  -2.885  1.00 20.00     0.022 C 
ENDROOT
BRANCH   1   2
HETATM    2  C4  UNL     1     -34.338  18.030  -3.861  1.00 20.00     0.172 C 
BRANCH   2   3
HETATM    3  O8  UNL     1     -35.728  18.243  -3.648  1.00 20.00    -0.396 OA
HETATM    4  C3  UNL     1     -36.500  17.769  -4.743  1.00 20.00     0.201 C 
ENDBRANCH   2   3
ENDBRANCH   1   2
BRANCH   1   5
HETATM    5  C5  UNL     1     -33.055  15.824  -3.628  1.00 20.00     0.077 C 
BRANCH   5   6
HETATM    6  S9  UNL     1     -34.124  14.694  -4.573  1.00 20.00    -0.182 SA
HETATM    7  H25 UNL     1     -35.174  14.773  -3.745  1.00 20.00     0.101 HD
ENDBRANCH   5   6
ENDBRANCH   1   5
BRANCH   1   8
HETATM    8  C6  UNL     1     -32.971  17.609  -1.725  1.00 20.00    -0.016 C 
HETATM    9  C1  UNL     1     -32.453  19.006  -2.091  1.00 20.00     0.010 C 
HETATM   10  C2  UNL     1     -33.782  17.719  -0.427  1.00 20.00     0.010 C 
ENDBRANCH   1   8
TORSDOF 5
ENDMDL
MODEL 6
REMARK VINA RESULT:      -2.8     11.479     12.706
REMARK  5 active torsions:
REMARK  status: ('A' for Active; 'I' for Inactive)
REMARK    1  A    between atoms: C4_4  and  C7_7 
REMARK    2  A    between atoms: C4_4  and  O8_8 
REMARK    3  A    between atoms: C5_5  and  C7_7 
REMARK    4  A    between atoms: C5_5  and  S9_9 
REMARK    5  A    between atoms: C6_6  and  C7_7 
ROOT
HETATM    1  C7  UNL     1     -40.800  13.167   6.946  1.00 20.00     0.022 C 
ENDROOT
BRANCH   1   2
HETATM    2  C4  UNL     1     -39.689  12.450   6.151  1.00 20.00     0.172 C 
BRANCH   2   3
HETATM    3  O8  UNL     1     -40.053  12.327   4.780  1.00 20.00    -0.396 OA
HETATM    4  C3  UNL     1     -39.036  11.679   4.029  1.00 20.00     0.201 C 
ENDBRANCH   2   3
ENDBRANCH   1   2
BRANCH   1   5
HETATM    5  C5  UNL     1     -40.455  14.655   7.206  1.00 20.00     0.077 C 
BRANCH   5   6
HETATM    6  S9  UNL     1     -40.353  15.132   8.960  1.00 20.00    -0.182 SA
HETATM    7  H25 UNL     1     -40.193  16.443   8.735  1.00 20.00     0.101 HD
ENDBRANCH   5   6
ENDBRANCH   1   5
BRANCH   1   8
HETATM    8  C6  UNL     1     -42.207  12.942   6.306  1.00 20.00    -0.016 C 
HETATM    9  C1  UNL     1     -43.121  12.096   7.203  1.00 20.00     0.010 C 
HETATM   10  C2  UNL     1     -42.923  14.262   5.995  1.00 20.00     0.010 C 
ENDBRANCH   1   8
TORSDOF 5
ENDMDL
MODEL 7
REMARK VINA RESULT:      -2.7     11.704     12.505
REMARK  5 active torsions:
REMARK  status: ('A' for Active; 'I' for Inactive)
REMARK    1  A    between atoms: C4_4  and  C7_7 
REMARK    2  A    between atoms: C4_4  and  O8_8 
REMARK    3  A    between atoms: C5_5  and  C7_7 
REMARK    4  A    between atoms: C5_5  and  S9_9 
REMARK    5  A    between atoms: C6_6  and  C7_7 
ROOT
HETATM    1  C7  UNL     1     -33.552   7.053   4.180  1.00 20.00     0.022 C 
ENDROOT
BRANCH   1   2
HETATM    2  C4  UNL     1     -32.286   7.535   3.442  1.00 20.00     0.172 C 
BRANCH   2   3
HETATM    3  O8  UNL     1     -32.576   8.676   2.643  1.00 20.00    -0.396 OA
HETATM    4  C3  UNL     1     -32.248   8.452   1.279  1.00 20.00     0.201 C 
ENDBRANCH   2   3
ENDBRANCH   1   2
BRANCH   1   5
HETATM    5  C5  UNL     1     -33.905   5.587   3.826  1.00 20.00     0.077 C 
BRANCH   5   6
HETATM    6  S9  UNL     1     -32.954   4.873   2.447  1.00 20.00    -0.182 SA
HETATM    7  H25 UNL     1     -34.020   4.503   1.724  1.00 20.00     0.101 HD
ENDBRANCH   5   6
ENDBRANCH   1   5
BRANCH   1   8
HETATM    8  C6  UNL     1     -33.470   7.335   5.714  1.00 20.00    -0.016 C 
HETATM    9  C1  UNL     1     -33.791   8.798   6.051  1.00 20.00     0.010 C 
HETATM   10  C2  UNL     1     -34.412   6.435   6.523  1.00 20.00     0.010 C 
ENDBRANCH   1   8
TORSDOF 5
ENDMDL
MODEL 8
REMARK VINA RESULT:      -2.7      1.993      4.421
REMARK  5 active torsions:
REMARK  status: ('A' for Active; 'I' for Inactive)
REMARK    1  A    between atoms: C4_4  and  C7_7 
REMARK    2  A    between atoms: C4_4  and  O8_8 
REMARK    3  A    between atoms: C5_5  and  C7_7 
REMARK    4  A    between atoms: C5_5  and  S9_9 
REMARK    5  A    between atoms: C6_6  and  C7_7 
ROOT
HETATM    1  C7  UNL     1     -34.457  16.438  -4.559  1.00 20.00     0.022 C 
ENDROOT
BRANCH   1   2
HETATM    2  C4  UNL     1     -33.239  16.527  -3.616  1.00 20.00     0.172 C 
BRANCH   2   3
HETATM    3  O8  UNL     1     -33.616  16.217  -2.280  1.00 20.00    -0.396 OA
HETATM    4  C3  UNL     1     -33.584  17.370  -1.451  1.00 20.00     0.201 C 
ENDBRANCH   2   3
ENDBRANCH   1   2
BRANCH   1   5
HETATM    5  C5  UNL     1     -34.602  17.706  -5.438  1.00 20.00     0.077 C 
BRANCH   5   6
HETATM    6  S9  UNL     1     -33.682  19.164  -4.852  1.00 20.00    -0.182 SA
HETATM    7  H25 UNL     1     -34.308  19.255  -3.671  1.00 20.00     0.101 HD
ENDBRANCH   5   6
ENDBRANCH   1   5
BRANCH   1   8
HETATM    8  C6  UNL     1     -34.468  15.100  -5.365  1.00 20.00    -0.016 C 
HETATM    9  C1  UNL     1     -35.850  14.433  -5.360  1.00 20.00     0.010 C 
HETATM   10  C2  UNL     1     -34.030  15.295  -6.822  1.00 20.00     0.010 C 
ENDBRANCH   1   8
TORSDOF 5
ENDMDL
MODEL 9
REMARK VINA RESULT:      -2.7      3.050      4.911
REMARK  5 active torsions:
REMARK  status: ('A' for Active; 'I' for Inactive)
REMARK    1  A    between atoms: C4_4  and  C7_7 
REMARK    2  A    between atoms: C4_4  and  O8_8 
REMARK    3  A    between atoms: C5_5  and  C7_7 
REMARK    4  A    between atoms: C5_5  and  S9_9 
REMARK    5  A    between atoms: C6_6  and  C7_7 
ROOT
HETATM    1  C7  UNL     1     -34.644  16.103  -5.047  1.00 20.00     0.022 C 
ENDROOT
BRANCH   1   2
HETATM    2  C4  UNL     1     -33.765  14.864  -4.778  1.00 20.00     0.172 C 
BRANCH   2   3
HETATM    3  O8  UNL     1     -34.511  13.856  -4.106  1.00 20.00    -0.396 OA
HETATM    4  C3  UNL     1     -35.818  13.731  -4.647  1.00 20.00     0.201 C 
ENDBRANCH   2   3
ENDBRANCH   1   2
BRANCH   1   5
HETATM    5  C5  UNL     1     -34.323  17.263  -4.071  1.00 20.00     0.077 C 
BRANCH   5   6
HETATM    6  S9  UNL     1     -33.353  16.794  -2.604  1.00 20.00    -0.182 SA
HETATM    7  H25 UNL     1     -34.013  15.654  -2.362  1.00 20.00     0.101 HD
ENDBRANCH   5   6
ENDBRANCH   1   5
BRANCH   1   8
HETATM    8  C6  UNL     1     -34.618  16.514  -6.554  1.00 20.00    -0.016 C 
HETATM    9  C1  UNL     1     -33.887  15.482  -7.422  1.00 20.00     0.010 C 
HETATM   10  C2  UNL     1     -36.027  16.716  -7.126  1.00 20.00     0.010 C 
ENDBRANCH   1   8
TORSDOF 5
ENDMDL
