MODEL 1
REMARK VINA RESULT:      -3.1      0.000      0.000
REMARK  5 active torsions:
REMARK  status: ('A' for Active; 'I' for Inactive)
REMARK    1  A    between atoms: C5_5  and  C8_8 
REMARK    2  A    between atoms: C5_5  and  N9_9 
REMARK    3  A    between atoms: C6_6  and  C8_8 
REMARK    4  A    between atoms: C6_6  and  S10_10 
REMARK    5  A    between atoms: C7_7  and  C8_8 
ROOT
HETATM    1  C8  UNL     1     -33.888  16.937  -2.769  1.00 20.00     0.024 C 
ENDROOT
BRANCH   1   2
HETATM    2  C5  UNL     1     -34.637  17.945  -3.669  1.00 20.00     0.239 C 
BRANCH   2   3
HETATM    3  N9  UNL     1     -36.090  17.966  -3.379  1.00 20.00    -0.078 N 
HETATM    4  C3  UNL     1     -36.494  19.130  -2.508  1.00 20.00     0.269 C 
HETATM    5  C4  UNL     1     -36.933  17.905  -4.630  1.00 20.00     0.269 C 
HETATM    6  H29 UNL     1     -36.319  17.114  -2.839  1.00 20.00     0.278 HD
ENDBRANCH   2   3
ENDBRANCH   1   2
BRANCH   1   7
HETATM    7  C6  UNL     1     -33.060  15.899  -3.568  1.00 20.00     0.077 C 
BRANCH   7   8
HETATM    8  S10 UNL     1     -34.032  14.835  -4.683  1.00 20.00    -0.182 SA
HETATM    9  H30 UNL     1     -33.941  13.731  -3.930  1.00 20.00     0.101 HD
ENDBRANCH   7   8
ENDBRANCH   1   7
BRANCH   1  10
HETATM   10  C7  UNL     1     -32.982  17.632  -1.693  1.00 20.00    -0.016 C 
HETATM   11  C1  UNL     1     -33.693  17.799  -0.343  1.00 20.00     0.010 C 
HETATM   12  C2  UNL     1     -32.492  19.014  -2.149  1.00 20.00     0.010 C 
ENDBRANCH   1  10
TORSDOF 5
ENDMDL
MODEL 2
REMARK VINA RESULT:      -2.9      2.824      3.819
REMARK  5 active torsions:
REMARK  status: ('A' for Active; 'I' for Inactive)
REMARK    1  A    between atoms: C5_5  and  C8_8 
REMARK    2  A    between atoms: C5_5  and  N9_9 
REMARK    3  A    between atoms: C6_6  and  C8_8 
REMARK    4  A    between atoms: C6_6  and  S10_10 
REMARK    5  A    between atoms: C7_7  and  C8_8 
ROOT
HETATM    1  C8  UNL     1     -34.039  17.537  -4.446  1.00 20.00     0.024 C 
ENDROOT
BRANCH   1   2
HETATM    2  C5  UNL     1     -34.800  16.846  -5.599  1.00 20.00     0.239 C 
BRANCH   2   3
HETATM    3  N9  UNL     1     -34.088  16.992  -6.891  1.00 20.00    -0.078 N 
HETATM    4  C3  UNL     1     -34.048  15.707  -7.682  1.00 20.00     0.269 C 
HETATM    5  C4  UNL     1     -34.626  18.128  -7.726  1.00 20.00     0.269 C 
HETATM    6  H29 UNL     1     -33.102  17.231  -6.686  1.00 20.00     0.278 HD
ENDBRANCH   2   3
ENDBRANCH   1   2
BRANCH   1   7
HETATM    7  C6  UNL     1     -34.939  18.459  -3.583  1.00 20.00     0.077 C 
BRANCH   7   8
HETATM    8  S10 UNL     1     -36.695  18.492  -4.069  1.00 20.00    -0.182 SA
HETATM    9  H30 UNL     1     -36.470  18.448  -5.389  1.00 20.00     0.101 HD
ENDBRANCH   7   8
ENDBRANCH   1   7
BRANCH   1  10
HETATM   10  C7  UNL     1     -33.271  16.525  -3.525  1.00 20.00    -0.016 C 
HETATM   11  C1  UNL     1     -33.660  15.065  -3.802  1.00 20.00     0.010 C 
HETATM   12  C2  UNL     1     -33.502  16.805  -2.032  1.00 20.00     0.010 C 
ENDBRANCH   1  10
TORSDOF 5
ENDMDL
MODEL 3
REMARK VINA RESULT:      -2.9      2.333      3.857
REMARK  5 active torsions:
REMARK  status: ('A' for Active; 'I' for Inactive)
REMARK    1  A    between atoms: C5_5  and  C8_8 
REMARK    2  A    between atoms: C5_5  and  N9_9 
REMARK    3  A    between atoms: C6_6  and  C8_8 
REMARK    4  A    between atoms: C6_6  and  S10_10 
REMARK    5  A    between atoms: C7_7  and  C8_8 
ROOT
HETATM    1  C8  UNL     1     -34.821  16.671  -5.117  1.00 20.00     0.024 C 
ENDROOT
BRANCH   1   2
HETATM    2  C5  UNL     1     -33.850  17.233  -4.056  1.00 20.00     0.239 C 
BRANCH   2   3
HETATM    3  N9  UNL     1     -34.523  17.441  -2.751  1.00 20.00    -0.078 N 
HETATM    4  C3  UNL     1     -33.593  17.240  -1.579  1.00 20.00     0.269 C 
HETATM    5  C4  UNL     1     -35.227  18.773  -2.665  1.00 20.00     0.269 C 
HETATM    6  H29 UNL     1     -35.260  16.721  -2.656  1.00 20.00     0.278 HD
ENDBRANCH   2   3
ENDBRANCH   1   2
BRANCH   1   7
HETATM    7  C6  UNL     1     -34.798  17.462  -6.450  1.00 20.00     0.077 C 
BRANCH   7   8
HETATM    8  S10 UNL     1     -34.306  16.491  -7.912  1.00 20.00    -0.182 SA
HETATM    9  H30 UNL     1     -34.203  15.322  -7.268  1.00 20.00     0.101 HD
ENDBRANCH   7   8
ENDBRANCH   1   7
BRANCH   1  10
HETATM   10  C7  UNL     1     -34.603  15.143  -5.398  1.00 20.00    -0.016 C 
HETATM   11  C1  UNL     1     -35.902  14.332  -5.283  1.00 20.00     0.010 C 
HETATM   12  C2  UNL     1     -33.566  14.518  -4.452  1.00 20.00     0.010 C 
ENDBRANCH   1  10
TORSDOF 5
ENDMDL
MODEL 4
REMARK VINA RESULT:      -2.9     11.539     12.612
REMARK  5 active torsions:
REMARK  status: ('A' for Active; 'I' for Inactive)
REMARK    1  A    between atoms: C5_5  and  C8_8 
REMARK    2  A    between atoms: C5_5  and  N9_9 
REMARK    3  A    between atoms: C6_6  and  C8_8 
REMARK    4  A    between atoms: C6_6  and  S10_10 
REMARK    5  A    between atoms: C7_7  and  C8_8 
ROOT
HETATM    1  C8  UNL     1     -40.441  13.495   6.445  1.00 20.00     0.024 C 
ENDROOT
BRANCH   1   2
HETATM    2  C5  UNL     1     -40.674  13.831   7.935  1.00 20.00     0.239 C 
BRANCH   2   3
HETATM    3  N9  UNL     1     -40.050  15.121   8.311  1.00 20.00    -0.078 N 
HETATM    4  C3  UNL     1     -40.630  16.291   7.554  1.00 20.00     0.269 C 
HETATM    5  C4  UNL     1     -40.078  15.369   9.800  1.00 20.00     0.269 C 
HETATM    6  H29 UNL     1     -39.050  15.080   8.047  1.00 20.00     0.278 HD
ENDBRANCH   2   3
ENDBRANCH   1   2
BRANCH   1   7
HETATM    7  C6  UNL     1     -39.463  12.312   6.229  1.00 20.00     0.077 C 
BRANCH   7   8
HETATM    8  S10 UNL     1     -39.274  11.778   4.497  1.00 20.00    -0.182 SA
HETATM    9  H30 UNL     1     -38.041  12.276   4.336  1.00 20.00     0.101 HD
ENDBRANCH   7   8
ENDBRANCH   1   7
BRANCH   1  10
HETATM   10  C7  UNL     1     -41.774  13.239   5.659  1.00 20.00    -0.016 C 
HETATM   11  C1  UNL     1     -42.110  14.375   4.682  1.00 20.00     0.010 C 
HETATM   12  C2  UNL     1     -42.976  13.046   6.597  1.00 20.00     0.010 C 
ENDBRANCH   1  10
TORSDOF 5
ENDMDL
MODEL 5
REMARK VINA RESULT:      -2.9      1.729      2.627
REMARK  5 active torsions:
REMARK  status: ('A' for Active; 'I' for Inactive)
REMARK    1  A    between atoms: C5_5  and  C8_8 
REMARK    2  A    between atoms: C5_5  and  N9_9 
REMARK    3  A    between atoms: C6_6  and  C8_8 
REMARK    4  A    between atoms: C6_6  and  S10_10 
REMARK    5  A    between atoms: C7_7  and  C8_8 
ROOT
HETATM    1  C8  UNL     1     -34.891  16.756  -4.763  1.00 20.00     0.024 C 
ENDROOT
BRANCH   1   2
HETATM    2  C5  UNL     1     -35.219  18.104  -4.085  1.00 20.00     0.239 C 
BRANCH   2   3
HETATM    3  N9  UNL     1     -36.536  18.071  -3.405  1.00 20.00    -0.078 N 
HETATM    4  C3  UNL     1     -36.711  19.203  -2.421  1.00 20.00     0.269 C 
HETATM    5  C4  UNL     1     -37.690  18.011  -4.376  1.00 20.00     0.269 C 
HETATM    6  H29 UNL     1     -36.585  17.201  -2.849  1.00 20.00     0.278 HD
ENDBRANCH   2   3
ENDBRANCH   1   2
BRANCH   1   7
HETATM    7  C6  UNL     1     -34.692  16.872  -6.296  1.00 20.00     0.077 C 
BRANCH   7   8
HETATM    8  S10 UNL     1     -35.680  15.708  -7.289  1.00 20.00    -0.182 SA
HETATM    9  H30 UNL     1     -35.369  14.621  -6.572  1.00 20.00     0.101 HD
ENDBRANCH   7   8
ENDBRANCH   1   7
BRANCH   1  10
HETATM   10  C7  UNL     1     -33.659  16.029  -4.117  1.00 20.00    -0.016 C 
HETATM   11  C1  UNL     1     -33.823  14.503  -4.092  1.00 20.00     0.010 C 
HETATM   12  C2  UNL     1     -33.391  16.503  -2.681  1.00 20.00     0.010 C 
ENDBRANCH   1  10
TORSDOF 5
ENDMDL
MODEL 6
REMARK VINA RESULT:      -2.8     11.392     12.539
REMARK  5 active torsions:
REMARK  status: ('A' for Active; 'I' for Inactive)
REMARK    1  A    between atoms: C5_5  and  C8_8 
REMARK    2  A    between atoms: C5_5  and  N9_9 
REMARK    3  A    between atoms: C6_6  and  C8_8 
REMARK    4  A    between atoms: C6_6  and  S10_10 
REMARK    5  A    between atoms: C7_7  and  C8_8 
ROOT
HETATM    1  C8  UNL     1     -41.078  13.251   5.932  1.00 20.00     0.024 C 
ENDROOT
BRANCH   1   2
HETATM    2  C5  UNL     1     -40.496  14.310   6.894  1.00 20.00     0.239 C 
BRANCH   2   3
HETATM    3  N9  UNL     1     -41.337  14.476   8.103  1.00 20.00    -0.078 N 
HETATM    4  C3  UNL     1     -42.464  13.473   8.169  1.00 20.00     0.269 C 
HETATM    5  C4  UNL     1     -40.531  14.473   9.378  1.00 20.00     0.269 C 
HETATM    6  H29 UNL     1     -41.787  15.406   8.052  1.00 20.00     0.278 HD
ENDBRANCH   2   3
ENDBRANCH   1   2
BRANCH   1   7
HETATM    7  C6  UNL     1     -41.524  13.840   4.569  1.00 20.00     0.077 C 
BRANCH   7   8
HETATM    8  S10 UNL     1     -43.150  14.660   4.581  1.00 20.00    -0.182 SA
HETATM    9  H30 UNL     1     -43.845  13.577   4.953  1.00 20.00     0.101 HD
ENDBRANCH   7   8
ENDBRANCH   1   7
BRANCH   1  10
HETATM   10  C7  UNL     1     -40.112  12.037   5.700  1.00 20.00    -0.016 C 
HETATM   11  C1  UNL     1     -38.936  12.024   6.687  1.00 20.00     0.010 C 
HETATM   12  C2  UNL     1     -39.540  12.011   4.275  1.00 20.00     0.010 C 
ENDBRANCH   1  10
TORSDOF 5
ENDMDL
MODEL 7
REMARK VINA RESULT:      -2.8     11.652     12.610
REMARK  5 active torsions:
REMARK  status: ('A' for Active; 'I' for Inactive)
REMARK    1  A    between atoms: C5_5  and  C8_8 
REMARK    2  A    between atoms: C5_5  and  N9_9 
REMARK    3  A    between atoms: C6_6  and  C8_8 
REMARK    4  A    between atoms: C6_6  and  S10_10 
REMARK    5  A    between atoms: C7_7  and  C8_8 
ROOT
HETATM    1  C8  UNL     1     -41.145  12.779   5.820  1.00 20.00     0.024 C 
ENDROOT
BRANCH   1   2
HETATM    2  C5  UNL     1     -41.132  13.592   7.134  1.00 20.00     0.239 C 
BRANCH   2   3
HETATM    3  N9  UNL     1     -42.323  13.307   7.968  1.00 20.00    -0.078 N 
HETATM    4  C3  UNL     1     -43.128  14.547   8.274  1.00 20.00     0.269 C 
HETATM    5  C4  UNL     1     -43.195  12.222   7.386  1.00 20.00     0.269 C 
HETATM    6  H29 UNL     1     -41.994  12.950   8.881  1.00 20.00     0.278 HD
ENDBRANCH   2   3
ENDBRANCH   1   2
BRANCH   1   7
HETATM    7  C6  UNL     1     -41.251  13.665   4.552  1.00 20.00     0.077 C 
BRANCH   7   8
HETATM    8  S10 UNL     1     -42.747  14.701   4.461  1.00 20.00    -0.182 SA
HETATM    9  H30 UNL     1     -42.886  14.621   3.132  1.00 20.00     0.101 HD
ENDBRANCH   7   8
ENDBRANCH   1   7
BRANCH   1  10
HETATM   10  C7  UNL     1     -39.925  11.802   5.691  1.00 20.00    -0.016 C 
HETATM   11  C1  UNL     1     -38.805  12.123   6.691  1.00 20.00     0.010 C 
HETATM   12  C2  UNL     1     -39.320  11.810   4.279  1.00 20.00     0.010 C 
ENDBRANCH   1  10
TORSDOF 5
ENDMDL
MODEL 8
REMARK VINA RESULT:      -2.8      2.815      3.891
REMARK  5 active torsions:
REMARK  status: ('A' for Active; 'I' for Inactive)
REMARK    1  A    between atoms: C5_5  and  C8_8 
REMARK    2  A    between atoms: C5_5  and  N9_9 
REMARK    3  A    between atoms: C6_6  and  C8_8 
REMARK    4  A    between atoms: C6_6  and  S10_10 
REMARK    5  A    between atoms: C7_7  and  C8_8 
ROOT
HETATM    1  C8  UNL     1     -34.392  16.174  -4.444  1.00 20.00     0.024 C 
ENDROOT
BRANCH   1   2
HETATM    2  C5  UNL     1     -34.041  15.488  -5.782  1.00 20.00     0.239 C 
BRANCH   2   3
HETATM    3  N9  UNL     1     -35.135  14.605  -6.251  1.00 20.00    -0.078 N 
HETATM    4  C3  UNL     1     -36.033  14.145  -5.128  1.00 20.00     0.269 C 
HETATM    5  C4  UNL     1     -35.938  15.219  -7.373  1.00 20.00     0.269 C 
HETATM    6  H29 UNL     1     -34.708  13.749  -6.643  1.00 20.00     0.278 HD
ENDBRANCH   2   3
ENDBRANCH   1   2
BRANCH   1   7
HETATM    7  C6  UNL     1     -33.259  16.080  -3.390  1.00 20.00     0.077 C 
BRANCH   7   8
HETATM    8  S10 UNL     1     -33.454  17.182  -1.952  1.00 20.00    -0.182 SA
HETATM    9  H30 UNL     1     -32.178  17.110  -1.553  1.00 20.00     0.101 HD
ENDBRANCH   7   8
ENDBRANCH   1   7
BRANCH   1  10
HETATM   10  C7  UNL     1     -34.837  17.668  -4.619  1.00 20.00    -0.016 C 
HETATM   11  C1  UNL     1     -36.364  17.833  -4.606  1.00 20.00     0.010 C 
HETATM   12  C2  UNL     1     -34.302  18.286  -5.920  1.00 20.00     0.010 C 
ENDBRANCH   1  10
TORSDOF 5
ENDMDL
MODEL 9
REMARK VINA RESULT:      -2.8      1.970      3.084
REMARK  5 active torsions:
REMARK  status: ('A' for Active; 'I' for Inactive)
REMARK    1  A    between atoms: C5_5  and  C8_8 
REMARK    2  A    between atoms: C5_5  and  N9_9 
REMARK    3  A    between atoms: C6_6  and  C8_8 
REMARK    4  A    between atoms: C6_6  and  S10_10 
REMARK    5  A    between atoms: C7_7  and  C8_8 
ROOT
HETATM    1  C8  UNL     1     -33.713  17.071  -3.811  1.00 20.00     0.024 C 
ENDROOT
BRANCH   1   2
HETATM    2  C5  UNL     1     -34.617  18.309  -4.000  1.00 20.00     0.239 C 
BRANCH   2   3
HETATM    3  N9  UNL     1     -35.945  18.120  -3.369  1.00 20.00    -0.078 N 
HETATM    4  C3  UNL     1     -36.222  19.131  -2.283  1.00 20.00     0.269 C 
HETATM    5  C4  UNL     1     -37.068  18.083  -4.377  1.00 20.00     0.269 C 
HETATM    6  H29 UNL     1     -35.948  17.196  -2.904  1.00 20.00     0.278 HD
ENDBRANCH   2   3
ENDBRANCH   1   2
BRANCH   1   7
HETATM    7  C6  UNL     1     -33.405  16.757  -2.324  1.00 20.00     0.077 C 
BRANCH   7   8
HETATM    8  S10 UNL     1     -32.639  18.122  -1.393  1.00 20.00    -0.182 SA
HETATM    9  H30 UNL     1     -31.481  17.492  -1.158  1.00 20.00     0.101 HD
ENDBRANCH   7   8
ENDBRANCH   1   7
BRANCH   1  10
HETATM   10  C7  UNL     1     -34.270  15.790  -4.525  1.00 20.00    -0.016 C 
HETATM   11  C1  UNL     1     -33.374  14.562  -4.313  1.00 20.00     0.010 C 
HETATM   12  C2  UNL     1     -34.447  15.997  -6.037  1.00 20.00     0.010 C 
ENDBRANCH   1  10
TORSDOF 5
ENDMDL
