MODEL 1
REMARK VINA RESULT:      -3.0      0.000      0.000
REMARK  4 active torsions:
REMARK  status: ('A' for Active; 'I' for Inactive)
REMARK    1  A    between atoms: C4_4  and  C6_6 
REMARK    2  A    between atoms: C4_4  and  O7_7 
REMARK    3  A    between atoms: C5_5  and  C6_6 
REMARK    4  A    between atoms: C5_5  and  S8_8 
ROOT
HETATM    1  C1  UNL     1     -24.424  16.415  11.898  1.00 20.00     0.018 C 
HETATM    2  C2  UNL     1     -22.846  18.295  12.332  1.00 20.00     0.018 C 
HETATM    3  C6  UNL     1     -23.817  17.700  11.292  1.00 20.00    -0.018 C 
ENDROOT
BRANCH   3   4
HETATM    4  C4  UNL     1     -23.051  17.341   9.998  1.00 20.00     0.176 C 
BRANCH   4   5
HETATM    5  O7  UNL     1     -21.842  18.085   9.896  1.00 20.00    -0.395 OA
HETATM    6  C3  UNL     1     -21.914  19.053   8.860  1.00 20.00     0.201 C 
ENDBRANCH   4   5
ENDBRANCH   3   4
BRANCH   3   7
HETATM    7  C5  UNL     1     -24.989  18.676  10.998  1.00 20.00     0.081 C 
BRANCH   7   8
HETATM    8  S8  UNL     1     -26.212  18.898  12.331  1.00 20.00    -0.181 SA
HETATM    9  H22 UNL     1     -26.431  17.591  12.531  1.00 20.00     0.101 HD
ENDBRANCH   7   8
ENDBRANCH   3   7
TORSDOF 4
ENDMDL
MODEL 2
REMARK VINA RESULT:      -2.9     16.038     16.931
REMARK  4 active torsions:
REMARK  status: ('A' for Active; 'I' for Inactive)
REMARK    1  A    between atoms: C4_4  and  C6_6 
REMARK    2  A    between atoms: C4_4  and  O7_7 
REMARK    3  A    between atoms: C5_5  and  C6_6 
REMARK    4  A    between atoms: C5_5  and  S8_8 
ROOT
HETATM    1  C1  UNL     1     -34.532   5.759   6.311  1.00 20.00     0.018 C 
HETATM    2  C2  UNL     1     -36.015   5.923   4.314  1.00 20.00     0.018 C 
HETATM    3  C6  UNL     1     -34.549   6.002   4.785  1.00 20.00    -0.018 C 
ENDROOT
BRANCH   3   4
HETATM    4  C4  UNL     1     -33.972   7.406   4.486  1.00 20.00     0.176 C 
BRANCH   4   5
HETATM    5  O7  UNL     1     -32.899   7.716   5.368  1.00 20.00    -0.395 OA
HETATM    6  C3  UNL     1     -32.107   8.783   4.866  1.00 20.00     0.201 C 
ENDBRANCH   4   5
ENDBRANCH   3   4
BRANCH   3   7
HETATM    7  C5  UNL     1     -33.687   4.891   4.126  1.00 20.00     0.081 C 
BRANCH   7   8
HETATM    8  S8  UNL     1     -32.873   5.324   2.555  1.00 20.00    -0.181 SA
HETATM    9  H22 UNL     1     -31.846   4.475   2.698  1.00 20.00     0.101 HD
ENDBRANCH   7   8
ENDBRANCH   3   7
TORSDOF 4
ENDMDL
MODEL 3
REMARK VINA RESULT:      -2.9     17.567     18.529
REMARK  4 active torsions:
REMARK  status: ('A' for Active; 'I' for Inactive)
REMARK    1  A    between atoms: C4_4  and  C6_6 
REMARK    2  A    between atoms: C4_4  and  O7_7 
REMARK    3  A    between atoms: C5_5  and  C6_6 
REMARK    4  A    between atoms: C5_5  and  S8_8 
ROOT
HETATM    1  C1  UNL     1     -42.312  12.520   6.831  1.00 20.00     0.018 C 
HETATM    2  C2  UNL     1     -41.464  13.666   4.786  1.00 20.00     0.018 C 
HETATM    3  C6  UNL     1     -41.043  13.073   6.146  1.00 20.00    -0.018 C 
ENDROOT
BRANCH   3   4
HETATM    4  C4  UNL     1     -40.425  14.178   7.035  1.00 20.00     0.176 C 
BRANCH   4   5
HETATM    5  O7  UNL     1     -40.187  13.699   8.354  1.00 20.00    -0.395 OA
HETATM    6  C3  UNL     1     -40.297  14.742   9.312  1.00 20.00     0.201 C 
ENDBRANCH   4   5
ENDBRANCH   3   4
BRANCH   3   7
HETATM    7  C5  UNL     1     -40.058  11.887   5.960  1.00 20.00     0.081 C 
BRANCH   7   8
HETATM    8  S8  UNL     1     -39.184  11.804   4.363  1.00 20.00    -0.181 SA
HETATM    9  H22 UNL     1     -39.142  13.128   4.163  1.00 20.00     0.101 HD
ENDBRANCH   7   8
ENDBRANCH   3   7
TORSDOF 4
ENDMDL
MODEL 4
REMARK VINA RESULT:      -2.9      2.900      3.819
REMARK  4 active torsions:
REMARK  status: ('A' for Active; 'I' for Inactive)
REMARK    1  A    between atoms: C4_4  and  C6_6 
REMARK    2  A    between atoms: C4_4  and  O7_7 
REMARK    3  A    between atoms: C5_5  and  C6_6 
REMARK    4  A    between atoms: C5_5  and  S8_8 
ROOT
HETATM    1  C1  UNL     1     -23.839  19.032   9.472  1.00 20.00     0.018 C 
HETATM    2  C2  UNL     1     -22.228  18.427  11.276  1.00 20.00     0.018 C 
HETATM    3  C6  UNL     1     -23.092  17.853  10.135  1.00 20.00    -0.018 C 
ENDROOT
BRANCH   3   4
HETATM    4  C4  UNL     1     -24.125  16.853  10.706  1.00 20.00     0.176 C 
BRANCH   4   5
HETATM    5  O7  UNL     1     -24.364  17.098  12.088  1.00 20.00    -0.395 OA
HETATM    6  C3  UNL     1     -25.730  17.401  12.332  1.00 20.00     0.201 C 
ENDBRANCH   4   5
ENDBRANCH   3   4
BRANCH   3   7
HETATM    7  C5  UNL     1     -22.210  17.186   9.045  1.00 20.00     0.081 C 
BRANCH   7   8
HETATM    8  S8  UNL     1     -21.542  18.290   7.758  1.00 20.00    -0.181 SA
HETATM    9  H22 UNL     1     -22.611  19.095   7.703  1.00 20.00     0.101 HD
ENDBRANCH   7   8
ENDBRANCH   3   7
TORSDOF 4
ENDMDL
MODEL 5
REMARK VINA RESULT:      -2.7      2.723      3.766
REMARK  4 active torsions:
REMARK  status: ('A' for Active; 'I' for Inactive)
REMARK    1  A    between atoms: C4_4  and  C6_6 
REMARK    2  A    between atoms: C4_4  and  O7_7 
REMARK    3  A    between atoms: C5_5  and  C6_6 
REMARK    4  A    between atoms: C5_5  and  S8_8 
ROOT
HETATM    1  C1  UNL     1     -22.403  18.274  12.332  1.00 20.00     0.018 C 
HETATM    2  C2  UNL     1     -24.054  16.815  11.166  1.00 20.00     0.018 C 
HETATM    3  C6  UNL     1     -23.628  18.280  11.390  1.00 20.00    -0.018 C 
ENDROOT
BRANCH   3   4
HETATM    4  C4  UNL     1     -24.780  19.068  12.057  1.00 20.00     0.176 C 
BRANCH   4   5
HETATM    5  O7  UNL     1     -26.004  18.876  11.356  1.00 20.00    -0.395 OA
HETATM    6  C3  UNL     1     -27.124  19.178  12.175  1.00 20.00     0.201 C 
ENDBRANCH   4   5
ENDBRANCH   3   4
BRANCH   3   7
HETATM    7  C5  UNL     1     -23.190  18.946  10.058  1.00 20.00     0.081 C 
BRANCH   7   8
HETATM    8  S8  UNL     1     -22.435  17.849   8.814  1.00 20.00    -0.181 SA
HETATM    9  H22 UNL     1     -21.691  18.799   8.232  1.00 20.00     0.101 HD
ENDBRANCH   7   8
ENDBRANCH   3   7
TORSDOF 4
ENDMDL
MODEL 6
REMARK VINA RESULT:      -2.7     17.916     18.672
REMARK  4 active torsions:
REMARK  status: ('A' for Active; 'I' for Inactive)
REMARK    1  A    between atoms: C4_4  and  C6_6 
REMARK    2  A    between atoms: C4_4  and  O7_7 
REMARK    3  A    between atoms: C5_5  and  C6_6 
REMARK    4  A    between atoms: C5_5  and  S8_8 
ROOT
HETATM    1  C1  UNL     1     -41.798  14.114   5.412  1.00 20.00     0.018 C 
HETATM    2  C2  UNL     1     -42.644  12.403   7.017  1.00 20.00     0.018 C 
HETATM    3  C6  UNL     1     -41.371  13.106   6.503  1.00 20.00    -0.018 C 
ENDROOT
BRANCH   3   4
HETATM    4  C4  UNL     1     -40.405  12.067   5.888  1.00 20.00     0.176 C 
BRANCH   4   5
HETATM    5  O7  UNL     1     -40.041  12.431   4.561  1.00 20.00    -0.395 OA
HETATM    6  C3  UNL     1     -38.965  11.637   4.081  1.00 20.00     0.201 C 
ENDBRANCH   4   5
ENDBRANCH   3   4
BRANCH   3   7
HETATM    7  C5  UNL     1     -40.680  13.911   7.637  1.00 20.00     0.081 C 
BRANCH   7   8
HETATM    8  S8  UNL     1     -40.827  15.725   7.547  1.00 20.00    -0.181 SA
HETATM    9  H22 UNL     1     -42.145  15.741   7.303  1.00 20.00     0.101 HD
ENDBRANCH   7   8
ENDBRANCH   3   7
TORSDOF 4
ENDMDL
MODEL 7
REMARK VINA RESULT:      -2.7     17.849     18.780
REMARK  4 active torsions:
REMARK  status: ('A' for Active; 'I' for Inactive)
REMARK    1  A    between atoms: C4_4  and  C6_6 
REMARK    2  A    between atoms: C4_4  and  O7_7 
REMARK    3  A    between atoms: C5_5  and  C6_6 
REMARK    4  A    between atoms: C5_5  and  S8_8 
ROOT
HETATM    1  C1  UNL     1     -40.141  12.092   5.630  1.00 20.00     0.018 C 
HETATM    2  C2  UNL     1     -42.287  12.488   6.835  1.00 20.00     0.018 C 
HETATM    3  C6  UNL     1     -41.143  13.183   6.070  1.00 20.00    -0.018 C 
ENDROOT
BRANCH   3   4
HETATM    4  C4  UNL     1     -40.424  14.192   6.996  1.00 20.00     0.176 C 
BRANCH   4   5
HETATM    5  O7  UNL     1     -40.330  13.689   8.324  1.00 20.00    -0.395 OA
HETATM    6  C3  UNL     1     -40.264  14.743   9.274  1.00 20.00     0.201 C 
ENDBRANCH   4   5
ENDBRANCH   3   4
BRANCH   3   7
HETATM    7  C5  UNL     1     -41.669  13.878   4.785  1.00 20.00     0.081 C 
BRANCH   7   8
HETATM    8  S8  UNL     1     -42.935  15.167   5.023  1.00 20.00    -0.181 SA
HETATM    9  H22 UNL     1     -42.092  16.203   4.925  1.00 20.00     0.101 HD
ENDBRANCH   7   8
ENDBRANCH   3   7
TORSDOF 4
ENDMDL
MODEL 8
REMARK VINA RESULT:      -2.6     15.766     16.355
REMARK  4 active torsions:
REMARK  status: ('A' for Active; 'I' for Inactive)
REMARK    1  A    between atoms: C4_4  and  C6_6 
REMARK    2  A    between atoms: C4_4  and  O7_7 
REMARK    3  A    between atoms: C5_5  and  C6_6 
REMARK    4  A    between atoms: C5_5  and  S8_8 
ROOT
HETATM    1  C1  UNL     1     -31.991  18.326  -0.851  1.00 20.00     0.018 C 
HETATM    2  C2  UNL     1     -32.851  19.100  -3.060  1.00 20.00     0.018 C 
HETATM    3  C6  UNL     1     -33.179  18.224  -1.834  1.00 20.00    -0.018 C 
ENDROOT
BRANCH   3   4
HETATM    4  C4  UNL     1     -33.355  16.751  -2.269  1.00 20.00     0.176 C 
BRANCH   4   5
HETATM    5  O7  UNL     1     -33.183  16.609  -3.675  1.00 20.00    -0.395 OA
HETATM    6  C3  UNL     1     -33.262  15.248  -4.073  1.00 20.00     0.201 C 
ENDBRANCH   4   5
ENDBRANCH   3   4
BRANCH   3   7
HETATM    7  C5  UNL     1     -34.441  18.745  -1.095  1.00 20.00     0.081 C 
BRANCH   7   8
HETATM    8  S8  UNL     1     -34.225  19.196   0.658  1.00 20.00    -0.181 SA
HETATM    9  H22 UNL     1     -33.670  20.392   0.421  1.00 20.00     0.101 HD
ENDBRANCH   7   8
ENDBRANCH   3   7
TORSDOF 4
ENDMDL
MODEL 9
REMARK VINA RESULT:      -2.6     16.370     16.940
REMARK  4 active torsions:
REMARK  status: ('A' for Active; 'I' for Inactive)
REMARK    1  A    between atoms: C4_4  and  C6_6 
REMARK    2  A    between atoms: C4_4  and  O7_7 
REMARK    3  A    between atoms: C5_5  and  C6_6 
REMARK    4  A    between atoms: C5_5  and  S8_8 
ROOT
HETATM    1  C1  UNL     1     -32.053  18.288  -1.003  1.00 20.00     0.018 C 
HETATM    2  C2  UNL     1     -32.863  18.970  -3.261  1.00 20.00     0.018 C 
HETATM    3  C6  UNL     1     -33.208  18.127  -2.016  1.00 20.00    -0.018 C 
ENDROOT
BRANCH   3   4
HETATM    4  C4  UNL     1     -33.339  16.637  -2.408  1.00 20.00     0.176 C 
BRANCH   4   5
HETATM    5  O7  UNL     1     -33.358  16.480  -3.822  1.00 20.00    -0.395 OA
HETATM    6  C3  UNL     1     -33.512  15.117  -4.191  1.00 20.00     0.201 C 
ENDBRANCH   4   5
ENDBRANCH   3   4
BRANCH   3   7
HETATM    7  C5  UNL     1     -34.503  18.642  -1.333  1.00 20.00     0.081 C 
BRANCH   7   8
HETATM    8  S8  UNL     1     -35.885  19.076  -2.439  1.00 20.00    -0.181 SA
HETATM    9  H22 UNL     1     -35.746  20.403  -2.313  1.00 20.00     0.101 HD
ENDBRANCH   7   8
ENDBRANCH   3   7
TORSDOF 4
ENDMDL
