MODEL 1
REMARK VINA RESULT:      -3.4      0.000      0.000
REMARK  5 active torsions:
REMARK  status: ('A' for Active; 'I' for Inactive)
REMARK    1  A    between atoms: C1_1  and  C7_7 
REMARK    2  A    between atoms: C2_2  and  C8_8 
REMARK    3  A    between atoms: C5_5  and  N9_9 
REMARK    4  A    between atoms: C7_7  and  N9_9 
REMARK    5  A    between atoms: C8_8  and  S10_10 
ROOT
HETATM    1  C7  UNL     1     -33.304  17.159  -2.025  1.00 20.00     0.299 C 
ENDROOT
BRANCH   1   2
HETATM    2  C1  UNL     1     -33.548  16.662  -3.418  1.00 20.00    -0.000 C 
HETATM    3  C2  UNL     1     -33.580  15.362  -3.751  1.00 20.00    -0.019 C 
BRANCH   3   4
HETATM    4  C8  UNL     1     -33.826  14.869  -5.142  1.00 20.00     0.097 C 
BRANCH   4   5
HETATM    5  S10 UNL     1     -35.607  14.754  -5.458  1.00 20.00    -0.178 SA
HETATM    6  H25 UNL     1     -35.661  15.755  -6.347  1.00 20.00     0.101 HD
ENDBRANCH   4   5
ENDBRANCH   3   4
ENDBRANCH   1   2
BRANCH   1   7
HETATM    7  N9  UNL     1     -32.512  18.385  -2.024  1.00 20.00     0.092 N 
HETATM    8  C6  UNL     1     -32.871  19.231  -3.163  1.00 20.00     0.310 C 
BRANCH   7   9
HETATM    9  C5  UNL     1     -32.699  19.115  -0.769  1.00 20.00     0.223 A 
HETATM   10  C3  UNL     1     -32.916  18.371   0.519  1.00 20.00     0.038 A 
HETATM   11  C4  UNL     1     -31.628  19.107   0.286  1.00 20.00     0.038 A 
ENDBRANCH   7   9
ENDBRANCH   1   7
TORSDOF 5
ENDMDL
MODEL 2
REMARK VINA RESULT:      -3.3      3.156      5.427
REMARK  5 active torsions:
REMARK  status: ('A' for Active; 'I' for Inactive)
REMARK    1  A    between atoms: C1_1  and  C7_7 
REMARK    2  A    between atoms: C2_2  and  C8_8 
REMARK    3  A    between atoms: C5_5  and  N9_9 
REMARK    4  A    between atoms: C7_7  and  N9_9 
REMARK    5  A    between atoms: C8_8  and  S10_10 
ROOT
HETATM    1  C7  UNL     1     -33.270  16.550  -2.780  1.00 20.00     0.299 C 
ENDROOT
BRANCH   1   2
HETATM    2  C1  UNL     1     -33.602  17.278  -1.513  1.00 20.00    -0.000 C 
HETATM    3  C2  UNL     1     -32.725  18.035  -0.836  1.00 20.00    -0.019 C 
BRANCH   3   4
HETATM    4  C8  UNL     1     -33.060  18.764   0.427  1.00 20.00     0.097 C 
BRANCH   4   5
HETATM    5  S10 UNL     1     -31.657  18.704   1.573  1.00 20.00    -0.178 SA
HETATM    6  H25 UNL     1     -30.704  18.851   0.644  1.00 20.00     0.101 HD
ENDBRANCH   4   5
ENDBRANCH   3   4
ENDBRANCH   1   2
BRANCH   1   7
HETATM    7  N9  UNL     1     -34.184  16.908  -3.860  1.00 20.00     0.092 N 
HETATM    8  C6  UNL     1     -33.843  18.222  -4.407  1.00 20.00     0.310 C 
BRANCH   7   9
HETATM    9  C5  UNL     1     -34.153  15.894  -4.916  1.00 20.00     0.223 A 
HETATM   10  C3  UNL     1     -34.268  14.435  -4.573  1.00 20.00     0.038 A 
HETATM   11  C4  UNL     1     -35.396  15.131  -5.278  1.00 20.00     0.038 A 
ENDBRANCH   7   9
ENDBRANCH   1   7
TORSDOF 5
ENDMDL
MODEL 3
REMARK VINA RESULT:      -3.1     11.813     13.222
REMARK  5 active torsions:
REMARK  status: ('A' for Active; 'I' for Inactive)
REMARK    1  A    between atoms: C1_1  and  C7_7 
REMARK    2  A    between atoms: C2_2  and  C8_8 
REMARK    3  A    between atoms: C5_5  and  N9_9 
REMARK    4  A    between atoms: C7_7  and  N9_9 
REMARK    5  A    between atoms: C8_8  and  S10_10 
ROOT
HETATM    1  C7  UNL     1     -41.785  12.911   6.959  1.00 20.00     0.299 C 
ENDROOT
BRANCH   1   2
HETATM    2  C1  UNL     1     -41.584  14.234   7.633  1.00 20.00    -0.000 C 
HETATM    3  C2  UNL     1     -40.624  14.472   8.540  1.00 20.00    -0.019 C 
BRANCH   3   4
HETATM    4  C8  UNL     1     -40.424  15.795   9.209  1.00 20.00     0.097 C 
BRANCH   4   5
HETATM    5  S10 UNL     1     -40.864  17.140   8.077  1.00 20.00    -0.178 SA
HETATM    6  H25 UNL     1     -41.561  16.385   7.217  1.00 20.00     0.101 HD
ENDBRANCH   4   5
ENDBRANCH   3   4
ENDBRANCH   1   2
BRANCH   1   7
HETATM    7  N9  UNL     1     -41.448  12.974   5.541  1.00 20.00     0.092 N 
HETATM    8  C6  UNL     1     -41.958  14.210   4.946  1.00 20.00     0.310 C 
BRANCH   7   9
HETATM    9  C5  UNL     1     -39.999  12.880   5.353  1.00 20.00     0.223 A 
HETATM   10  C3  UNL     1     -39.201  11.847   6.098  1.00 20.00     0.038 A 
HETATM   11  C4  UNL     1     -39.398  11.715   4.616  1.00 20.00     0.038 A 
ENDBRANCH   7   9
ENDBRANCH   1   7
TORSDOF 5
ENDMDL
MODEL 4
REMARK VINA RESULT:      -3.1      3.229      5.736
REMARK  5 active torsions:
REMARK  status: ('A' for Active; 'I' for Inactive)
REMARK    1  A    between atoms: C1_1  and  C7_7 
REMARK    2  A    between atoms: C2_2  and  C8_8 
REMARK    3  A    between atoms: C5_5  and  N9_9 
REMARK    4  A    between atoms: C7_7  and  N9_9 
REMARK    5  A    between atoms: C8_8  and  S10_10 
ROOT
HETATM    1  C7  UNL     1     -33.607  15.072  -4.840  1.00 20.00     0.299 C 
ENDROOT
BRANCH   1   2
HETATM    2  C1  UNL     1     -33.821  15.559  -3.439  1.00 20.00    -0.000 C 
HETATM    3  C2  UNL     1     -33.347  16.725  -2.975  1.00 20.00    -0.019 C 
BRANCH   3   4
HETATM    4  C8  UNL     1     -33.565  17.211  -1.576  1.00 20.00     0.097 C 
BRANCH   4   5
HETATM    5  S10 UNL     1     -32.221  18.322  -1.084  1.00 20.00    -0.178 SA
HETATM    6  H25 UNL     1     -32.984  19.411  -0.924  1.00 20.00     0.101 HD
ENDBRANCH   4   5
ENDBRANCH   3   4
ENDBRANCH   1   2
BRANCH   1   7
HETATM    7  N9  UNL     1     -34.873  14.779  -5.506  1.00 20.00     0.092 N 
HETATM    8  C6  UNL     1     -35.673  13.853  -4.705  1.00 20.00     0.310 C 
BRANCH   7   9
HETATM    9  C5  UNL     1     -35.620  16.014  -5.753  1.00 20.00     0.223 A 
HETATM   10  C3  UNL     1     -34.995  17.138  -6.532  1.00 20.00     0.038 A 
HETATM   11  C4  UNL     1     -36.117  16.342  -7.134  1.00 20.00     0.038 A 
ENDBRANCH   7   9
ENDBRANCH   1   7
TORSDOF 5
ENDMDL
MODEL 5
REMARK VINA RESULT:      -3.1      3.060      5.692
REMARK  5 active torsions:
REMARK  status: ('A' for Active; 'I' for Inactive)
REMARK    1  A    between atoms: C1_1  and  C7_7 
REMARK    2  A    between atoms: C2_2  and  C8_8 
REMARK    3  A    between atoms: C5_5  and  N9_9 
REMARK    4  A    between atoms: C7_7  and  N9_9 
REMARK    5  A    between atoms: C8_8  and  S10_10 
ROOT
HETATM    1  C7  UNL     1     -34.100  16.884  -4.484  1.00 20.00     0.299 C 
ENDROOT
BRANCH   1   2
HETATM    2  C1  UNL     1     -33.566  16.890  -3.083  1.00 20.00    -0.000 C 
HETATM    3  C2  UNL     1     -33.996  17.724  -2.124  1.00 20.00    -0.019 C 
BRANCH   3   4
HETATM    4  C8  UNL     1     -33.462  17.725  -0.726  1.00 20.00     0.097 C 
BRANCH   4   5
HETATM    5  S10 UNL     1     -31.854  18.558  -0.672  1.00 20.00    -0.178 SA
HETATM    6  H25 UNL     1     -32.322  19.751  -0.280  1.00 20.00     0.101 HD
ENDBRANCH   4   5
ENDBRANCH   3   4
ENDBRANCH   1   2
BRANCH   1   7
HETATM    7  N9  UNL     1     -33.981  15.566  -5.099  1.00 20.00     0.092 N 
HETATM    8  C6  UNL     1     -33.205  14.668  -4.243  1.00 20.00     0.310 C 
BRANCH   7   9
HETATM    9  C5  UNL     1     -35.306  15.001  -5.361  1.00 20.00     0.223 A 
HETATM   10  C3  UNL     1     -36.446  15.892  -5.769  1.00 20.00     0.038 A 
HETATM   11  C4  UNL     1     -35.845  14.940  -6.763  1.00 20.00     0.038 A 
ENDBRANCH   7   9
ENDBRANCH   1   7
TORSDOF 5
ENDMDL
MODEL 6
REMARK VINA RESULT:      -3.0     11.064     12.122
REMARK  5 active torsions:
REMARK  status: ('A' for Active; 'I' for Inactive)
REMARK    1  A    between atoms: C1_1  and  C7_7 
REMARK    2  A    between atoms: C2_2  and  C8_8 
REMARK    3  A    between atoms: C5_5  and  N9_9 
REMARK    4  A    between atoms: C7_7  and  N9_9 
REMARK    5  A    between atoms: C8_8  and  S10_10 
ROOT
HETATM    1  C7  UNL     1     -32.441   8.431   3.738  1.00 20.00     0.299 C 
ENDROOT
BRANCH   1   2
HETATM    2  C1  UNL     1     -33.422   7.649   4.556  1.00 20.00    -0.000 C 
HETATM    3  C2  UNL     1     -33.375   7.562   5.894  1.00 20.00    -0.019 C 
BRANCH   3   4
HETATM    4  C8  UNL     1     -34.359   6.783   6.709  1.00 20.00     0.097 C 
BRANCH   4   5
HETATM    5  S10 UNL     1     -34.763   5.223   5.879  1.00 20.00    -0.178 SA
HETATM    6  H25 UNL     1     -35.516   4.724   6.868  1.00 20.00     0.101 HD
ENDBRANCH   4   5
ENDBRANCH   3   4
ENDBRANCH   1   2
BRANCH   1   7
HETATM    7  N9  UNL     1     -32.106   7.740   2.496  1.00 20.00     0.092 N 
HETATM    8  C6  UNL     1     -32.378   6.307   2.616  1.00 20.00     0.310 C 
BRANCH   7   9
HETATM    9  C5  UNL     1     -32.855   8.308   1.374  1.00 20.00     0.223 A 
HETATM   10  C3  UNL     1     -32.878   9.794   1.150  1.00 20.00     0.038 A 
HETATM   11  C4  UNL     1     -32.134   8.904   0.198  1.00 20.00     0.038 A 
ENDBRANCH   7   9
ENDBRANCH   1   7
TORSDOF 5
ENDMDL
MODEL 7
REMARK VINA RESULT:      -3.0     11.081     11.854
REMARK  5 active torsions:
REMARK  status: ('A' for Active; 'I' for Inactive)
REMARK    1  A    between atoms: C1_1  and  C7_7 
REMARK    2  A    between atoms: C2_2  and  C8_8 
REMARK    3  A    between atoms: C5_5  and  N9_9 
REMARK    4  A    between atoms: C7_7  and  N9_9 
REMARK    5  A    between atoms: C8_8  and  S10_10 
ROOT
HETATM    1  C7  UNL     1     -41.891  13.438   5.831  1.00 20.00     0.299 C 
ENDROOT
BRANCH   1   2
HETATM    2  C1  UNL     1     -42.293  14.655   5.054  1.00 20.00    -0.000 C 
HETATM    3  C2  UNL     1     -42.242  14.735   3.716  1.00 20.00    -0.019 C 
BRANCH   3   4
HETATM    4  C8  UNL     1     -42.647  15.950   2.942  1.00 20.00     0.097 C 
BRANCH   4   5
HETATM    5  S10 UNL     1     -42.763  15.557   1.177  1.00 20.00    -0.178 SA
HETATM    6  H25 UNL     1     -44.042  15.927   1.030  1.00 20.00     0.101 HD
ENDBRANCH   4   5
ENDBRANCH   3   4
ENDBRANCH   1   2
BRANCH   1   7
HETATM    7  N9  UNL     1     -40.495  13.505   6.251  1.00 20.00     0.092 N 
HETATM    8  C6  UNL     1     -40.397  13.933   7.647  1.00 20.00     0.310 C 
BRANCH   7   9
HETATM    9  C5  UNL     1     -39.841  12.208   6.070  1.00 20.00     0.223 A 
HETATM   10  C3  UNL     1     -39.561  11.684   4.689  1.00 20.00     0.038 A 
HETATM   11  C4  UNL     1     -38.427  12.129   5.566  1.00 20.00     0.038 A 
ENDBRANCH   7   9
ENDBRANCH   1   7
TORSDOF 5
ENDMDL
MODEL 8
REMARK VINA RESULT:      -2.9      1.276      1.439
REMARK  5 active torsions:
REMARK  status: ('A' for Active; 'I' for Inactive)
REMARK    1  A    between atoms: C1_1  and  C7_7 
REMARK    2  A    between atoms: C2_2  and  C8_8 
REMARK    3  A    between atoms: C5_5  and  N9_9 
REMARK    4  A    between atoms: C7_7  and  N9_9 
REMARK    5  A    between atoms: C8_8  and  S10_10 
ROOT
HETATM    1  C7  UNL     1     -33.245  16.544  -2.932  1.00 20.00     0.299 C 
ENDROOT
BRANCH   1   2
HETATM    2  C1  UNL     1     -34.065  16.316  -4.165  1.00 20.00    -0.000 C 
HETATM    3  C2  UNL     1     -34.246  15.112  -4.729  1.00 20.00    -0.019 C 
BRANCH   3   4
HETATM    4  C8  UNL     1     -35.068  14.888  -5.959  1.00 20.00     0.097 C 
BRANCH   4   5
HETATM    5  S10 UNL     1     -34.287  15.687  -7.386  1.00 20.00    -0.178 SA
HETATM    6  H25 UNL     1     -33.618  14.607  -7.810  1.00 20.00     0.101 HD
ENDBRANCH   4   5
ENDBRANCH   3   4
ENDBRANCH   1   2
BRANCH   1   7
HETATM    7  N9  UNL     1     -32.946  17.959  -2.739  1.00 20.00     0.092 N 
HETATM    8  C6  UNL     1     -33.187  18.708  -3.973  1.00 20.00     0.310 C 
BRANCH   7   9
HETATM    9  C5  UNL     1     -33.749  18.509  -1.645  1.00 20.00     0.223 A 
HETATM   10  C3  UNL     1     -33.779  17.827  -0.306  1.00 20.00     0.038 A 
HETATM   11  C4  UNL     1     -33.085  19.149  -0.458  1.00 20.00     0.038 A 
ENDBRANCH   7   9
ENDBRANCH   1   7
TORSDOF 5
ENDMDL
MODEL 9
REMARK VINA RESULT:      -2.9     12.391     13.962
REMARK  5 active torsions:
REMARK  status: ('A' for Active; 'I' for Inactive)
REMARK    1  A    between atoms: C1_1  and  C7_7 
REMARK    2  A    between atoms: C2_2  and  C8_8 
REMARK    3  A    between atoms: C5_5  and  N9_9 
REMARK    4  A    between atoms: C7_7  and  N9_9 
REMARK    5  A    between atoms: C8_8  and  S10_10 
ROOT
HETATM    1  C7  UNL     1     -40.371  14.423   7.156  1.00 20.00     0.299 C 
ENDROOT
BRANCH   1   2
HETATM    2  C1  UNL     1     -40.336  14.303   8.650  1.00 20.00    -0.000 C 
HETATM    3  C2  UNL     1     -40.199  15.349   9.479  1.00 20.00    -0.019 C 
BRANCH   3   4
HETATM    4  C8  UNL     1     -40.168  15.226  10.970  1.00 20.00     0.097 C 
BRANCH   4   5
HETATM    5  S10 UNL     1     -41.431  14.051  11.527  1.00 20.00    -0.178 SA
HETATM    6  H25 UNL     1     -41.303  14.311  12.835  1.00 20.00     0.101 HD
ENDBRANCH   4   5
ENDBRANCH   3   4
ENDBRANCH   1   2
BRANCH   1   7
HETATM    7  N9  UNL     1     -41.060  13.292   6.543  1.00 20.00     0.092 N 
HETATM    8  C6  UNL     1     -42.382  13.695   6.061  1.00 20.00     0.310 C 
BRANCH   7   9
HETATM    9  C5  UNL     1     -40.265  12.742   5.444  1.00 20.00     0.223 A 
HETATM   10  C3  UNL     1     -38.833  12.340   5.667  1.00 20.00     0.038 A 
HETATM   11  C4  UNL     1     -39.879  11.288   5.434  1.00 20.00     0.038 A 
ENDBRANCH   7   9
ENDBRANCH   1   7
TORSDOF 5
ENDMDL
