MODEL 1
REMARK VINA RESULT:      -2.8      0.000      0.000
REMARK  6 active torsions:
REMARK  status: ('A' for Active; 'I' for Inactive)
REMARK    1  A    between atoms: C2_2  and  C3_3 
REMARK    2  A    between atoms: C2_2  and  O6_6 
REMARK    3  A    between atoms: C3_3  and  S8_8 
REMARK    4  A    between atoms: C4_4  and  C5_5 
REMARK    5  A    between atoms: C4_4  and  S7_7 
REMARK    6  A    between atoms: C5_5  and  S8_8 
ROOT
HETATM    1  S8  UNL     1     -34.464  18.399  -1.965  1.00 20.00    -0.166 SA
ENDROOT
BRANCH   1   2
HETATM    2  C3  UNL     1     -32.945  17.981  -1.054  1.00 20.00     0.100 C 
BRANCH   2   3
HETATM    3  C2  UNL     1     -31.938  19.118  -1.104  1.00 20.00     0.177 C 
BRANCH   3   4
HETATM    4  O6  UNL     1     -30.728  18.727  -0.469  1.00 20.00    -0.395 OA
HETATM    5  C1  UNL     1     -30.928  18.449   0.910  1.00 20.00     0.201 C 
ENDBRANCH   3   4
ENDBRANCH   2   3
ENDBRANCH   1   2
BRANCH   1   6
HETATM    6  C5  UNL     1     -34.125  17.467  -3.475  1.00 20.00     0.084 C 
BRANCH   6   7
HETATM    7  C4  UNL     1     -33.322  16.216  -3.149  1.00 20.00     0.081 C 
BRANCH   7   8
HETATM    8  S7  UNL     1     -33.703  14.898  -4.342  1.00 20.00    -0.181 SA
HETATM    9  H20 UNL     1     -32.485  14.340  -4.328  1.00 20.00     0.101 HD
ENDBRANCH   7   8
ENDBRANCH   6   7
ENDBRANCH   1   6
TORSDOF 6
ENDMDL
MODEL 2
REMARK VINA RESULT:      -2.7     12.466     12.984
REMARK  6 active torsions:
REMARK  status: ('A' for Active; 'I' for Inactive)
REMARK    1  A    between atoms: C2_2  and  C3_3 
REMARK    2  A    between atoms: C2_2  and  O6_6 
REMARK    3  A    between atoms: C3_3  and  S8_8 
REMARK    4  A    between atoms: C4_4  and  C5_5 
REMARK    5  A    between atoms: C4_4  and  S7_7 
REMARK    6  A    between atoms: C5_5  and  S8_8 
ROOT
HETATM    1  S8  UNL     1     -34.689   5.732   6.367  1.00 20.00    -0.166 SA
ENDROOT
BRANCH   1   2
HETATM    2  C3  UNL     1     -33.536   7.138   6.426  1.00 20.00     0.100 C 
BRANCH   2   3
HETATM    3  C2  UNL     1     -33.653   8.005   5.182  1.00 20.00     0.177 C 
BRANCH   3   4
HETATM    4  O6  UNL     1     -32.366   8.245   4.631  1.00 20.00    -0.395 OA
HETATM    5  C1  UNL     1     -32.452   8.754   3.307  1.00 20.00     0.201 C 
ENDBRANCH   3   4
ENDBRANCH   2   3
ENDBRANCH   1   2
BRANCH   1   6
HETATM    6  C5  UNL     1     -34.874   5.624   4.573  1.00 20.00     0.084 C 
BRANCH   6   7
HETATM    7  C4  UNL     1     -33.978   4.526   4.019  1.00 20.00     0.081 C 
BRANCH   7   8
HETATM    8  S7  UNL     1     -32.956   5.177   2.664  1.00 20.00    -0.181 SA
HETATM    9  H20 UNL     1     -33.503   6.400   2.651  1.00 20.00     0.101 HD
ENDBRANCH   7   8
ENDBRANCH   6   7
ENDBRANCH   1   6
TORSDOF 6
ENDMDL
MODEL 3
REMARK VINA RESULT:      -2.7      4.240      6.323
REMARK  6 active torsions:
REMARK  status: ('A' for Active; 'I' for Inactive)
REMARK    1  A    between atoms: C2_2  and  C3_3 
REMARK    2  A    between atoms: C2_2  and  O6_6 
REMARK    3  A    between atoms: C3_3  and  S8_8 
REMARK    4  A    between atoms: C4_4  and  C5_5 
REMARK    5  A    between atoms: C4_4  and  S7_7 
REMARK    6  A    between atoms: C5_5  and  S8_8 
ROOT
HETATM    1  S8  UNL     1     -33.650  15.213  -4.175  1.00 20.00    -0.166 SA
ENDROOT
BRANCH   1   2
HETATM    2  C3  UNL     1     -35.042  15.651  -5.262  1.00 20.00     0.100 C 
BRANCH   2   3
HETATM    3  C2  UNL     1     -35.881  14.431  -5.607  1.00 20.00     0.177 C 
BRANCH   3   4
HETATM    4  O6  UNL     1     -36.031  14.323  -7.016  1.00 20.00    -0.395 OA
HETATM    5  C1  UNL     1     -35.493  15.454  -7.686  1.00 20.00     0.201 C 
ENDBRANCH   3   4
ENDBRANCH   2   3
ENDBRANCH   1   2
BRANCH   1   6
HETATM    6  C5  UNL     1     -33.309  16.860  -3.515  1.00 20.00     0.084 C 
BRANCH   6   7
HETATM    7  C4  UNL     1     -33.486  16.866  -2.003  1.00 20.00     0.081 C 
BRANCH   7   8
HETATM    8  S7  UNL     1     -32.532  18.226  -1.267  1.00 20.00    -0.181 SA
HETATM    9  H20 UNL     1     -31.387  17.959  -1.910  1.00 20.00     0.101 HD
ENDBRANCH   7   8
ENDBRANCH   6   7
ENDBRANCH   1   6
TORSDOF 6
ENDMDL
MODEL 4
REMARK VINA RESULT:      -2.7      1.171      1.321
REMARK  6 active torsions:
REMARK  status: ('A' for Active; 'I' for Inactive)
REMARK    1  A    between atoms: C2_2  and  C3_3 
REMARK    2  A    between atoms: C2_2  and  O6_6 
REMARK    3  A    between atoms: C3_3  and  S8_8 
REMARK    4  A    between atoms: C4_4  and  C5_5 
REMARK    5  A    between atoms: C4_4  and  S7_7 
REMARK    6  A    between atoms: C5_5  and  S8_8 
ROOT
HETATM    1  S8  UNL     1     -33.517  18.180  -3.547  1.00 20.00    -0.166 SA
ENDROOT
BRANCH   1   2
HETATM    2  C3  UNL     1     -32.574  19.145  -2.326  1.00 20.00     0.100 C 
BRANCH   2   3
HETATM    3  C2  UNL     1     -32.137  18.281  -1.154  1.00 20.00     0.177 C 
BRANCH   3   4
HETATM    4  O6  UNL     1     -30.884  18.730  -0.656  1.00 20.00    -0.395 OA
HETATM    5  C1  UNL     1     -30.948  19.017   0.734  1.00 20.00     0.201 C 
ENDBRANCH   3   4
ENDBRANCH   2   3
ENDBRANCH   1   2
BRANCH   1   6
HETATM    6  C5  UNL     1     -33.288  16.544  -2.817  1.00 20.00     0.084 C 
BRANCH   6   7
HETATM    7  C4  UNL     1     -33.617  15.464  -3.838  1.00 20.00     0.081 C 
BRANCH   7   8
HETATM    8  S7  UNL     1     -34.508  16.185  -5.248  1.00 20.00    -0.181 SA
HETATM    9  H20 UNL     1     -33.458  16.205  -6.081  1.00 20.00     0.101 HD
ENDBRANCH   7   8
ENDBRANCH   6   7
ENDBRANCH   1   6
TORSDOF 6
ENDMDL
MODEL 5
REMARK VINA RESULT:      -2.7      3.284      5.268
REMARK  6 active torsions:
REMARK  status: ('A' for Active; 'I' for Inactive)
REMARK    1  A    between atoms: C2_2  and  C3_3 
REMARK    2  A    between atoms: C2_2  and  O6_6 
REMARK    3  A    between atoms: C3_3  and  S8_8 
REMARK    4  A    between atoms: C4_4  and  C5_5 
REMARK    5  A    between atoms: C4_4  and  S7_7 
REMARK    6  A    between atoms: C5_5  and  S8_8 
ROOT
HETATM    1  S8  UNL     1     -33.842  17.563  -3.855  1.00 20.00    -0.166 SA
ENDROOT
BRANCH   1   2
HETATM    2  C3  UNL     1     -34.398  16.100  -4.784  1.00 20.00     0.100 C 
BRANCH   2   3
HETATM    3  C2  UNL     1     -33.632  14.855  -4.368  1.00 20.00     0.177 C 
BRANCH   3   4
HETATM    4  O6  UNL     1     -34.538  13.803  -4.064  1.00 20.00    -0.395 OA
HETATM    5  C1  UNL     1     -35.729  13.900  -4.833  1.00 20.00     0.201 C 
ENDBRANCH   3   4
ENDBRANCH   2   3
ENDBRANCH   1   2
BRANCH   1   6
HETATM    6  C5  UNL     1     -33.394  16.736  -2.313  1.00 20.00     0.084 C 
BRANCH   6   7
HETATM    7  C4  UNL     1     -33.609  17.673  -1.134  1.00 20.00     0.081 C 
BRANCH   7   8
HETATM    8  S7  UNL     1     -32.058  18.525  -0.721  1.00 20.00    -0.181 SA
HETATM    9  H20 UNL     1     -32.110  19.408  -1.728  1.00 20.00     0.101 HD
ENDBRANCH   7   8
ENDBRANCH   6   7
ENDBRANCH   1   6
TORSDOF 6
ENDMDL
MODEL 6
REMARK VINA RESULT:      -2.7     12.726     13.410
REMARK  6 active torsions:
REMARK  status: ('A' for Active; 'I' for Inactive)
REMARK    1  A    between atoms: C2_2  and  C3_3 
REMARK    2  A    between atoms: C2_2  and  O6_6 
REMARK    3  A    between atoms: C3_3  and  S8_8 
REMARK    4  A    between atoms: C4_4  and  C5_5 
REMARK    5  A    between atoms: C4_4  and  S7_7 
REMARK    6  A    between atoms: C5_5  and  S8_8 
ROOT
HETATM    1  S8  UNL     1     -33.918   6.908   6.539  1.00 20.00    -0.166 SA
ENDROOT
BRANCH   1   2
HETATM    2  C3  UNL     1     -34.694   5.399   5.883  1.00 20.00     0.100 C 
BRANCH   2   3
HETATM    3  C2  UNL     1     -34.742   5.415   4.364  1.00 20.00     0.177 C 
BRANCH   3   4
HETATM    4  O6  UNL     1     -33.788   4.505   3.835  1.00 20.00    -0.395 OA
HETATM    5  C1  UNL     1     -33.066   5.075   2.752  1.00 20.00     0.201 C 
ENDBRANCH   3   4
ENDBRANCH   2   3
ENDBRANCH   1   2
BRANCH   1   6
HETATM    6  C5  UNL     1     -33.918   7.882   5.017  1.00 20.00     0.084 C 
BRANCH   6   7
HETATM    7  C4  UNL     1     -32.519   8.406   4.730  1.00 20.00     0.081 C 
BRANCH   7   8
HETATM    8  S7  UNL     1     -32.295   8.646   2.942  1.00 20.00    -0.181 SA
HETATM    9  H20 UNL     1     -31.081   8.080   2.876  1.00 20.00     0.101 HD
ENDBRANCH   7   8
ENDBRANCH   6   7
ENDBRANCH   1   6
TORSDOF 6
ENDMDL
MODEL 7
REMARK VINA RESULT:      -2.6     11.557     12.225
REMARK  6 active torsions:
REMARK  status: ('A' for Active; 'I' for Inactive)
REMARK    1  A    between atoms: C2_2  and  C3_3 
REMARK    2  A    between atoms: C2_2  and  O6_6 
REMARK    3  A    between atoms: C3_3  and  S8_8 
REMARK    4  A    between atoms: C4_4  and  C5_5 
REMARK    5  A    between atoms: C4_4  and  S7_7 
REMARK    6  A    between atoms: C5_5  and  S8_8 
ROOT
HETATM    1  S8  UNL     1     -33.922   8.014   4.890  1.00 20.00    -0.166 SA
ENDROOT
BRANCH   1   2
HETATM    2  C3  UNL     1     -32.233   8.089   4.217  1.00 20.00     0.100 C 
BRANCH   2   3
HETATM    3  C2  UNL     1     -32.234   7.982   2.701  1.00 20.00     0.177 C 
BRANCH   3   4
HETATM    4  O6  UNL     1     -32.674   9.205   2.126  1.00 20.00    -0.395 OA
HETATM    5  C1  UNL     1     -32.656   9.151   0.706  1.00 20.00     0.201 C 
ENDBRANCH   3   4
ENDBRANCH   2   3
ENDBRANCH   1   2
BRANCH   1   6
HETATM    6  C5  UNL     1     -33.573   7.020   6.357  1.00 20.00     0.084 C 
BRANCH   6   7
HETATM    7  C4  UNL     1     -34.460   5.784   6.376  1.00 20.00     0.081 C 
BRANCH   7   8
HETATM    8  S7  UNL     1     -34.645   5.120   4.694  1.00 20.00    -0.181 SA
HETATM    9  H20 UNL     1     -35.934   4.774   4.821  1.00 20.00     0.101 HD
ENDBRANCH   7   8
ENDBRANCH   6   7
ENDBRANCH   1   6
TORSDOF 6
ENDMDL
MODEL 8
REMARK VINA RESULT:      -2.5     12.640     13.348
REMARK  6 active torsions:
REMARK  status: ('A' for Active; 'I' for Inactive)
REMARK    1  A    between atoms: C2_2  and  C3_3 
REMARK    2  A    between atoms: C2_2  and  O6_6 
REMARK    3  A    between atoms: C3_3  and  S8_8 
REMARK    4  A    between atoms: C4_4  and  C5_5 
REMARK    5  A    between atoms: C4_4  and  S7_7 
REMARK    6  A    between atoms: C5_5  and  S8_8 
ROOT
HETATM    1  S8  UNL     1     -32.947   5.541   2.872  1.00 20.00    -0.166 SA
ENDROOT
BRANCH   1   2
HETATM    2  C3  UNL     1     -34.227   5.950   4.100  1.00 20.00     0.100 C 
BRANCH   2   3
HETATM    3  C2  UNL     1     -34.555   4.754   4.979  1.00 20.00     0.177 C 
BRANCH   3   4
HETATM    4  O6  UNL     1     -34.543   5.137   6.348  1.00 20.00    -0.395 OA
HETATM    5  C1  UNL     1     -34.362   6.538   6.497  1.00 20.00     0.201 C 
ENDBRANCH   3   4
ENDBRANCH   2   3
ENDBRANCH   1   2
BRANCH   1   6
HETATM    6  C5  UNL     1     -32.097   7.134   2.843  1.00 20.00     0.084 C 
BRANCH   6   7
HETATM    7  C4  UNL     1     -32.982   8.212   3.452  1.00 20.00     0.081 C 
BRANCH   7   8
HETATM    8  S7  UNL     1     -32.140   8.990   4.862  1.00 20.00    -0.181 SA
HETATM    9  H20 UNL     1     -32.594   8.133   5.787  1.00 20.00     0.101 HD
ENDBRANCH   7   8
ENDBRANCH   6   7
ENDBRANCH   1   6
TORSDOF 6
ENDMDL
MODEL 9
REMARK VINA RESULT:      -2.5     12.397     12.998
REMARK  6 active torsions:
REMARK  status: ('A' for Active; 'I' for Inactive)
REMARK    1  A    between atoms: C2_2  and  C3_3 
REMARK    2  A    between atoms: C2_2  and  O6_6 
REMARK    3  A    between atoms: C3_3  and  S8_8 
REMARK    4  A    between atoms: C4_4  and  C5_5 
REMARK    5  A    between atoms: C4_4  and  S7_7 
REMARK    6  A    between atoms: C5_5  and  S8_8 
ROOT
HETATM    1  S8  UNL     1     -33.800   8.216   5.018  1.00 20.00    -0.166 SA
ENDROOT
BRANCH   1   2
HETATM    2  C3  UNL     1     -33.582   6.907   6.263  1.00 20.00     0.100 C 
BRANCH   2   3
HETATM    3  C2  UNL     1     -34.727   5.907   6.223  1.00 20.00     0.177 C 
BRANCH   3   4
HETATM    4  O6  UNL     1     -35.023   5.558   4.878  1.00 20.00    -0.395 OA
HETATM    5  C1  UNL     1     -34.153   4.542   4.399  1.00 20.00     0.201 C 
ENDBRANCH   3   4
ENDBRANCH   2   3
ENDBRANCH   1   2
BRANCH   1   6
HETATM    6  C5  UNL     1     -32.157   8.139   4.271  1.00 20.00     0.084 C 
BRANCH   6   7
HETATM    7  C4  UNL     1     -32.192   7.284   3.013  1.00 20.00     0.081 C 
BRANCH   7   8
HETATM    8  S7  UNL     1     -32.245   8.343   1.537  1.00 20.00    -0.181 SA
HETATM    9  H20 UNL     1     -33.581   8.374   1.435  1.00 20.00     0.101 HD
ENDBRANCH   7   8
ENDBRANCH   6   7
ENDBRANCH   1   6
TORSDOF 6
ENDMDL
