MODEL 1
REMARK VINA RESULT:      -4.4      0.000      0.000
REMARK  2 active torsions:
REMARK  status: ('A' for Active; 'I' for Inactive)
REMARK    1  A    between atoms: C5_5  and  C10_10 
REMARK    2  A    between atoms: C6_6  and  C11_11 
ROOT
HETATM    1  C1  UNL     1     -33.302  15.908  -3.052  1.00 20.00     0.008 A 
HETATM    2  C2  UNL     1     -34.526  17.964  -3.377  1.00 20.00     0.008 A 
HETATM    3  C3  UNL     1     -33.689  15.477  -4.321  1.00 20.00     0.010 A 
HETATM    4  C4  UNL     1     -34.914  17.534  -4.647  1.00 20.00     0.010 A 
HETATM    5  C5  UNL     1     -33.720  17.152  -2.581  1.00 20.00    -0.054 A 
HETATM    6  C6  UNL     1     -34.494  16.290  -5.118  1.00 20.00    -0.027 A 
ENDROOT
BRANCH   5   7
HETATM    7  C10 UNL     1     -33.307  17.612  -1.225  1.00 20.00     0.018 A 
HETATM    8  C7  UNL     1     -33.381  19.081  -0.896  1.00 20.00     0.010 A 
HETATM    9  C8  UNL     1     -32.048  18.426  -1.078  1.00 20.00     0.010 A 
ENDBRANCH   5   7
BRANCH   6  10
HETATM   10  C11 UNL     1     -34.908  15.829  -6.473  1.00 20.00     0.178 A 
HETATM   11  C9  UNL     1     -34.124  16.272  -7.679  1.00 20.00     0.205 A 
HETATM   12  O12 UNL     1     -34.005  14.948  -7.156  1.00 20.00    -0.376 OA
ENDBRANCH   6  10
TORSDOF 2
ENDMDL
MODEL 2
REMARK VINA RESULT:      -4.4      0.070      1.396
REMARK  2 active torsions:
REMARK  status: ('A' for Active; 'I' for Inactive)
REMARK    1  A    between atoms: C5_5  and  C10_10 
REMARK    2  A    between atoms: C6_6  and  C11_11 
ROOT
HETATM    1  C1  UNL     1     -34.525  17.953  -3.421  1.00 20.00     0.008 A 
HETATM    2  C2  UNL     1     -33.285  15.900  -3.137  1.00 20.00     0.008 A 
HETATM    3  C3  UNL     1     -34.918  17.540  -4.694  1.00 20.00     0.010 A 
HETATM    4  C4  UNL     1     -33.679  15.485  -4.409  1.00 20.00     0.010 A 
HETATM    5  C5  UNL     1     -33.708  17.133  -2.643  1.00 20.00    -0.054 A 
HETATM    6  C6  UNL     1     -34.496  16.306  -5.187  1.00 20.00    -0.027 A 
ENDROOT
BRANCH   5   7
HETATM    7  C10 UNL     1     -33.287  17.576  -1.284  1.00 20.00     0.018 A 
HETATM    8  C7  UNL     1     -33.399  19.033  -0.920  1.00 20.00     0.010 A 
HETATM    9  C8  UNL     1     -32.050  18.424  -1.138  1.00 20.00     0.010 A 
ENDBRANCH   5   7
BRANCH   6  10
HETATM   10  C11 UNL     1     -34.917  15.864  -6.547  1.00 20.00     0.178 A 
HETATM   11  C9  UNL     1     -34.106  16.278  -7.746  1.00 20.00     0.205 A 
HETATM   12  O12 UNL     1     -34.043  14.950  -7.224  1.00 20.00    -0.376 OA
ENDBRANCH   6  10
TORSDOF 2
ENDMDL
MODEL 3
REMARK VINA RESULT:      -4.4     11.169     12.407
REMARK  2 active torsions:
REMARK  status: ('A' for Active; 'I' for Inactive)
REMARK    1  A    between atoms: C5_5  and  C10_10 
REMARK    2  A    between atoms: C6_6  and  C11_11 
ROOT
HETATM    1  C1  UNL     1     -32.975   8.457   4.736  1.00 20.00     0.008 A 
HETATM    2  C2  UNL     1     -33.118   6.212   3.856  1.00 20.00     0.008 A 
HETATM    3  C3  UNL     1     -32.561   8.920   3.488  1.00 20.00     0.010 A 
HETATM    4  C4  UNL     1     -32.705   6.675   2.607  1.00 20.00     0.010 A 
HETATM    5  C5  UNL     1     -33.253   7.103   4.921  1.00 20.00    -0.054 A 
HETATM    6  C6  UNL     1     -32.426   8.029   2.423  1.00 20.00    -0.027 A 
ENDROOT
BRANCH   5   7
HETATM    7  C10 UNL     1     -33.695   6.608   6.255  1.00 20.00     0.018 A 
HETATM    8  C7  UNL     1     -33.957   5.136   6.441  1.00 20.00     0.010 A 
HETATM    9  C8  UNL     1     -35.103   6.098   6.420  1.00 20.00     0.010 A 
ENDBRANCH   5   7
BRANCH   6  10
HETATM   10  C11 UNL     1     -31.984   8.524   1.089  1.00 20.00     0.178 A 
HETATM   11  C9  UNL     1     -32.965   8.559  -0.053  1.00 20.00     0.205 A 
HETATM   12  O12 UNL     1     -32.572   9.750   0.631  1.00 20.00    -0.376 OA
ENDBRANCH   6  10
TORSDOF 2
ENDMDL
MODEL 4
REMARK VINA RESULT:      -4.2      1.288      1.689
REMARK  2 active torsions:
REMARK  status: ('A' for Active; 'I' for Inactive)
REMARK    1  A    between atoms: C5_5  and  C10_10 
REMARK    2  A    between atoms: C6_6  and  C11_11 
ROOT
HETATM    1  C1  UNL     1     -32.995  17.016  -2.073  1.00 20.00     0.008 A 
HETATM    2  C2  UNL     1     -33.273  18.970  -3.465  1.00 20.00     0.008 A 
HETATM    3  C3  UNL     1     -33.652  16.241  -3.029  1.00 20.00     0.010 A 
HETATM    4  C4  UNL     1     -33.929  18.196  -4.422  1.00 20.00     0.010 A 
HETATM    5  C5  UNL     1     -32.806  18.380  -2.291  1.00 20.00    -0.054 A 
HETATM    6  C6  UNL     1     -34.118  16.831  -4.203  1.00 20.00    -0.027 A 
ENDROOT
BRANCH   5   7
HETATM    7  C10 UNL     1     -32.106  19.208  -1.268  1.00 20.00     0.018 A 
HETATM    8  C7  UNL     1     -31.357  18.520  -0.157  1.00 20.00     0.010 A 
HETATM    9  C8  UNL     1     -32.637  19.236   0.142  1.00 20.00     0.010 A 
ENDBRANCH   5   7
BRANCH   6  10
HETATM   10  C11 UNL     1     -34.819  16.003  -5.226  1.00 20.00     0.178 A 
HETATM   11  C9  UNL     1     -34.017  15.112  -6.136  1.00 20.00     0.205 A 
HETATM   12  O12 UNL     1     -34.770  14.581  -5.044  1.00 20.00    -0.376 OA
ENDBRANCH   6  10
TORSDOF 2
ENDMDL
MODEL 5
REMARK VINA RESULT:      -4.2     11.403     12.957
REMARK  2 active torsions:
REMARK  status: ('A' for Active; 'I' for Inactive)
REMARK    1  A    between atoms: C5_5  and  C10_10 
REMARK    2  A    between atoms: C6_6  and  C11_11 
ROOT
HETATM    1  C1  UNL     1     -32.751   6.606   2.693  1.00 20.00     0.008 A 
HETATM    2  C2  UNL     1     -32.622   8.862   3.545  1.00 20.00     0.008 A 
HETATM    3  C3  UNL     1     -33.204   6.162   3.935  1.00 20.00     0.010 A 
HETATM    4  C4  UNL     1     -33.076   8.419   4.788  1.00 20.00     0.010 A 
HETATM    5  C5  UNL     1     -32.460   7.955   2.498  1.00 20.00    -0.054 A 
HETATM    6  C6  UNL     1     -33.367   7.068   4.982  1.00 20.00    -0.027 A 
ENDROOT
BRANCH   5   7
HETATM    7  C10 UNL     1     -31.975   8.429   1.171  1.00 20.00     0.018 A 
HETATM    8  C7  UNL     1     -32.598   9.657   0.559  1.00 20.00     0.010 A 
HETATM    9  C8  UNL     1     -32.881   8.309  -0.027  1.00 20.00     0.010 A 
ENDBRANCH   5   7
BRANCH   6  10
HETATM   10  C11 UNL     1     -33.851   6.594   6.309  1.00 20.00     0.178 A 
HETATM   11  C9  UNL     1     -35.112   5.775   6.390  1.00 20.00     0.205 A 
HETATM   12  O12 UNL     1     -33.822   5.178   6.535  1.00 20.00    -0.376 OA
ENDBRANCH   6  10
TORSDOF 2
ENDMDL
MODEL 6
REMARK VINA RESULT:      -4.0     12.864     14.372
REMARK  2 active torsions:
REMARK  status: ('A' for Active; 'I' for Inactive)
REMARK    1  A    between atoms: C5_5  and  C10_10 
REMARK    2  A    between atoms: C6_6  and  C11_11 
ROOT
HETATM    1  C1  UNL     1     -40.268  13.935   6.682  1.00 20.00     0.008 A 
HETATM    2  C2  UNL     1     -42.066  12.324   6.613  1.00 20.00     0.008 A 
HETATM    3  C3  UNL     1     -41.144  14.890   7.199  1.00 20.00     0.010 A 
HETATM    4  C4  UNL     1     -42.942  13.278   7.130  1.00 20.00     0.010 A 
HETATM    5  C5  UNL     1     -40.729  12.652   6.389  1.00 20.00    -0.054 A 
HETATM    6  C6  UNL     1     -42.480  14.561   7.423  1.00 20.00    -0.027 A 
ENDROOT
BRANCH   5   7
HETATM    7  C10 UNL     1     -39.794  11.632   5.836  1.00 20.00     0.018 A 
HETATM    8  C7  UNL     1     -38.387  12.043   5.484  1.00 20.00     0.010 A 
HETATM    9  C8  UNL     1     -39.366  11.734   4.395  1.00 20.00     0.010 A 
ENDBRANCH   5   7
BRANCH   6  10
HETATM   10  C11 UNL     1     -43.416  15.581   7.975  1.00 20.00     0.178 A 
HETATM   11  C9  UNL     1     -43.415  15.866   9.454  1.00 20.00     0.205 A 
HETATM   12  O12 UNL     1     -42.823  16.769   8.518  1.00 20.00    -0.376 OA
ENDBRANCH   6  10
TORSDOF 2
ENDMDL
MODEL 7
REMARK VINA RESULT:      -3.9     11.736     13.209
REMARK  2 active torsions:
REMARK  status: ('A' for Active; 'I' for Inactive)
REMARK    1  A    between atoms: C5_5  and  C10_10 
REMARK    2  A    between atoms: C6_6  and  C11_11 
ROOT
HETATM    1  C1  UNL     1     -40.402  13.966   7.030  1.00 20.00     0.008 A 
HETATM    2  C2  UNL     1     -41.676  13.730   4.992  1.00 20.00     0.008 A 
HETATM    3  C3  UNL     1     -41.078  15.152   7.315  1.00 20.00     0.010 A 
HETATM    4  C4  UNL     1     -42.354  14.915   5.277  1.00 20.00     0.010 A 
HETATM    5  C5  UNL     1     -40.700  13.255   5.868  1.00 20.00    -0.054 A 
HETATM    6  C6  UNL     1     -42.054  15.626   6.439  1.00 20.00    -0.027 A 
ENDROOT
BRANCH   5   7
HETATM    7  C10 UNL     1     -39.977  11.989   5.563  1.00 20.00     0.018 A 
HETATM    8  C7  UNL     1     -38.471  11.997   5.523  1.00 20.00     0.010 A 
HETATM    9  C8  UNL     1     -39.247  11.858   4.251  1.00 20.00     0.010 A 
ENDBRANCH   5   7
BRANCH   6  10
HETATM   10  C11 UNL     1     -42.777  16.893   6.744  1.00 20.00     0.178 A 
HETATM   11  C9  UNL     1     -42.212  18.204   6.266  1.00 20.00     0.205 A 
HETATM   12  O12 UNL     1     -43.337  17.597   5.628  1.00 20.00    -0.376 OA
ENDBRANCH   6  10
TORSDOF 2
ENDMDL
MODEL 8
REMARK VINA RESULT:      -3.7      2.197      3.756
REMARK  2 active torsions:
REMARK  status: ('A' for Active; 'I' for Inactive)
REMARK    1  A    between atoms: C5_5  and  C10_10 
REMARK    2  A    between atoms: C6_6  and  C11_11 
ROOT
HETATM    1  C1  UNL     1     -33.504  17.864   0.218  1.00 20.00     0.008 A 
HETATM    2  C2  UNL     1     -31.789  19.113  -0.936  1.00 20.00     0.008 A 
HETATM    3  C3  UNL     1     -33.974  17.381  -1.003  1.00 20.00     0.010 A 
HETATM    4  C4  UNL     1     -32.258  18.630  -2.157  1.00 20.00     0.010 A 
HETATM    5  C5  UNL     1     -32.411  18.730   0.252  1.00 20.00    -0.054 A 
HETATM    6  C6  UNL     1     -33.351  17.764  -2.190  1.00 20.00    -0.027 A 
ENDROOT
BRANCH   5   7
HETATM    7  C10 UNL     1     -31.910  19.247   1.557  1.00 20.00     0.018 A 
HETATM    8  C7  UNL     1     -30.426  19.263   1.817  1.00 20.00     0.010 A 
HETATM    9  C8  UNL     1     -31.297  18.284   2.541  1.00 20.00     0.010 A 
ENDBRANCH   5   7
BRANCH   6  10
HETATM   10  C11 UNL     1     -33.853  17.247  -3.495  1.00 20.00     0.178 A 
HETATM   11  C9  UNL     1     -35.025  17.921  -4.158  1.00 20.00     0.205 A 
HETATM   12  O12 UNL     1     -33.689  18.107  -4.631  1.00 20.00    -0.376 OA
ENDBRANCH   6  10
TORSDOF 2
ENDMDL
MODEL 9
REMARK VINA RESULT:      -3.7     13.644     15.198
REMARK  2 active torsions:
REMARK  status: ('A' for Active; 'I' for Inactive)
REMARK    1  A    between atoms: C5_5  and  C10_10 
REMARK    2  A    between atoms: C6_6  and  C11_11 
ROOT
HETATM    1  C1  UNL     1     -40.466  14.097   7.373  1.00 20.00     0.008 A 
HETATM    2  C2  UNL     1     -42.014  12.405   6.616  1.00 20.00     0.008 A 
HETATM    3  C3  UNL     1     -41.314  14.396   8.440  1.00 20.00     0.010 A 
HETATM    4  C4  UNL     1     -42.862  12.703   7.683  1.00 20.00     0.010 A 
HETATM    5  C5  UNL     1     -40.816  13.102   6.462  1.00 20.00    -0.054 A 
HETATM    6  C6  UNL     1     -42.511  13.699   8.594  1.00 20.00    -0.027 A 
ENDROOT
BRANCH   5   7
HETATM    7  C10 UNL     1     -39.911  12.783   5.322  1.00 20.00     0.018 A 
HETATM    8  C7  UNL     1     -39.671  11.341   4.958  1.00 20.00     0.010 A 
HETATM    9  C8  UNL     1     -38.578  12.137   5.601  1.00 20.00     0.010 A 
ENDBRANCH   5   7
BRANCH   6  10
HETATM   10  C11 UNL     1     -43.417  14.019   9.734  1.00 20.00     0.178 A 
HETATM   11  C9  UNL     1     -43.222  13.323  11.055  1.00 20.00     0.205 A 
HETATM   12  O12 UNL     1     -42.824  14.681  10.860  1.00 20.00    -0.376 OA
ENDBRANCH   6  10
TORSDOF 2
ENDMDL
