MODEL 1
REMARK VINA RESULT:      -3.3      0.000      0.000
REMARK  5 active torsions:
REMARK  status: ('A' for Active; 'I' for Inactive)
REMARK    1  A    between atoms: C1_1  and  C5_5 
REMARK    2  A    between atoms: C2_2  and  C6_6 
REMARK    3  A    between atoms: C5_5  and  O8_8 
REMARK    4  A    between atoms: C6_6  and  S9_9 
REMARK    5  A    between atoms: C7_7  and  O8_8 
ROOT
HETATM    1  C1  UNL     1     -33.421  16.567  -3.445  1.00 20.00    -0.004 C 
HETATM    2  C2  UNL     1     -33.741  15.323  -3.833  1.00 20.00    -0.019 C 
ENDROOT
BRANCH   1   3
HETATM    3  C5  UNL     1     -33.301  16.985  -2.016  1.00 20.00     0.195 C 
BRANCH   3   4
HETATM    4  O8  UNL     1     -32.591  18.214  -1.958  1.00 20.00    -0.383 OA
BRANCH   4   5
HETATM    5  C7  UNL     1     -32.584  18.753  -0.643  1.00 20.00     0.113 C 
HETATM    6  C3  UNL     1     -33.686  18.095   0.174  1.00 20.00     0.039 C 
HETATM    7  C4  UNL     1     -31.212  18.537  -0.021  1.00 20.00     0.039 C 
ENDBRANCH   4   5
ENDBRANCH   3   4
ENDBRANCH   1   3
BRANCH   2   8
HETATM    8  C6  UNL     1     -33.852  14.903  -5.264  1.00 20.00     0.097 C 
BRANCH   8   9
HETATM    9  S9  UNL     1     -35.596  14.756  -5.737  1.00 20.00    -0.178 SA
HETATM   10  H23 UNL     1     -35.928  13.868  -4.790  1.00 20.00     0.101 HD
ENDBRANCH   8   9
ENDBRANCH   2   8
TORSDOF 5
ENDMDL
MODEL 2
REMARK VINA RESULT:      -3.3     11.672     12.150
REMARK  5 active torsions:
REMARK  status: ('A' for Active; 'I' for Inactive)
REMARK    1  A    between atoms: C1_1  and  C5_5 
REMARK    2  A    between atoms: C2_2  and  C6_6 
REMARK    3  A    between atoms: C5_5  and  O8_8 
REMARK    4  A    between atoms: C6_6  and  S9_9 
REMARK    5  A    between atoms: C7_7  and  O8_8 
ROOT
HETATM    1  C1  UNL     1     -32.532   8.108   3.826  1.00 20.00    -0.004 C 
HETATM    2  C2  UNL     1     -32.524   7.548   2.607  1.00 20.00    -0.019 C 
ENDROOT
BRANCH   1   3
HETATM    3  C5  UNL     1     -33.242   7.523   5.003  1.00 20.00     0.195 C 
BRANCH   3   4
HETATM    4  O8  UNL     1     -34.528   7.085   4.589  1.00 20.00    -0.383 OA
BRANCH   4   5
HETATM    5  C7  UNL     1     -34.854   5.819   5.147  1.00 20.00     0.113 C 
HETATM    6  C3  UNL     1     -34.206   4.723   4.314  1.00 20.00     0.039 C 
HETATM    7  C4  UNL     1     -34.391   5.777   6.596  1.00 20.00     0.039 C 
ENDBRANCH   4   5
ENDBRANCH   3   4
ENDBRANCH   1   3
BRANCH   2   8
HETATM    8  C6  UNL     1     -31.805   8.129   1.431  1.00 20.00     0.097 C 
BRANCH   8   9
HETATM    9  S9  UNL     1     -32.829   9.398   0.638  1.00 20.00    -0.178 SA
HETATM   10  H23 UNL     1     -31.861   9.899  -0.141  1.00 20.00     0.101 HD
ENDBRANCH   8   9
ENDBRANCH   2   8
TORSDOF 5
ENDMDL
MODEL 3
REMARK VINA RESULT:      -3.3      3.142      5.456
REMARK  5 active torsions:
REMARK  status: ('A' for Active; 'I' for Inactive)
REMARK    1  A    between atoms: C1_1  and  C5_5 
REMARK    2  A    between atoms: C2_2  and  C6_6 
REMARK    3  A    between atoms: C5_5  and  O8_8 
REMARK    4  A    between atoms: C6_6  and  S9_9 
REMARK    5  A    between atoms: C7_7  and  O8_8 
ROOT
HETATM    1  C1  UNL     1     -33.165  16.038  -3.587  1.00 20.00    -0.004 C 
HETATM    2  C2  UNL     1     -33.506  16.536  -2.388  1.00 20.00    -0.019 C 
ENDROOT
BRANCH   1   3
HETATM    3  C5  UNL     1     -33.741  14.784  -4.159  1.00 20.00     0.195 C 
BRANCH   3   4
HETATM    4  O8  UNL     1     -34.100  15.023  -5.513  1.00 20.00    -0.383 OA
BRANCH   4   5
HETATM    5  C7  UNL     1     -35.472  14.738  -5.748  1.00 20.00     0.113 C 
HETATM    6  C3  UNL     1     -35.969  13.760  -4.694  1.00 20.00     0.039 C 
HETATM    7  C4  UNL     1     -36.263  16.038  -5.733  1.00 20.00     0.039 C 
ENDBRANCH   4   5
ENDBRANCH   3   4
ENDBRANCH   1   3
BRANCH   2   8
HETATM    8  C6  UNL     1     -32.936  17.796  -1.820  1.00 20.00     0.097 C 
BRANCH   8   9
HETATM    9  S9  UNL     1     -33.727  18.182  -0.237  1.00 20.00    -0.178 SA
HETATM   10  H23 UNL     1     -34.896  17.585  -0.510  1.00 20.00     0.101 HD
ENDBRANCH   8   9
ENDBRANCH   2   8
TORSDOF 5
ENDMDL
MODEL 4
REMARK VINA RESULT:      -3.2      3.043      5.555
REMARK  5 active torsions:
REMARK  status: ('A' for Active; 'I' for Inactive)
REMARK    1  A    between atoms: C1_1  and  C5_5 
REMARK    2  A    between atoms: C2_2  and  C6_6 
REMARK    3  A    between atoms: C5_5  and  O8_8 
REMARK    4  A    between atoms: C6_6  and  S9_9 
REMARK    5  A    between atoms: C7_7  and  O8_8 
ROOT
HETATM    1  C1  UNL     1     -33.161  16.948  -2.812  1.00 20.00    -0.004 C 
HETATM    2  C2  UNL     1     -33.631  17.074  -1.562  1.00 20.00    -0.019 C 
ENDROOT
BRANCH   1   3
HETATM    3  C5  UNL     1     -33.374  15.737  -3.661  1.00 20.00     0.195 C 
BRANCH   3   4
HETATM    4  O8  UNL     1     -34.301  16.057  -4.689  1.00 20.00    -0.383 OA
BRANCH   4   5
HETATM    5  C7  UNL     1     -34.474  14.974  -5.592  1.00 20.00     0.113 C 
HETATM    6  C3  UNL     1     -35.908  14.472  -5.504  1.00 20.00     0.039 C 
HETATM    7  C4  UNL     1     -34.121  15.434  -6.999  1.00 20.00     0.039 C 
ENDBRANCH   4   5
ENDBRANCH   3   4
ENDBRANCH   1   3
BRANCH   2   8
HETATM    8  C6  UNL     1     -33.425  18.291  -0.717  1.00 20.00     0.097 C 
BRANCH   8   9
HETATM    9  S9  UNL     1     -31.654  18.605  -0.496  1.00 20.00    -0.178 SA
HETATM   10  H23 UNL     1     -31.231  17.560  -1.221  1.00 20.00     0.101 HD
ENDBRANCH   8   9
ENDBRANCH   2   8
TORSDOF 5
ENDMDL
MODEL 5
REMARK VINA RESULT:      -3.2      3.246      5.707
REMARK  5 active torsions:
REMARK  status: ('A' for Active; 'I' for Inactive)
REMARK    1  A    between atoms: C1_1  and  C5_5 
REMARK    2  A    between atoms: C2_2  and  C6_6 
REMARK    3  A    between atoms: C5_5  and  O8_8 
REMARK    4  A    between atoms: C6_6  and  S9_9 
REMARK    5  A    between atoms: C7_7  and  O8_8 
ROOT
HETATM    1  C1  UNL     1     -33.295  16.386  -3.573  1.00 20.00    -0.004 C 
HETATM    2  C2  UNL     1     -33.257  16.936  -2.350  1.00 20.00    -0.019 C 
ENDROOT
BRANCH   1   3
HETATM    3  C5  UNL     1     -33.678  14.966  -3.832  1.00 20.00     0.195 C 
BRANCH   3   4
HETATM    4  O8  UNL     1     -33.524  14.697  -5.219  1.00 20.00    -0.383 OA
BRANCH   4   5
HETATM    5  C7  UNL     1     -34.497  15.383  -5.995  1.00 20.00     0.113 C 
HETATM    6  C3  UNL     1     -34.001  15.503  -7.428  1.00 20.00     0.039 C 
HETATM    7  C4  UNL     1     -35.820  14.635  -5.914  1.00 20.00     0.039 C 
ENDBRANCH   4   5
ENDBRANCH   3   4
ENDBRANCH   1   3
BRANCH   2   8
HETATM    8  C6  UNL     1     -32.882  18.362  -2.093  1.00 20.00     0.097 C 
BRANCH   8   9
HETATM    9  S9  UNL     1     -31.810  18.472  -0.636  1.00 20.00    -0.178 SA
HETATM   10  H23 UNL     1     -32.791  18.696   0.249  1.00 20.00     0.101 HD
ENDBRANCH   8   9
ENDBRANCH   2   8
TORSDOF 5
ENDMDL
MODEL 6
REMARK VINA RESULT:      -3.2     11.562     12.171
REMARK  5 active torsions:
REMARK  status: ('A' for Active; 'I' for Inactive)
REMARK    1  A    between atoms: C1_1  and  C5_5 
REMARK    2  A    between atoms: C2_2  and  C6_6 
REMARK    3  A    between atoms: C5_5  and  O8_8 
REMARK    4  A    between atoms: C6_6  and  S9_9 
REMARK    5  A    between atoms: C7_7  and  O8_8 
ROOT
HETATM    1  C1  UNL     1     -33.586   7.652   5.258  1.00 20.00    -0.004 C 
HETATM    2  C2  UNL     1     -33.848   6.950   6.372  1.00 20.00    -0.019 C 
ENDROOT
BRANCH   1   3
HETATM    3  C5  UNL     1     -32.796   8.919   5.243  1.00 20.00     0.195 C 
BRANCH   3   4
HETATM    4  O8  UNL     1     -32.040   8.971   4.041  1.00 20.00    -0.383 OA
BRANCH   4   5
HETATM    5  C7  UNL     1     -32.761   8.423   2.946  1.00 20.00     0.113 C 
HETATM    6  C3  UNL     1     -32.845   9.456   1.833  1.00 20.00     0.039 C 
HETATM    7  C4  UNL     1     -32.072   7.147   2.483  1.00 20.00     0.039 C 
ENDBRANCH   4   5
ENDBRANCH   3   4
ENDBRANCH   1   3
BRANCH   2   8
HETATM    8  C6  UNL     1     -34.632   5.676   6.384  1.00 20.00     0.097 C 
BRANCH   8   9
HETATM    9  S9  UNL     1     -34.591   4.902   4.746  1.00 20.00    -0.178 SA
HETATM   10  H23 UNL     1     -35.202   3.766   5.108  1.00 20.00     0.101 HD
ENDBRANCH   8   9
ENDBRANCH   2   8
TORSDOF 5
ENDMDL
MODEL 7
REMARK VINA RESULT:      -3.2      3.003      5.425
REMARK  5 active torsions:
REMARK  status: ('A' for Active; 'I' for Inactive)
REMARK    1  A    between atoms: C1_1  and  C5_5 
REMARK    2  A    between atoms: C2_2  and  C6_6 
REMARK    3  A    between atoms: C5_5  and  O8_8 
REMARK    4  A    between atoms: C6_6  and  S9_9 
REMARK    5  A    between atoms: C7_7  and  O8_8 
ROOT
HETATM    1  C1  UNL     1     -33.039  17.062  -2.496  1.00 20.00    -0.004 C 
HETATM    2  C2  UNL     1     -33.676  17.231  -1.327  1.00 20.00    -0.019 C 
ENDROOT
BRANCH   1   3
HETATM    3  C5  UNL     1     -33.346  15.959  -3.455  1.00 20.00     0.195 C 
BRANCH   3   4
HETATM    4  O8  UNL     1     -34.050  16.501  -4.564  1.00 20.00    -0.383 OA
BRANCH   4   5
HETATM    5  C7  UNL     1     -34.778  15.499  -5.262  1.00 20.00     0.113 C 
HETATM    6  C3  UNL     1     -34.160  15.298  -6.637  1.00 20.00     0.039 C 
HETATM    7  C4  UNL     1     -34.771  14.215  -4.444  1.00 20.00     0.039 C 
ENDBRANCH   4   5
ENDBRANCH   3   4
ENDBRANCH   1   3
BRANCH   2   8
HETATM    8  C6  UNL     1     -33.374  18.341  -0.371  1.00 20.00     0.097 C 
BRANCH   8   9
HETATM    9  S9  UNL     1     -31.591  18.660  -0.327  1.00 20.00    -0.178 SA
HETATM   10  H23 UNL     1     -31.366  18.063   0.851  1.00 20.00     0.101 HD
ENDBRANCH   8   9
ENDBRANCH   2   8
TORSDOF 5
ENDMDL
MODEL 8
REMARK VINA RESULT:      -3.1      4.311      6.297
REMARK  5 active torsions:
REMARK  status: ('A' for Active; 'I' for Inactive)
REMARK    1  A    between atoms: C1_1  and  C5_5 
REMARK    2  A    between atoms: C2_2  and  C6_6 
REMARK    3  A    between atoms: C5_5  and  O8_8 
REMARK    4  A    between atoms: C6_6  and  S9_9 
REMARK    5  A    between atoms: C7_7  and  O8_8 
ROOT
HETATM    1  C1  UNL     1     -30.839  18.583   0.958  1.00 20.00    -0.004 C 
HETATM    2  C2  UNL     1     -31.593  18.839   2.038  1.00 20.00    -0.019 C 
ENDROOT
BRANCH   1   3
HETATM    3  C5  UNL     1     -31.377  18.518  -0.434  1.00 20.00     0.195 C 
BRANCH   3   4
HETATM    4  O8  UNL     1     -32.740  18.123  -0.378  1.00 20.00    -0.383 OA
BRANCH   4   5
HETATM    5  C7  UNL     1     -33.350  18.167  -1.661  1.00 20.00     0.113 C 
HETATM    6  C3  UNL     1     -33.419  16.759  -2.232  1.00 20.00     0.039 C 
HETATM    7  C4  UNL     1     -34.731  18.796  -1.537  1.00 20.00     0.039 C 
ENDBRANCH   4   5
ENDBRANCH   3   4
ENDBRANCH   1   3
BRANCH   2   8
HETATM    8  C6  UNL     1     -31.051  18.913   3.430  1.00 20.00     0.097 C 
BRANCH   8   9
HETATM    9  S9  UNL     1     -29.242  18.811   3.402  1.00 20.00    -0.178 SA
HETATM   10  H23 UNL     1     -29.120  18.787   2.067  1.00 20.00     0.101 HD
ENDBRANCH   8   9
ENDBRANCH   2   8
TORSDOF 5
ENDMDL
MODEL 9
REMARK VINA RESULT:      -3.0      1.083      1.594
REMARK  5 active torsions:
REMARK  status: ('A' for Active; 'I' for Inactive)
REMARK    1  A    between atoms: C1_1  and  C5_5 
REMARK    2  A    between atoms: C2_2  and  C6_6 
REMARK    3  A    between atoms: C5_5  and  O8_8 
REMARK    4  A    between atoms: C6_6  and  S9_9 
REMARK    5  A    between atoms: C7_7  and  O8_8 
ROOT
HETATM    1  C1  UNL     1     -33.306  16.188  -3.087  1.00 20.00    -0.004 C 
HETATM    2  C2  UNL     1     -33.976  16.199  -4.249  1.00 20.00    -0.019 C 
ENDROOT
BRANCH   1   3
HETATM    3  C5  UNL     1     -33.058  17.408  -2.261  1.00 20.00     0.195 C 
BRANCH   3   4
HETATM    4  O8  UNL     1     -33.823  17.314  -1.068  1.00 20.00    -0.383 OA
BRANCH   4   5
HETATM    5  C7  UNL     1     -33.261  18.098  -0.024  1.00 20.00     0.113 C 
HETATM    6  C3  UNL     1     -31.887  18.590  -0.450  1.00 20.00     0.039 C 
HETATM    7  C4  UNL     1     -34.201  19.251   0.297  1.00 20.00     0.039 C 
ENDBRANCH   4   5
ENDBRANCH   3   4
ENDBRANCH   1   3
BRANCH   2   8
HETATM    8  C6  UNL     1     -34.232  14.976  -5.071  1.00 20.00     0.097 C 
BRANCH   8   9
HETATM    9  S9  UNL     1     -34.303  15.409  -6.830  1.00 20.00    -0.178 SA
HETATM   10  H23 UNL     1     -35.123  14.412  -7.191  1.00 20.00     0.101 HD
ENDBRANCH   8   9
ENDBRANCH   2   8
TORSDOF 5
ENDMDL
