MODEL 1
REMARK VINA RESULT:      -3.2      0.000      0.000
REMARK  5 active torsions:
REMARK  status: ('A' for Active; 'I' for Inactive)
REMARK    1  A    between atoms: C3_3  and  C6_6 
REMARK    2  A    between atoms: C4_4  and  C6_6 
REMARK    3  A    between atoms: C4_4  and  O7_7 
REMARK    4  A    between atoms: C5_5  and  C6_6 
REMARK    5  A    between atoms: C5_5  and  S8_8 
ROOT
HETATM    1  C6  UNL     1     -33.580   6.588   4.431  1.00 20.00     0.018 C 
ENDROOT
BRANCH   1   2
HETATM    2  C3  UNL     1     -32.803   6.410   3.109  1.00 20.00     0.003 C 
HETATM    3  C1  UNL     1     -32.929   5.019   2.504  1.00 20.00     0.005 C 
ENDBRANCH   1   2
BRANCH   1   4
HETATM    4  C4  UNL     1     -34.937   5.871   4.326  1.00 20.00     0.172 C 
BRANCH   4   5
HETATM    5  O7  UNL     1     -34.988   4.780   5.236  1.00 20.00    -0.396 OA
HETATM    6  C2  UNL     1     -34.457   5.136   6.506  1.00 20.00     0.201 C 
ENDBRANCH   4   5
ENDBRANCH   1   4
BRANCH   1   7
HETATM    7  C5  UNL     1     -33.705   8.051   4.908  1.00 20.00     0.077 C 
BRANCH   7   8
HETATM    8  S8  UNL     1     -32.200   9.059   4.738  1.00 20.00    -0.182 SA
HETATM    9  H22 UNL     1     -31.395   8.048   4.386  1.00 20.00     0.101 HD
ENDBRANCH   7   8
ENDBRANCH   1   7
TORSDOF 5
ENDMDL
MODEL 2
REMARK VINA RESULT:      -3.1      9.484     10.386
REMARK  5 active torsions:
REMARK  status: ('A' for Active; 'I' for Inactive)
REMARK    1  A    between atoms: C3_3  and  C6_6 
REMARK    2  A    between atoms: C4_4  and  C6_6 
REMARK    3  A    between atoms: C4_4  and  O7_7 
REMARK    4  A    between atoms: C5_5  and  C6_6 
REMARK    5  A    between atoms: C5_5  and  S8_8 
ROOT
HETATM    1  C6  UNL     1     -40.822  12.894   6.117  1.00 20.00     0.018 C 
ENDROOT
BRANCH   1   2
HETATM    2  C3  UNL     1     -39.794  11.767   5.889  1.00 20.00     0.003 C 
HETATM    3  C1  UNL     1     -39.226  11.729   4.477  1.00 20.00     0.005 C 
ENDBRANCH   1   2
BRANCH   1   4
HETATM    4  C4  UNL     1     -40.177  14.013   6.954  1.00 20.00     0.172 C 
BRANCH   4   5
HETATM    5  O7  UNL     1     -40.092  13.620   8.318  1.00 20.00    -0.396 OA
HETATM    6  C2  UNL     1     -40.290  14.724   9.191  1.00 20.00     0.201 C 
ENDBRANCH   4   5
ENDBRANCH   1   4
BRANCH   1   7
HETATM    7  C5  UNL     1     -42.178  12.420   6.686  1.00 20.00     0.077 C 
BRANCH   7   8
HETATM    8  S8  UNL     1     -43.415  13.728   6.947  1.00 20.00    -0.182 SA
HETATM    9  H22 UNL     1     -42.677  14.447   7.804  1.00 20.00     0.101 HD
ENDBRANCH   7   8
ENDBRANCH   1   7
TORSDOF 5
ENDMDL
MODEL 3
REMARK VINA RESULT:      -3.1      1.480      2.884
REMARK  5 active torsions:
REMARK  status: ('A' for Active; 'I' for Inactive)
REMARK    1  A    between atoms: C3_3  and  C6_6 
REMARK    2  A    between atoms: C4_4  and  C6_6 
REMARK    3  A    between atoms: C4_4  and  O7_7 
REMARK    4  A    between atoms: C5_5  and  C6_6 
REMARK    5  A    between atoms: C5_5  and  S8_8 
ROOT
HETATM    1  C6  UNL     1     -33.913   7.322   5.009  1.00 20.00     0.018 C 
ENDROOT
BRANCH   1   2
HETATM    2  C3  UNL     1     -34.164   6.822   6.447  1.00 20.00     0.003 C 
HETATM    3  C1  UNL     1     -34.584   5.361   6.525  1.00 20.00     0.005 C 
ENDBRANCH   1   2
BRANCH   1   4
HETATM    4  C4  UNL     1     -34.051   6.146   4.026  1.00 20.00     0.172 C 
BRANCH   4   5
HETATM    5  O7  UNL     1     -32.887   6.042   3.217  1.00 20.00    -0.396 OA
HETATM    6  C2  UNL     1     -32.903   4.858   2.431  1.00 20.00     0.201 C 
ENDBRANCH   4   5
ENDBRANCH   1   4
BRANCH   1   7
HETATM    7  C5  UNL     1     -32.598   8.111   4.826  1.00 20.00     0.077 C 
BRANCH   7   8
HETATM    8  S8  UNL     1     -32.543   9.209   3.376  1.00 20.00    -0.182 SA
HETATM    9  H22 UNL     1     -31.492   9.930   3.789  1.00 20.00     0.101 HD
ENDBRANCH   7   8
ENDBRANCH   1   7
TORSDOF 5
ENDMDL
MODEL 4
REMARK VINA RESULT:      -3.0      2.781      3.582
REMARK  5 active torsions:
REMARK  status: ('A' for Active; 'I' for Inactive)
REMARK    1  A    between atoms: C3_3  and  C6_6 
REMARK    2  A    between atoms: C4_4  and  C6_6 
REMARK    3  A    between atoms: C4_4  and  O7_7 
REMARK    4  A    between atoms: C5_5  and  C6_6 
REMARK    5  A    between atoms: C5_5  and  S8_8 
ROOT
HETATM    1  C6  UNL     1     -33.687   7.059   4.241  1.00 20.00     0.018 C 
ENDROOT
BRANCH   1   2
HETATM    2  C3  UNL     1     -33.889   5.667   3.607  1.00 20.00     0.003 C 
HETATM    3  C1  UNL     1     -32.820   5.294   2.589  1.00 20.00     0.005 C 
ENDBRANCH   1   2
BRANCH   1   4
HETATM    4  C4  UNL     1     -32.371   7.670   3.728  1.00 20.00     0.172 C 
BRANCH   4   5
HETATM    5  O7  UNL     1     -32.617   8.934   3.126  1.00 20.00    -0.396 OA
HETATM    6  C2  UNL     1     -32.568   8.855   1.708  1.00 20.00     0.201 C 
ENDBRANCH   4   5
ENDBRANCH   1   4
BRANCH   1   7
HETATM    7  C5  UNL     1     -33.804   7.085   5.781  1.00 20.00     0.077 C 
BRANCH   7   8
HETATM    8  S8  UNL     1     -34.557   5.608   6.531  1.00 20.00    -0.182 SA
HETATM    9  H22 UNL     1     -35.781   5.806   6.026  1.00 20.00     0.101 HD
ENDBRANCH   7   8
ENDBRANCH   1   7
TORSDOF 5
ENDMDL
MODEL 5
REMARK VINA RESULT:      -3.0     13.021     13.833
REMARK  5 active torsions:
REMARK  status: ('A' for Active; 'I' for Inactive)
REMARK    1  A    between atoms: C3_3  and  C6_6 
REMARK    2  A    between atoms: C4_4  and  C6_6 
REMARK    3  A    between atoms: C4_4  and  O7_7 
REMARK    4  A    between atoms: C5_5  and  C6_6 
REMARK    5  A    between atoms: C5_5  and  S8_8 
ROOT
HETATM    1  C6  UNL     1     -32.794  18.475  -2.374  1.00 20.00     0.018 C 
ENDROOT
BRANCH   1   2
HETATM    2  C3  UNL     1     -33.237  17.054  -1.968  1.00 20.00     0.003 C 
HETATM    3  C1  UNL     1     -33.371  16.092  -3.140  1.00 20.00     0.005 C 
ENDBRANCH   1   2
BRANCH   1   4
HETATM    4  C4  UNL     1     -32.307  19.235  -1.128  1.00 20.00     0.172 C 
BRANCH   4   5
HETATM    5  O7  UNL     1     -31.007  18.794  -0.759  1.00 20.00    -0.396 OA
HETATM    6  C2  UNL     1     -30.920  18.538   0.636  1.00 20.00     0.201 C 
ENDBRANCH   4   5
ENDBRANCH   1   4
BRANCH   1   7
HETATM    7  C5  UNL     1     -33.840  19.263  -3.192  1.00 20.00     0.077 C 
BRANCH   7   8
HETATM    8  S8  UNL     1     -35.536  19.221  -2.534  1.00 20.00    -0.182 SA
HETATM    9  H22 UNL     1     -35.873  18.053  -3.095  1.00 20.00     0.101 HD
ENDBRANCH   7   8
ENDBRANCH   1   7
TORSDOF 5
ENDMDL
MODEL 6
REMARK VINA RESULT:      -3.0      2.610      3.948
REMARK  5 active torsions:
REMARK  status: ('A' for Active; 'I' for Inactive)
REMARK    1  A    between atoms: C3_3  and  C6_6 
REMARK    2  A    between atoms: C4_4  and  C6_6 
REMARK    3  A    between atoms: C4_4  and  O7_7 
REMARK    4  A    between atoms: C5_5  and  C6_6 
REMARK    5  A    between atoms: C5_5  and  S8_8 
ROOT
HETATM    1  C6  UNL     1     -33.499   6.860   5.011  1.00 20.00     0.018 C 
ENDROOT
BRANCH   1   2
HETATM    2  C3  UNL     1     -34.079   6.682   6.430  1.00 20.00     0.003 C 
HETATM    3  C1  UNL     1     -34.779   5.347   6.645  1.00 20.00     0.005 C 
ENDBRANCH   1   2
BRANCH   1   4
HETATM    4  C4  UNL     1     -33.569   8.344   4.612  1.00 20.00     0.172 C 
BRANCH   4   5
HETATM    5  O7  UNL     1     -32.367   8.735   3.961  1.00 20.00    -0.396 OA
HETATM    6  C2  UNL     1     -32.589   9.019   2.585  1.00 20.00     0.201 C 
ENDBRANCH   4   5
ENDBRANCH   1   4
BRANCH   1   7
HETATM    7  C5  UNL     1     -34.107   5.919   3.948  1.00 20.00     0.077 C 
BRANCH   7   8
HETATM    8  S8  UNL     1     -32.929   5.244   2.737  1.00 20.00    -0.182 SA
HETATM    9  H22 UNL     1     -32.711   4.092   3.384  1.00 20.00     0.101 HD
ENDBRANCH   7   8
ENDBRANCH   1   7
TORSDOF 5
ENDMDL
MODEL 7
REMARK VINA RESULT:      -3.0     12.396     13.044
REMARK  5 active torsions:
REMARK  status: ('A' for Active; 'I' for Inactive)
REMARK    1  A    between atoms: C3_3  and  C6_6 
REMARK    2  A    between atoms: C4_4  and  C6_6 
REMARK    3  A    between atoms: C4_4  and  O7_7 
REMARK    4  A    between atoms: C5_5  and  C6_6 
REMARK    5  A    between atoms: C5_5  and  S8_8 
ROOT
HETATM    1  C6  UNL     1     -34.060  16.178  -3.819  1.00 20.00     0.018 C 
ENDROOT
BRANCH   1   2
HETATM    2  C3  UNL     1     -33.041  16.590  -2.736  1.00 20.00     0.003 C 
HETATM    3  C1  UNL     1     -33.669  17.273  -1.529  1.00 20.00     0.005 C 
ENDBRANCH   1   2
BRANCH   1   4
HETATM    4  C4  UNL     1     -33.619  14.848  -4.457  1.00 20.00     0.172 C 
BRANCH   4   5
HETATM    5  O7  UNL     1     -34.466  13.792  -4.027  1.00 20.00    -0.396 OA
HETATM    6  C2  UNL     1     -35.712  13.812  -4.710  1.00 20.00     0.201 C 
ENDBRANCH   4   5
ENDBRANCH   1   4
BRANCH   1   7
HETATM    7  C5  UNL     1     -34.366  17.275  -4.862  1.00 20.00     0.077 C 
BRANCH   7   8
HETATM    8  S8  UNL     1     -36.118  17.742  -5.011  1.00 20.00    -0.182 SA
HETATM    9  H22 UNL     1     -35.902  19.060  -5.106  1.00 20.00     0.101 HD
ENDBRANCH   7   8
ENDBRANCH   1   7
TORSDOF 5
ENDMDL
MODEL 8
REMARK VINA RESULT:      -2.9      9.649     10.643
REMARK  5 active torsions:
REMARK  status: ('A' for Active; 'I' for Inactive)
REMARK    1  A    between atoms: C3_3  and  C6_6 
REMARK    2  A    between atoms: C4_4  and  C6_6 
REMARK    3  A    between atoms: C4_4  and  O7_7 
REMARK    4  A    between atoms: C5_5  and  C6_6 
REMARK    5  A    between atoms: C5_5  and  S8_8 
ROOT
HETATM    1  C6  UNL     1     -41.040  13.047   5.915  1.00 20.00     0.018 C 
ENDROOT
BRANCH   1   2
HETATM    2  C3  UNL     1     -40.084  12.386   4.900  1.00 20.00     0.003 C 
HETATM    3  C1  UNL     1     -38.701  12.087   5.461  1.00 20.00     0.005 C 
ENDBRANCH   1   2
BRANCH   1   4
HETATM    4  C4  UNL     1     -41.925  14.076   5.191  1.00 20.00     0.172 C 
BRANCH   4   5
HETATM    5  O7  UNL     1     -41.645  14.070   3.797  1.00 20.00    -0.396 OA
HETATM    6  C2  UNL     1     -42.338  15.112   3.122  1.00 20.00     0.201 C 
ENDBRANCH   4   5
ENDBRANCH   1   4
BRANCH   1   7
HETATM    7  C5  UNL     1     -40.345  13.624   7.168  1.00 20.00     0.077 C 
BRANCH   7   8
HETATM    8  S8  UNL     1     -40.687  15.377   7.512  1.00 20.00    -0.182 SA
HETATM    9  H22 UNL     1     -41.861  15.172   8.122  1.00 20.00     0.101 HD
ENDBRANCH   7   8
ENDBRANCH   1   7
TORSDOF 5
ENDMDL
MODEL 9
REMARK VINA RESULT:      -2.9      9.559     10.471
REMARK  5 active torsions:
REMARK  status: ('A' for Active; 'I' for Inactive)
REMARK    1  A    between atoms: C3_3  and  C6_6 
REMARK    2  A    between atoms: C4_4  and  C6_6 
REMARK    3  A    between atoms: C4_4  and  O7_7 
REMARK    4  A    between atoms: C5_5  and  C6_6 
REMARK    5  A    between atoms: C5_5  and  S8_8 
ROOT
HETATM    1  C6  UNL     1     -40.515  13.399   6.052  1.00 20.00     0.018 C 
ENDROOT
BRANCH   1   2
HETATM    2  C3  UNL     1     -39.734  12.073   5.944  1.00 20.00     0.003 C 
HETATM    3  C1  UNL     1     -39.260  11.752   4.533  1.00 20.00     0.005 C 
ENDBRANCH   1   2
BRANCH   1   4
HETATM    4  C4  UNL     1     -41.263  13.444   7.396  1.00 20.00     0.172 C 
BRANCH   4   5
HETATM    5  O7  UNL     1     -40.366  13.778   8.447  1.00 20.00    -0.396 OA
HETATM    6  C2  UNL     1     -40.254  15.186   8.608  1.00 20.00     0.201 C 
ENDBRANCH   4   5
ENDBRANCH   1   4
BRANCH   1   7
HETATM    7  C5  UNL     1     -41.426  13.707   4.844  1.00 20.00     0.077 C 
BRANCH   7   8
HETATM    8  S8  UNL     1     -42.620  15.057   5.091  1.00 20.00    -0.182 SA
HETATM    9  H22 UNL     1     -43.424  14.719   4.075  1.00 20.00     0.101 HD
ENDBRANCH   7   8
ENDBRANCH   1   7
TORSDOF 5
ENDMDL
