MODEL 1
REMARK VINA RESULT:      -6.3      0.000      0.000
REMARK  1 active torsions:
REMARK  status: ('A' for Active; 'I' for Inactive)
REMARK    1  A    between atoms: C5_5  and  C12_12 
ROOT
HETATM    1  C1  UNL     1     -32.569   8.906   4.025  1.00 20.00     0.008 A 
HETATM    2  C2  UNL     1     -33.152   8.547   5.244  1.00 20.00     0.009 A 
HETATM    3  C3  UNL     1     -32.988   6.689   3.115  1.00 20.00     0.023 A 
HETATM    4  C4  UNL     1     -33.558   6.365   4.332  1.00 20.00     0.017 A 
HETATM    5  C5  UNL     1     -32.487   7.983   2.968  1.00 20.00    -0.053 A 
HETATM    6  C6  UNL     1     -33.649   7.261   5.389  1.00 20.00    -0.044 A 
HETATM    7  C7  UNL     1     -34.150   5.105   4.753  1.00 20.00     0.160 A 
HETATM    8  C8  UNL     1     -34.306   6.672   6.595  1.00 20.00     0.047 A 
HETATM    9  C9  UNL     1     -34.642   5.230   6.175  1.00 20.00     0.088 A 
HETATM   10  O13 UNL     1     -34.227   4.114   4.048  1.00 20.00    -0.292 OA
ENDROOT
BRANCH   5  11
HETATM   11  C12 UNL     1     -31.859   8.391   1.679  1.00 20.00     0.018 A 
HETATM   12  C10 UNL     1     -32.598   9.346   0.776  1.00 20.00     0.010 A 
HETATM   13  C11 UNL     1     -32.461   7.908   0.385  1.00 20.00     0.010 A 
ENDBRANCH   5  11
TORSDOF 1
ENDMDL
MODEL 2
REMARK VINA RESULT:      -5.6      1.505      2.286
REMARK  1 active torsions:
REMARK  status: ('A' for Active; 'I' for Inactive)
REMARK    1  A    between atoms: C5_5  and  C12_12 
ROOT
HETATM    1  C1  UNL     1     -32.737   6.168   2.153  1.00 20.00     0.008 A 
HETATM    2  C2  UNL     1     -33.332   5.179   2.944  1.00 20.00     0.009 A 
HETATM    3  C3  UNL     1     -33.012   7.817   3.919  1.00 20.00     0.023 A 
HETATM    4  C4  UNL     1     -33.596   6.819   4.676  1.00 20.00     0.017 A 
HETATM    5  C5  UNL     1     -32.580   7.478   2.637  1.00 20.00    -0.053 A 
HETATM    6  C6  UNL     1     -33.762   5.518   4.217  1.00 20.00    -0.044 A 
HETATM    7  C7  UNL     1     -34.129   6.894   6.027  1.00 20.00     0.160 A 
HETATM    8  C8  UNL     1     -34.417   4.627   5.222  1.00 20.00     0.047 A 
HETATM    9  C9  UNL     1     -34.665   5.542   6.433  1.00 20.00     0.088 A 
HETATM   10  O13 UNL     1     -34.131   7.904   6.708  1.00 20.00    -0.292 OA
ENDROOT
BRANCH   5  11
HETATM   11  C12 UNL     1     -31.943   8.512   1.772  1.00 20.00     0.018 A 
HETATM   12  C10 UNL     1     -32.808   9.579   1.151  1.00 20.00     0.010 A 
HETATM   13  C11 UNL     1     -32.222   8.503   0.292  1.00 20.00     0.010 A 
ENDBRANCH   5  11
TORSDOF 1
ENDMDL
MODEL 3
REMARK VINA RESULT:      -5.0     11.419     12.780
REMARK  1 active torsions:
REMARK  status: ('A' for Active; 'I' for Inactive)
REMARK    1  A    between atoms: C5_5  and  C12_12 
ROOT
HETATM    1  C1  UNL     1     -33.454  18.627  -3.390  1.00 20.00     0.008 A 
HETATM    2  C2  UNL     1     -34.036  18.374  -4.637  1.00 20.00     0.009 A 
HETATM    3  C3  UNL     1     -33.451  16.254  -2.854  1.00 20.00     0.023 A 
HETATM    4  C4  UNL     1     -34.026  16.037  -4.092  1.00 20.00     0.017 A 
HETATM    5  C5  UNL     1     -33.165  17.574  -2.505  1.00 20.00    -0.053 A 
HETATM    6  C6  UNL     1     -34.320  17.062  -4.982  1.00 20.00    -0.044 A 
HETATM    7  C7  UNL     1     -34.423  14.778  -4.703  1.00 20.00     0.160 A 
HETATM    8  C8  UNL     1     -34.936  16.570  -6.252  1.00 20.00     0.047 A 
HETATM    9  C9  UNL     1     -35.007  15.044  -6.070  1.00 20.00     0.088 A 
HETATM   10  O13 UNL     1     -34.294  13.688  -4.174  1.00 20.00    -0.292 OA
ENDROOT
BRANCH   5  11
HETATM   11  C12 UNL     1     -32.545  17.872  -1.182  1.00 20.00     0.018 A 
HETATM   12  C10 UNL     1     -33.440  18.143   0.001  1.00 20.00     0.010 A 
HETATM   13  C11 UNL     1     -32.661  19.263  -0.615  1.00 20.00     0.010 A 
ENDBRANCH   5  11
TORSDOF 1
ENDMDL
MODEL 4
REMARK VINA RESULT:      -4.8     10.187     11.239
REMARK  1 active torsions:
REMARK  status: ('A' for Active; 'I' for Inactive)
REMARK    1  A    between atoms: C5_5  and  C12_12 
ROOT
HETATM    1  C1  UNL     1     -41.462  13.638   5.208  1.00 20.00     0.008 A 
HETATM    2  C2  UNL     1     -42.122  14.809   5.596  1.00 20.00     0.009 A 
HETATM    3  C3  UNL     1     -40.081  13.694   7.209  1.00 20.00     0.023 A 
HETATM    4  C4  UNL     1     -40.751  14.850   7.565  1.00 20.00     0.017 A 
HETATM    5  C5  UNL     1     -40.448  13.085   6.009  1.00 20.00    -0.053 A 
HETATM    6  C6  UNL     1     -41.755  15.413   6.788  1.00 20.00    -0.044 A 
HETATM    7  C7  UNL     1     -40.573  15.679   8.746  1.00 20.00     0.160 A 
HETATM    8  C8  UNL     1     -42.324  16.658   7.387  1.00 20.00     0.047 A 
HETATM    9  C9  UNL     1     -41.536  16.840   8.696  1.00 20.00     0.088 A 
HETATM   10  O13 UNL     1     -39.764  15.451   9.628  1.00 20.00    -0.292 OA
ENDROOT
BRANCH   5  11
HETATM   11  C12 UNL     1     -39.761  11.836   5.572  1.00 20.00     0.018 A 
HETATM   12  C10 UNL     1     -38.290  11.887   5.244  1.00 20.00     0.010 A 
HETATM   13  C11 UNL     1     -39.292  11.719   4.145  1.00 20.00     0.010 A 
ENDBRANCH   5  11
TORSDOF 1
ENDMDL
MODEL 5
REMARK VINA RESULT:      -4.6     11.749     13.507
REMARK  1 active torsions:
REMARK  status: ('A' for Active; 'I' for Inactive)
REMARK    1  A    between atoms: C5_5  and  C12_12 
ROOT
HETATM    1  C1  UNL     1     -33.600  15.160  -3.666  1.00 20.00     0.008 A 
HETATM    2  C2  UNL     1     -34.262  14.599  -4.764  1.00 20.00     0.009 A 
HETATM    3  C3  UNL     1     -34.341  17.389  -4.295  1.00 20.00     0.023 A 
HETATM    4  C4  UNL     1     -34.984  16.806  -5.370  1.00 20.00     0.017 A 
HETATM    5  C5  UNL     1     -33.639  16.545  -3.435  1.00 20.00    -0.053 A 
HETATM    6  C6  UNL     1     -34.958  15.439  -5.618  1.00 20.00    -0.044 A 
HETATM    7  C7  UNL     1     -35.777  17.441  -6.411  1.00 20.00     0.160 A 
HETATM    8  C8  UNL     1     -35.729  15.056  -6.840  1.00 20.00     0.047 A 
HETATM    9  C9  UNL     1     -36.278  16.391  -7.373  1.00 20.00     0.088 A 
HETATM   10  O13 UNL     1     -35.992  18.638  -6.475  1.00 20.00    -0.292 OA
ENDROOT
BRANCH   5  11
HETATM   11  C12 UNL     1     -32.924  17.117  -2.257  1.00 20.00     0.018 A 
HETATM   12  C10 UNL     1     -33.725  17.557  -1.058  1.00 20.00     0.010 A 
HETATM   13  C11 UNL     1     -33.085  18.581  -1.942  1.00 20.00     0.010 A 
ENDBRANCH   5  11
TORSDOF 1
ENDMDL
MODEL 6
REMARK VINA RESULT:      -4.4     11.932     13.464
REMARK  1 active torsions:
REMARK  status: ('A' for Active; 'I' for Inactive)
REMARK    1  A    between atoms: C5_5  and  C12_12 
ROOT
HETATM    1  C1  UNL     1     -33.308  16.396  -2.669  1.00 20.00     0.008 A 
HETATM    2  C2  UNL     1     -33.323  15.530  -3.766  1.00 20.00     0.009 A 
HETATM    3  C3  UNL     1     -34.708  17.996  -3.849  1.00 20.00     0.023 A 
HETATM    4  C4  UNL     1     -34.704  17.119  -4.917  1.00 20.00     0.017 A 
HETATM    5  C5  UNL     1     -33.995  17.621  -2.711  1.00 20.00    -0.053 A 
HETATM    6  C6  UNL     1     -34.030  15.904  -4.897  1.00 20.00    -0.044 A 
HETATM    7  C7  UNL     1     -35.354  17.255  -6.211  1.00 20.00     0.160 A 
HETATM    8  C8  UNL     1     -34.178  15.137  -6.172  1.00 20.00     0.047 A 
HETATM    9  C9  UNL     1     -35.062  16.037  -7.053  1.00 20.00     0.088 A 
HETATM   10  O13 UNL     1     -36.028  18.215  -6.541  1.00 20.00    -0.292 OA
ENDROOT
BRANCH   5  11
HETATM   11  C12 UNL     1     -33.963  18.526  -1.526  1.00 20.00     0.018 A 
HETATM   12  C10 UNL     1     -32.688  19.263  -1.203  1.00 20.00     0.010 A 
HETATM   13  C11 UNL     1     -33.138  18.136  -0.327  1.00 20.00     0.010 A 
ENDBRANCH   5  11
TORSDOF 1
ENDMDL
MODEL 7
REMARK VINA RESULT:      -4.1     11.964     13.115
REMARK  1 active torsions:
REMARK  status: ('A' for Active; 'I' for Inactive)
REMARK    1  A    between atoms: C5_5  and  C12_12 
ROOT
HETATM    1  C1  UNL     1     -30.822  19.229   3.990  1.00 20.00     0.008 A 
HETATM    2  C2  UNL     1     -30.059  19.217   5.162  1.00 20.00     0.009 A 
HETATM    3  C3  UNL     1     -28.811  19.255   2.622  1.00 20.00     0.023 A 
HETATM    4  C4  UNL     1     -28.085  19.243   3.799  1.00 20.00     0.017 A 
HETATM    5  C5  UNL     1     -30.202  19.249   2.729  1.00 20.00    -0.053 A 
HETATM    6  C6  UNL     1     -28.678  19.224   5.055  1.00 20.00    -0.044 A 
HETATM    7  C7  UNL     1     -26.642  19.246   3.978  1.00 20.00     0.160 A 
HETATM    8  C8  UNL     1     -27.680  19.213   6.167  1.00 20.00     0.047 A 
HETATM    9  C9  UNL     1     -26.318  19.229   5.453  1.00 20.00     0.088 A 
HETATM   10  O13 UNL     1     -25.837  19.260   3.063  1.00 20.00    -0.292 OA
ENDROOT
BRANCH   5  11
HETATM   11  C12 UNL     1     -31.039  19.262   1.495  1.00 20.00     0.018 A 
HETATM   12  C10 UNL     1     -32.013  18.136   1.260  1.00 20.00     0.010 A 
HETATM   13  C11 UNL     1     -30.777  18.238   0.421  1.00 20.00     0.010 A 
ENDBRANCH   5  11
TORSDOF 1
ENDMDL
MODEL 8
REMARK VINA RESULT:      -4.0     10.817     11.822
REMARK  1 active torsions:
REMARK  status: ('A' for Active; 'I' for Inactive)
REMARK    1  A    between atoms: C5_5  and  C12_12 
ROOT
HETATM    1  C1  UNL     1     -41.095  13.650   7.265  1.00 20.00     0.008 A 
HETATM    2  C2  UNL     1     -41.753  14.854   7.538  1.00 20.00     0.009 A 
HETATM    3  C3  UNL     1     -41.552  13.883   4.887  1.00 20.00     0.023 A 
HETATM    4  C4  UNL     1     -42.195  15.068   5.190  1.00 20.00     0.017 A 
HETATM    5  C5  UNL     1     -40.996  13.168   5.948  1.00 20.00    -0.053 A 
HETATM    6  C6  UNL     1     -42.305  15.562   6.483  1.00 20.00    -0.044 A 
HETATM    7  C7  UNL     1     -42.855  16.001   4.290  1.00 20.00     0.160 A 
HETATM    8  C8  UNL     1     -43.044  16.859   6.549  1.00 20.00     0.047 A 
HETATM    9  C9  UNL     1     -43.415  17.156   5.085  1.00 20.00     0.088 A 
HETATM   10  O13 UNL     1     -42.931  15.852   3.083  1.00 20.00    -0.292 OA
ENDROOT
BRANCH   5  11
HETATM   11  C12 UNL     1     -40.290  11.881   5.685  1.00 20.00     0.018 A 
HETATM   12  C10 UNL     1     -38.809  11.792   5.950  1.00 20.00     0.010 A 
HETATM   13  C11 UNL     1     -39.313  11.803   4.541  1.00 20.00     0.010 A 
ENDBRANCH   5  11
TORSDOF 1
ENDMDL
MODEL 9
REMARK VINA RESULT:      -3.9     11.063     12.256
REMARK  1 active torsions:
REMARK  status: ('A' for Active; 'I' for Inactive)
REMARK    1  A    between atoms: C5_5  and  C12_12 
ROOT
HETATM    1  C1  UNL     1     -40.229  14.070   8.333  1.00 20.00     0.008 A 
HETATM    2  C2  UNL     1     -40.327  15.328   8.937  1.00 20.00     0.009 A 
HETATM    3  C3  UNL     1     -41.357  14.885   6.338  1.00 20.00     0.023 A 
HETATM    4  C4  UNL     1     -41.439  16.116   6.962  1.00 20.00     0.017 A 
HETATM    5  C5  UNL     1     -40.741  13.851   7.043  1.00 20.00    -0.053 A 
HETATM    6  C6  UNL     1     -40.939  16.354   8.236  1.00 20.00    -0.044 A 
HETATM    7  C7  UNL     1     -42.021  17.352   6.464  1.00 20.00     0.160 A 
HETATM    8  C8  UNL     1     -41.150  17.764   8.687  1.00 20.00     0.047 A 
HETATM    9  C9  UNL     1     -41.873  18.434   7.507  1.00 20.00     0.088 A 
HETATM   10  O13 UNL     1     -42.543  17.472   5.370  1.00 20.00    -0.292 OA
ENDROOT
BRANCH   5  11
HETATM   11  C12 UNL     1     -40.624  12.500   6.422  1.00 20.00     0.018 A 
HETATM   12  C10 UNL     1     -39.253  11.950   6.120  1.00 20.00     0.010 A 
HETATM   13  C11 UNL     1     -40.144  12.387   4.999  1.00 20.00     0.010 A 
ENDBRANCH   5  11
TORSDOF 1
ENDMDL
