MODEL 1
REMARK VINA RESULT:      -3.1      0.000      0.000
REMARK  6 active torsions:
REMARK  status: ('A' for Active; 'I' for Inactive)
REMARK    1  A    between atoms: C3_3  and  C5_5 
REMARK    2  A    between atoms: C3_3  and  C7_7 
REMARK    3  A    between atoms: C4_4  and  C6_6 
REMARK    4  A    between atoms: C4_4  and  C7_7 
REMARK    5  A    between atoms: C5_5  and  S8_8 
REMARK    6  A    between atoms: C6_6  and  S9_9 
ROOT
HETATM    1  C1  UNL     1     -34.407   4.943   6.778  1.00 20.00     0.010 C 
HETATM    2  C7  UNL     1     -34.773   6.187   5.963  1.00 20.00    -0.017 C 
ENDROOT
BRANCH   2   3
HETATM    3  C3  UNL     1     -34.905   5.858   4.458  1.00 20.00     0.014 C 
BRANCH   3   4
HETATM    4  C5  UNL     1     -34.078   4.662   3.987  1.00 20.00     0.071 C 
BRANCH   4   5
HETATM    5  S8  UNL     1     -32.964   5.152   2.635  1.00 20.00    -0.182 SA
HETATM    6  H25 UNL     1     -32.989   6.465   2.904  1.00 20.00     0.101 HD
ENDBRANCH   4   5
ENDBRANCH   3   4
ENDBRANCH   2   3
BRANCH   2   7
HETATM    7  C4  UNL     1     -33.789   7.351   6.208  1.00 20.00     0.014 C 
BRANCH   7   8
HETATM    8  C6  UNL     1     -33.771   8.362   5.061  1.00 20.00     0.073 C 
BRANCH   8   9
HETATM    9  S9  UNL     1     -32.117   8.452   4.313  1.00 20.00    -0.173 SA
HETATM   10  C2  UNL     1     -32.612   8.927   2.642  1.00 20.00     0.089 C 
ENDBRANCH   8   9
ENDBRANCH   7   8
ENDBRANCH   2   7
TORSDOF 6
ENDMDL
MODEL 2
REMARK VINA RESULT:      -3.1     12.321     13.242
REMARK  6 active torsions:
REMARK  status: ('A' for Active; 'I' for Inactive)
REMARK    1  A    between atoms: C3_3  and  C5_5 
REMARK    2  A    between atoms: C3_3  and  C7_7 
REMARK    3  A    between atoms: C4_4  and  C6_6 
REMARK    4  A    between atoms: C4_4  and  C7_7 
REMARK    5  A    between atoms: C5_5  and  S8_8 
REMARK    6  A    between atoms: C6_6  and  S9_9 
ROOT
HETATM    1  C1  UNL     1     -34.728  18.562  -1.759  1.00 20.00     0.010 C 
HETATM    2  C7  UNL     1     -33.673  17.502  -1.432  1.00 20.00    -0.017 C 
ENDROOT
BRANCH   2   3
HETATM    3  C3  UNL     1     -32.396  18.140  -0.835  1.00 20.00     0.014 C 
BRANCH   3   4
HETATM    4  C5  UNL     1     -32.531  18.608   0.614  1.00 20.00     0.071 C 
BRANCH   4   5
HETATM    5  S8  UNL     1     -30.925  18.515   1.463  1.00 20.00    -0.182 SA
HETATM    6  H25 UNL     1     -30.242  19.208   0.542  1.00 20.00     0.101 HD
ENDBRANCH   4   5
ENDBRANCH   3   4
ENDBRANCH   2   3
BRANCH   2   7
HETATM    7  C4  UNL     1     -33.347  16.611  -2.650  1.00 20.00     0.014 C 
BRANCH   7   8
HETATM    8  C6  UNL     1     -33.733  17.261  -3.980  1.00 20.00     0.073 C 
BRANCH   8   9
HETATM    9  S9  UNL     1     -34.521  16.048  -5.080  1.00 20.00    -0.173 SA
HETATM   10  C2  UNL     1     -33.923  14.543  -4.278  1.00 20.00     0.089 C 
ENDBRANCH   8   9
ENDBRANCH   7   8
ENDBRANCH   2   7
TORSDOF 6
ENDMDL
MODEL 3
REMARK VINA RESULT:      -3.0      2.171      4.046
REMARK  6 active torsions:
REMARK  status: ('A' for Active; 'I' for Inactive)
REMARK    1  A    between atoms: C3_3  and  C5_5 
REMARK    2  A    between atoms: C3_3  and  C7_7 
REMARK    3  A    between atoms: C4_4  and  C6_6 
REMARK    4  A    between atoms: C4_4  and  C7_7 
REMARK    5  A    between atoms: C5_5  and  S8_8 
REMARK    6  A    between atoms: C6_6  and  S9_9 
ROOT
HETATM    1  C1  UNL     1     -32.045   9.282   4.912  1.00 20.00     0.010 C 
HETATM    2  C7  UNL     1     -32.464   7.932   4.325  1.00 20.00    -0.017 C 
ENDROOT
BRANCH   2   3
HETATM    3  C3  UNL     1     -32.326   7.918   2.784  1.00 20.00     0.014 C 
BRANCH   3   4
HETATM    4  C5  UNL     1     -32.744   9.215   2.092  1.00 20.00     0.071 C 
BRANCH   4   5
HETATM    5  S8  UNL     1     -32.667   9.023   0.285  1.00 20.00    -0.182 SA
HETATM    6  H25 UNL     1     -33.645   8.110   0.201  1.00 20.00     0.101 HD
ENDBRANCH   4   5
ENDBRANCH   3   4
ENDBRANCH   2   3
BRANCH   2   7
HETATM    7  C4  UNL     1     -33.881   7.517   4.774  1.00 20.00     0.014 C 
BRANCH   7   8
HETATM    8  C6  UNL     1     -33.929   7.051   6.229  1.00 20.00     0.073 C 
BRANCH   8   9
HETATM    9  S9  UNL     1     -34.550   5.346   6.334  1.00 20.00    -0.173 SA
HETATM   10  C2  UNL     1     -34.504   4.944   4.572  1.00 20.00     0.089 C 
ENDBRANCH   8   9
ENDBRANCH   7   8
ENDBRANCH   2   7
TORSDOF 6
ENDMDL
MODEL 4
REMARK VINA RESULT:      -3.0     12.400     13.007
REMARK  6 active torsions:
REMARK  status: ('A' for Active; 'I' for Inactive)
REMARK    1  A    between atoms: C3_3  and  C5_5 
REMARK    2  A    between atoms: C3_3  and  C7_7 
REMARK    3  A    between atoms: C4_4  and  C6_6 
REMARK    4  A    between atoms: C4_4  and  C7_7 
REMARK    5  A    between atoms: C5_5  and  S8_8 
REMARK    6  A    between atoms: C6_6  and  S9_9 
ROOT
HETATM    1  C1  UNL     1     -34.321  17.757  -4.163  1.00 20.00     0.010 C 
HETATM    2  C7  UNL     1     -33.379  16.764  -3.477  1.00 20.00    -0.017 C 
ENDROOT
BRANCH   2   3
HETATM    3  C3  UNL     1     -33.704  15.306  -3.880  1.00 20.00     0.014 C 
BRANCH   3   4
HETATM    4  C5  UNL     1     -34.053  15.111  -5.355  1.00 20.00     0.071 C 
BRANCH   4   5
HETATM    5  S8  UNL     1     -35.773  14.546  -5.532  1.00 20.00    -0.182 SA
HETATM    6  H25 UNL     1     -35.681  14.229  -6.831  1.00 20.00     0.101 HD
ENDBRANCH   4   5
ENDBRANCH   3   4
ENDBRANCH   2   3
BRANCH   2   7
HETATM    7  C4  UNL     1     -33.366  16.940  -1.943  1.00 20.00     0.014 C 
BRANCH   7   8
HETATM    8  C6  UNL     1     -32.575  18.169  -1.495  1.00 20.00     0.073 C 
BRANCH   8   9
HETATM    9  S9  UNL     1     -32.887  18.526   0.259  1.00 20.00    -0.173 SA
HETATM   10  C2  UNL     1     -31.171  18.578   0.824  1.00 20.00     0.089 C 
ENDBRANCH   8   9
ENDBRANCH   7   8
ENDBRANCH   2   7
TORSDOF 6
ENDMDL
MODEL 5
REMARK VINA RESULT:      -3.0     12.315     12.925
REMARK  6 active torsions:
REMARK  status: ('A' for Active; 'I' for Inactive)
REMARK    1  A    between atoms: C3_3  and  C5_5 
REMARK    2  A    between atoms: C3_3  and  C7_7 
REMARK    3  A    between atoms: C4_4  and  C6_6 
REMARK    4  A    between atoms: C4_4  and  C7_7 
REMARK    5  A    between atoms: C5_5  and  S8_8 
REMARK    6  A    between atoms: C6_6  and  S9_9 
ROOT
HETATM    1  C1  UNL     1     -33.239  18.990  -2.714  1.00 20.00     0.010 C 
HETATM    2  C7  UNL     1     -33.015  17.801  -1.776  1.00 20.00    -0.017 C 
ENDROOT
BRANCH   2   3
HETATM    3  C3  UNL     1     -33.359  16.461  -2.468  1.00 20.00     0.014 C 
BRANCH   3   4
HETATM    4  C5  UNL     1     -33.712  16.577  -3.951  1.00 20.00     0.071 C 
BRANCH   4   5
HETATM    5  S8  UNL     1     -33.905  14.926  -4.689  1.00 20.00    -0.182 SA
HETATM    6  H25 UNL     1     -33.625  14.241  -3.571  1.00 20.00     0.101 HD
ENDBRANCH   4   5
ENDBRANCH   3   4
ENDBRANCH   2   3
BRANCH   2   7
HETATM    7  C4  UNL     1     -33.773  17.963  -0.441  1.00 20.00     0.014 C 
BRANCH   7   8
HETATM    8  C6  UNL     1     -32.966  18.728   0.609  1.00 20.00     0.073 C 
BRANCH   8   9
HETATM    9  S9  UNL     1     -31.186  18.591   0.272  1.00 20.00    -0.173 SA
HETATM   10  C2  UNL     1     -30.612  18.396   1.975  1.00 20.00     0.089 C 
ENDBRANCH   8   9
ENDBRANCH   7   8
ENDBRANCH   2   7
TORSDOF 6
ENDMDL
MODEL 6
REMARK VINA RESULT:      -3.0     12.375     13.483
REMARK  6 active torsions:
REMARK  status: ('A' for Active; 'I' for Inactive)
REMARK    1  A    between atoms: C3_3  and  C5_5 
REMARK    2  A    between atoms: C3_3  and  C7_7 
REMARK    3  A    between atoms: C4_4  and  C6_6 
REMARK    4  A    between atoms: C4_4  and  C7_7 
REMARK    5  A    between atoms: C5_5  and  S8_8 
REMARK    6  A    between atoms: C6_6  and  S9_9 
ROOT
HETATM    1  C1  UNL     1     -33.336  18.288  -3.841  1.00 20.00     0.010 C 
HETATM    2  C7  UNL     1     -33.753  17.013  -3.103  1.00 20.00    -0.017 C 
ENDROOT
BRANCH   2   3
HETATM    3  C3  UNL     1     -33.552  17.152  -1.576  1.00 20.00     0.014 C 
BRANCH   3   4
HETATM    4  C5  UNL     1     -32.447  18.123  -1.160  1.00 20.00     0.071 C 
BRANCH   4   5
HETATM    5  S8  UNL     1     -32.698  18.674   0.555  1.00 20.00    -0.182 SA
HETATM    6  H25 UNL     1     -32.007  17.675   1.124  1.00 20.00     0.101 HD
ENDBRANCH   4   5
ENDBRANCH   3   4
ENDBRANCH   2   3
BRANCH   2   7
HETATM    7  C4  UNL     1     -33.042  15.761  -3.659  1.00 20.00     0.014 C 
BRANCH   7   8
HETATM    8  C6  UNL     1     -34.015  14.743  -4.255  1.00 20.00     0.073 C 
BRANCH   8   9
HETATM    9  S9  UNL     1     -34.409  15.167  -5.977  1.00 20.00    -0.173 SA
HETATM   10  C2  UNL     1     -36.128  15.670  -5.734  1.00 20.00     0.089 C 
ENDBRANCH   8   9
ENDBRANCH   7   8
ENDBRANCH   2   7
TORSDOF 6
ENDMDL
MODEL 7
REMARK VINA RESULT:      -2.8     12.492     13.889
REMARK  6 active torsions:
REMARK  status: ('A' for Active; 'I' for Inactive)
REMARK    1  A    between atoms: C3_3  and  C5_5 
REMARK    2  A    between atoms: C3_3  and  C7_7 
REMARK    3  A    between atoms: C4_4  and  C6_6 
REMARK    4  A    between atoms: C4_4  and  C7_7 
REMARK    5  A    between atoms: C5_5  and  S8_8 
REMARK    6  A    between atoms: C6_6  and  S9_9 
ROOT
HETATM    1  C1  UNL     1     -33.474  16.853  -1.953  1.00 20.00     0.010 C 
HETATM    2  C7  UNL     1     -33.295  16.605  -3.453  1.00 20.00    -0.017 C 
ENDROOT
BRANCH   2   3
HETATM    3  C3  UNL     1     -34.010  17.689  -4.294  1.00 20.00     0.014 C 
BRANCH   3   4
HETATM    4  C5  UNL     1     -35.157  18.402  -3.579  1.00 20.00     0.071 C 
BRANCH   4   5
HETATM    5  S8  UNL     1     -36.712  18.179  -4.496  1.00 20.00    -0.182 SA
HETATM    6  H25 UNL     1     -36.143  17.760  -5.635  1.00 20.00     0.101 HD
ENDBRANCH   4   5
ENDBRANCH   3   4
ENDBRANCH   2   3
BRANCH   2   7
HETATM    7  C4  UNL     1     -33.735  15.184  -3.864  1.00 20.00     0.014 C 
BRANCH   7   8
HETATM    8  C6  UNL     1     -33.988  15.054  -5.367  1.00 20.00     0.073 C 
BRANCH   8   9
HETATM    9  S9  UNL     1     -35.716  14.593  -5.686  1.00 20.00    -0.173 SA
HETATM   10  C2  UNL     1     -35.921  15.433  -7.273  1.00 20.00     0.089 C 
ENDBRANCH   8   9
ENDBRANCH   7   8
ENDBRANCH   2   7
TORSDOF 6
ENDMDL
MODEL 8
REMARK VINA RESULT:      -2.8     12.483     13.067
REMARK  6 active torsions:
REMARK  status: ('A' for Active; 'I' for Inactive)
REMARK    1  A    between atoms: C3_3  and  C5_5 
REMARK    2  A    between atoms: C3_3  and  C7_7 
REMARK    3  A    between atoms: C4_4  and  C6_6 
REMARK    4  A    between atoms: C4_4  and  C7_7 
REMARK    5  A    between atoms: C5_5  and  S8_8 
REMARK    6  A    between atoms: C6_6  and  S9_9 
ROOT
HETATM    1  C1  UNL     1     -33.917  18.910   0.793  1.00 20.00     0.010 C 
HETATM    2  C7  UNL     1     -32.643  18.205   0.319  1.00 20.00    -0.017 C 
ENDROOT
BRANCH   2   3
HETATM    3  C3  UNL     1     -31.378  18.855   0.926  1.00 20.00     0.014 C 
BRANCH   3   4
HETATM    4  C5  UNL     1     -31.299  18.801   2.452  1.00 20.00     0.071 C 
BRANCH   4   5
HETATM    5  S8  UNL     1     -29.563  18.805   2.998  1.00 20.00    -0.182 SA
HETATM    6  H25 UNL     1     -29.399  20.134   2.926  1.00 20.00     0.101 HD
ENDBRANCH   4   5
ENDBRANCH   3   4
ENDBRANCH   2   3
BRANCH   2   7
HETATM    7  C4  UNL     1     -32.560  18.128  -1.221  1.00 20.00     0.014 C 
BRANCH   7   8
HETATM    8  C6  UNL     1     -33.474  17.053  -1.811  1.00 20.00     0.073 C 
BRANCH   8   9
HETATM    9  S9  UNL     1     -33.497  17.159  -3.625  1.00 20.00    -0.173 SA
HETATM   10  C2  UNL     1     -33.324  15.398  -3.991  1.00 20.00     0.089 C 
ENDBRANCH   8   9
ENDBRANCH   7   8
ENDBRANCH   2   7
TORSDOF 6
ENDMDL
MODEL 9
REMARK VINA RESULT:      -2.8     12.544     13.983
REMARK  6 active torsions:
REMARK  status: ('A' for Active; 'I' for Inactive)
REMARK    1  A    between atoms: C3_3  and  C5_5 
REMARK    2  A    between atoms: C3_3  and  C7_7 
REMARK    3  A    between atoms: C4_4  and  C6_6 
REMARK    4  A    between atoms: C4_4  and  C7_7 
REMARK    5  A    between atoms: C5_5  and  S8_8 
REMARK    6  A    between atoms: C6_6  and  S9_9 
ROOT
HETATM    1  C1  UNL     1     -33.480  15.269  -3.811  1.00 20.00     0.010 C 
HETATM    2  C7  UNL     1     -33.366  16.766  -3.510  1.00 20.00    -0.017 C 
ENDROOT
BRANCH   2   3
HETATM    3  C3  UNL     1     -33.366  17.039  -1.988  1.00 20.00     0.014 C 
BRANCH   3   4
HETATM    4  C5  UNL     1     -33.053  18.483  -1.595  1.00 20.00     0.071 C 
BRANCH   4   5
HETATM    5  S8  UNL     1     -31.628  18.539  -0.465  1.00 20.00    -0.182 SA
HETATM    6  H25 UNL     1     -31.295  17.248  -0.599  1.00 20.00     0.101 HD
ENDBRANCH   4   5
ENDBRANCH   3   4
ENDBRANCH   2   3
BRANCH   2   7
HETATM    7  C4  UNL     1     -34.451  17.589  -4.236  1.00 20.00     0.014 C 
BRANCH   7   8
HETATM    8  C6  UNL     1     -35.252  16.759  -5.240  1.00 20.00     0.073 C 
BRANCH   8   9
HETATM    9  S9  UNL     1     -34.816  17.221  -6.943  1.00 20.00    -0.173 SA
HETATM   10  C2  UNL     1     -34.140  15.633  -7.478  1.00 20.00     0.089 C 
ENDBRANCH   8   9
ENDBRANCH   7   8
ENDBRANCH   2   7
TORSDOF 6
ENDMDL
