MODEL 1
REMARK VINA RESULT:      -2.8      0.000      0.000
REMARK  5 active torsions:
REMARK  status: ('A' for Active; 'I' for Inactive)
REMARK    1  A    between atoms: C5_5  and  C7_7 
REMARK    2  A    between atoms: C5_5  and  S9_9 
REMARK    3  A    between atoms: C6_6  and  C7_7 
REMARK    4  A    between atoms: C6_6  and  S10_10 
REMARK    5  A    between atoms: C7_7  and  C8_8 
ROOT
HETATM    1  C7  UNL     1     -35.013  16.818  -5.010  1.00 20.00     0.011 C 
ENDROOT
BRANCH   1   2
HETATM    2  C5  UNL     1     -35.387  17.608  -6.292  1.00 20.00     0.077 C 
BRANCH   2   3
HETATM    3  S9  UNL     1     -34.333  19.063  -6.606  1.00 20.00    -0.182 SA
HETATM    4  H28 UNL     1     -34.450  19.027  -7.939  1.00 20.00     0.101 HD
ENDBRANCH   2   3
ENDBRANCH   1   2
BRANCH   1   5
HETATM    5  C6  UNL     1     -33.938  17.516  -4.130  1.00 20.00     0.079 C 
BRANCH   5   6
HETATM    6  S10 UNL     1     -34.507  18.326  -2.606  1.00 20.00    -0.173 SA
HETATM    7  C4  UNL     1     -33.601  17.310  -1.417  1.00 20.00     0.089 C 
ENDBRANCH   5   6
ENDBRANCH   1   5
BRANCH   1   8
HETATM    8  C8  UNL     1     -34.716  15.283  -5.294  1.00 20.00    -0.046 C 
HETATM    9  C1  UNL     1     -33.800  14.679  -4.209  1.00 20.00     0.015 C 
HETATM   10  C2  UNL     1     -35.984  14.414  -5.387  1.00 20.00     0.015 C 
HETATM   11  C3  UNL     1     -33.960  15.144  -6.640  1.00 20.00     0.015 C 
ENDBRANCH   1   8
TORSDOF 5
ENDMDL
MODEL 2
REMARK VINA RESULT:      -2.8      0.080      1.369
REMARK  5 active torsions:
REMARK  status: ('A' for Active; 'I' for Inactive)
REMARK    1  A    between atoms: C5_5  and  C7_7 
REMARK    2  A    between atoms: C5_5  and  S9_9 
REMARK    3  A    between atoms: C6_6  and  C7_7 
REMARK    4  A    between atoms: C6_6  and  S10_10 
REMARK    5  A    between atoms: C7_7  and  C8_8 
ROOT
HETATM    1  C7  UNL     1     -35.012  16.769  -4.962  1.00 20.00     0.011 C 
ENDROOT
BRANCH   1   2
HETATM    2  C5  UNL     1     -35.485  17.582  -6.195  1.00 20.00     0.077 C 
BRANCH   2   3
HETATM    3  S9  UNL     1     -34.416  19.000  -6.609  1.00 20.00    -0.182 SA
HETATM    4  H28 UNL     1     -33.767  18.390  -7.610  1.00 20.00     0.101 HD
ENDBRANCH   2   3
ENDBRANCH   1   2
BRANCH   1   5
HETATM    5  C6  UNL     1     -33.934  17.492  -4.106  1.00 20.00     0.079 C 
BRANCH   5   6
HETATM    6  S10 UNL     1     -34.495  18.330  -2.593  1.00 20.00    -0.173 SA
HETATM    7  C4  UNL     1     -33.599  17.322  -1.390  1.00 20.00     0.089 C 
ENDBRANCH   5   6
ENDBRANCH   1   5
BRANCH   1   8
HETATM    8  C8  UNL     1     -34.651  15.263  -5.315  1.00 20.00    -0.046 C 
HETATM    9  C1  UNL     1     -33.960  15.160  -6.691  1.00 20.00     0.015 C 
HETATM   10  C2  UNL     1     -33.745  14.582  -4.273  1.00 20.00     0.015 C 
HETATM   11  C3  UNL     1     -35.954  14.428  -5.410  1.00 20.00     0.015 C 
ENDBRANCH   1   8
TORSDOF 5
ENDMDL
MODEL 3
REMARK VINA RESULT:      -2.8      0.080      1.362
REMARK  5 active torsions:
REMARK  status: ('A' for Active; 'I' for Inactive)
REMARK    1  A    between atoms: C5_5  and  C7_7 
REMARK    2  A    between atoms: C5_5  and  S9_9 
REMARK    3  A    between atoms: C6_6  and  C7_7 
REMARK    4  A    between atoms: C6_6  and  S10_10 
REMARK    5  A    between atoms: C7_7  and  C8_8 
ROOT
HETATM    1  C7  UNL     1     -35.023  16.785  -4.944  1.00 20.00     0.011 C 
ENDROOT
BRANCH   1   2
HETATM    2  C5  UNL     1     -35.482  17.642  -6.153  1.00 20.00     0.077 C 
BRANCH   2   3
HETATM    3  S9  UNL     1     -34.369  19.032  -6.549  1.00 20.00    -0.182 SA
HETATM    4  H28 UNL     1     -33.337  18.271  -6.934  1.00 20.00     0.101 HD
ENDBRANCH   2   3
ENDBRANCH   1   2
BRANCH   1   5
HETATM    5  C6  UNL     1     -33.934  17.466  -4.067  1.00 20.00     0.079 C 
BRANCH   5   6
HETATM    6  S10 UNL     1     -34.494  18.337  -2.572  1.00 20.00    -0.173 SA
HETATM    7  C4  UNL     1     -33.612  17.344  -1.347  1.00 20.00     0.089 C 
ENDBRANCH   5   6
ENDBRANCH   1   5
BRANCH   1   8
HETATM    8  C8  UNL     1     -34.684  15.285  -5.342  1.00 20.00    -0.046 C 
HETATM    9  C1  UNL     1     -35.961  14.419  -5.403  1.00 20.00     0.015 C 
HETATM   10  C2  UNL     1     -33.951  15.151  -6.689  1.00 20.00     0.015 C 
HETATM   11  C3  UNL     1     -33.774  14.655  -4.256  1.00 20.00     0.015 C 
ENDBRANCH   1   8
TORSDOF 5
ENDMDL
MODEL 4
REMARK VINA RESULT:      -2.7      2.266      4.420
REMARK  5 active torsions:
REMARK  status: ('A' for Active; 'I' for Inactive)
REMARK    1  A    between atoms: C5_5  and  C7_7 
REMARK    2  A    between atoms: C5_5  and  S9_9 
REMARK    3  A    between atoms: C6_6  and  C7_7 
REMARK    4  A    between atoms: C6_6  and  S10_10 
REMARK    5  A    between atoms: C7_7  and  C8_8 
ROOT
HETATM    1  C7  UNL     1     -34.123  17.324  -3.610  1.00 20.00     0.011 C 
ENDROOT
BRANCH   1   2
HETATM    2  C5  UNL     1     -33.222  16.062  -3.588  1.00 20.00     0.077 C 
BRANCH   2   3
HETATM    3  S9  UNL     1     -33.974  14.595  -4.368  1.00 20.00    -0.182 SA
HETATM    4  H28 UNL     1     -33.379  13.699  -3.570  1.00 20.00     0.101 HD
ENDBRANCH   2   3
ENDBRANCH   1   2
BRANCH   1   5
HETATM    5  C6  UNL     1     -34.076  18.109  -4.951  1.00 20.00     0.079 C 
BRANCH   5   6
HETATM    6  S10 UNL     1     -35.370  17.745  -6.175  1.00 20.00    -0.173 SA
HETATM    7  C4  UNL     1     -36.697  17.308  -5.029  1.00 20.00     0.089 C 
ENDBRANCH   5   6
ENDBRANCH   1   5
BRANCH   1   8
HETATM    8  C8  UNL     1     -33.940  18.237  -2.322  1.00 20.00    -0.046 C 
HETATM    9  C1  UNL     1     -33.682  17.383  -1.062  1.00 20.00     0.015 C 
HETATM   10  C2  UNL     1     -32.799  19.263  -2.447  1.00 20.00     0.015 C 
HETATM   11  C3  UNL     1     -35.247  19.029  -2.060  1.00 20.00     0.015 C 
ENDBRANCH   1   8
TORSDOF 5
ENDMDL
MODEL 5
REMARK VINA RESULT:      -2.7      2.248      4.372
REMARK  5 active torsions:
REMARK  status: ('A' for Active; 'I' for Inactive)
REMARK    1  A    between atoms: C5_5  and  C7_7 
REMARK    2  A    between atoms: C5_5  and  S9_9 
REMARK    3  A    between atoms: C6_6  and  C7_7 
REMARK    4  A    between atoms: C6_6  and  S10_10 
REMARK    5  A    between atoms: C7_7  and  C8_8 
ROOT
HETATM    1  C7  UNL     1     -34.162  17.330  -3.651  1.00 20.00     0.011 C 
ENDROOT
BRANCH   1   2
HETATM    2  C5  UNL     1     -33.235  16.086  -3.640  1.00 20.00     0.077 C 
BRANCH   2   3
HETATM    3  S9  UNL     1     -33.981  14.593  -4.375  1.00 20.00    -0.182 SA
HETATM    4  H28 UNL     1     -35.125  15.183  -4.744  1.00 20.00     0.101 HD
ENDBRANCH   2   3
ENDBRANCH   1   2
BRANCH   1   5
HETATM    5  C6  UNL     1     -34.111  18.142  -4.976  1.00 20.00     0.079 C 
BRANCH   5   6
HETATM    6  S10 UNL     1     -35.422  17.827  -6.196  1.00 20.00    -0.173 SA
HETATM    7  C4  UNL     1     -36.703  17.250  -5.060  1.00 20.00     0.089 C 
ENDBRANCH   5   6
ENDBRANCH   1   5
BRANCH   1   8
HETATM    8  C8  UNL     1     -34.018  18.220  -2.343  1.00 20.00    -0.046 C 
HETATM    9  C1  UNL     1     -35.309  19.019  -2.063  1.00 20.00     0.015 C 
HETATM   10  C2  UNL     1     -33.671  17.413  -1.079  1.00 20.00     0.015 C 
HETATM   11  C3  UNL     1     -32.889  19.262  -2.550  1.00 20.00     0.015 C 
ENDBRANCH   1   8
TORSDOF 5
ENDMDL
MODEL 6
REMARK VINA RESULT:      -2.7      1.544      2.176
REMARK  5 active torsions:
REMARK  status: ('A' for Active; 'I' for Inactive)
REMARK    1  A    between atoms: C5_5  and  C7_7 
REMARK    2  A    between atoms: C5_5  and  S9_9 
REMARK    3  A    between atoms: C6_6  and  C7_7 
REMARK    4  A    between atoms: C6_6  and  S10_10 
REMARK    5  A    between atoms: C7_7  and  C8_8 
ROOT
HETATM    1  C7  UNL     1     -35.317  16.752  -4.891  1.00 20.00     0.011 C 
ENDROOT
BRANCH   1   2
HETATM    2  C5  UNL     1     -36.790  16.973  -5.326  1.00 20.00     0.077 C 
BRANCH   2   3
HETATM    3  S9  UNL     1     -37.706  18.157  -4.285  1.00 20.00    -0.182 SA
HETATM    4  H28 UNL     1     -36.622  18.775  -3.800  1.00 20.00     0.101 HD
ENDBRANCH   2   3
ENDBRANCH   1   2
BRANCH   1   5
HETATM    5  C6  UNL     1     -34.356  17.900  -5.311  1.00 20.00     0.079 C 
BRANCH   5   6
HETATM    6  S10 UNL     1     -33.428  18.734  -3.989  1.00 20.00    -0.173 SA
HETATM    7  C4  UNL     1     -34.313  18.044  -2.573  1.00 20.00     0.089 C 
ENDBRANCH   5   6
ENDBRANCH   1   5
BRANCH   1   8
HETATM    8  C8  UNL     1     -34.780  15.299  -5.244  1.00 20.00    -0.046 C 
HETATM    9  C1  UNL     1     -34.083  15.279  -6.621  1.00 20.00     0.015 C 
HETATM   10  C2  UNL     1     -33.797  14.732  -4.203  1.00 20.00     0.015 C 
HETATM   11  C3  UNL     1     -35.973  14.314  -5.337  1.00 20.00     0.015 C 
ENDBRANCH   1   8
TORSDOF 5
ENDMDL
MODEL 7
REMARK VINA RESULT:      -2.6      1.255      2.823
REMARK  5 active torsions:
REMARK  status: ('A' for Active; 'I' for Inactive)
REMARK    1  A    between atoms: C5_5  and  C7_7 
REMARK    2  A    between atoms: C5_5  and  S9_9 
REMARK    3  A    between atoms: C6_6  and  C7_7 
REMARK    4  A    between atoms: C6_6  and  S10_10 
REMARK    5  A    between atoms: C7_7  and  C8_8 
ROOT
HETATM    1  C7  UNL     1     -34.604  16.844  -4.917  1.00 20.00     0.011 C 
ENDROOT
BRANCH   1   2
HETATM    2  C5  UNL     1     -33.828  17.130  -3.604  1.00 20.00     0.077 C 
BRANCH   2   3
HETATM    3  S9  UNL     1     -33.176  18.828  -3.478  1.00 20.00    -0.182 SA
HETATM    4  H28 UNL     1     -33.890  19.165  -2.397  1.00 20.00     0.101 HD
ENDBRANCH   2   3
ENDBRANCH   1   2
BRANCH   1   5
HETATM    5  C6  UNL     1     -36.033  17.456  -4.951  1.00 20.00     0.079 C 
BRANCH   5   6
HETATM    6  S10 UNL     1     -36.483  18.440  -6.412  1.00 20.00    -0.173 SA
HETATM    7  C4  UNL     1     -34.815  18.841  -6.979  1.00 20.00     0.089 C 
ENDBRANCH   5   6
ENDBRANCH   1   5
BRANCH   1   8
HETATM    8  C8  UNL     1     -34.547  15.316  -5.348  1.00 20.00    -0.046 C 
HETATM    9  C1  UNL     1     -33.642  14.499  -4.402  1.00 20.00     0.015 C 
HETATM   10  C2  UNL     1     -35.927  14.634  -5.397  1.00 20.00     0.015 C 
HETATM   11  C3  UNL     1     -33.925  15.202  -6.764  1.00 20.00     0.015 C 
ENDBRANCH   1   8
TORSDOF 5
ENDMDL
MODEL 8
REMARK VINA RESULT:      -2.6      1.790      2.549
REMARK  5 active torsions:
REMARK  status: ('A' for Active; 'I' for Inactive)
REMARK    1  A    between atoms: C5_5  and  C7_7 
REMARK    2  A    between atoms: C5_5  and  S9_9 
REMARK    3  A    between atoms: C6_6  and  C7_7 
REMARK    4  A    between atoms: C6_6  and  S10_10 
REMARK    5  A    between atoms: C7_7  and  C8_8 
ROOT
HETATM    1  C7  UNL     1     -34.984  16.865  -5.048  1.00 20.00     0.011 C 
ENDROOT
BRANCH   1   2
HETATM    2  C5  UNL     1     -34.319  17.385  -3.746  1.00 20.00     0.077 C 
BRANCH   2   3
HETATM    3  S9  UNL     1     -33.224  18.822  -3.990  1.00 20.00    -0.182 SA
HETATM    4  H28 UNL     1     -32.601  18.334  -5.069  1.00 20.00     0.101 HD
ENDBRANCH   2   3
ENDBRANCH   1   2
BRANCH   1   5
HETATM    5  C6  UNL     1     -36.487  17.241  -5.182  1.00 20.00     0.079 C 
BRANCH   5   6
HETATM    6  S10 UNL     1     -37.156  18.437  -3.987  1.00 20.00    -0.173 SA
HETATM    7  C4  UNL     1     -38.786  17.692  -3.757  1.00 20.00     0.089 C 
ENDBRANCH   5   6
ENDBRANCH   1   5
BRANCH   1   8
HETATM    8  C8  UNL     1     -34.676  15.332  -5.330  1.00 20.00    -0.046 C 
HETATM    9  C1  UNL     1     -33.727  14.745  -4.264  1.00 20.00     0.015 C 
HETATM   10  C2  UNL     1     -35.935  14.447  -5.389  1.00 20.00     0.015 C 
HETATM   11  C3  UNL     1     -33.950  15.194  -6.693  1.00 20.00     0.015 C 
ENDBRANCH   1   8
TORSDOF 5
ENDMDL
MODEL 9
REMARK VINA RESULT:      -2.6     13.261     14.528
REMARK  5 active torsions:
REMARK  status: ('A' for Active; 'I' for Inactive)
REMARK    1  A    between atoms: C5_5  and  C7_7 
REMARK    2  A    between atoms: C5_5  and  S9_9 
REMARK    3  A    between atoms: C6_6  and  C7_7 
REMARK    4  A    between atoms: C6_6  and  S10_10 
REMARK    5  A    between atoms: C7_7  and  C8_8 
ROOT
HETATM    1  C7  UNL     1     -41.001  14.117   7.872  1.00 20.00     0.011 C 
ENDROOT
BRANCH   1   2
HETATM    2  C5  UNL     1     -42.103  14.198   8.961  1.00 20.00     0.077 C 
BRANCH   2   3
HETATM    3  S9  UNL     1     -41.480  14.030  10.666  1.00 20.00    -0.182 SA
HETATM    4  H28 UNL     1     -41.068  12.763  10.534  1.00 20.00     0.101 HD
ENDBRANCH   2   3
ENDBRANCH   1   2
BRANCH   1   5
HETATM    5  C6  UNL     1     -40.375  15.493   7.505  1.00 20.00     0.079 C 
BRANCH   5   6
HETATM    6  S10 UNL     1     -41.175  16.978   8.183  1.00 20.00    -0.173 SA
HETATM    7  C4  UNL     1     -40.461  18.196   7.054  1.00 20.00     0.089 C 
ENDBRANCH   5   6
ENDBRANCH   1   5
BRANCH   1   8
HETATM    8  C8  UNL     1     -41.438  13.252   6.613  1.00 20.00    -0.046 C 
HETATM    9  C1  UNL     1     -41.891  14.152   5.444  1.00 20.00     0.015 C 
HETATM   10  C2  UNL     1     -40.334  12.313   6.094  1.00 20.00     0.015 C 
HETATM   11  C3  UNL     1     -42.656  12.370   6.990  1.00 20.00     0.015 C 
ENDBRANCH   1   8
TORSDOF 5
ENDMDL
