MODEL 1
REMARK VINA RESULT:      -3.5      0.000      0.000
REMARK  5 active torsions:
REMARK  status: ('A' for Active; 'I' for Inactive)
REMARK    1  A    between atoms: C4_4  and  C6_6 
REMARK    2  A    between atoms: C4_4  and  O8_8 
REMARK    3  A    between atoms: C5_5  and  C6_6 
REMARK    4  A    between atoms: C5_5  and  S9_9 
REMARK    5  A    between atoms: C7_7  and  O8_8 
ROOT
HETATM    1  C4  UNL     1     -33.734   7.366   5.182  1.00 20.00     0.173 C 
ENDROOT
BRANCH   1   2
HETATM    2  C6  UNL     1     -32.960   8.264   4.208  1.00 20.00     0.014 C 
HETATM    3  C1  UNL     1     -32.029   9.226   4.955  1.00 20.00     0.012 C 
BRANCH   2   4
HETATM    4  C5  UNL     1     -32.227   7.448   3.128  1.00 20.00     0.077 C 
BRANCH   4   5
HETATM    5  S9  UNL     1     -32.195   8.194   1.467  1.00 20.00    -0.182 SA
HETATM    6  H25 UNL     1     -30.991   8.765   1.597  1.00 20.00     0.101 HD
ENDBRANCH   4   5
ENDBRANCH   2   4
ENDBRANCH   1   2
BRANCH   1   7
HETATM    7  O8  UNL     1     -34.711   6.615   4.470  1.00 20.00    -0.386 OA
BRANCH   7   8
HETATM    8  C7  UNL     1     -34.870   5.315   5.020  1.00 20.00     0.113 C 
HETATM    9  C2  UNL     1     -33.971   4.342   4.274  1.00 20.00     0.039 C 
HETATM   10  C3  UNL     1     -34.549   5.358   6.506  1.00 20.00     0.039 C 
ENDBRANCH   7   8
ENDBRANCH   1   7
TORSDOF 5
ENDMDL
MODEL 2
REMARK VINA RESULT:      -3.3      1.011      1.536
REMARK  5 active torsions:
REMARK  status: ('A' for Active; 'I' for Inactive)
REMARK    1  A    between atoms: C4_4  and  C6_6 
REMARK    2  A    between atoms: C4_4  and  O8_8 
REMARK    3  A    between atoms: C5_5  and  C6_6 
REMARK    4  A    between atoms: C5_5  and  S9_9 
REMARK    5  A    between atoms: C7_7  and  O8_8 
ROOT
HETATM    1  C4  UNL     1     -33.202   7.642   4.710  1.00 20.00     0.173 C 
ENDROOT
BRANCH   1   2
HETATM    2  C6  UNL     1     -32.299   7.813   3.481  1.00 20.00     0.014 C 
HETATM    3  C1  UNL     1     -32.297   6.551   2.611  1.00 20.00     0.012 C 
BRANCH   2   4
HETATM    4  C5  UNL     1     -32.642   9.084   2.684  1.00 20.00     0.077 C 
BRANCH   4   5
HETATM    5  S9  UNL     1     -32.562   8.921   0.873  1.00 20.00    -0.182 SA
HETATM    6  H25 UNL     1     -33.878   8.757   0.692  1.00 20.00     0.101 HD
ENDBRANCH   4   5
ENDBRANCH   2   4
ENDBRANCH   1   2
BRANCH   1   7
HETATM    7  O8  UNL     1     -34.428   7.033   4.324  1.00 20.00    -0.386 OA
BRANCH   7   8
HETATM    8  C7  UNL     1     -34.850   6.064   5.273  1.00 20.00     0.113 C 
HETATM    9  C2  UNL     1     -34.454   4.680   4.787  1.00 20.00     0.039 C 
HETATM   10  C3  UNL     1     -34.233   6.388   6.625  1.00 20.00     0.039 C 
ENDBRANCH   7   8
ENDBRANCH   1   7
TORSDOF 5
ENDMDL
MODEL 3
REMARK VINA RESULT:      -3.1     12.122     12.953
REMARK  5 active torsions:
REMARK  status: ('A' for Active; 'I' for Inactive)
REMARK    1  A    between atoms: C4_4  and  C6_6 
REMARK    2  A    between atoms: C4_4  and  O8_8 
REMARK    3  A    between atoms: C5_5  and  C6_6 
REMARK    4  A    between atoms: C5_5  and  S9_9 
REMARK    5  A    between atoms: C7_7  and  O8_8 
ROOT
HETATM    1  C4  UNL     1     -33.318  16.850  -2.306  1.00 20.00     0.173 C 
ENDROOT
BRANCH   1   2
HETATM    2  C6  UNL     1     -33.498  16.433  -3.772  1.00 20.00     0.014 C 
HETATM    3  C1  UNL     1     -33.717  14.920  -3.898  1.00 20.00     0.012 C 
BRANCH   2   4
HETATM    4  C5  UNL     1     -34.594  17.252  -4.475  1.00 20.00     0.077 C 
BRANCH   4   5
HETATM    5  S9  UNL     1     -35.737  16.299  -5.524  1.00 20.00    -0.182 SA
HETATM    6  H25 UNL     1     -35.054  16.472  -6.663  1.00 20.00     0.101 HD
ENDBRANCH   4   5
ENDBRANCH   2   4
ENDBRANCH   1   2
BRANCH   1   7
HETATM    7  O8  UNL     1     -32.640  18.100  -2.243  1.00 20.00    -0.386 OA
BRANCH   7   8
HETATM    8  C7  UNL     1     -32.676  18.645  -0.931  1.00 20.00     0.113 C 
HETATM    9  C2  UNL     1     -33.746  17.931  -0.121  1.00 20.00     0.039 C 
HETATM   10  C3  UNL     1     -31.300  18.510  -0.297  1.00 20.00     0.039 C 
ENDBRANCH   7   8
ENDBRANCH   1   7
TORSDOF 5
ENDMDL
MODEL 4
REMARK VINA RESULT:      -3.0      9.680     10.367
REMARK  5 active torsions:
REMARK  status: ('A' for Active; 'I' for Inactive)
REMARK    1  A    between atoms: C4_4  and  C6_6 
REMARK    2  A    between atoms: C4_4  and  O8_8 
REMARK    3  A    between atoms: C5_5  and  C6_6 
REMARK    4  A    between atoms: C5_5  and  S9_9 
REMARK    5  A    between atoms: C7_7  and  O8_8 
ROOT
HETATM    1  C4  UNL     1     -40.639  13.640   6.301  1.00 20.00     0.173 C 
ENDROOT
BRANCH   1   2
HETATM    2  C6  UNL     1     -42.057  13.815   6.861  1.00 20.00     0.014 C 
HETATM    3  C1  UNL     1     -42.747  12.461   7.065  1.00 20.00     0.012 C 
BRANCH   2   4
HETATM    4  C5  UNL     1     -42.075  14.687   8.129  1.00 20.00     0.077 C 
BRANCH   4   5
HETATM    5  S9  UNL     1     -40.451  15.001   8.889  1.00 20.00    -0.182 SA
HETATM    6  H25 UNL     1     -39.890  15.536   7.797  1.00 20.00     0.101 HD
ENDBRANCH   4   5
ENDBRANCH   2   4
ENDBRANCH   1   2
BRANCH   1   7
HETATM    7  O8  UNL     1     -40.689  12.893   5.091  1.00 20.00    -0.386 OA
BRANCH   7   8
HETATM    8  C7  UNL     1     -39.770  11.810   5.110  1.00 20.00     0.113 C 
HETATM    9  C2  UNL     1     -39.019  11.767   3.789  1.00 20.00     0.039 C 
HETATM   10  C3  UNL     1     -38.829  11.973   6.293  1.00 20.00     0.039 C 
ENDBRANCH   7   8
ENDBRANCH   1   7
TORSDOF 5
ENDMDL
MODEL 5
REMARK VINA RESULT:      -3.0     12.009     12.786
REMARK  5 active torsions:
REMARK  status: ('A' for Active; 'I' for Inactive)
REMARK    1  A    between atoms: C4_4  and  C6_6 
REMARK    2  A    between atoms: C4_4  and  O8_8 
REMARK    3  A    between atoms: C5_5  and  C6_6 
REMARK    4  A    between atoms: C5_5  and  S9_9 
REMARK    5  A    between atoms: C7_7  and  O8_8 
ROOT
HETATM    1  C4  UNL     1     -32.777  18.554  -2.021  1.00 20.00     0.173 C 
ENDROOT
BRANCH   1   2
HETATM    2  C6  UNL     1     -32.599  18.827  -0.521  1.00 20.00     0.014 C 
HETATM    3  C1  UNL     1     -33.658  18.094   0.309  1.00 20.00     0.012 C 
BRANCH   2   4
HETATM    4  C5  UNL     1     -31.165  18.534  -0.047  1.00 20.00     0.077 C 
BRANCH   4   5
HETATM    5  S9  UNL     1     -30.936  18.446   1.758  1.00 20.00    -0.182 SA
HETATM    6  H25 UNL     1     -31.615  19.567   2.036  1.00 20.00     0.101 HD
ENDBRANCH   4   5
ENDBRANCH   2   4
ENDBRANCH   1   2
BRANCH   1   7
HETATM    7  O8  UNL     1     -32.910  17.155  -2.241  1.00 20.00    -0.386 OA
BRANCH   7   8
HETATM    8  C7  UNL     1     -33.336  16.876  -3.567  1.00 20.00     0.113 C 
HETATM    9  C2  UNL     1     -33.616  15.387  -3.701  1.00 20.00     0.039 C 
HETATM   10  C3  UNL     1     -34.564  17.714  -3.886  1.00 20.00     0.039 C 
ENDBRANCH   7   8
ENDBRANCH   1   7
TORSDOF 5
ENDMDL
MODEL 6
REMARK VINA RESULT:      -2.9      2.573      4.359
REMARK  5 active torsions:
REMARK  status: ('A' for Active; 'I' for Inactive)
REMARK    1  A    between atoms: C4_4  and  C6_6 
REMARK    2  A    between atoms: C4_4  and  O8_8 
REMARK    3  A    between atoms: C5_5  and  C6_6 
REMARK    4  A    between atoms: C5_5  and  S9_9 
REMARK    5  A    between atoms: C7_7  and  O8_8 
ROOT
HETATM    1  C4  UNL     1     -33.323   6.855   4.150  1.00 20.00     0.173 C 
ENDROOT
BRANCH   1   2
HETATM    2  C6  UNL     1     -33.949   5.551   3.637  1.00 20.00     0.014 C 
HETATM    3  C1  UNL     1     -33.006   4.821   2.673  1.00 20.00     0.012 C 
BRANCH   2   4
HETATM    4  C5  UNL     1     -34.435   4.651   4.787  1.00 20.00     0.077 C 
BRANCH   4   5
HETATM    5  S9  UNL     1     -34.568   5.458   6.413  1.00 20.00    -0.182 SA
HETATM    6  H25 UNL     1     -34.011   4.458   7.108  1.00 20.00     0.101 HD
ENDBRANCH   4   5
ENDBRANCH   2   4
ENDBRANCH   1   2
BRANCH   1   7
HETATM    7  O8  UNL     1     -32.298   7.279   3.259  1.00 20.00    -0.386 OA
BRANCH   7   8
HETATM    8  C7  UNL     1     -32.042   8.670   3.385  1.00 20.00     0.113 C 
HETATM    9  C2  UNL     1     -32.841   9.424   2.335  1.00 20.00     0.039 C 
HETATM   10  C3  UNL     1     -32.395   9.118   4.795  1.00 20.00     0.039 C 
ENDBRANCH   7   8
ENDBRANCH   1   7
TORSDOF 5
ENDMDL
MODEL 7
REMARK VINA RESULT:      -2.9     10.533     11.140
REMARK  5 active torsions:
REMARK  status: ('A' for Active; 'I' for Inactive)
REMARK    1  A    between atoms: C4_4  and  C6_6 
REMARK    2  A    between atoms: C4_4  and  O8_8 
REMARK    3  A    between atoms: C5_5  and  C6_6 
REMARK    4  A    between atoms: C5_5  and  S9_9 
REMARK    5  A    between atoms: C7_7  and  O8_8 
ROOT
HETATM    1  C4  UNL     1     -41.468  14.153   7.920  1.00 20.00     0.173 C 
ENDROOT
BRANCH   1   2
HETATM    2  C6  UNL     1     -40.374  15.167   8.282  1.00 20.00     0.014 C 
HETATM    3  C1  UNL     1     -40.689  16.554   7.711  1.00 20.00     0.012 C 
BRANCH   2   4
HETATM    4  C5  UNL     1     -40.090  15.197   9.794  1.00 20.00     0.077 C 
BRANCH   4   5
HETATM    5  S9  UNL     1     -41.237  14.231  10.827  1.00 20.00    -0.182 SA
HETATM    6  H25 UNL     1     -42.358  14.731  10.291  1.00 20.00     0.101 HD
ENDBRANCH   4   5
ENDBRANCH   2   4
ENDBRANCH   1   2
BRANCH   1   7
HETATM    7  O8  UNL     1     -40.871  12.947   7.458  1.00 20.00    -0.386 OA
BRANCH   7   8
HETATM    8  C7  UNL     1     -40.145  13.154   6.255  1.00 20.00     0.113 C 
HETATM    9  C2  UNL     1     -39.237  11.960   6.007  1.00 20.00     0.039 C 
HETATM   10  C3  UNL     1     -41.123  13.370   5.111  1.00 20.00     0.039 C 
ENDBRANCH   7   8
ENDBRANCH   1   7
TORSDOF 5
ENDMDL
MODEL 8
REMARK VINA RESULT:      -2.9      0.688      1.271
REMARK  5 active torsions:
REMARK  status: ('A' for Active; 'I' for Inactive)
REMARK    1  A    between atoms: C4_4  and  C6_6 
REMARK    2  A    between atoms: C4_4  and  O8_8 
REMARK    3  A    between atoms: C5_5  and  C6_6 
REMARK    4  A    between atoms: C5_5  and  S9_9 
REMARK    5  A    between atoms: C7_7  and  O8_8 
ROOT
HETATM    1  C4  UNL     1     -33.720   7.455   4.812  1.00 20.00     0.173 C 
ENDROOT
BRANCH   1   2
HETATM    2  C6  UNL     1     -32.867   8.414   3.971  1.00 20.00     0.014 C 
HETATM    3  C1  UNL     1     -31.947   9.264   4.856  1.00 20.00     0.012 C 
BRANCH   2   4
HETATM    4  C5  UNL     1     -32.105   7.681   2.854  1.00 20.00     0.077 C 
BRANCH   4   5
HETATM    5  S9  UNL     1     -32.218   8.434   1.200  1.00 20.00    -0.182 SA
HETATM    6  H25 UNL     1     -31.410   7.555   0.594  1.00 20.00     0.101 HD
ENDBRANCH   4   5
ENDBRANCH   2   4
ENDBRANCH   1   2
BRANCH   1   7
HETATM    7  O8  UNL     1     -33.548   6.122   4.344  1.00 20.00    -0.386 OA
BRANCH   7   8
HETATM    8  C7  UNL     1     -34.600   5.276   4.784  1.00 20.00     0.113 C 
HETATM    9  C2  UNL     1     -34.570   5.188   6.302  1.00 20.00     0.039 C 
HETATM   10  C3  UNL     1     -35.926   5.820   4.274  1.00 20.00     0.039 C 
ENDBRANCH   7   8
ENDBRANCH   1   7
TORSDOF 5
ENDMDL
MODEL 9
REMARK VINA RESULT:      -2.9     12.016     12.845
REMARK  5 active torsions:
REMARK  status: ('A' for Active; 'I' for Inactive)
REMARK    1  A    between atoms: C4_4  and  C6_6 
REMARK    2  A    between atoms: C4_4  and  O8_8 
REMARK    3  A    between atoms: C5_5  and  C6_6 
REMARK    4  A    between atoms: C5_5  and  S9_9 
REMARK    5  A    between atoms: C7_7  and  O8_8 
ROOT
HETATM    1  C4  UNL     1     -33.140  16.838  -2.637  1.00 20.00     0.173 C 
ENDROOT
BRANCH   1   2
HETATM    2  C6  UNL     1     -34.091  17.386  -3.709  1.00 20.00     0.014 C 
HETATM    3  C1  UNL     1     -33.525  18.653  -4.362  1.00 20.00     0.012 C 
BRANCH   2   4
HETATM    4  C5  UNL     1     -34.483  16.312  -4.738  1.00 20.00     0.077 C 
BRANCH   4   5
HETATM    5  S9  UNL     1     -33.772  14.659  -4.459  1.00 20.00    -0.182 SA
HETATM    6  H25 UNL     1     -33.388  14.459  -5.726  1.00 20.00     0.101 HD
ENDBRANCH   4   5
ENDBRANCH   2   4
ENDBRANCH   1   2
BRANCH   1   7
HETATM    7  O8  UNL     1     -33.726  16.994  -1.350  1.00 20.00    -0.386 OA
BRANCH   7   8
HETATM    8  C7  UNL     1     -33.374  18.240  -0.766  1.00 20.00     0.113 C 
HETATM    9  C2  UNL     1     -33.933  18.307   0.646  1.00 20.00     0.039 C 
HETATM   10  C3  UNL     1     -31.861  18.392  -0.784  1.00 20.00     0.039 C 
ENDBRANCH   7   8
ENDBRANCH   1   7
TORSDOF 5
ENDMDL
