MODEL 1
REMARK VINA RESULT:      -3.1      0.000      0.000
REMARK  6 active torsions:
REMARK  status: ('A' for Active; 'I' for Inactive)
REMARK    1  A    between atoms: C4_4  and  C5_5 
REMARK    2  A    between atoms: C5_5  and  S10_10 
REMARK    3  A    between atoms: C6_6  and  C8_8 
REMARK    4  A    between atoms: C6_6  and  S9_9 
REMARK    5  A    between atoms: C7_7  and  C8_8 
REMARK    6  A    between atoms: C7_7  and  S10_10 
ROOT
HETATM    1  C2  UNL     1     -35.900  14.417  -5.278  1.00 20.00     0.016 C 
HETATM    2  C3  UNL     1     -33.685  14.756  -4.201  1.00 20.00     0.016 C 
HETATM    3  C8  UNL     1     -34.645  15.320  -5.275  1.00 20.00    -0.031 C 
ENDROOT
BRANCH   3   4
HETATM    4  C6  UNL     1     -33.992  15.223  -6.682  1.00 20.00     0.080 C 
BRANCH   4   5
HETATM    5  S9  UNL     1     -34.388  16.567  -7.846  1.00 20.00    -0.181 SA
HETATM    6  H28 UNL     1     -33.726  17.522  -7.179  1.00 20.00     0.101 HD
ENDBRANCH   4   5
ENDBRANCH   3   4
BRANCH   3   7
HETATM    7  C7  UNL     1     -35.027  16.766  -4.851  1.00 20.00     0.083 C 
BRANCH   7   8
HETATM    8  S10 UNL     1     -33.706  17.752  -4.074  1.00 20.00    -0.168 SA
BRANCH   8   9
HETATM    9  C5  UNL     1     -34.486  18.000  -2.464  1.00 20.00     0.073 C 
BRANCH   9  10
HETATM   10  C4  UNL     1     -33.643  17.373  -1.360  1.00 20.00     0.006 C 
HETATM   11  C1  UNL     1     -32.343  18.139  -1.160  1.00 20.00     0.006 C 
ENDBRANCH   9  10
ENDBRANCH   8   9
ENDBRANCH   7   8
ENDBRANCH   3   7
TORSDOF 6
ENDMDL
MODEL 2
REMARK VINA RESULT:      -3.0      1.935      5.658
REMARK  6 active torsions:
REMARK  status: ('A' for Active; 'I' for Inactive)
REMARK    1  A    between atoms: C4_4  and  C5_5 
REMARK    2  A    between atoms: C5_5  and  S10_10 
REMARK    3  A    between atoms: C6_6  and  C8_8 
REMARK    4  A    between atoms: C6_6  and  S9_9 
REMARK    5  A    between atoms: C7_7  and  C8_8 
REMARK    6  A    between atoms: C7_7  and  S10_10 
ROOT
HETATM    1  C2  UNL     1     -33.983  18.031   0.359  1.00 20.00     0.016 C 
HETATM    2  C3  UNL     1     -34.531  19.157  -1.788  1.00 20.00     0.016 C 
HETATM    3  C8  UNL     1     -33.479  18.270  -1.083  1.00 20.00    -0.031 C 
ENDROOT
BRANCH   3   4
HETATM    4  C6  UNL     1     -32.121  19.020  -0.987  1.00 20.00     0.080 C 
BRANCH   4   5
HETATM    5  S9  UNL     1     -31.081  18.620   0.454  1.00 20.00    -0.181 SA
HETATM    6  H28 UNL     1     -32.091  18.532   1.329  1.00 20.00     0.101 HD
ENDBRANCH   4   5
ENDBRANCH   3   4
BRANCH   3   7
HETATM    7  C7  UNL     1     -33.405  16.923  -1.856  1.00 20.00     0.083 C 
BRANCH   7   8
HETATM    8  S10 UNL     1     -33.667  17.014  -3.657  1.00 20.00    -0.168 SA
BRANCH   8   9
HETATM    9  C5  UNL     1     -33.335  15.283  -4.051  1.00 20.00     0.073 C 
BRANCH   9  10
HETATM   10  C4  UNL     1     -34.399  14.737  -4.996  1.00 20.00     0.006 C 
HETATM   11  C1  UNL     1     -34.192  15.253  -6.413  1.00 20.00     0.006 C 
ENDBRANCH   9  10
ENDBRANCH   8   9
ENDBRANCH   7   8
ENDBRANCH   3   7
TORSDOF 6
ENDMDL
MODEL 3
REMARK VINA RESULT:      -3.0      2.308      3.408
REMARK  6 active torsions:
REMARK  status: ('A' for Active; 'I' for Inactive)
REMARK    1  A    between atoms: C4_4  and  C5_5 
REMARK    2  A    between atoms: C5_5  and  S10_10 
REMARK    3  A    between atoms: C6_6  and  C8_8 
REMARK    4  A    between atoms: C6_6  and  S9_9 
REMARK    5  A    between atoms: C7_7  and  C8_8 
REMARK    6  A    between atoms: C7_7  and  S10_10 
ROOT
HETATM    1  C2  UNL     1     -33.312  16.592  -2.953  1.00 20.00     0.016 C 
HETATM    2  C3  UNL     1     -32.998  18.893  -3.841  1.00 20.00     0.016 C 
HETATM    3  C8  UNL     1     -34.051  17.910  -3.277  1.00 20.00    -0.031 C 
ENDROOT
BRANCH   3   4
HETATM    4  C6  UNL     1     -35.123  17.595  -4.358  1.00 20.00     0.080 C 
BRANCH   4   5
HETATM    5  S9  UNL     1     -34.793  16.151  -5.419  1.00 20.00    -0.181 SA
HETATM    6  H28 UNL     1     -35.381  15.255  -4.615  1.00 20.00     0.101 HD
ENDBRANCH   4   5
ENDBRANCH   3   4
BRANCH   3   7
HETATM    7  C7  UNL     1     -34.628  18.536  -1.976  1.00 20.00     0.083 C 
BRANCH   7   8
HETATM    8  S10 UNL     1     -33.897  17.956  -0.411  1.00 20.00    -0.168 SA
BRANCH   8   9
HETATM    9  C5  UNL     1     -32.628  19.229  -0.234  1.00 20.00     0.073 C 
BRANCH   9  10
HETATM   10  C4  UNL     1     -31.242  18.598  -0.184  1.00 20.00     0.006 C 
HETATM   11  C1  UNL     1     -30.776  18.411   1.253  1.00 20.00     0.006 C 
ENDBRANCH   9  10
ENDBRANCH   8   9
ENDBRANCH   7   8
ENDBRANCH   3   7
TORSDOF 6
ENDMDL
MODEL 4
REMARK VINA RESULT:      -2.9     11.805     12.915
REMARK  6 active torsions:
REMARK  status: ('A' for Active; 'I' for Inactive)
REMARK    1  A    between atoms: C4_4  and  C5_5 
REMARK    2  A    between atoms: C5_5  and  S10_10 
REMARK    3  A    between atoms: C6_6  and  C8_8 
REMARK    4  A    between atoms: C6_6  and  S9_9 
REMARK    5  A    between atoms: C7_7  and  C8_8 
REMARK    6  A    between atoms: C7_7  and  S10_10 
ROOT
HETATM    1  C2  UNL     1     -32.048   7.156   3.066  1.00 20.00     0.016 C 
HETATM    2  C3  UNL     1     -31.783   8.902   4.815  1.00 20.00     0.016 C 
HETATM    3  C8  UNL     1     -32.764   8.337   3.761  1.00 20.00    -0.031 C 
ENDROOT
BRANCH   3   4
HETATM    4  C6  UNL     1     -33.062   9.410   2.677  1.00 20.00     0.080 C 
BRANCH   4   5
HETATM    5  S9  UNL     1     -32.593   8.980   0.970  1.00 20.00    -0.181 SA
HETATM    6  H28 UNL     1     -31.292   9.263   1.112  1.00 20.00     0.101 HD
ENDBRANCH   4   5
ENDBRANCH   3   4
BRANCH   3   7
HETATM    7  C7  UNL     1     -34.025   7.831   4.516  1.00 20.00     0.083 C 
BRANCH   7   8
HETATM    8  S10 UNL     1     -33.767   7.279   6.233  1.00 20.00    -0.168 SA
BRANCH   8   9
HETATM    9  C5  UNL     1     -34.748   5.763   6.164  1.00 20.00     0.073 C 
BRANCH   9  10
HETATM   10  C4  UNL     1     -34.966   5.334   4.718  1.00 20.00     0.006 C 
HETATM   11  C1  UNL     1     -33.953   4.277   4.301  1.00 20.00     0.006 C 
ENDBRANCH   9  10
ENDBRANCH   8   9
ENDBRANCH   7   8
ENDBRANCH   3   7
TORSDOF 6
ENDMDL
MODEL 5
REMARK VINA RESULT:      -2.9      1.328      1.790
REMARK  6 active torsions:
REMARK  status: ('A' for Active; 'I' for Inactive)
REMARK    1  A    between atoms: C4_4  and  C5_5 
REMARK    2  A    between atoms: C5_5  and  S10_10 
REMARK    3  A    between atoms: C6_6  and  C8_8 
REMARK    4  A    between atoms: C6_6  and  S9_9 
REMARK    5  A    between atoms: C7_7  and  C8_8 
REMARK    6  A    between atoms: C7_7  and  S10_10 
ROOT
HETATM    1  C2  UNL     1     -34.310  14.177  -4.254  1.00 20.00     0.016 C 
HETATM    2  C3  UNL     1     -33.945  15.182  -6.498  1.00 20.00     0.016 C 
HETATM    3  C8  UNL     1     -34.769  15.313  -5.196  1.00 20.00    -0.031 C 
ENDROOT
BRANCH   3   4
HETATM    4  C6  UNL     1     -36.279  15.095  -5.493  1.00 20.00     0.080 C 
BRANCH   4   5
HETATM    5  S9  UNL     1     -37.258  16.596  -5.822  1.00 20.00    -0.181 SA
HETATM    6  H28 UNL     1     -36.550  17.398  -5.015  1.00 20.00     0.101 HD
ENDBRANCH   4   5
ENDBRANCH   3   4
BRANCH   3   7
HETATM    7  C7  UNL     1     -34.440  16.697  -4.568  1.00 20.00     0.083 C 
BRANCH   7   8
HETATM    8  S10 UNL     1     -33.307  16.683  -3.140  1.00 20.00    -0.168 SA
BRANCH   8   9
HETATM    9  C5  UNL     1     -34.157  17.916  -2.129  1.00 20.00     0.073 C 
BRANCH   9  10
HETATM   10  C4  UNL     1     -33.626  17.893  -0.701  1.00 20.00     0.006 C 
HETATM   11  C1  UNL     1     -32.170  18.336  -0.649  1.00 20.00     0.006 C 
ENDBRANCH   9  10
ENDBRANCH   8   9
ENDBRANCH   7   8
ENDBRANCH   3   7
TORSDOF 6
ENDMDL
MODEL 6
REMARK VINA RESULT:      -2.9      1.726      4.886
REMARK  6 active torsions:
REMARK  status: ('A' for Active; 'I' for Inactive)
REMARK    1  A    between atoms: C4_4  and  C5_5 
REMARK    2  A    between atoms: C5_5  and  S10_10 
REMARK    3  A    between atoms: C6_6  and  C8_8 
REMARK    4  A    between atoms: C6_6  and  S9_9 
REMARK    5  A    between atoms: C7_7  and  C8_8 
REMARK    6  A    between atoms: C7_7  and  S10_10 
ROOT
HETATM    1  C2  UNL     1     -33.536  17.014  -1.646  1.00 20.00     0.016 C 
HETATM    2  C3  UNL     1     -34.947  18.973  -2.240  1.00 20.00     0.016 C 
HETATM    3  C8  UNL     1     -33.548  18.343  -2.435  1.00 20.00    -0.031 C 
ENDROOT
BRANCH   3   4
HETATM    4  C6  UNL     1     -32.455  19.263  -1.822  1.00 20.00     0.080 C 
BRANCH   4   5
HETATM    5  S9  UNL     1     -31.526  18.578  -0.413  1.00 20.00    -0.181 SA
HETATM    6  H28 UNL     1     -32.303  19.117   0.536  1.00 20.00     0.101 HD
ENDBRANCH   4   5
ENDBRANCH   3   4
BRANCH   3   7
HETATM    7  C7  UNL     1     -33.364  18.067  -3.954  1.00 20.00     0.083 C 
BRANCH   7   8
HETATM    8  S10 UNL     1     -34.855  18.237  -4.989  1.00 20.00    -0.168 SA
BRANCH   8   9
HETATM    9  C5  UNL     1     -35.306  16.490  -5.075  1.00 20.00     0.073 C 
BRANCH   9  10
HETATM   10  C4  UNL     1     -34.060  15.623  -5.210  1.00 20.00     0.006 C 
HETATM   11  C1  UNL     1     -34.104  14.445  -4.247  1.00 20.00     0.006 C 
ENDBRANCH   9  10
ENDBRANCH   8   9
ENDBRANCH   7   8
ENDBRANCH   3   7
TORSDOF 6
ENDMDL
MODEL 7
REMARK VINA RESULT:      -2.8     12.573     14.468
REMARK  6 active torsions:
REMARK  status: ('A' for Active; 'I' for Inactive)
REMARK    1  A    between atoms: C4_4  and  C5_5 
REMARK    2  A    between atoms: C5_5  and  S10_10 
REMARK    3  A    between atoms: C6_6  and  C8_8 
REMARK    4  A    between atoms: C6_6  and  S9_9 
REMARK    5  A    between atoms: C7_7  and  C8_8 
REMARK    6  A    between atoms: C7_7  and  S10_10 
ROOT
HETATM    1  C2  UNL     1     -40.836  16.963   8.263  1.00 20.00     0.016 C 
HETATM    2  C3  UNL     1     -40.212  14.893   9.489  1.00 20.00     0.016 C 
HETATM    3  C8  UNL     1     -41.014  15.427   8.280  1.00 20.00    -0.031 C 
ENDROOT
BRANCH   3   4
HETATM    4  C6  UNL     1     -42.528  15.131   8.467  1.00 20.00     0.080 C 
BRANCH   4   5
HETATM    5  S9  UNL     1     -42.946  13.779   9.614  1.00 20.00    -0.181 SA
HETATM    6  H28 UNL     1     -43.585  14.550  10.504  1.00 20.00     0.101 HD
ENDBRANCH   4   5
ENDBRANCH   3   4
BRANCH   3   7
HETATM    7  C7  UNL     1     -40.400  14.802   6.995  1.00 20.00     0.083 C 
BRANCH   7   8
HETATM    8  S10 UNL     1     -41.560  13.938   5.887  1.00 20.00    -0.168 SA
BRANCH   8   9
HETATM    9  C5  UNL     1     -41.019  12.247   6.219  1.00 20.00     0.073 C 
BRANCH   9  10
HETATM   10  C4  UNL     1     -39.522  12.107   5.968  1.00 20.00     0.006 C 
HETATM   11  C1  UNL     1     -39.240  11.741   4.518  1.00 20.00     0.006 C 
ENDBRANCH   9  10
ENDBRANCH   8   9
ENDBRANCH   7   8
ENDBRANCH   3   7
TORSDOF 6
ENDMDL
MODEL 8
REMARK VINA RESULT:      -2.8     12.203     14.098
REMARK  6 active torsions:
REMARK  status: ('A' for Active; 'I' for Inactive)
REMARK    1  A    between atoms: C4_4  and  C5_5 
REMARK    2  A    between atoms: C5_5  and  S10_10 
REMARK    3  A    between atoms: C6_6  and  C8_8 
REMARK    4  A    between atoms: C6_6  and  S9_9 
REMARK    5  A    between atoms: C7_7  and  C8_8 
REMARK    6  A    between atoms: C7_7  and  S10_10 
ROOT
HETATM    1  C2  UNL     1     -40.402  14.381   9.428  1.00 20.00     0.016 C 
HETATM    2  C3  UNL     1     -42.413  15.802   9.090  1.00 20.00     0.016 C 
HETATM    3  C8  UNL     1     -41.303  15.023   8.348  1.00 20.00    -0.031 C 
ENDROOT
BRANCH   3   4
HETATM    4  C6  UNL     1     -40.422  16.001   7.521  1.00 20.00     0.080 C 
BRANCH   4   5
HETATM    5  S9  UNL     1     -40.962  17.741   7.494  1.00 20.00    -0.181 SA
HETATM    6  H28 UNL     1     -40.551  18.029   8.736  1.00 20.00     0.101 HD
ENDBRANCH   4   5
ENDBRANCH   3   4
BRANCH   3   7
HETATM    7  C7  UNL     1     -41.991  13.917   7.499  1.00 20.00     0.083 C 
BRANCH   7   8
HETATM    8  S10 UNL     1     -41.360  13.695   5.804  1.00 20.00    -0.168 SA
BRANCH   8   9
HETATM    9  C5  UNL     1     -40.530  12.109   6.047  1.00 20.00     0.073 C 
BRANCH   9  10
HETATM   10  C4  UNL     1     -39.098  12.171   5.529  1.00 20.00     0.006 C 
HETATM   11  C1  UNL     1     -39.013  11.684   4.090  1.00 20.00     0.006 C 
ENDBRANCH   9  10
ENDBRANCH   8   9
ENDBRANCH   7   8
ENDBRANCH   3   7
TORSDOF 6
ENDMDL
MODEL 9
REMARK VINA RESULT:      -2.8     12.320     13.587
REMARK  6 active torsions:
REMARK  status: ('A' for Active; 'I' for Inactive)
REMARK    1  A    between atoms: C4_4  and  C5_5 
REMARK    2  A    between atoms: C5_5  and  S10_10 
REMARK    3  A    between atoms: C6_6  and  C8_8 
REMARK    4  A    between atoms: C6_6  and  S9_9 
REMARK    5  A    between atoms: C7_7  and  C8_8 
REMARK    6  A    between atoms: C7_7  and  S10_10 
ROOT
HETATM    1  C2  UNL     1     -41.341  13.597   4.805  1.00 20.00     0.016 C 
HETATM    2  C3  UNL     1     -42.281  12.491   6.823  1.00 20.00     0.016 C 
HETATM    3  C8  UNL     1     -40.974  13.032   6.196  1.00 20.00    -0.031 C 
ENDROOT
BRANCH   3   4
HETATM    4  C6  UNL     1     -39.963  11.871   5.981  1.00 20.00     0.080 C 
BRANCH   4   5
HETATM    5  S9  UNL     1     -39.191  11.773   4.334  1.00 20.00    -0.181 SA
HETATM    6  H28 UNL     1     -38.721  13.028   4.330  1.00 20.00     0.101 HD
ENDBRANCH   4   5
ENDBRANCH   3   4
BRANCH   3   7
HETATM    7  C7  UNL     1     -40.448  14.169   7.116  1.00 20.00     0.083 C 
BRANCH   7   8
HETATM    8  S10 UNL     1     -41.513  15.640   7.266  1.00 20.00    -0.168 SA
BRANCH   8   9
HETATM    9  C5  UNL     1     -40.857  16.272   8.826  1.00 20.00     0.073 C 
BRANCH   9  10
HETATM   10  C4  UNL     1     -40.065  15.190   9.550  1.00 20.00     0.006 C 
HETATM   11  C1  UNL     1     -40.658  14.901  10.922  1.00 20.00     0.006 C 
ENDBRANCH   9  10
ENDBRANCH   8   9
ENDBRANCH   7   8
ENDBRANCH   3   7
TORSDOF 6
ENDMDL
