MODEL 1
REMARK VINA RESULT:      -3.1      0.000      0.000
REMARK  6 active torsions:
REMARK  status: ('A' for Active; 'I' for Inactive)
REMARK    1  A    between atoms: C3_3  and  C4_4 
REMARK    2  A    between atoms: C4_4  and  C7_7 
REMARK    3  A    between atoms: C5_5  and  C7_7 
REMARK    4  A    between atoms: C5_5  and  S8_8 
REMARK    5  A    between atoms: C6_6  and  C7_7 
REMARK    6  A    between atoms: C6_6  and  S9_9 
ROOT
HETATM    1  C7  UNL     1     -33.261  16.636  -3.473  1.00 20.00     0.004 C 
ENDROOT
BRANCH   1   2
HETATM    2  C4  UNL     1     -33.530  16.888  -1.967  1.00 20.00     0.006 C 
BRANCH   2   3
HETATM    3  C3  UNL     1     -32.626  17.916  -1.279  1.00 20.00    -0.004 C 
HETATM    4  C1  UNL     1     -33.141  18.366   0.079  1.00 20.00     0.005 C 
ENDBRANCH   2   3
ENDBRANCH   1   2
BRANCH   1   5
HETATM    5  C5  UNL     1     -33.851  17.819  -4.276  1.00 20.00     0.076 C 
BRANCH   5   6
HETATM    6  S8  UNL     1     -35.516  18.312  -3.735  1.00 20.00    -0.182 SA
HETATM    7  H25 UNL     1     -35.502  17.616  -2.591  1.00 20.00     0.101 HD
ENDBRANCH   5   6
ENDBRANCH   1   5
BRANCH   1   8
HETATM    8  C6  UNL     1     -33.721  15.243  -3.957  1.00 20.00     0.078 C 
BRANCH   8   9
HETATM    9  S9  UNL     1     -34.172  15.137  -5.717  1.00 20.00    -0.173 SA
HETATM   10  C2  UNL     1     -35.866  14.543  -5.514  1.00 20.00     0.089 C 
ENDBRANCH   8   9
ENDBRANCH   1   8
TORSDOF 6
ENDMDL
MODEL 2
REMARK VINA RESULT:      -3.0      2.252      4.818
REMARK  6 active torsions:
REMARK  status: ('A' for Active; 'I' for Inactive)
REMARK    1  A    between atoms: C3_3  and  C4_4 
REMARK    2  A    between atoms: C4_4  and  C7_7 
REMARK    3  A    between atoms: C5_5  and  C7_7 
REMARK    4  A    between atoms: C5_5  and  S8_8 
REMARK    5  A    between atoms: C6_6  and  C7_7 
REMARK    6  A    between atoms: C6_6  and  S9_9 
ROOT
HETATM    1  C7  UNL     1     -34.017  17.795  -1.418  1.00 20.00     0.004 C 
ENDROOT
BRANCH   1   2
HETATM    2  C4  UNL     1     -33.213  16.724  -2.200  1.00 20.00     0.006 C 
BRANCH   2   3
HETATM    3  C3  UNL     1     -33.637  16.484  -3.654  1.00 20.00    -0.004 C 
HETATM    4  C1  UNL     1     -33.678  15.013  -4.039  1.00 20.00     0.005 C 
ENDBRANCH   2   3
ENDBRANCH   1   2
BRANCH   1   5
HETATM    5  C5  UNL     1     -34.458  18.894  -2.413  1.00 20.00     0.076 C 
BRANCH   5   6
HETATM    6  S8  UNL     1     -36.257  19.151  -2.468  1.00 20.00    -0.182 SA
HETATM    7  H25 UNL     1     -36.233  20.103  -3.409  1.00 20.00     0.101 HD
ENDBRANCH   5   6
ENDBRANCH   1   5
BRANCH   1   8
HETATM    8  C6  UNL     1     -33.283  18.323  -0.165  1.00 20.00     0.078 C 
BRANCH   8   9
HETATM    9  S9  UNL     1     -31.502  18.630  -0.375  1.00 20.00    -0.173 SA
HETATM   10  C2  UNL     1     -30.996  18.400   1.344  1.00 20.00     0.089 C 
ENDBRANCH   8   9
ENDBRANCH   1   8
TORSDOF 6
ENDMDL
MODEL 3
REMARK VINA RESULT:      -3.0     11.504     12.876
REMARK  6 active torsions:
REMARK  status: ('A' for Active; 'I' for Inactive)
REMARK    1  A    between atoms: C3_3  and  C4_4 
REMARK    2  A    between atoms: C4_4  and  C7_7 
REMARK    3  A    between atoms: C5_5  and  C7_7 
REMARK    4  A    between atoms: C5_5  and  S8_8 
REMARK    5  A    between atoms: C6_6  and  C7_7 
REMARK    6  A    between atoms: C6_6  and  S9_9 
ROOT
HETATM    1  C7  UNL     1     -41.491  13.246   6.204  1.00 20.00     0.004 C 
ENDROOT
BRANCH   1   2
HETATM    2  C4  UNL     1     -39.978  12.930   6.092  1.00 20.00     0.006 C 
BRANCH   2   3
HETATM    3  C3  UNL     1     -39.611  11.573   5.481  1.00 20.00    -0.004 C 
HETATM    4  C1  UNL     1     -39.014  11.676   4.086  1.00 20.00     0.005 C 
ENDBRANCH   2   3
ENDBRANCH   1   2
BRANCH   1   5
HETATM    5  C5  UNL     1     -41.906  14.079   4.969  1.00 20.00     0.076 C 
BRANCH   5   6
HETATM    6  S8  UNL     1     -43.101  15.399   5.345  1.00 20.00    -0.182 SA
HETATM    7  H25 UNL     1     -43.945  14.627   6.041  1.00 20.00     0.101 HD
ENDBRANCH   5   6
ENDBRANCH   1   5
BRANCH   1   8
HETATM    8  C6  UNL     1     -41.893  13.869   7.560  1.00 20.00     0.078 C 
BRANCH   8   9
HETATM    9  S9  UNL     1     -40.513  14.481   8.577  1.00 20.00    -0.173 SA
HETATM   10  C2  UNL     1     -40.532  16.202   8.028  1.00 20.00     0.089 C 
ENDBRANCH   8   9
ENDBRANCH   1   8
TORSDOF 6
ENDMDL
MODEL 4
REMARK VINA RESULT:      -2.9     11.371     12.486
REMARK  6 active torsions:
REMARK  status: ('A' for Active; 'I' for Inactive)
REMARK    1  A    between atoms: C3_3  and  C4_4 
REMARK    2  A    between atoms: C4_4  and  C7_7 
REMARK    3  A    between atoms: C5_5  and  C7_7 
REMARK    4  A    between atoms: C5_5  and  S8_8 
REMARK    5  A    between atoms: C6_6  and  C7_7 
REMARK    6  A    between atoms: C6_6  and  S9_9 
ROOT
HETATM    1  C7  UNL     1     -41.092  13.478   6.302  1.00 20.00     0.004 C 
ENDROOT
BRANCH   1   2
HETATM    2  C4  UNL     1     -40.478  12.093   5.973  1.00 20.00     0.006 C 
BRANCH   2   3
HETATM    3  C3  UNL     1     -39.044  12.097   5.432  1.00 20.00    -0.004 C 
HETATM    4  C1  UNL     1     -38.939  11.641   3.985  1.00 20.00     0.005 C 
ENDBRANCH   2   3
ENDBRANCH   1   2
BRANCH   1   5
HETATM    5  C5  UNL     1     -40.447  13.997   7.607  1.00 20.00     0.076 C 
BRANCH   5   6
HETATM    6  S8  UNL     1     -40.575  15.799   7.819  1.00 20.00    -0.182 SA
HETATM    7  H25 UNL     1     -39.268  16.050   7.671  1.00 20.00     0.101 HD
ENDBRANCH   5   6
ENDBRANCH   1   5
BRANCH   1   8
HETATM    8  C6  UNL     1     -42.637  13.482   6.306  1.00 20.00     0.078 C 
BRANCH   8   9
HETATM    9  S9  UNL     1     -43.417  14.753   5.262  1.00 20.00    -0.173 SA
HETATM   10  C2  UNL     1     -42.289  14.659   3.854  1.00 20.00     0.089 C 
ENDBRANCH   8   9
ENDBRANCH   1   8
TORSDOF 6
ENDMDL
MODEL 5
REMARK VINA RESULT:      -2.9      1.468      1.471
REMARK  6 active torsions:
REMARK  status: ('A' for Active; 'I' for Inactive)
REMARK    1  A    between atoms: C3_3  and  C4_4 
REMARK    2  A    between atoms: C4_4  and  C7_7 
REMARK    3  A    between atoms: C5_5  and  C7_7 
REMARK    4  A    between atoms: C5_5  and  S8_8 
REMARK    5  A    between atoms: C6_6  and  C7_7 
REMARK    6  A    between atoms: C6_6  and  S9_9 
ROOT
HETATM    1  C7  UNL     1     -33.789  16.378  -4.160  1.00 20.00     0.004 C 
ENDROOT
BRANCH   1   2
HETATM    2  C4  UNL     1     -33.386  16.306  -2.664  1.00 20.00     0.006 C 
BRANCH   2   3
HETATM    3  C3  UNL     1     -33.055  17.639  -1.985  1.00 20.00    -0.004 C 
HETATM    4  C1  UNL     1     -33.755  17.831  -0.649  1.00 20.00     0.005 C 
ENDBRANCH   2   3
ENDBRANCH   1   2
BRANCH   1   5
HETATM    5  C5  UNL     1     -34.863  17.478  -4.321  1.00 20.00     0.076 C 
BRANCH   5   6
HETATM    6  S8  UNL     1     -34.353  18.845  -5.406  1.00 20.00    -0.182 SA
HETATM    7  H25 UNL     1     -35.566  19.072  -5.924  1.00 20.00     0.101 HD
ENDBRANCH   5   6
ENDBRANCH   1   5
BRANCH   1   8
HETATM    8  C6  UNL     1     -34.181  15.009  -4.760  1.00 20.00     0.078 C 
BRANCH   8   9
HETATM    9  S9  UNL     1     -35.309  15.075  -6.186  1.00 20.00    -0.173 SA
HETATM   10  C2  UNL     1     -34.106  15.559  -7.444  1.00 20.00     0.089 C 
ENDBRANCH   8   9
ENDBRANCH   1   8
TORSDOF 6
ENDMDL
MODEL 6
REMARK VINA RESULT:      -2.9      1.636      4.523
REMARK  6 active torsions:
REMARK  status: ('A' for Active; 'I' for Inactive)
REMARK    1  A    between atoms: C3_3  and  C4_4 
REMARK    2  A    between atoms: C4_4  and  C7_7 
REMARK    3  A    between atoms: C5_5  and  C7_7 
REMARK    4  A    between atoms: C5_5  and  S8_8 
REMARK    5  A    between atoms: C6_6  and  C7_7 
REMARK    6  A    between atoms: C6_6  and  S9_9 
ROOT
HETATM    1  C7  UNL     1     -33.734  17.029  -3.080  1.00 20.00     0.004 C 
ENDROOT
BRANCH   1   2
HETATM    2  C4  UNL     1     -33.077  15.761  -3.684  1.00 20.00     0.006 C 
BRANCH   2   3
HETATM    3  C3  UNL     1     -34.033  14.648  -4.131  1.00 20.00    -0.004 C 
HETATM    4  C1  UNL     1     -34.676  14.907  -5.484  1.00 20.00     0.005 C 
ENDBRANCH   2   3
ENDBRANCH   1   2
BRANCH   1   5
HETATM    5  C5  UNL     1     -33.480  18.212  -4.041  1.00 20.00     0.076 C 
BRANCH   5   6
HETATM    6  S8  UNL     1     -34.958  18.737  -4.962  1.00 20.00    -0.182 SA
HETATM    7  H25 UNL     1     -35.730  18.930  -3.886  1.00 20.00     0.101 HD
ENDBRANCH   5   6
ENDBRANCH   1   5
BRANCH   1   8
HETATM    8  C6  UNL     1     -33.326  17.296  -1.614  1.00 20.00     0.078 C 
BRANCH   8   9
HETATM    9  S9  UNL     1     -32.692  18.967  -1.272  1.00 20.00    -0.173 SA
HETATM   10  C2  UNL     1     -31.254  18.501  -0.284  1.00 20.00     0.089 C 
ENDBRANCH   8   9
ENDBRANCH   1   8
TORSDOF 6
ENDMDL
MODEL 7
REMARK VINA RESULT:      -2.9      1.536      2.657
REMARK  6 active torsions:
REMARK  status: ('A' for Active; 'I' for Inactive)
REMARK    1  A    between atoms: C3_3  and  C4_4 
REMARK    2  A    between atoms: C4_4  and  C7_7 
REMARK    3  A    between atoms: C5_5  and  C7_7 
REMARK    4  A    between atoms: C5_5  and  S8_8 
REMARK    5  A    between atoms: C6_6  and  C7_7 
REMARK    6  A    between atoms: C6_6  and  S9_9 
ROOT
HETATM    1  C7  UNL     1     -33.742  17.094  -3.126  1.00 20.00     0.004 C 
ENDROOT
BRANCH   1   2
HETATM    2  C4  UNL     1     -33.474  17.177  -1.601  1.00 20.00     0.006 C 
BRANCH   2   3
HETATM    3  C3  UNL     1     -32.948  18.517  -1.075  1.00 20.00    -0.004 C 
HETATM    4  C1  UNL     1     -31.527  18.443  -0.538  1.00 20.00     0.005 C 
ENDBRANCH   2   3
ENDBRANCH   1   2
BRANCH   1   5
HETATM    5  C5  UNL     1     -33.120  15.783  -3.658  1.00 20.00     0.076 C 
BRANCH   5   6
HETATM    6  S8  UNL     1     -34.185  14.893  -4.834  1.00 20.00    -0.182 SA
HETATM    7  H25 UNL     1     -35.000  14.366  -3.911  1.00 20.00     0.101 HD
ENDBRANCH   5   6
ENDBRANCH   1   5
BRANCH   1   8
HETATM    8  C6  UNL     1     -33.314  18.364  -3.897  1.00 20.00     0.078 C 
BRANCH   8   9
HETATM    9  S9  UNL     1     -34.438  18.884  -5.230  1.00 20.00    -0.173 SA
HETATM   10  C2  UNL     1     -35.988  18.316  -4.496  1.00 20.00     0.089 C 
ENDBRANCH   8   9
ENDBRANCH   1   8
TORSDOF 6
ENDMDL
MODEL 8
REMARK VINA RESULT:      -2.9      2.108      3.970
REMARK  6 active torsions:
REMARK  status: ('A' for Active; 'I' for Inactive)
REMARK    1  A    between atoms: C3_3  and  C4_4 
REMARK    2  A    between atoms: C4_4  and  C7_7 
REMARK    3  A    between atoms: C5_5  and  C7_7 
REMARK    4  A    between atoms: C5_5  and  S8_8 
REMARK    5  A    between atoms: C6_6  and  C7_7 
REMARK    6  A    between atoms: C6_6  and  S9_9 
ROOT
HETATM    1  C7  UNL     1     -32.849  17.789  -2.302  1.00 20.00     0.004 C 
ENDROOT
BRANCH   1   2
HETATM    2  C4  UNL     1     -33.552  16.432  -2.560  1.00 20.00     0.006 C 
BRANCH   2   3
HETATM    3  C3  UNL     1     -33.055  15.627  -3.766  1.00 20.00    -0.004 C 
HETATM    4  C1  UNL     1     -34.028  14.552  -4.223  1.00 20.00     0.005 C 
ENDBRANCH   2   3
ENDBRANCH   1   2
BRANCH   1   5
HETATM    5  C5  UNL     1     -32.925  18.097  -0.789  1.00 20.00     0.076 C 
BRANCH   5   6
HETATM    6  S8  UNL     1     -31.354  18.678  -0.081  1.00 20.00    -0.182 SA
HETATM    7  H25 UNL     1     -30.919  17.471   0.302  1.00 20.00     0.101 HD
ENDBRANCH   5   6
ENDBRANCH   1   5
BRANCH   1   8
HETATM    8  C6  UNL     1     -33.357  18.930  -3.213  1.00 20.00     0.078 C 
BRANCH   8   9
HETATM    9  S9  UNL     1     -35.102  18.807  -3.717  1.00 20.00    -0.173 SA
HETATM   10  C2  UNL     1     -34.841  18.471  -5.472  1.00 20.00     0.089 C 
ENDBRANCH   8   9
ENDBRANCH   1   8
TORSDOF 6
ENDMDL
MODEL 9
REMARK VINA RESULT:      -2.8      1.343      2.775
REMARK  6 active torsions:
REMARK  status: ('A' for Active; 'I' for Inactive)
REMARK    1  A    between atoms: C3_3  and  C4_4 
REMARK    2  A    between atoms: C4_4  and  C7_7 
REMARK    3  A    between atoms: C5_5  and  C7_7 
REMARK    4  A    between atoms: C5_5  and  S8_8 
REMARK    5  A    between atoms: C6_6  and  C7_7 
REMARK    6  A    between atoms: C6_6  and  S9_9 
ROOT
HETATM    1  C7  UNL     1     -34.233  16.277  -4.256  1.00 20.00     0.004 C 
ENDROOT
BRANCH   1   2
HETATM    2  C4  UNL     1     -33.186  16.261  -3.113  1.00 20.00     0.006 C 
BRANCH   2   3
HETATM    3  C3  UNL     1     -33.569  17.008  -1.831  1.00 20.00    -0.004 C 
HETATM    4  C1  UNL     1     -32.535  18.033  -1.392  1.00 20.00     0.005 C 
ENDBRANCH   2   3
ENDBRANCH   1   2
BRANCH   1   5
HETATM    5  C5  UNL     1     -33.918  15.109  -5.219  1.00 20.00     0.076 C 
BRANCH   5   6
HETATM    6  S8  UNL     1     -34.303  15.472  -6.960  1.00 20.00    -0.182 SA
HETATM    7  H25 UNL     1     -35.632  15.363  -6.833  1.00 20.00     0.101 HD
ENDBRANCH   5   6
ENDBRANCH   1   5
BRANCH   1   8
HETATM    8  C6  UNL     1     -34.375  17.653  -4.945  1.00 20.00     0.078 C 
BRANCH   8   9
HETATM    9  S9  UNL     1     -35.886  18.580  -4.534  1.00 20.00    -0.173 SA
HETATM   10  C2  UNL     1     -37.096  17.336  -5.034  1.00 20.00     0.089 C 
ENDBRANCH   8   9
ENDBRANCH   1   8
TORSDOF 6
ENDMDL
