MODEL 1
REMARK VINA RESULT:      -3.5      0.000      0.000
REMARK  4 active torsions:
REMARK  status: ('A' for Active; 'I' for Inactive)
REMARK    1  A    between atoms: C4_4  and  O8_8 
REMARK    2  A    between atoms: C5_5  and  C6_6 
REMARK    3  A    between atoms: C5_5  and  O8_8 
REMARK    4  A    between atoms: C6_6  and  S9_9 
ROOT
HETATM    1  C1  UNL     1     -34.215   6.675   6.368  1.00 20.00     0.060 C 
HETATM    2  C2  UNL     1     -34.531   5.202   6.500  1.00 20.00     0.170 C 
HETATM    3  C3  UNL     1     -34.611   5.767   4.242  1.00 20.00     0.199 C 
HETATM    4  C4  UNL     1     -33.707   6.754   4.950  1.00 20.00     0.147 C 
HETATM    5  O7  UNL     1     -34.942   4.751   5.200  1.00 20.00    -0.389 OA
ENDROOT
BRANCH   4   6
HETATM    6  O8  UNL     1     -33.821   8.058   4.425  1.00 20.00    -0.383 OA
BRANCH   6   7
HETATM    7  C5  UNL     1     -32.573   8.538   3.948  1.00 20.00     0.178 C 
BRANCH   7   8
HETATM    8  C6  UNL     1     -32.092   7.681   2.788  1.00 20.00     0.097 C 
BRANCH   8   9
HETATM    9  S9  UNL     1     -32.311   8.534   1.197  1.00 20.00    -0.180 SA
HETATM   10  H21 UNL     1     -32.968   7.534   0.593  1.00 20.00     0.101 HD
ENDBRANCH   8   9
ENDBRANCH   7   8
ENDBRANCH   6   7
ENDBRANCH   4   6
TORSDOF 4
ENDMDL
MODEL 2
REMARK VINA RESULT:      -3.3     15.538     16.175
REMARK  4 active torsions:
REMARK  status: ('A' for Active; 'I' for Inactive)
REMARK    1  A    between atoms: C4_4  and  O8_8 
REMARK    2  A    between atoms: C5_5  and  C6_6 
REMARK    3  A    between atoms: C5_5  and  O8_8 
REMARK    4  A    between atoms: C6_6  and  S9_9 
ROOT
HETATM    1  C1  UNL     1     -24.307  16.516  11.778  1.00 20.00     0.060 C 
HETATM    2  C2  UNL     1     -25.600  17.071  12.331  1.00 20.00     0.170 C 
HETATM    3  C3  UNL     1     -24.700  18.639  10.864  1.00 20.00     0.199 C 
HETATM    4  C4  UNL     1     -24.179  17.271  10.479  1.00 20.00     0.147 C 
HETATM    5  O7  UNL     1     -25.688  18.432  11.882  1.00 20.00    -0.389 OA
ENDROOT
BRANCH   4   6
HETATM    6  O8  UNL     1     -22.843  17.313  10.027  1.00 20.00    -0.383 OA
BRANCH   6   7
HETATM    7  C5  UNL     1     -22.223  18.548  10.353  1.00 20.00     0.178 C 
BRANCH   7   8
HETATM    8  C6  UNL     1     -21.486  19.098   9.143  1.00 20.00     0.097 C 
BRANCH   8   9
HETATM    9  S9  UNL     1     -21.417  17.879   7.796  1.00 20.00    -0.180 SA
HETATM   10  H21 UNL     1     -20.113  18.038   7.530  1.00 20.00     0.101 HD
ENDBRANCH   8   9
ENDBRANCH   7   8
ENDBRANCH   6   7
ENDBRANCH   4   6
TORSDOF 4
ENDMDL
MODEL 3
REMARK VINA RESULT:      -3.3     11.987     12.888
REMARK  4 active torsions:
REMARK  status: ('A' for Active; 'I' for Inactive)
REMARK    1  A    between atoms: C4_4  and  O8_8 
REMARK    2  A    between atoms: C5_5  and  C6_6 
REMARK    3  A    between atoms: C5_5  and  O8_8 
REMARK    4  A    between atoms: C6_6  and  S9_9 
ROOT
HETATM    1  C1  UNL     1     -33.668  14.855  -4.035  1.00 20.00     0.060 C 
HETATM    2  C2  UNL     1     -33.940  15.082  -5.505  1.00 20.00     0.170 C 
HETATM    3  C3  UNL     1     -34.243  17.101  -4.384  1.00 20.00     0.199 C 
HETATM    4  C4  UNL     1     -33.297  16.242  -3.572  1.00 20.00     0.147 C 
HETATM    5  O7  UNL     1     -34.461  16.415  -5.625  1.00 20.00    -0.389 OA
ENDROOT
BRANCH   4   6
HETATM    6  O8  UNL     1     -33.488  16.399  -2.184  1.00 20.00    -0.383 OA
BRANCH   6   7
HETATM    7  C5  UNL     1     -33.951  17.704  -1.867  1.00 20.00     0.178 C 
BRANCH   7   8
HETATM    8  C6  UNL     1     -33.439  18.122  -0.498  1.00 20.00     0.097 C 
BRANCH   8   9
HETATM    9  S9  UNL     1     -31.668  18.536  -0.549  1.00 20.00    -0.180 SA
HETATM   10  H21 UNL     1     -31.298  17.474  -1.277  1.00 20.00     0.101 HD
ENDBRANCH   8   9
ENDBRANCH   7   8
ENDBRANCH   6   7
ENDBRANCH   4   6
TORSDOF 4
ENDMDL
MODEL 4
REMARK VINA RESULT:      -3.2     12.280     13.190
REMARK  4 active torsions:
REMARK  status: ('A' for Active; 'I' for Inactive)
REMARK    1  A    between atoms: C4_4  and  O8_8 
REMARK    2  A    between atoms: C5_5  and  C6_6 
REMARK    3  A    between atoms: C5_5  and  O8_8 
REMARK    4  A    between atoms: C6_6  and  S9_9 
ROOT
HETATM    1  C1  UNL     1     -33.216  17.156  -1.842  1.00 20.00     0.060 C 
HETATM    2  C2  UNL     1     -32.494  18.347  -1.253  1.00 20.00     0.170 C 
HETATM    3  C3  UNL     1     -32.957  18.805  -3.489  1.00 20.00     0.199 C 
HETATM    4  C4  UNL     1     -33.961  17.785  -2.993  1.00 20.00     0.147 C 
HETATM    5  O7  UNL     1     -32.205  19.233  -2.345  1.00 20.00    -0.389 OA
ENDROOT
BRANCH   4   6
HETATM    6  O8  UNL     1     -34.295  16.836  -3.981  1.00 20.00    -0.383 OA
BRANCH   6   7
HETATM    7  C5  UNL     1     -33.425  15.713  -3.939  1.00 20.00     0.178 C 
BRANCH   7   8
HETATM    8  C6  UNL     1     -34.173  14.458  -4.357  1.00 20.00     0.097 C 
BRANCH   8   9
HETATM    9  S9  UNL     1     -35.483  14.834  -5.562  1.00 20.00    -0.180 SA
HETATM   10  H21 UNL     1     -36.425  15.128  -4.656  1.00 20.00     0.101 HD
ENDBRANCH   8   9
ENDBRANCH   7   8
ENDBRANCH   6   7
ENDBRANCH   4   6
TORSDOF 4
ENDMDL
MODEL 5
REMARK VINA RESULT:      -3.2      9.607     10.245
REMARK  4 active torsions:
REMARK  status: ('A' for Active; 'I' for Inactive)
REMARK    1  A    between atoms: C4_4  and  O8_8 
REMARK    2  A    between atoms: C5_5  and  C6_6 
REMARK    3  A    between atoms: C5_5  and  O8_8 
REMARK    4  A    between atoms: C6_6  and  S9_9 
ROOT
HETATM    1  C1  UNL     1     -39.334  11.806   6.140  1.00 20.00     0.060 C 
HETATM    2  C2  UNL     1     -39.078  11.896   4.652  1.00 20.00     0.170 C 
HETATM    3  C3  UNL     1     -40.919  13.229   5.159  1.00 20.00     0.199 C 
HETATM    4  C4  UNL     1     -40.068  13.097   6.405  1.00 20.00     0.147 C 
HETATM    5  O7  UNL     1     -40.180  12.624   4.089  1.00 20.00    -0.389 OA
ENDROOT
BRANCH   4   6
HETATM    6  O8  UNL     1     -40.845  13.026   7.580  1.00 20.00    -0.383 OA
BRANCH   6   7
HETATM    7  C5  UNL     1     -41.433  14.281   7.890  1.00 20.00     0.178 C 
BRANCH   7   8
HETATM    8  C6  UNL     1     -40.356  15.282   8.276  1.00 20.00     0.097 C 
BRANCH   8   9
HETATM    9  S9  UNL     1     -40.801  16.968   7.761  1.00 20.00    -0.180 SA
HETATM   10  H21 UNL     1     -40.481  16.809   6.470  1.00 20.00     0.101 HD
ENDBRANCH   8   9
ENDBRANCH   7   8
ENDBRANCH   6   7
ENDBRANCH   4   6
TORSDOF 4
ENDMDL
MODEL 6
REMARK VINA RESULT:      -3.1      9.602     10.317
REMARK  4 active torsions:
REMARK  status: ('A' for Active; 'I' for Inactive)
REMARK    1  A    between atoms: C4_4  and  O8_8 
REMARK    2  A    between atoms: C5_5  and  C6_6 
REMARK    3  A    between atoms: C5_5  and  O8_8 
REMARK    4  A    between atoms: C6_6  and  S9_9 
ROOT
HETATM    1  C1  UNL     1     -39.308  11.795   6.073  1.00 20.00     0.060 C 
HETATM    2  C2  UNL     1     -39.117  11.858   4.575  1.00 20.00     0.170 C 
HETATM    3  C3  UNL     1     -40.860  13.291   5.151  1.00 20.00     0.199 C 
HETATM    4  C4  UNL     1     -39.961  13.125   6.358  1.00 20.00     0.147 C 
HETATM    5  O7  UNL     1     -40.204  12.639   4.055  1.00 20.00    -0.389 OA
ENDROOT
BRANCH   4   6
HETATM    6  O8  UNL     1     -40.685  13.105   7.568  1.00 20.00    -0.383 OA
BRANCH   6   7
HETATM    7  C5  UNL     1     -41.693  14.105   7.587  1.00 20.00     0.178 C 
BRANCH   7   8
HETATM    8  C6  UNL     1     -42.957  13.559   8.232  1.00 20.00     0.097 C 
BRANCH   8   9
HETATM    9  S9  UNL     1     -43.415  11.943   7.535  1.00 20.00    -0.180 SA
HETATM   10  H21 UNL     1     -43.501  12.359   6.265  1.00 20.00     0.101 HD
ENDBRANCH   8   9
ENDBRANCH   7   8
ENDBRANCH   6   7
ENDBRANCH   4   6
TORSDOF 4
ENDMDL
MODEL 7
REMARK VINA RESULT:      -3.0      9.340     10.408
REMARK  4 active torsions:
REMARK  status: ('A' for Active; 'I' for Inactive)
REMARK    1  A    between atoms: C4_4  and  O8_8 
REMARK    2  A    between atoms: C5_5  and  C6_6 
REMARK    3  A    between atoms: C5_5  and  O8_8 
REMARK    4  A    between atoms: C6_6  and  S9_9 
ROOT
HETATM    1  C1  UNL     1     -41.188   7.071   0.637  1.00 20.00     0.060 C 
HETATM    2  C2  UNL     1     -41.235   8.185  -0.385  1.00 20.00     0.170 C 
HETATM    3  C3  UNL     1     -43.417   7.695   0.263  1.00 20.00     0.199 C 
HETATM    4  C4  UNL     1     -42.483   7.281   1.380  1.00 20.00     0.147 C 
HETATM    5  O7  UNL     1     -42.619   8.392  -0.705  1.00 20.00    -0.389 OA
ENDROOT
BRANCH   4   6
HETATM    6  O8  UNL     1     -42.911   6.105   2.029  1.00 20.00    -0.383 OA
BRANCH   6   7
HETATM    7  C5  UNL     1     -42.336   4.947   1.440  1.00 20.00     0.178 C 
BRANCH   7   8
HETATM    8  C6  UNL     1     -43.417   4.097   0.795  1.00 20.00     0.097 C 
BRANCH   8   9
HETATM    9  S9  UNL     1     -43.387   4.245  -1.017  1.00 20.00    -0.180 SA
HETATM   10  H21 UNL     1     -44.011   3.085  -1.262  1.00 20.00     0.101 HD
ENDBRANCH   8   9
ENDBRANCH   7   8
ENDBRANCH   6   7
ENDBRANCH   4   6
TORSDOF 4
ENDMDL
MODEL 8
REMARK VINA RESULT:      -2.9     12.592     13.201
REMARK  4 active torsions:
REMARK  status: ('A' for Active; 'I' for Inactive)
REMARK    1  A    between atoms: C4_4  and  O8_8 
REMARK    2  A    between atoms: C5_5  and  C6_6 
REMARK    3  A    between atoms: C5_5  and  O8_8 
REMARK    4  A    between atoms: C6_6  and  S9_9 
ROOT
HETATM    1  C1  UNL     1     -34.684  14.834  -4.911  1.00 20.00     0.060 C 
HETATM    2  C2  UNL     1     -35.863  14.316  -5.704  1.00 20.00     0.170 C 
HETATM    3  C3  UNL     1     -36.163  16.599  -5.354  1.00 20.00     0.199 C 
HETATM    4  C4  UNL     1     -34.681  16.296  -5.282  1.00 20.00     0.147 C 
HETATM    5  O7  UNL     1     -36.810  15.393  -5.782  1.00 20.00    -0.389 OA
ENDROOT
BRANCH   4   6
HETATM    6  O8  UNL     1     -34.020  17.081  -4.315  1.00 20.00    -0.383 OA
BRANCH   6   7
HETATM    7  C5  UNL     1     -33.371  16.272  -3.344  1.00 20.00     0.178 C 
BRANCH   7   8
HETATM    8  C6  UNL     1     -33.451  16.932  -1.977  1.00 20.00     0.097 C 
BRANCH   8   9
HETATM    9  S9  UNL     1     -34.476  18.434  -2.023  1.00 20.00    -0.180 SA
HETATM   10  H21 UNL     1     -34.799  18.341  -3.320  1.00 20.00     0.101 HD
ENDBRANCH   8   9
ENDBRANCH   7   8
ENDBRANCH   6   7
ENDBRANCH   4   6
TORSDOF 4
ENDMDL
MODEL 9
REMARK VINA RESULT:      -2.9      2.579      4.282
REMARK  4 active torsions:
REMARK  status: ('A' for Active; 'I' for Inactive)
REMARK    1  A    between atoms: C4_4  and  O8_8 
REMARK    2  A    between atoms: C5_5  and  C6_6 
REMARK    3  A    between atoms: C5_5  and  O8_8 
REMARK    4  A    between atoms: C6_6  and  S9_9 
ROOT
HETATM    1  C1  UNL     1     -32.251   7.110   3.088  1.00 20.00     0.060 C 
HETATM    2  C2  UNL     1     -32.197   7.864   1.779  1.00 20.00     0.170 C 
HETATM    3  C3  UNL     1     -32.788   9.363   3.460  1.00 20.00     0.199 C 
HETATM    4  C4  UNL     1     -32.024   8.216   4.089  1.00 20.00     0.147 C 
HETATM    5  O7  UNL     1     -32.711   9.179   2.040  1.00 20.00    -0.389 OA
ENDROOT
BRANCH   4   6
HETATM    6  O8  UNL     1     -32.520   7.877   5.365  1.00 20.00    -0.383 OA
BRANCH   6   7
HETATM    7  C5  UNL     1     -33.932   7.720   5.349  1.00 20.00     0.178 C 
BRANCH   7   8
HETATM    8  C6  UNL     1     -34.332   6.514   6.184  1.00 20.00     0.097 C 
BRANCH   8   9
HETATM    9  S9  UNL     1     -34.725   5.081   5.135  1.00 20.00    -0.180 SA
HETATM   10  H21 UNL     1     -34.193   4.162   5.952  1.00 20.00     0.101 HD
ENDBRANCH   8   9
ENDBRANCH   7   8
ENDBRANCH   6   7
ENDBRANCH   4   6
TORSDOF 4
ENDMDL
