MODEL 1
REMARK VINA RESULT:      -5.4      0.000      0.000
REMARK  1 active torsions:
REMARK  status: ('A' for Active; 'I' for Inactive)
REMARK    1  A    between atoms: C4_4  and  C11_11 
ROOT
HETATM    1  C1  UNL     1     -32.298   8.742   3.989  1.00 20.00     0.008 A 
HETATM    2  C2  UNL     1     -32.821   8.351   5.223  1.00 20.00     0.008 A 
HETATM    3  C3  UNL     1     -33.208   6.755   2.920  1.00 20.00     0.016 A 
HETATM    4  C4  UNL     1     -32.490   7.950   2.845  1.00 20.00    -0.053 A 
HETATM    5  C5  UNL     1     -33.542   7.171   5.285  1.00 20.00    -0.050 A 
HETATM    6  C6  UNL     1     -33.730   6.376   4.147  1.00 20.00    -0.033 A 
HETATM    7  C7  UNL     1     -34.167   6.537   6.489  1.00 20.00     0.041 C 
HETATM    8  C8  UNL     1     -35.134   5.540   5.826  1.00 20.00     0.030 C 
HETATM    9  C12 UNL     1     -34.504   5.138   4.480  1.00 20.00     0.116 C 
HETATM   10 CL13 UNL     1     -33.403   3.757   4.667  1.00 20.00    -0.120 Cl
ENDROOT
BRANCH   4  11
HETATM   11  C11 UNL     1     -31.920   8.388   1.540  1.00 20.00     0.018 A 
HETATM   12  C9  UNL     1     -32.605   9.491   0.775  1.00 20.00     0.010 A 
HETATM   13  C10 UNL     1     -32.671   8.083   0.271  1.00 20.00     0.010 A 
ENDBRANCH   4  11
TORSDOF 1
ENDMDL
MODEL 2
REMARK VINA RESULT:      -4.9     11.415     12.822
REMARK  1 active torsions:
REMARK  status: ('A' for Active; 'I' for Inactive)
REMARK    1  A    between atoms: C4_4  and  C11_11 
ROOT
HETATM    1  C1  UNL     1     -33.891  18.581  -3.275  1.00 20.00     0.008 A 
HETATM    2  C2  UNL     1     -34.401  18.342  -4.553  1.00 20.00     0.008 A 
HETATM    3  C3  UNL     1     -33.355  16.224  -2.997  1.00 20.00     0.016 A 
HETATM    4  C4  UNL     1     -33.372  17.530  -2.502  1.00 20.00    -0.053 A 
HETATM    5  C5  UNL     1     -34.369  17.047  -5.040  1.00 20.00    -0.050 A 
HETATM    6  C6  UNL     1     -33.857  15.995  -4.268  1.00 20.00    -0.033 A 
HETATM    7  C7  UNL     1     -34.879  16.546  -6.355  1.00 20.00     0.041 C 
HETATM    8  C8  UNL     1     -34.172  15.182  -6.443  1.00 20.00     0.030 C 
HETATM    9  C12 UNL     1     -33.971  14.692  -4.998  1.00 20.00     0.116 C 
HETATM   10 CL13 UNL     1     -35.383  13.785  -4.418  1.00 20.00    -0.120 Cl
ENDROOT
BRANCH   4  11
HETATM   11  C11 UNL     1     -32.837  17.810  -1.140  1.00 20.00     0.018 A 
HETATM   12  C9  UNL     1     -33.802  17.985   0.005  1.00 20.00     0.010 A 
HETATM   13  C10 UNL     1     -33.059  19.169  -0.529  1.00 20.00     0.010 A 
ENDBRANCH   4  11
TORSDOF 1
ENDMDL
MODEL 3
REMARK VINA RESULT:      -4.5     10.998     11.630
REMARK  1 active torsions:
REMARK  status: ('A' for Active; 'I' for Inactive)
REMARK    1  A    between atoms: C4_4  and  C11_11 
ROOT
HETATM    1  C1  UNL     1     -41.443  13.597   4.716  1.00 20.00     0.008 A 
HETATM    2  C2  UNL     1     -42.273  14.708   4.879  1.00 20.00     0.008 A 
HETATM    3  C3  UNL     1     -40.919  13.582   7.093  1.00 20.00     0.016 A 
HETATM    4  C4  UNL     1     -40.771  13.038   5.815  1.00 20.00    -0.053 A 
HETATM    5  C5  UNL     1     -42.423  15.234   6.151  1.00 20.00    -0.050 A 
HETATM    6  C6  UNL     1     -41.749  14.681   7.248  1.00 20.00    -0.033 A 
HETATM    7  C7  UNL     1     -43.228  16.427   6.564  1.00 20.00     0.041 C 
HETATM    8  C8  UNL     1     -43.317  16.209   8.084  1.00 20.00     0.030 C 
HETATM    9  C12 UNL     1     -42.044  15.449   8.499  1.00 20.00     0.116 C 
HETATM   10 CL13 UNL     1     -40.711  16.567   8.861  1.00 20.00    -0.120 Cl
ENDROOT
BRANCH   4  11
HETATM   11  C11 UNL     1     -39.888  11.853   5.616  1.00 20.00     0.018 A 
HETATM   12  C9  UNL     1     -38.402  12.062   5.484  1.00 20.00     0.010 A 
HETATM   13  C10 UNL     1     -39.206  11.662   4.286  1.00 20.00     0.010 A 
ENDBRANCH   4  11
TORSDOF 1
ENDMDL
MODEL 4
REMARK VINA RESULT:      -4.5     11.614     12.940
REMARK  1 active torsions:
REMARK  status: ('A' for Active; 'I' for Inactive)
REMARK    1  A    between atoms: C4_4  and  C11_11 
ROOT
HETATM    1  C1  UNL     1     -33.455  19.263   0.527  1.00 20.00     0.008 A 
HETATM    2  C2  UNL     1     -34.581  19.138  -0.289  1.00 20.00     0.008 A 
HETATM    3  C3  UNL     1     -32.012  18.462  -1.262  1.00 20.00     0.016 A 
HETATM    4  C4  UNL     1     -32.179  18.927   0.044  1.00 20.00    -0.053 A 
HETATM    5  C5  UNL     1     -34.404  18.688  -1.586  1.00 20.00    -0.050 A 
HETATM    6  C6  UNL     1     -33.133  18.347  -2.068  1.00 20.00    -0.033 A 
HETATM    7  C7  UNL     1     -35.452  18.447  -2.628  1.00 20.00     0.041 C 
HETATM    8  C8  UNL     1     -34.592  18.386  -3.901  1.00 20.00     0.030 C 
HETATM    9  C12 UNL     1     -33.211  17.852  -3.479  1.00 20.00     0.116 C 
HETATM   10 CL13 UNL     1     -33.166  16.076  -3.510  1.00 20.00    -0.120 Cl
ENDROOT
BRANCH   4  11
HETATM   11  C11 UNL     1     -30.992  19.067   0.936  1.00 20.00     0.018 A 
HETATM   12  C9  UNL     1     -30.672  17.959   1.906  1.00 20.00     0.010 A 
HETATM   13  C10 UNL     1     -31.205  19.263   2.414  1.00 20.00     0.010 A 
ENDBRANCH   4  11
TORSDOF 1
ENDMDL
MODEL 5
REMARK VINA RESULT:      -4.3     13.187     14.311
REMARK  1 active torsions:
REMARK  status: ('A' for Active; 'I' for Inactive)
REMARK    1  A    between atoms: C4_4  and  C11_11 
ROOT
HETATM    1  C1  UNL     1     -23.875  -2.070  11.604  1.00 20.00     0.008 A 
HETATM    2  C2  UNL     1     -24.892  -1.266  12.121  1.00 20.00     0.008 A 
HETATM    3  C3  UNL     1     -25.381  -2.977   9.922  1.00 20.00     0.016 A 
HETATM    4  C4  UNL     1     -24.117  -2.920  10.512  1.00 20.00    -0.053 A 
HETATM    5  C5  UNL     1     -26.139  -1.320  11.521  1.00 20.00    -0.050 A 
HETATM    6  C6  UNL     1     -26.385  -2.171  10.436  1.00 20.00    -0.033 A 
HETATM    7  C7  UNL     1     -27.381  -0.581  11.913  1.00 20.00     0.041 C 
HETATM    8  C8  UNL     1     -28.232  -0.744  10.642  1.00 20.00     0.030 C 
HETATM    9  C12 UNL     1     -27.813  -2.077   9.995  1.00 20.00     0.116 C 
HETATM   10 CL13 UNL     1     -28.749  -3.437  10.649  1.00 20.00    -0.120 Cl
ENDROOT
BRANCH   4  11
HETATM   11  C11 UNL     1     -23.015  -3.771   9.980  1.00 20.00     0.018 A 
HETATM   12  C9  UNL     1     -22.495  -3.510   8.590  1.00 20.00     0.010 A 
HETATM   13  C10 UNL     1     -23.308  -4.737   8.862  1.00 20.00     0.010 A 
ENDBRANCH   4  11
TORSDOF 1
ENDMDL
MODEL 6
REMARK VINA RESULT:      -4.2     10.689     11.514
REMARK  1 active torsions:
REMARK  status: ('A' for Active; 'I' for Inactive)
REMARK    1  A    between atoms: C4_4  and  C11_11 
ROOT
HETATM    1  C1  UNL     1     -42.166  12.566   6.708  1.00 20.00     0.008 A 
HETATM    2  C2  UNL     1     -42.842  13.069   7.820  1.00 20.00     0.008 A 
HETATM    3  C3  UNL     1     -40.276  14.039   7.132  1.00 20.00     0.016 A 
HETATM    4  C4  UNL     1     -40.891  13.047   6.366  1.00 20.00    -0.053 A 
HETATM    5  C5  UNL     1     -42.220  14.044   8.581  1.00 20.00    -0.050 A 
HETATM    6  C6  UNL     1     -40.951  14.530   8.239  1.00 20.00    -0.033 A 
HETATM    7  C7  UNL     1     -42.754  14.750   9.789  1.00 20.00     0.041 C 
HETATM    8  C8  UNL     1     -41.463  15.348  10.374  1.00 20.00     0.030 C 
HETATM    9  C12 UNL     1     -40.514  15.602   9.188  1.00 20.00     0.116 C 
HETATM   10 CL13 UNL     1     -40.787  17.205   8.472  1.00 20.00    -0.120 Cl
ENDROOT
BRANCH   4  11
HETATM   11  C11 UNL     1     -40.190  12.495   5.172  1.00 20.00     0.018 A 
HETATM   12  C9  UNL     1     -39.721  11.063   5.196  1.00 20.00     0.010 A 
HETATM   13  C10 UNL     1     -38.721  12.175   5.267  1.00 20.00     0.010 A 
ENDBRANCH   4  11
TORSDOF 1
ENDMDL
MODEL 7
REMARK VINA RESULT:      -4.1     13.558     14.891
REMARK  1 active torsions:
REMARK  status: ('A' for Active; 'I' for Inactive)
REMARK    1  A    between atoms: C4_4  and  C11_11 
ROOT
HETATM    1  C1  UNL     1     -25.324  -1.389  12.182  1.00 20.00     0.008 A 
HETATM    2  C2  UNL     1     -24.071  -2.000  12.264  1.00 20.00     0.008 A 
HETATM    3  C3  UNL     1     -25.801  -2.537  10.090  1.00 20.00     0.016 A 
HETATM    4  C4  UNL     1     -26.183  -1.655  11.103  1.00 20.00    -0.053 A 
HETATM    5  C5  UNL     1     -23.706  -2.882  11.261  1.00 20.00    -0.050 A 
HETATM    6  C6  UNL     1     -24.559  -3.145  10.181  1.00 20.00    -0.033 A 
HETATM    7  C7  UNL     1     -22.416  -3.629  11.118  1.00 20.00     0.041 C 
HETATM    8  C8  UNL     1     -22.813  -4.705  10.093  1.00 20.00     0.030 C 
HETATM    9  C12 UNL     1     -23.921  -4.096   9.216  1.00 20.00     0.116 C 
HETATM   10 CL13 UNL     1     -23.242  -3.208   7.836  1.00 20.00    -0.120 Cl
ENDROOT
BRANCH   4  11
HETATM   11  C11 UNL     1     -27.514  -0.987  11.037  1.00 20.00     0.018 A 
HETATM   12  C9  UNL     1     -28.624  -1.480  11.929  1.00 20.00     0.010 A 
HETATM   13  C10 UNL     1     -28.683  -1.738  10.456  1.00 20.00     0.010 A 
ENDBRANCH   4  11
TORSDOF 1
ENDMDL
MODEL 8
REMARK VINA RESULT:      -3.7     11.228     13.544
REMARK  1 active torsions:
REMARK  status: ('A' for Active; 'I' for Inactive)
REMARK    1  A    between atoms: C4_4  and  C11_11 
ROOT
HETATM    1  C1  UNL     1     -36.891  16.145  -5.927  1.00 20.00     0.008 A 
HETATM    2  C2  UNL     1     -36.091  15.056  -5.574  1.00 20.00     0.008 A 
HETATM    3  C3  UNL     1     -35.346  17.688  -4.853  1.00 20.00     0.016 A 
HETATM    4  C4  UNL     1     -36.521  17.452  -5.569  1.00 20.00    -0.053 A 
HETATM    5  C5  UNL     1     -34.922  15.301  -4.874  1.00 20.00    -0.050 A 
HETATM    6  C6  UNL     1     -34.554  16.603  -4.511  1.00 20.00    -0.033 A 
HETATM    7  C7  UNL     1     -33.928  14.303  -4.365  1.00 20.00     0.041 C 
HETATM    8  C8  UNL     1     -32.717  15.211  -4.088  1.00 20.00     0.030 C 
HETATM    9  C12 UNL     1     -33.276  16.600  -3.730  1.00 20.00     0.116 C 
HETATM   10 CL13 UNL     1     -33.619  16.733  -1.992  1.00 20.00    -0.120 Cl
ENDROOT
BRANCH   4  11
HETATM   11  C11 UNL     1     -37.393  18.597  -5.956  1.00 20.00     0.018 A 
HETATM   12  C9  UNL     1     -38.522  18.998  -5.042  1.00 20.00     0.010 A 
HETATM   13  C10 UNL     1     -38.823  18.331  -6.348  1.00 20.00     0.010 A 
ENDBRANCH   4  11
TORSDOF 1
ENDMDL
MODEL 9
REMARK VINA RESULT:      -3.7     12.920     14.309
REMARK  1 active torsions:
REMARK  status: ('A' for Active; 'I' for Inactive)
REMARK    1  A    between atoms: C4_4  and  C11_11 
ROOT
HETATM    1  C1  UNL     1     -27.830  -0.979  11.826  1.00 20.00     0.008 A 
HETATM    2  C2  UNL     1     -26.508  -0.651  12.133  1.00 20.00     0.008 A 
HETATM    3  C3  UNL     1     -27.117  -3.040  10.746  1.00 20.00     0.016 A 
HETATM    4  C4  UNL     1     -28.133  -2.165  11.137  1.00 20.00    -0.053 A 
HETATM    5  C5  UNL     1     -25.509  -1.530  11.751  1.00 20.00    -0.050 A 
HETATM    6  C6  UNL     1     -25.808  -2.711  11.059  1.00 20.00    -0.033 A 
HETATM    7  C7  UNL     1     -24.031  -1.381  11.941  1.00 20.00     0.041 C 
HETATM    8  C8  UNL     1     -23.558  -2.826  11.706  1.00 20.00     0.030 C 
HETATM    9  C12 UNL     1     -24.558  -3.466  10.726  1.00 20.00     0.116 C 
HETATM   10 CL13 UNL     1     -24.093  -3.168   9.038  1.00 20.00    -0.120 Cl
ENDROOT
BRANCH   4  11
HETATM   11  C11 UNL     1     -29.552  -2.492  10.819  1.00 20.00     0.018 A 
HETATM   12  C9  UNL     1     -30.425  -3.086  11.895  1.00 20.00     0.010 A 
HETATM   13  C10 UNL     1     -29.974  -3.937  10.749  1.00 20.00     0.010 A 
ENDBRANCH   4  11
TORSDOF 1
ENDMDL
