MODEL 1
REMARK VINA RESULT:      -3.9      0.000      0.000
REMARK  4 active torsions:
REMARK  status: ('A' for Active; 'I' for Inactive)
REMARK    1  A    between atoms: C1_1  and  C9_9 
REMARK    2  A    between atoms: C2_2  and  C10_10 
REMARK    3  A    between atoms: C9_9  and  N11_11 
REMARK    4  A    between atoms: C10_10  and  S12_12 
ROOT
HETATM    1  C3  UNL     1     -35.234  15.558  -5.649  1.00 20.00     0.002 C 
HETATM    2  C4  UNL     1     -34.493  14.551  -4.780  1.00 20.00     0.002 C 
HETATM    3  C5  UNL     1     -35.514  16.903  -4.983  1.00 20.00     0.030 C 
HETATM    4  C6  UNL     1     -33.178  15.051  -4.185  1.00 20.00     0.030 C 
HETATM    5  C7  UNL     1     -34.249  17.736  -4.766  1.00 20.00     0.272 C 
HETATM    6  C8  UNL     1     -33.384  16.100  -3.089  1.00 20.00     0.272 C 
HETATM    7  N11 UNL     1     -33.492  17.490  -3.539  1.00 20.00     0.091 N 
ENDROOT
BRANCH   7   8
HETATM    8  C9  UNL     1     -33.947  18.344  -2.441  1.00 20.00     0.299 C 
BRANCH   8   9
HETATM    9  C1  UNL     1     -33.118  18.147  -1.208  1.00 20.00    -0.000 C 
HETATM   10  C2  UNL     1     -31.906  18.693  -1.029  1.00 20.00    -0.019 C 
BRANCH  10  11
HETATM   11  C10 UNL     1     -31.083  18.498   0.204  1.00 20.00     0.097 C 
BRANCH  11  12
HETATM   12  S12 UNL     1     -32.023  19.006   1.669  1.00 20.00    -0.178 SA
HETATM   13  H31 UNL     1     -32.511  20.137   1.142  1.00 20.00     0.101 HD
ENDBRANCH  11  12
ENDBRANCH  10  11
ENDBRANCH   8   9
ENDBRANCH   7   8
TORSDOF 4
ENDMDL
MODEL 2
REMARK VINA RESULT:      -3.8      1.529      2.658
REMARK  4 active torsions:
REMARK  status: ('A' for Active; 'I' for Inactive)
REMARK    1  A    between atoms: C1_1  and  C9_9 
REMARK    2  A    between atoms: C2_2  and  C10_10 
REMARK    3  A    between atoms: C9_9  and  N11_11 
REMARK    4  A    between atoms: C10_10  and  S12_12 
ROOT
HETATM    1  C3  UNL     1     -34.705  15.983  -7.643  1.00 20.00     0.002 C 
HETATM    2  C4  UNL     1     -34.568  17.489  -7.465  1.00 20.00     0.002 C 
HETATM    3  C5  UNL     1     -34.069  15.140  -6.540  1.00 20.00     0.030 C 
HETATM    4  C6  UNL     1     -35.067  18.031  -6.126  1.00 20.00     0.030 C 
HETATM    5  C7  UNL     1     -34.815  15.241  -5.208  1.00 20.00     0.272 C 
HETATM    6  C8  UNL     1     -34.166  17.638  -4.953  1.00 20.00     0.272 C 
HETATM    7  N11 UNL     1     -34.453  16.348  -4.323  1.00 20.00     0.091 N 
ENDROOT
BRANCH   7   8
HETATM    8  C9  UNL     1     -33.371  15.978  -3.409  1.00 20.00     0.299 C 
BRANCH   8   9
HETATM    9  C1  UNL     1     -33.061  17.083  -2.446  1.00 20.00    -0.000 C 
HETATM   10  C2  UNL     1     -33.681  17.242  -1.267  1.00 20.00    -0.019 C 
BRANCH  10  11
HETATM   11  C10 UNL     1     -33.367  18.344  -0.306  1.00 20.00     0.097 C 
BRANCH  11  12
HETATM   12  S12 UNL     1     -31.590  18.705  -0.331  1.00 20.00    -0.178 SA
HETATM   13  H31 UNL     1     -31.209  17.602   0.326  1.00 20.00     0.101 HD
ENDBRANCH  11  12
ENDBRANCH  10  11
ENDBRANCH   8   9
ENDBRANCH   7   8
TORSDOF 4
ENDMDL
MODEL 3
REMARK VINA RESULT:      -3.7      0.869      1.930
REMARK  4 active torsions:
REMARK  status: ('A' for Active; 'I' for Inactive)
REMARK    1  A    between atoms: C1_1  and  C9_9 
REMARK    2  A    between atoms: C2_2  and  C10_10 
REMARK    3  A    between atoms: C9_9  and  N11_11 
REMARK    4  A    between atoms: C10_10  and  S12_12 
ROOT
HETATM    1  C3  UNL     1     -33.820  14.784  -4.917  1.00 20.00     0.002 C 
HETATM    2  C4  UNL     1     -34.469  15.750  -5.898  1.00 20.00     0.002 C 
HETATM    3  C5  UNL     1     -32.884  15.430  -3.897  1.00 20.00     0.030 C 
HETATM    4  C6  UNL     1     -35.221  16.916  -5.259  1.00 20.00     0.030 C 
HETATM    5  C7  UNL     1     -33.625  16.280  -2.863  1.00 20.00     0.272 C 
HETATM    6  C8  UNL     1     -34.287  17.939  -4.608  1.00 20.00     0.272 C 
HETATM    7  N11 UNL     1     -33.904  17.671  -3.220  1.00 20.00     0.091 N 
ENDROOT
BRANCH   7   8
HETATM    8  C9  UNL     1     -32.817  18.562  -2.813  1.00 20.00     0.299 C 
BRANCH   8   9
HETATM    9  C1  UNL     1     -32.920  18.931  -1.364  1.00 20.00    -0.000 C 
HETATM   10  C2  UNL     1     -32.073  18.495  -0.420  1.00 20.00    -0.019 C 
BRANCH  10  11
HETATM   11  C10 UNL     1     -32.176  18.868   1.024  1.00 20.00     0.097 C 
BRANCH  11  12
HETATM   12  S12 UNL     1     -30.641  18.442   1.890  1.00 20.00    -0.178 SA
HETATM   13  H31 UNL     1     -29.870  19.344   1.268  1.00 20.00     0.101 HD
ENDBRANCH  11  12
ENDBRANCH  10  11
ENDBRANCH   8   9
ENDBRANCH   7   8
TORSDOF 4
ENDMDL
MODEL 4
REMARK VINA RESULT:      -3.5     24.329     25.427
REMARK  4 active torsions:
REMARK  status: ('A' for Active; 'I' for Inactive)
REMARK    1  A    between atoms: C1_1  and  C9_9 
REMARK    2  A    between atoms: C2_2  and  C10_10 
REMARK    3  A    between atoms: C9_9  and  N11_11 
REMARK    4  A    between atoms: C10_10  and  S12_12 
ROOT
HETATM    1  C3  UNL     1     -28.410  -1.757  10.296  1.00 20.00     0.002 C 
HETATM    2  C4  UNL     1     -27.681  -0.427  10.438  1.00 20.00     0.002 C 
HETATM    3  C5  UNL     1     -27.528  -2.996  10.433  1.00 20.00     0.030 C 
HETATM    4  C6  UNL     1     -26.864  -0.270  11.720  1.00 20.00     0.030 C 
HETATM    5  C7  UNL     1     -27.021  -3.211  11.861  1.00 20.00     0.272 C 
HETATM    6  C8  UNL     1     -25.614  -1.152  11.738  1.00 20.00     0.272 C 
HETATM    7  N11 UNL     1     -25.793  -2.515  12.243  1.00 20.00     0.091 N 
ENDROOT
BRANCH   7   8
HETATM    8  C9  UNL     1     -24.604  -3.321  11.961  1.00 20.00     0.299 C 
BRANCH   8   9
HETATM    9  C1  UNL     1     -23.927  -2.881  10.699  1.00 20.00    -0.000 C 
HETATM   10  C2  UNL     1     -23.987  -3.560   9.543  1.00 20.00    -0.019 C 
BRANCH  10  11
HETATM   11  C10 UNL     1     -23.313  -3.117   8.284  1.00 20.00     0.097 C 
BRANCH  11  12
HETATM   12  S12 UNL     1     -22.140  -4.382   7.726  1.00 20.00    -0.178 SA
HETATM   13  H31 UNL     1     -22.265  -4.127   6.417  1.00 20.00     0.101 HD
ENDBRANCH  11  12
ENDBRANCH  10  11
ENDBRANCH   8   9
ENDBRANCH   7   8
TORSDOF 4
ENDMDL
MODEL 5
REMARK VINA RESULT:      -3.4     13.283     14.460
REMARK  4 active torsions:
REMARK  status: ('A' for Active; 'I' for Inactive)
REMARK    1  A    between atoms: C1_1  and  C9_9 
REMARK    2  A    between atoms: C2_2  and  C10_10 
REMARK    3  A    between atoms: C9_9  and  N11_11 
REMARK    4  A    between atoms: C10_10  and  S12_12 
ROOT
HETATM    1  C3  UNL     1     -40.235  15.451   9.959  1.00 20.00     0.002 C 
HETATM    2  C4  UNL     1     -40.816  14.233  10.665  1.00 20.00     0.002 C 
HETATM    3  C5  UNL     1     -40.458  15.490   8.449  1.00 20.00     0.030 C 
HETATM    4  C6  UNL     1     -42.303  13.986  10.414  1.00 20.00     0.030 C 
HETATM    5  C7  UNL     1     -41.920  15.733   8.069  1.00 20.00     0.272 C 
HETATM    6  C8  UNL     1     -42.593  13.511   8.988  1.00 20.00     0.272 C 
HETATM    7  N11 UNL     1     -42.790  14.559   7.985  1.00 20.00     0.091 N 
ENDROOT
BRANCH   7   8
HETATM    8  C9  UNL     1     -42.791  13.982   6.641  1.00 20.00     0.299 C 
BRANCH   8   9
HETATM    9  C1  UNL     1     -41.854  12.816   6.540  1.00 20.00    -0.000 C 
HETATM   10  C2  UNL     1     -40.710  12.837   5.840  1.00 20.00    -0.019 C 
BRANCH  10  11
HETATM   11  C10 UNL     1     -39.775  11.674   5.744  1.00 20.00     0.097 C 
BRANCH  11  12
HETATM   12  S12 UNL     1     -38.975  11.649   4.117  1.00 20.00    -0.178 SA
HETATM   13  H31 UNL     1     -39.746  10.687   3.592  1.00 20.00     0.101 HD
ENDBRANCH  11  12
ENDBRANCH  10  11
ENDBRANCH   8   9
ENDBRANCH   7   8
TORSDOF 4
ENDMDL
MODEL 6
REMARK VINA RESULT:      -3.3      3.480      5.291
REMARK  4 active torsions:
REMARK  status: ('A' for Active; 'I' for Inactive)
REMARK    1  A    between atoms: C1_1  and  C9_9 
REMARK    2  A    between atoms: C2_2  and  C10_10 
REMARK    3  A    between atoms: C9_9  and  N11_11 
REMARK    4  A    between atoms: C10_10  and  S12_12 
ROOT
HETATM    1  C3  UNL     1     -33.310  15.036  -3.947  1.00 20.00     0.002 C 
HETATM    2  C4  UNL     1     -33.344  16.270  -3.057  1.00 20.00     0.002 C 
HETATM    3  C5  UNL     1     -34.532  14.851  -4.843  1.00 20.00     0.030 C 
HETATM    4  C6  UNL     1     -33.581  17.591  -3.788  1.00 20.00     0.030 C 
HETATM    5  C7  UNL     1     -34.612  15.889  -5.964  1.00 20.00     0.272 C 
HETATM    6  C8  UNL     1     -35.010  17.726  -4.320  1.00 20.00     0.272 C 
HETATM    7  N11 UNL     1     -35.260  17.162  -5.648  1.00 20.00     0.091 N 
ENDROOT
BRANCH   7   8
HETATM    8  C9  UNL     1     -36.697  17.119  -5.919  1.00 20.00     0.299 C 
BRANCH   8   9
HETATM    9  C1  UNL     1     -37.496  17.555  -4.728  1.00 20.00    -0.000 C 
HETATM   10  C2  UNL     1     -38.717  17.082  -4.435  1.00 20.00    -0.019 C 
BRANCH  10  11
HETATM   11  C10 UNL     1     -39.511  17.516  -3.244  1.00 20.00     0.097 C 
BRANCH  11  12
HETATM   12  S12 UNL     1     -40.240  16.075  -2.422  1.00 20.00    -0.178 SA
HETATM   13  H31 UNL     1     -39.780  15.165  -3.291  1.00 20.00     0.101 HD
ENDBRANCH  11  12
ENDBRANCH  10  11
ENDBRANCH   8   9
ENDBRANCH   7   8
TORSDOF 4
ENDMDL
MODEL 7
REMARK VINA RESULT:      -3.3      1.730      2.776
REMARK  4 active torsions:
REMARK  status: ('A' for Active; 'I' for Inactive)
REMARK    1  A    between atoms: C1_1  and  C9_9 
REMARK    2  A    between atoms: C2_2  and  C10_10 
REMARK    3  A    between atoms: C9_9  and  N11_11 
REMARK    4  A    between atoms: C10_10  and  S12_12 
ROOT
HETATM    1  C3  UNL     1     -36.469  17.141  -6.221  1.00 20.00     0.002 C 
HETATM    2  C4  UNL     1     -37.170  15.962  -5.559  1.00 20.00     0.002 C 
HETATM    3  C5  UNL     1     -35.044  17.400  -5.739  1.00 20.00     0.030 C 
HETATM    4  C6  UNL     1     -36.413  14.636  -5.630  1.00 20.00     0.030 C 
HETATM    5  C7  UNL     1     -34.058  16.319  -6.188  1.00 20.00     0.272 C 
HETATM    6  C8  UNL     1     -35.168  14.615  -4.740  1.00 20.00     0.272 C 
HETATM    7  N11 UNL     1     -33.937  15.133  -5.340  1.00 20.00     0.091 N 
ENDROOT
BRANCH   7   8
HETATM    8  C9  UNL     1     -32.906  15.303  -4.315  1.00 20.00     0.299 C 
BRANCH   8   9
HETATM    9  C1  UNL     1     -33.480  15.836  -3.038  1.00 20.00    -0.000 C 
HETATM   10  C2  UNL     1     -33.127  17.011  -2.493  1.00 20.00    -0.019 C 
BRANCH  10  11
HETATM   11  C10 UNL     1     -33.704  17.542  -1.220  1.00 20.00     0.097 C 
BRANCH  11  12
HETATM   12  S12 UNL     1     -32.466  18.530  -0.338  1.00 20.00    -0.178 SA
HETATM   13  H31 UNL     1     -32.288  19.437  -1.308  1.00 20.00     0.101 HD
ENDBRANCH  11  12
ENDBRANCH  10  11
ENDBRANCH   8   9
ENDBRANCH   7   8
TORSDOF 4
ENDMDL
MODEL 8
REMARK VINA RESULT:      -3.2      3.343      5.610
REMARK  4 active torsions:
REMARK  status: ('A' for Active; 'I' for Inactive)
REMARK    1  A    between atoms: C1_1  and  C9_9 
REMARK    2  A    between atoms: C2_2  and  C10_10 
REMARK    3  A    between atoms: C9_9  and  N11_11 
REMARK    4  A    between atoms: C10_10  and  S12_12 
ROOT
HETATM    1  C3  UNL     1     -32.983  17.265  -1.538  1.00 20.00     0.002 C 
HETATM    2  C4  UNL     1     -33.894  18.056  -0.610  1.00 20.00     0.002 C 
HETATM    3  C5  UNL     1     -33.635  16.789  -2.834  1.00 20.00     0.030 C 
HETATM    4  C6  UNL     1     -34.580  19.262  -1.248  1.00 20.00     0.030 C 
HETATM    5  C7  UNL     1     -33.942  17.934  -3.802  1.00 20.00     0.272 C 
HETATM    6  C8  UNL     1     -35.664  18.865  -2.253  1.00 20.00     0.272 C 
HETATM    7  N11 UNL     1     -35.216  18.630  -3.627  1.00 20.00     0.091 N 
ENDROOT
BRANCH   7   8
HETATM    8  C9  UNL     1     -36.284  18.008  -4.410  1.00 20.00     0.299 C 
BRANCH   8   9
HETATM    9  C1  UNL     1     -35.735  17.102  -5.471  1.00 20.00    -0.000 C 
HETATM   10  C2  UNL     1     -36.187  15.860  -5.699  1.00 20.00    -0.019 C 
BRANCH  10  11
HETATM   11  C10 UNL     1     -35.640  14.959  -6.760  1.00 20.00     0.097 C 
BRANCH  11  12
HETATM   12  S12 UNL     1     -34.271  15.775  -7.625  1.00 20.00    -0.178 SA
HETATM   13  H31 UNL     1     -33.434  14.730  -7.588  1.00 20.00     0.101 HD
ENDBRANCH  11  12
ENDBRANCH  10  11
ENDBRANCH   8   9
ENDBRANCH   7   8
TORSDOF 4
ENDMDL
MODEL 9
REMARK VINA RESULT:      -3.1     12.204     13.154
REMARK  4 active torsions:
REMARK  status: ('A' for Active; 'I' for Inactive)
REMARK    1  A    between atoms: C1_1  and  C9_9 
REMARK    2  A    between atoms: C2_2  and  C10_10 
REMARK    3  A    between atoms: C9_9  and  N11_11 
REMARK    4  A    between atoms: C10_10  and  S12_12 
ROOT
HETATM    1  C3  UNL     1     -41.899  18.603   6.391  1.00 20.00     0.002 C 
HETATM    2  C4  UNL     1     -40.633  18.219   7.144  1.00 20.00     0.002 C 
HETATM    3  C5  UNL     1     -42.591  17.454   5.662  1.00 20.00     0.030 C 
HETATM    4  C6  UNL     1     -40.794  17.074   8.143  1.00 20.00     0.030 C 
HETATM    5  C7  UNL     1     -43.238  16.448   6.617  1.00 20.00     0.272 C 
HETATM    6  C8  UNL     1     -41.005  15.719   7.462  1.00 20.00     0.272 C 
HETATM    7  N11 UNL     1     -42.388  15.373   7.128  1.00 20.00     0.091 N 
ENDROOT
BRANCH   7   8
HETATM    8  C9  UNL     1     -42.420  14.197   6.257  1.00 20.00     0.299 C 
BRANCH   8   9
HETATM    9  C1  UNL     1     -41.053  13.614   6.066  1.00 20.00    -0.000 C 
HETATM   10  C2  UNL     1     -40.794  12.298   6.080  1.00 20.00    -0.019 C 
BRANCH  10  11
HETATM   11  C10 UNL     1     -39.429  11.719   5.885  1.00 20.00     0.097 C 
BRANCH  11  12
HETATM   12  S12 UNL     1     -39.006  11.697   4.122  1.00 20.00    -0.178 SA
HETATM   13  H31 UNL     1     -39.705  10.595   3.820  1.00 20.00     0.101 HD
ENDBRANCH  11  12
ENDBRANCH  10  11
ENDBRANCH   8   9
ENDBRANCH   7   8
TORSDOF 4
ENDMDL
