MODEL 1
REMARK VINA RESULT:      -3.8      0.000      0.000
REMARK  6 active torsions:
REMARK  status: ('A' for Active; 'I' for Inactive)
REMARK    1  A    between atoms: C4_4  and  C7_7 
REMARK    2  A    between atoms: C5_5  and  C9_9 
REMARK    3  A    between atoms: C6_6  and  C9_9 
REMARK    4  A    between atoms: C7_7  and  C10_10 
REMARK    5  A    between atoms: C8_8  and  C10_10 
REMARK    6  A    between atoms: C9_9  and  C10_10 
ROOT
HETATM    1  C10 UNL     1     -32.981  18.252  -2.172  1.00 20.00     0.003 C 
ENDROOT
BRANCH   1   2
HETATM    2  C7  UNL     1     -33.398  16.756  -2.269  1.00 20.00     0.005 C 
BRANCH   2   3
HETATM    3  C4  UNL     1     -33.102  16.092  -3.618  1.00 20.00    -0.004 C 
HETATM    4  C1  UNL     1     -33.965  14.856  -3.827  1.00 20.00     0.005 C 
ENDBRANCH   2   3
ENDBRANCH   1   2
BRANCH   1   5
HETATM    5  C8  UNL     1     -33.984  19.187  -2.883  1.00 20.00     0.119 C 
HETATM    6 CL11 UNL     1     -35.677  18.666  -2.706  1.00 20.00    -0.130 Cl
ENDBRANCH   1   5
BRANCH   1   7
HETATM    7  C9  UNL     1     -32.698  18.681  -0.680  1.00 20.00    -0.010 C 
BRANCH   7   8
HETATM    8  C5  UNL     1     -33.682  18.046   0.336  1.00 20.00     0.000 C 
HETATM    9  C2  UNL     1     -34.655  19.022   0.985  1.00 20.00     0.005 C 
ENDBRANCH   7   8
BRANCH   7  10
HETATM   10  C6  UNL     1     -31.218  18.430  -0.286  1.00 20.00     0.000 C 
HETATM   11  C3  UNL     1     -30.946  18.419   1.213  1.00 20.00     0.005 C 
ENDBRANCH   7  10
ENDBRANCH   1   7
TORSDOF 6
ENDMDL
MODEL 2
REMARK VINA RESULT:      -3.5     11.498     12.572
REMARK  6 active torsions:
REMARK  status: ('A' for Active; 'I' for Inactive)
REMARK    1  A    between atoms: C4_4  and  C7_7 
REMARK    2  A    between atoms: C5_5  and  C9_9 
REMARK    3  A    between atoms: C6_6  and  C9_9 
REMARK    4  A    between atoms: C7_7  and  C10_10 
REMARK    5  A    between atoms: C8_8  and  C10_10 
REMARK    6  A    between atoms: C9_9  and  C10_10 
ROOT
HETATM    1  C10 UNL     1     -32.907   6.493   3.837  1.00 20.00     0.003 C 
ENDROOT
BRANCH   1   2
HETATM    2  C7  UNL     1     -34.215   6.948   4.547  1.00 20.00     0.005 C 
BRANCH   2   3
HETATM    3  C4  UNL     1     -34.205   6.799   6.071  1.00 20.00    -0.004 C 
HETATM    4  C1  UNL     1     -34.615   5.395   6.493  1.00 20.00     0.005 C 
ENDBRANCH   2   3
ENDBRANCH   1   2
BRANCH   1   5
HETATM    5  C8  UNL     1     -33.149   5.321   2.860  1.00 20.00     0.119 C 
HETATM    6 CL11 UNL     1     -33.703   3.835   3.669  1.00 20.00    -0.130 Cl
ENDBRANCH   1   5
BRANCH   1   7
HETATM    7  C9  UNL     1     -32.162   7.708   3.159  1.00 20.00    -0.010 C 
BRANCH   7   8
HETATM    8  C5  UNL     1     -32.243   7.691   1.612  1.00 20.00     0.000 C 
HETATM    9  C2  UNL     1     -32.576   9.031   0.970  1.00 20.00     0.005 C 
ENDBRANCH   7   8
BRANCH   7  10
HETATM   10  C6  UNL     1     -32.632   9.064   3.748  1.00 20.00     0.000 C 
HETATM   11  C3  UNL     1     -31.965   9.461   5.059  1.00 20.00     0.005 C 
ENDBRANCH   7  10
ENDBRANCH   1   7
TORSDOF 6
ENDMDL
MODEL 3
REMARK VINA RESULT:      -3.5     11.154     12.289
REMARK  6 active torsions:
REMARK  status: ('A' for Active; 'I' for Inactive)
REMARK    1  A    between atoms: C4_4  and  C7_7 
REMARK    2  A    between atoms: C5_5  and  C9_9 
REMARK    3  A    between atoms: C6_6  and  C9_9 
REMARK    4  A    between atoms: C7_7  and  C10_10 
REMARK    5  A    between atoms: C8_8  and  C10_10 
REMARK    6  A    between atoms: C9_9  and  C10_10 
ROOT
HETATM    1  C10 UNL     1     -32.757   7.561   3.938  1.00 20.00     0.003 C 
ENDROOT
BRANCH   1   2
HETATM    2  C7  UNL     1     -33.016   8.577   2.788  1.00 20.00     0.005 C 
BRANCH   2   3
HETATM    3  C4  UNL     1     -32.210   8.321   1.510  1.00 20.00    -0.004 C 
HETATM    4  C1  UNL     1     -32.678   9.217   0.372  1.00 20.00     0.005 C 
ENDBRANCH   2   3
ENDBRANCH   1   2
BRANCH   1   5
HETATM    5  C8  UNL     1     -32.192   8.241   5.204  1.00 20.00     0.119 C 
HETATM    6 CL11 UNL     1     -31.885   9.982   4.990  1.00 20.00    -0.130 Cl
ENDBRANCH   1   5
BRANCH   1   7
HETATM    7  C9  UNL     1     -34.034   6.683   4.235  1.00 20.00    -0.010 C 
BRANCH   7   8
HETATM    8  C5  UNL     1     -33.905   5.224   3.730  1.00 20.00     0.000 C 
HETATM    9  C2  UNL     1     -32.871   5.012   2.632  1.00 20.00     0.005 C 
ENDBRANCH   7   8
BRANCH   7  10
HETATM   10  C6  UNL     1     -34.430   6.744   5.734  1.00 20.00     0.000 C 
HETATM   11  C3  UNL     1     -34.536   5.390   6.425  1.00 20.00     0.005 C 
ENDBRANCH   7  10
ENDBRANCH   1   7
TORSDOF 6
ENDMDL
MODEL 4
REMARK VINA RESULT:      -3.5     10.857     12.037
REMARK  6 active torsions:
REMARK  status: ('A' for Active; 'I' for Inactive)
REMARK    1  A    between atoms: C4_4  and  C7_7 
REMARK    2  A    between atoms: C5_5  and  C9_9 
REMARK    3  A    between atoms: C6_6  and  C9_9 
REMARK    4  A    between atoms: C7_7  and  C10_10 
REMARK    5  A    between atoms: C8_8  and  C10_10 
REMARK    6  A    between atoms: C9_9  and  C10_10 
ROOT
HETATM    1  C10 UNL     1     -40.678  13.744   6.217  1.00 20.00     0.003 C 
ENDROOT
BRANCH   1   2
HETATM    2  C7  UNL     1     -39.887  12.437   6.519  1.00 20.00     0.005 C 
BRANCH   2   3
HETATM    3  C4  UNL     1     -38.721  12.157   5.567  1.00 20.00    -0.004 C 
HETATM    4  C1  UNL     1     -39.216  11.684   4.208  1.00 20.00     0.005 C 
ENDBRANCH   2   3
ENDBRANCH   1   2
BRANCH   1   5
HETATM    5  C8  UNL     1     -42.191  13.486   6.045  1.00 20.00     0.119 C 
HETATM    6 CL11 UNL     1     -42.781  12.102   6.996  1.00 20.00    -0.130 Cl
ENDBRANCH   1   5
BRANCH   1   7
HETATM    7  C9  UNL     1     -40.366  14.869   7.278  1.00 20.00    -0.010 C 
BRANCH   7   8
HETATM    8  C5  UNL     1     -41.350  16.065   7.209  1.00 20.00     0.000 C 
HETATM    9  C2  UNL     1     -40.716  17.432   7.431  1.00 20.00     0.005 C 
ENDBRANCH   7   8
BRANCH   7  10
HETATM   10  C6  UNL     1     -40.265  14.285   8.713  1.00 20.00     0.000 C 
HETATM   11  C3  UNL     1     -41.528  14.427   9.554  1.00 20.00     0.005 C 
ENDBRANCH   7  10
ENDBRANCH   1   7
TORSDOF 6
ENDMDL
MODEL 5
REMARK VINA RESULT:      -3.4     10.970     12.335
REMARK  6 active torsions:
REMARK  status: ('A' for Active; 'I' for Inactive)
REMARK    1  A    between atoms: C4_4  and  C7_7 
REMARK    2  A    between atoms: C5_5  and  C9_9 
REMARK    3  A    between atoms: C6_6  and  C9_9 
REMARK    4  A    between atoms: C7_7  and  C10_10 
REMARK    5  A    between atoms: C8_8  and  C10_10 
REMARK    6  A    between atoms: C9_9  and  C10_10 
ROOT
HETATM    1  C10 UNL     1     -41.495  13.496   6.282  1.00 20.00     0.003 C 
ENDROOT
BRANCH   1   2
HETATM    2  C7  UNL     1     -40.004  13.060   6.196  1.00 20.00     0.005 C 
BRANCH   2   3
HETATM    3  C4  UNL     1     -39.776  11.651   5.640  1.00 20.00    -0.004 C 
HETATM    4  C1  UNL     1     -39.118  11.696   4.268  1.00 20.00     0.005 C 
ENDBRANCH   2   3
ENDBRANCH   1   2
BRANCH   1   5
HETATM    5  C8  UNL     1     -42.394  12.393   6.885  1.00 20.00     0.119 C 
HETATM    6 CL11 UNL     1     -43.175  12.879   8.409  1.00 20.00    -0.130 Cl
ENDBRANCH   1   5
BRANCH   1   7
HETATM    7  C9  UNL     1     -41.654  14.883   7.017  1.00 20.00    -0.010 C 
BRANCH   7   8
HETATM    8  C5  UNL     1     -40.337  15.389   7.660  1.00 20.00     0.000 C 
HETATM    9  C2  UNL     1     -40.260  15.234   9.173  1.00 20.00     0.005 C 
ENDBRANCH   7   8
BRANCH   7  10
HETATM   10  C6  UNL     1     -42.290  15.950   6.087  1.00 20.00     0.000 C 
HETATM   11  C3  UNL     1     -42.713  15.436   4.716  1.00 20.00     0.005 C 
ENDBRANCH   7  10
ENDBRANCH   1   7
TORSDOF 6
ENDMDL
MODEL 6
REMARK VINA RESULT:      -3.4     11.033     12.487
REMARK  6 active torsions:
REMARK  status: ('A' for Active; 'I' for Inactive)
REMARK    1  A    between atoms: C4_4  and  C7_7 
REMARK    2  A    between atoms: C5_5  and  C9_9 
REMARK    3  A    between atoms: C6_6  and  C9_9 
REMARK    4  A    between atoms: C7_7  and  C10_10 
REMARK    5  A    between atoms: C8_8  and  C10_10 
REMARK    6  A    between atoms: C9_9  and  C10_10 
ROOT
HETATM    1  C10 UNL     1     -41.459  13.576   6.518  1.00 20.00     0.003 C 
ENDROOT
BRANCH   1   2
HETATM    2  C7  UNL     1     -39.992  13.143   6.230  1.00 20.00     0.005 C 
BRANCH   2   3
HETATM    3  C4  UNL     1     -39.834  11.711   5.710  1.00 20.00    -0.004 C 
HETATM    4  C1  UNL     1     -39.158  11.689   4.347  1.00 20.00     0.005 C 
ENDBRANCH   2   3
ENDBRANCH   1   2
BRANCH   1   5
HETATM    5  C8  UNL     1     -42.381  12.369   6.803  1.00 20.00     0.119 C 
HETATM    6 CL11 UNL     1     -43.348  12.558   8.285  1.00 20.00    -0.130 Cl
ENDBRANCH   1   5
BRANCH   1   7
HETATM    7  C9  UNL     1     -41.529  14.677   7.645  1.00 20.00    -0.010 C 
BRANCH   7   8
HETATM    8  C5  UNL     1     -40.319  14.641   8.613  1.00 20.00     0.000 C 
HETATM    9  C2  UNL     1     -40.668  14.365  10.069  1.00 20.00     0.005 C 
ENDBRANCH   7   8
BRANCH   7  10
HETATM   10  C6  UNL     1     -41.748  16.092   7.045  1.00 20.00     0.000 C 
HETATM   11  C3  UNL     1     -40.718  17.133   7.464  1.00 20.00     0.005 C 
ENDBRANCH   7  10
ENDBRANCH   1   7
TORSDOF 6
ENDMDL
MODEL 7
REMARK VINA RESULT:      -3.4     10.419     12.166
REMARK  6 active torsions:
REMARK  status: ('A' for Active; 'I' for Inactive)
REMARK    1  A    between atoms: C4_4  and  C7_7 
REMARK    2  A    between atoms: C5_5  and  C9_9 
REMARK    3  A    between atoms: C6_6  and  C9_9 
REMARK    4  A    between atoms: C7_7  and  C10_10 
REMARK    5  A    between atoms: C8_8  and  C10_10 
REMARK    6  A    between atoms: C9_9  and  C10_10 
ROOT
HETATM    1  C10 UNL     1     -41.059  13.680   6.256  1.00 20.00     0.003 C 
ENDROOT
BRANCH   1   2
HETATM    2  C7  UNL     1     -40.553  12.228   6.014  1.00 20.00     0.005 C 
BRANCH   2   3
HETATM    3  C4  UNL     1     -39.100  12.123   5.540  1.00 20.00    -0.004 C 
HETATM    4  C1  UNL     1     -39.023  11.680   4.087  1.00 20.00     0.005 C 
ENDBRANCH   2   3
ENDBRANCH   1   2
BRANCH   1   5
HETATM    5  C8  UNL     1     -42.356  13.986   5.474  1.00 20.00     0.119 C 
HETATM    6 CL11 UNL     1     -42.061  14.510   3.799  1.00 20.00    -0.130 Cl
ENDBRANCH   1   5
BRANCH   1   7
HETATM    7  C9  UNL     1     -41.183  14.003   7.795  1.00 20.00    -0.010 C 
BRANCH   7   8
HETATM    8  C5  UNL     1     -40.291  15.188   8.246  1.00 20.00     0.000 C 
HETATM    9  C2  UNL     1     -40.668  16.539   7.653  1.00 20.00     0.005 C 
ENDBRANCH   7   8
BRANCH   7  10
HETATM   10  C6  UNL     1     -42.663  14.201   8.217  1.00 20.00     0.000 C 
HETATM   11  C3  UNL     1     -43.175  13.202   9.247  1.00 20.00     0.005 C 
ENDBRANCH   7  10
ENDBRANCH   1   7
TORSDOF 6
ENDMDL
MODEL 8
REMARK VINA RESULT:      -3.4     10.799     12.480
REMARK  6 active torsions:
REMARK  status: ('A' for Active; 'I' for Inactive)
REMARK    1  A    between atoms: C4_4  and  C7_7 
REMARK    2  A    between atoms: C5_5  and  C9_9 
REMARK    3  A    between atoms: C6_6  and  C9_9 
REMARK    4  A    between atoms: C7_7  and  C10_10 
REMARK    5  A    between atoms: C8_8  and  C10_10 
REMARK    6  A    between atoms: C9_9  and  C10_10 
ROOT
HETATM    1  C10 UNL     1     -40.909  13.540   7.049  1.00 20.00     0.003 C 
ENDROOT
BRANCH   1   2
HETATM    2  C7  UNL     1     -39.669  12.729   6.573  1.00 20.00     0.005 C 
BRANCH   2   3
HETATM    3  C4  UNL     1     -39.977  11.610   5.573  1.00 20.00    -0.004 C 
HETATM    4  C1  UNL     1     -39.158  11.765   4.300  1.00 20.00     0.005 C 
ENDBRANCH   2   3
ENDBRANCH   1   2
BRANCH   1   5
HETATM    5  C8  UNL     1     -40.581  15.033   7.275  1.00 20.00     0.119 C 
HETATM    6 CL11 UNL     1     -41.285  15.687   8.773  1.00 20.00    -0.130 Cl
ENDBRANCH   1   5
BRANCH   1   7
HETATM    7  C9  UNL     1     -42.146  13.324   6.093  1.00 20.00    -0.010 C 
BRANCH   7   8
HETATM    8  C5  UNL     1     -43.378  12.720   6.812  1.00 20.00     0.000 C 
HETATM    9  C2  UNL     1     -43.240  12.587   8.323  1.00 20.00     0.005 C 
ENDBRANCH   7   8
BRANCH   7  10
HETATM   10  C6  UNL     1     -42.504  14.624   5.325  1.00 20.00     0.000 C 
HETATM   11  C3  UNL     1     -42.212  14.588   3.830  1.00 20.00     0.005 C 
ENDBRANCH   7  10
ENDBRANCH   1   7
TORSDOF 6
ENDMDL
MODEL 9
REMARK VINA RESULT:      -3.3     11.022     12.888
REMARK  6 active torsions:
REMARK  status: ('A' for Active; 'I' for Inactive)
REMARK    1  A    between atoms: C4_4  and  C7_7 
REMARK    2  A    between atoms: C5_5  and  C9_9 
REMARK    3  A    between atoms: C6_6  and  C9_9 
REMARK    4  A    between atoms: C7_7  and  C10_10 
REMARK    5  A    between atoms: C8_8  and  C10_10 
REMARK    6  A    between atoms: C9_9  and  C10_10 
ROOT
HETATM    1  C10 UNL     1     -41.749  14.554   6.714  1.00 20.00     0.003 C 
ENDROOT
BRANCH   1   2
HETATM    2  C7  UNL     1     -40.376  15.038   7.266  1.00 20.00     0.005 C 
BRANCH   2   3
HETATM    3  C4  UNL     1     -40.417  15.593   8.693  1.00 20.00    -0.004 C 
HETATM    4  C1  UNL     1     -40.423  14.472   9.723  1.00 20.00     0.005 C 
ENDBRANCH   2   3
ENDBRANCH   1   2
BRANCH   1   5
HETATM    5  C8  UNL     1     -42.313  15.504   5.634  1.00 20.00     0.119 C 
HETATM    6 CL11 UNL     1     -42.584  14.705   4.066  1.00 20.00    -0.130 Cl
ENDBRANCH   1   5
BRANCH   1   7
HETATM    7  C9  UNL     1     -41.685  13.053   6.233  1.00 20.00    -0.010 C 
BRANCH   7   8
HETATM    8  C5  UNL     1     -40.255  12.455   6.280  1.00 20.00     0.000 C 
HETATM    9  C2  UNL     1     -39.707  11.992   4.937  1.00 20.00     0.005 C 
ENDBRANCH   7   8
BRANCH   7  10
HETATM   10  C6  UNL     1     -42.707  12.168   6.994  1.00 20.00     0.000 C 
HETATM   11  C3  UNL     1     -43.417  12.859   8.152  1.00 20.00     0.005 C 
ENDBRANCH   7  10
ENDBRANCH   1   7
TORSDOF 6
ENDMDL
