MODEL 1
REMARK VINA RESULT:      -3.8      0.000      0.000
REMARK  3 active torsions:
REMARK  status: ('A' for Active; 'I' for Inactive)
REMARK    1  A    between atoms: C4_4  and  C10_10 
REMARK    2  A    between atoms: C8_8  and  C10_10 
REMARK    3  A    between atoms: C9_9  and  C10_10 
ROOT
HETATM    1  C1  UNL     1     -33.259  15.570  -3.688  1.00 20.00     0.006 C 
HETATM    2  C2  UNL     1     -34.171  14.498  -4.288  1.00 20.00     0.020 C 
HETATM    3  C3  UNL     1     -35.078  16.590  -4.955  1.00 20.00     0.025 C 
HETATM    4  C4  UNL     1     -33.781  16.919  -4.207  1.00 20.00    -0.009 C 
HETATM    5  C5  UNL     1     -34.870  15.169  -5.463  1.00 20.00     0.082 C 
HETATM    6 CL11 UNL     1     -33.831  15.150  -6.915  1.00 20.00    -0.125 Cl
ENDROOT
BRANCH   4   7
HETATM    7  C10 UNL     1     -33.986  17.944  -3.102  1.00 20.00    -0.011 C 
BRANCH   7   8
HETATM    8  C8  UNL     1     -33.588  17.378  -1.722  1.00 20.00     0.000 C 
HETATM    9  C6  UNL     1     -32.384  18.069  -1.096  1.00 20.00     0.005 C 
ENDBRANCH   7   8
BRANCH   7  10
HETATM   10  C9  UNL     1     -35.449  18.429  -3.043  1.00 20.00     0.000 C 
HETATM   11  C7  UNL     1     -35.775  19.258  -1.808  1.00 20.00     0.005 C 
ENDBRANCH   7  10
ENDBRANCH   4   7
TORSDOF 3
ENDMDL
MODEL 2
REMARK VINA RESULT:      -3.6      1.727      2.769
REMARK  3 active torsions:
REMARK  status: ('A' for Active; 'I' for Inactive)
REMARK    1  A    between atoms: C4_4  and  C10_10 
REMARK    2  A    between atoms: C8_8  and  C10_10 
REMARK    3  A    between atoms: C9_9  and  C10_10 
ROOT
HETATM    1  C1  UNL     1     -34.843  17.948  -3.156  1.00 20.00     0.006 C 
HETATM    2  C2  UNL     1     -34.249  17.413  -4.460  1.00 20.00     0.020 C 
HETATM    3  C3  UNL     1     -32.774  16.724  -2.729  1.00 20.00     0.025 C 
HETATM    4  C4  UNL     1     -33.950  17.412  -2.025  1.00 20.00    -0.009 C 
HETATM    5  C5  UNL     1     -33.356  16.248  -4.055  1.00 20.00     0.082 C 
HETATM    6 CL11 UNL     1     -34.315  14.758  -3.838  1.00 20.00    -0.125 Cl
ENDROOT
BRANCH   4   7
HETATM    7  C10 UNL     1     -33.500  18.495  -1.057  1.00 20.00    -0.011 C 
BRANCH   7   8
HETATM    8  C8  UNL     1     -31.990  18.785  -1.192  1.00 20.00     0.000 C 
HETATM    9  C6  UNL     1     -31.203  18.565   0.093  1.00 20.00     0.005 C 
ENDBRANCH   7   8
BRANCH   7  10
HETATM   10  C9  UNL     1     -33.810  18.113   0.406  1.00 20.00     0.000 C 
HETATM   11  C7  UNL     1     -34.787  19.055   1.095  1.00 20.00     0.005 C 
ENDBRANCH   7  10
ENDBRANCH   4   7
TORSDOF 3
ENDMDL
MODEL 3
REMARK VINA RESULT:      -3.6      2.281      4.576
REMARK  3 active torsions:
REMARK  status: ('A' for Active; 'I' for Inactive)
REMARK    1  A    between atoms: C4_4  and  C10_10 
REMARK    2  A    between atoms: C8_8  and  C10_10 
REMARK    3  A    between atoms: C9_9  and  C10_10 
ROOT
HETATM    1  C1  UNL     1     -34.481  18.299  -3.541  1.00 20.00     0.006 C 
HETATM    2  C2  UNL     1     -34.716  18.408  -2.033  1.00 20.00     0.020 C 
HETATM    3  C3  UNL     1     -33.444  16.429  -2.363  1.00 20.00     0.025 C 
HETATM    4  C4  UNL     1     -33.568  17.079  -3.746  1.00 20.00    -0.009 C 
HETATM    5  C5  UNL     1     -33.609  17.587  -1.386  1.00 20.00     0.082 C 
HETATM    6 CL11 UNL     1     -32.104  18.539  -1.257  1.00 20.00    -0.125 Cl
ENDROOT
BRANCH   4   7
HETATM    7  C10 UNL     1     -34.087  16.116  -4.801  1.00 20.00    -0.011 C 
BRANCH   7   8
HETATM    8  C8  UNL     1     -35.507  16.500  -5.271  1.00 20.00     0.000 C 
HETATM    9  C6  UNL     1     -35.580  16.915  -6.734  1.00 20.00     0.005 C 
ENDBRANCH   7   8
BRANCH   7  10
HETATM   10  C9  UNL     1     -34.106  14.662  -4.282  1.00 20.00     0.000 C 
HETATM   11  C7  UNL     1     -35.402  13.919  -4.578  1.00 20.00     0.005 C 
ENDBRANCH   7  10
ENDBRANCH   4   7
TORSDOF 3
ENDMDL
MODEL 4
REMARK VINA RESULT:      -3.5     12.457     13.925
REMARK  3 active torsions:
REMARK  status: ('A' for Active; 'I' for Inactive)
REMARK    1  A    between atoms: C4_4  and  C10_10 
REMARK    2  A    between atoms: C8_8  and  C10_10 
REMARK    3  A    between atoms: C9_9  and  C10_10 
ROOT
HETATM    1  C1  UNL     1     -40.349  15.570   7.655  1.00 20.00     0.006 C 
HETATM    2  C2  UNL     1     -41.466  16.080   8.567  1.00 20.00     0.020 C 
HETATM    3  C3  UNL     1     -41.836  13.747   8.306  1.00 20.00     0.025 C 
HETATM    4  C4  UNL     1     -40.524  14.045   7.571  1.00 20.00    -0.009 C 
HETATM    5  C5  UNL     1     -41.950  14.860   9.341  1.00 20.00     0.082 C 
HETATM    6 CL11 UNL     1     -40.896  14.540  10.746  1.00 20.00    -0.125 Cl
ENDROOT
BRANCH   4   7
HETATM    7  C10 UNL     1     -40.520  13.521   6.143  1.00 20.00    -0.011 C 
BRANCH   7   8
HETATM    8  C8  UNL     1     -41.947  13.460   5.557  1.00 20.00     0.000 C 
HETATM    9  C6  UNL     1     -42.216  14.502   4.480  1.00 20.00     0.005 C 
ENDBRANCH   7   8
BRANCH   7  10
HETATM   10  C9  UNL     1     -39.880  12.120   6.055  1.00 20.00     0.000 C 
HETATM   11  C7  UNL     1     -39.352  11.770   4.671  1.00 20.00     0.005 C 
ENDBRANCH   7  10
ENDBRANCH   4   7
TORSDOF 3
ENDMDL
MODEL 5
REMARK VINA RESULT:      -3.5      2.830      4.658
REMARK  3 active torsions:
REMARK  status: ('A' for Active; 'I' for Inactive)
REMARK    1  A    between atoms: C4_4  and  C10_10 
REMARK    2  A    between atoms: C8_8  and  C10_10 
REMARK    3  A    between atoms: C9_9  and  C10_10 
ROOT
HETATM    1  C1  UNL     1     -32.403  17.794  -1.594  1.00 20.00     0.006 C 
HETATM    2  C2  UNL     1     -32.512  19.150  -0.894  1.00 20.00     0.020 C 
HETATM    3  C3  UNL     1     -34.714  18.580  -1.580  1.00 20.00     0.025 C 
HETATM    4  C4  UNL     1     -33.840  17.374  -1.943  1.00 20.00    -0.009 C 
HETATM    5  C5  UNL     1     -33.963  19.261  -0.443  1.00 20.00     0.082 C 
HETATM    6 CL11 UNL     1     -34.216  18.402   1.101  1.00 20.00    -0.125 Cl
ENDROOT
BRANCH   4   7
HETATM    7  C10 UNL     1     -34.001  16.949  -3.394  1.00 20.00    -0.011 C 
BRANCH   7   8
HETATM    8  C8  UNL     1     -33.104  15.739  -3.735  1.00 20.00     0.000 C 
HETATM    9  C6  UNL     1     -33.871  14.529  -4.249  1.00 20.00     0.005 C 
ENDBRANCH   7   8
BRANCH   7  10
HETATM   10  C9  UNL     1     -33.674  18.105  -4.363  1.00 20.00     0.000 C 
HETATM   11  C7  UNL     1     -34.624  18.203  -5.549  1.00 20.00     0.005 C 
ENDBRANCH   7  10
ENDBRANCH   4   7
TORSDOF 3
ENDMDL
MODEL 6
REMARK VINA RESULT:      -3.5      2.830      4.856
REMARK  3 active torsions:
REMARK  status: ('A' for Active; 'I' for Inactive)
REMARK    1  A    between atoms: C4_4  and  C10_10 
REMARK    2  A    between atoms: C8_8  and  C10_10 
REMARK    3  A    between atoms: C9_9  and  C10_10 
ROOT
HETATM    1  C1  UNL     1     -32.186  17.919  -1.497  1.00 20.00     0.006 C 
HETATM    2  C2  UNL     1     -32.500  19.263  -0.836  1.00 20.00     0.020 C 
HETATM    3  C3  UNL     1     -34.553  18.467  -1.727  1.00 20.00     0.025 C 
HETATM    4  C4  UNL     1     -33.531  17.353  -1.980  1.00 20.00    -0.009 C 
HETATM    5  C5  UNL     1     -33.993  19.230  -0.534  1.00 20.00     0.082 C 
HETATM    6 CL11 UNL     1     -34.313  18.362   0.993  1.00 20.00    -0.125 Cl
ENDROOT
BRANCH   4   7
HETATM    7  C10 UNL     1     -33.502  16.902  -3.432  1.00 20.00    -0.011 C 
BRANCH   7   8
HETATM    8  C8  UNL     1     -34.622  17.572  -4.256  1.00 20.00     0.000 C 
HETATM    9  C6  UNL     1     -34.115  18.564  -5.294  1.00 20.00     0.005 C 
ENDBRANCH   7   8
BRANCH   7  10
HETATM   10  C9  UNL     1     -33.635  15.370  -3.553  1.00 20.00     0.000 C 
HETATM   11  C7  UNL     1     -33.704  14.869  -4.989  1.00 20.00     0.005 C 
ENDBRANCH   7  10
ENDBRANCH   4   7
TORSDOF 3
ENDMDL
MODEL 7
REMARK VINA RESULT:      -3.4     12.531     13.898
REMARK  3 active torsions:
REMARK  status: ('A' for Active; 'I' for Inactive)
REMARK    1  A    between atoms: C4_4  and  C10_10 
REMARK    2  A    between atoms: C8_8  and  C10_10 
REMARK    3  A    between atoms: C9_9  and  C10_10 
ROOT
HETATM    1  C1  UNL     1     -40.369  15.096   7.407  1.00 20.00     0.006 C 
HETATM    2  C2  UNL     1     -40.968  16.057   8.436  1.00 20.00     0.020 C 
HETATM    3  C3  UNL     1     -42.190  14.028   8.634  1.00 20.00     0.025 C 
HETATM    4  C4  UNL     1     -41.085  13.751   7.607  1.00 20.00    -0.009 C 
HETATM    5  C5  UNL     1     -41.641  15.172   9.478  1.00 20.00     0.082 C 
HETATM    6 CL11 UNL     1     -40.452  14.578  10.670  1.00 20.00    -0.125 Cl
ENDROOT
BRANCH   4   7
HETATM    7  C10 UNL     1     -41.624  13.164   6.312  1.00 20.00    -0.011 C 
BRANCH   7   8
HETATM    8  C8  UNL     1     -40.486  12.828   5.324  1.00 20.00     0.000 C 
HETATM    9  C6  UNL     1     -39.551  11.730   5.811  1.00 20.00     0.005 C 
ENDBRANCH   7   8
BRANCH   7  10
HETATM   10  C9  UNL     1     -42.619  14.123   5.625  1.00 20.00     0.000 C 
HETATM   11  C7  UNL     1     -42.249  14.471   4.190  1.00 20.00     0.005 C 
ENDBRANCH   7  10
ENDBRANCH   4   7
TORSDOF 3
ENDMDL
MODEL 8
REMARK VINA RESULT:      -3.3      2.432      4.382
REMARK  3 active torsions:
REMARK  status: ('A' for Active; 'I' for Inactive)
REMARK    1  A    between atoms: C4_4  and  C10_10 
REMARK    2  A    between atoms: C8_8  and  C10_10 
REMARK    3  A    between atoms: C9_9  and  C10_10 
ROOT
HETATM    1  C1  UNL     1     -34.624  18.786  -2.777  1.00 20.00     0.006 C 
HETATM    2  C2  UNL     1     -34.534  18.578  -1.263  1.00 20.00     0.020 C 
HETATM    3  C3  UNL     1     -33.464  16.702  -2.255  1.00 20.00     0.025 C 
HETATM    4  C4  UNL     1     -33.839  17.629  -3.417  1.00 20.00    -0.009 C 
HETATM    5  C5  UNL     1     -33.361  17.630  -1.050  1.00 20.00     0.082 C 
HETATM    6 CL11 UNL     1     -31.815  18.522  -1.056  1.00 20.00    -0.125 Cl
ENDROOT
BRANCH   4   7
HETATM    7  C10 UNL     1     -34.617  16.913  -4.510  1.00 20.00    -0.011 C 
BRANCH   7   8
HETATM    8  C8  UNL     1     -34.092  15.480  -4.735  1.00 20.00     0.000 C 
HETATM    9  C6  UNL     1     -34.011  15.075  -6.200  1.00 20.00     0.005 C 
ENDBRANCH   7   8
BRANCH   7  10
HETATM   10  C9  UNL     1     -34.561  17.685  -5.845  1.00 20.00     0.000 C 
HETATM   11  C7  UNL     1     -35.876  18.347  -6.230  1.00 20.00     0.005 C 
ENDBRANCH   7  10
ENDBRANCH   4   7
TORSDOF 3
ENDMDL
MODEL 9
REMARK VINA RESULT:      -3.3     11.977     13.355
REMARK  3 active torsions:
REMARK  status: ('A' for Active; 'I' for Inactive)
REMARK    1  A    between atoms: C4_4  and  C10_10 
REMARK    2  A    between atoms: C8_8  and  C10_10 
REMARK    3  A    between atoms: C9_9  and  C10_10 
ROOT
HETATM    1  C1  UNL     1     -33.976   8.189   5.166  1.00 20.00     0.006 C 
HETATM    2  C2  UNL     1     -32.553   8.741   5.061  1.00 20.00     0.020 C 
HETATM    3  C3  UNL     1     -32.718   7.023   3.429  1.00 20.00     0.025 C 
HETATM    4  C4  UNL     1     -34.118   7.153   4.039  1.00 20.00    -0.009 C 
HETATM    5  C5  UNL     1     -32.079   8.387   3.658  1.00 20.00     0.082 C 
HETATM    6 CL11 UNL     1     -32.669   9.581   2.468  1.00 20.00    -0.125 Cl
ENDROOT
BRANCH   4   7
HETATM    7  C10 UNL     1     -34.673   5.821   4.522  1.00 20.00    -0.011 C 
BRANCH   7   8
HETATM    8  C8  UNL     1     -34.835   5.796   6.056  1.00 20.00     0.000 C 
HETATM    9  C6  UNL     1     -33.723   5.051   6.782  1.00 20.00     0.005 C 
ENDBRANCH   7   8
BRANCH   7  10
HETATM   10  C9  UNL     1     -33.773   4.643   4.092  1.00 20.00     0.000 C 
HETATM   11  C7  UNL     1     -33.392   4.665   2.618  1.00 20.00     0.005 C 
ENDBRANCH   7  10
ENDBRANCH   4   7
TORSDOF 3
ENDMDL
