MODEL 1
REMARK VINA RESULT:      -3.6      0.000      0.000
REMARK  4 active torsions:
REMARK  status: ('A' for Active; 'I' for Inactive)
REMARK    1  A    between atoms: C1_1  and  C9_9 
REMARK    2  A    between atoms: C1_1  and  C10_10 
REMARK    3  A    between atoms: C7_7  and  C9_9 
REMARK    4  A    between atoms: C8_8  and  C9_9 
ROOT
HETATM    1  C1  UNL     1     -41.348  13.585   7.394  1.00 20.00     0.138 C 
HETATM    2  O11 UNL     1     -42.086  12.634   7.670  1.00 20.00    -0.297 OA
ENDROOT
BRANCH   1   3
HETATM    3  C9  UNL     1     -40.522  13.563   6.100  1.00 20.00     0.055 C 
BRANCH   3   4
HETATM    4  C7  UNL     1     -39.616  12.317   6.137  1.00 20.00     0.007 C 
HETATM    5  C2  UNL     1     -39.280  11.778   4.754  1.00 20.00     0.006 C 
ENDBRANCH   3   4
BRANCH   3   6
HETATM    6  C8  UNL     1     -41.444  13.556   4.867  1.00 20.00     0.007 C 
HETATM    7  C3  UNL     1     -42.398  14.742   4.826  1.00 20.00     0.006 C 
ENDBRANCH   3   6
ENDBRANCH   1   3
BRANCH   1   8
HETATM    8  C10 UNL     1     -41.225  14.807   8.336  1.00 20.00     0.010 C 
HETATM    9  C4  UNL     1     -40.368  15.903   7.692  1.00 20.00     0.022 C 
HETATM   10  C5  UNL     1     -42.620  15.351   8.670  1.00 20.00     0.022 C 
HETATM   11  C6  UNL     1     -40.547  14.371   9.648  1.00 20.00     0.022 C 
ENDBRANCH   1   8
TORSDOF 4
ENDMDL
MODEL 2
REMARK VINA RESULT:      -3.3     12.321     13.900
REMARK  4 active torsions:
REMARK  status: ('A' for Active; 'I' for Inactive)
REMARK    1  A    between atoms: C1_1  and  C9_9 
REMARK    2  A    between atoms: C1_1  and  C10_10 
REMARK    3  A    between atoms: C7_7  and  C9_9 
REMARK    4  A    between atoms: C8_8  and  C9_9 
ROOT
HETATM    1  C1  UNL     1     -33.675  15.938  -4.154  1.00 20.00     0.138 C 
HETATM    2  O11 UNL     1     -32.629  15.306  -3.979  1.00 20.00    -0.297 OA
ENDROOT
BRANCH   1   3
HETATM    3  C9  UNL     1     -33.928  17.232  -3.369  1.00 20.00     0.055 C 
BRANCH   3   4
HETATM    4  C7  UNL     1     -33.623  16.955  -1.885  1.00 20.00     0.007 C 
HETATM    5  C2  UNL     1     -32.617  17.929  -1.286  1.00 20.00     0.006 C 
ENDBRANCH   3   4
BRANCH   3   6
HETATM    6  C8  UNL     1     -33.064  18.381  -3.921  1.00 20.00     0.007 C 
HETATM    7  C3  UNL     1     -33.770  19.199  -4.994  1.00 20.00     0.006 C 
ENDBRANCH   3   6
ENDBRANCH   1   3
BRANCH   1   8
HETATM    8  C10 UNL     1     -34.754  15.445  -5.147  1.00 20.00     0.010 C 
HETATM    9  C4  UNL     1     -35.929  16.428  -5.202  1.00 20.00     0.022 C 
HETATM   10  C5  UNL     1     -34.140  15.272  -6.542  1.00 20.00     0.022 C 
HETATM   11  C6  UNL     1     -35.289  14.078  -4.679  1.00 20.00     0.022 C 
ENDBRANCH   1   8
TORSDOF 4
ENDMDL
MODEL 3
REMARK VINA RESULT:      -3.2     10.235     11.194
REMARK  4 active torsions:
REMARK  status: ('A' for Active; 'I' for Inactive)
REMARK    1  A    between atoms: C1_1  and  C9_9 
REMARK    2  A    between atoms: C1_1  and  C10_10 
REMARK    3  A    between atoms: C7_7  and  C9_9 
REMARK    4  A    between atoms: C8_8  and  C9_9 
ROOT
HETATM    1  C1  UNL     1     -33.278   6.240   3.485  1.00 20.00     0.138 C 
HETATM    2  O11 UNL     1     -32.737   5.349   2.823  1.00 20.00    -0.297 OA
ENDROOT
BRANCH   1   3
HETATM    3  C9  UNL     1     -32.909   7.710   3.237  1.00 20.00     0.055 C 
BRANCH   3   4
HETATM    4  C7  UNL     1     -31.832   8.108   4.263  1.00 20.00     0.007 C 
HETATM    5  C2  UNL     1     -32.148   9.407   4.991  1.00 20.00     0.006 C 
ENDBRANCH   3   4
BRANCH   3   6
HETATM    6  C8  UNL     1     -32.416   7.910   1.791  1.00 20.00     0.007 C 
HETATM    7  C3  UNL     1     -32.747   9.287   1.231  1.00 20.00     0.006 C 
ENDBRANCH   3   6
ENDBRANCH   1   3
BRANCH   1   8
HETATM    8  C10 UNL     1     -34.321   5.908   4.578  1.00 20.00     0.010 C 
HETATM    9  C4  UNL     1     -34.025   6.689   5.864  1.00 20.00     0.022 C 
HETATM   10  C5  UNL     1     -35.731   6.235   4.071  1.00 20.00     0.022 C 
HETATM   11  C6  UNL     1     -34.258   4.403   4.901  1.00 20.00     0.022 C 
ENDBRANCH   1   8
TORSDOF 4
ENDMDL
MODEL 4
REMARK VINA RESULT:      -3.2      1.595      2.642
REMARK  4 active torsions:
REMARK  status: ('A' for Active; 'I' for Inactive)
REMARK    1  A    between atoms: C1_1  and  C9_9 
REMARK    2  A    between atoms: C1_1  and  C10_10 
REMARK    3  A    between atoms: C7_7  and  C9_9 
REMARK    4  A    between atoms: C8_8  and  C9_9 
ROOT
HETATM    1  C1  UNL     1     -41.655  14.715   6.709  1.00 20.00     0.138 C 
HETATM    2  O11 UNL     1     -42.095  15.256   5.690  1.00 20.00    -0.297 OA
ENDROOT
BRANCH   1   3
HETATM    3  C9  UNL     1     -41.475  13.191   6.749  1.00 20.00     0.055 C 
BRANCH   3   4
HETATM    4  C7  UNL     1     -42.873  12.546   6.685  1.00 20.00     0.007 C 
HETATM    5  C2  UNL     1     -43.417  12.157   8.052  1.00 20.00     0.006 C 
ENDBRANCH   3   4
BRANCH   3   6
HETATM    6  C8  UNL     1     -40.579  12.718   5.588  1.00 20.00     0.007 C 
HETATM    7  C3  UNL     1     -39.419  11.843   6.045  1.00 20.00     0.006 C 
ENDBRANCH   3   6
ENDBRANCH   1   3
BRANCH   1   8
HETATM    8  C10 UNL     1     -41.288  15.542   7.964  1.00 20.00     0.010 C 
HETATM    9  C4  UNL     1     -40.644  16.875   7.564  1.00 20.00     0.022 C 
HETATM   10  C5  UNL     1     -42.542  15.791   8.811  1.00 20.00     0.022 C 
HETATM   11  C6  UNL     1     -40.276  14.752   8.815  1.00 20.00     0.022 C 
ENDBRANCH   1   8
TORSDOF 4
ENDMDL
MODEL 5
REMARK VINA RESULT:      -3.2      1.289      2.652
REMARK  4 active torsions:
REMARK  status: ('A' for Active; 'I' for Inactive)
REMARK    1  A    between atoms: C1_1  and  C9_9 
REMARK    2  A    between atoms: C1_1  and  C10_10 
REMARK    3  A    between atoms: C7_7  and  C9_9 
REMARK    4  A    between atoms: C8_8  and  C9_9 
ROOT
HETATM    1  C1  UNL     1     -41.189  14.117   7.184  1.00 20.00     0.138 C 
HETATM    2  O11 UNL     1     -40.292  14.965   7.179  1.00 20.00    -0.297 OA
ENDROOT
BRANCH   1   3
HETATM    3  C9  UNL     1     -41.229  13.039   6.092  1.00 20.00     0.055 C 
BRANCH   3   4
HETATM    4  C7  UNL     1     -41.409  13.745   4.734  1.00 20.00     0.007 C 
HETATM    5  C2  UNL     1     -42.754  14.443   4.595  1.00 20.00     0.006 C 
ENDBRANCH   3   4
BRANCH   3   6
HETATM    6  C8  UNL     1     -39.946  12.187   6.122  1.00 20.00     0.007 C 
HETATM    7  C3  UNL     1     -39.423  11.844   4.734  1.00 20.00     0.006 C 
ENDBRANCH   3   6
ENDBRANCH   1   3
BRANCH   1   8
HETATM    8  C10 UNL     1     -42.294  14.121   8.268  1.00 20.00     0.010 C 
HETATM    9  C4  UNL     1     -43.166  15.376   8.147  1.00 20.00     0.022 C 
HETATM   10  C5  UNL     1     -43.157  12.859   8.139  1.00 20.00     0.022 C 
HETATM   11  C6  UNL     1     -41.638  14.119   9.662  1.00 20.00     0.022 C 
ENDBRANCH   1   8
TORSDOF 4
ENDMDL
MODEL 6
REMARK VINA RESULT:      -3.1     11.860     13.456
REMARK  4 active torsions:
REMARK  status: ('A' for Active; 'I' for Inactive)
REMARK    1  A    between atoms: C1_1  and  C9_9 
REMARK    2  A    between atoms: C1_1  and  C10_10 
REMARK    3  A    between atoms: C7_7  and  C9_9 
REMARK    4  A    between atoms: C8_8  and  C9_9 
ROOT
HETATM    1  C1  UNL     1     -34.101  17.899  -4.136  1.00 20.00     0.138 C 
HETATM    2  O11 UNL     1     -33.177  18.557  -4.624  1.00 20.00    -0.297 OA
ENDROOT
BRANCH   1   3
HETATM    3  C9  UNL     1     -33.800  16.808  -3.100  1.00 20.00     0.055 C 
BRANCH   3   4
HETATM    4  C7  UNL     1     -33.037  15.674  -3.812  1.00 20.00     0.007 C 
HETATM    5  C2  UNL     1     -33.912  14.471  -4.133  1.00 20.00     0.006 C 
ENDBRANCH   3   4
BRANCH   3   6
HETATM    6  C8  UNL     1     -32.990  17.384  -1.923  1.00 20.00     0.007 C 
HETATM    7  C3  UNL     1     -33.852  17.731  -0.717  1.00 20.00     0.006 C 
ENDBRANCH   3   6
ENDBRANCH   1   3
BRANCH   1   8
HETATM    8  C10 UNL     1     -35.570  18.141  -4.558  1.00 20.00     0.010 C 
HETATM    9  C4  UNL     1     -36.173  16.873  -5.176  1.00 20.00     0.022 C 
HETATM   10  C5  UNL     1     -36.396  18.585  -3.344  1.00 20.00     0.022 C 
HETATM   11  C6  UNL     1     -35.618  19.262  -5.614  1.00 20.00     0.022 C 
ENDBRANCH   1   8
TORSDOF 4
ENDMDL
MODEL 7
REMARK VINA RESULT:      -3.1     12.590     13.996
REMARK  4 active torsions:
REMARK  status: ('A' for Active; 'I' for Inactive)
REMARK    1  A    between atoms: C1_1  and  C9_9 
REMARK    2  A    between atoms: C1_1  and  C10_10 
REMARK    3  A    between atoms: C7_7  and  C9_9 
REMARK    4  A    between atoms: C8_8  and  C9_9 
ROOT
HETATM    1  C1  UNL     1     -36.168  15.337  -5.472  1.00 20.00     0.138 C 
HETATM    2  O11 UNL     1     -36.537  14.172  -5.292  1.00 20.00    -0.297 OA
ENDROOT
BRANCH   1   3
HETATM    3  C9  UNL     1     -34.670  15.670  -5.500  1.00 20.00     0.055 C 
BRANCH   3   4
HETATM    4  C7  UNL     1     -34.019  15.034  -4.257  1.00 20.00     0.007 C 
HETATM    5  C2  UNL     1     -33.312  16.046  -3.365  1.00 20.00     0.006 C 
ENDBRANCH   3   4
BRANCH   3   6
HETATM    6  C8  UNL     1     -34.024  15.161  -6.802  1.00 20.00     0.007 C 
HETATM    7  C3  UNL     1     -34.029  16.197  -7.918  1.00 20.00     0.006 C 
ENDBRANCH   3   6
ENDBRANCH   1   3
BRANCH   1   8
HETATM    8  C10 UNL     1     -37.191  16.483  -5.658  1.00 20.00     0.010 C 
HETATM    9  C4  UNL     1     -37.474  16.719  -7.147  1.00 20.00     0.022 C 
HETATM   10  C5  UNL     1     -38.491  16.149  -4.917  1.00 20.00     0.022 C 
HETATM   11  C6  UNL     1     -36.613  17.782  -5.064  1.00 20.00     0.022 C 
ENDBRANCH   1   8
TORSDOF 4
ENDMDL
MODEL 8
REMARK VINA RESULT:      -3.1     12.448     14.281
REMARK  4 active torsions:
REMARK  status: ('A' for Active; 'I' for Inactive)
REMARK    1  A    between atoms: C1_1  and  C9_9 
REMARK    2  A    between atoms: C1_1  and  C10_10 
REMARK    3  A    between atoms: C7_7  and  C9_9 
REMARK    4  A    between atoms: C8_8  and  C9_9 
ROOT
HETATM    1  C1  UNL     1     -35.176  16.665  -4.942  1.00 20.00     0.138 C 
HETATM    2  O11 UNL     1     -36.136  17.332  -4.543  1.00 20.00    -0.297 OA
ENDROOT
BRANCH   1   3
HETATM    3  C9  UNL     1     -33.766  16.959  -4.411  1.00 20.00     0.055 C 
BRANCH   3   4
HETATM    4  C7  UNL     1     -33.647  18.479  -4.196  1.00 20.00     0.007 C 
HETATM    5  C2  UNL     1     -33.527  19.263  -5.495  1.00 20.00     0.006 C 
ENDBRANCH   3   4
BRANCH   3   6
HETATM    6  C8  UNL     1     -33.502  16.179  -3.109  1.00 20.00     0.007 C 
HETATM    7  C3  UNL     1     -33.292  17.083  -1.902  1.00 20.00     0.006 C 
ENDBRANCH   3   6
ENDBRANCH   1   3
BRANCH   1   8
HETATM    8  C10 UNL     1     -35.361  15.537  -5.985  1.00 20.00     0.010 C 
HETATM    9  C4  UNL     1     -34.030  15.217  -6.677  1.00 20.00     0.022 C 
HETATM   10  C5  UNL     1     -35.921  14.282  -5.304  1.00 20.00     0.022 C 
HETATM   11  C6  UNL     1     -36.366  15.996  -7.059  1.00 20.00     0.022 C 
ENDBRANCH   1   8
TORSDOF 4
ENDMDL
MODEL 9
REMARK VINA RESULT:      -3.1      1.281      2.720
REMARK  4 active torsions:
REMARK  status: ('A' for Active; 'I' for Inactive)
REMARK    1  A    between atoms: C1_1  and  C9_9 
REMARK    2  A    between atoms: C1_1  and  C10_10 
REMARK    3  A    between atoms: C7_7  and  C9_9 
REMARK    4  A    between atoms: C8_8  and  C9_9 
ROOT
HETATM    1  C1  UNL     1     -41.152  14.146   7.213  1.00 20.00     0.138 C 
HETATM    2  O11 UNL     1     -40.255  14.994   7.183  1.00 20.00    -0.297 OA
ENDROOT
BRANCH   1   3
HETATM    3  C9  UNL     1     -41.207  13.051   6.139  1.00 20.00     0.055 C 
BRANCH   3   4
HETATM    4  C7  UNL     1     -41.411  13.735   4.774  1.00 20.00     0.007 C 
HETATM    5  C2  UNL     1     -42.752  14.442   4.650  1.00 20.00     0.006 C 
ENDBRANCH   3   4
BRANCH   3   6
HETATM    6  C8  UNL     1     -39.923  12.202   6.163  1.00 20.00     0.007 C 
HETATM    7  C3  UNL     1     -39.413  11.848   4.772  1.00 20.00     0.006 C 
ENDBRANCH   3   6
ENDBRANCH   1   3
BRANCH   1   8
HETATM    8  C10 UNL     1     -42.241  14.169   8.312  1.00 20.00     0.010 C 
HETATM    9  C4  UNL     1     -41.605  14.125   9.707  1.00 20.00     0.022 C 
HETATM   10  C5  UNL     1     -43.108  15.425   8.164  1.00 20.00     0.022 C 
HETATM   11  C6  UNL     1     -43.147  12.933   8.156  1.00 20.00     0.022 C 
ENDBRANCH   1   8
TORSDOF 4
ENDMDL
