MODEL 1
REMARK VINA RESULT:      -3.7      0.000      0.000
REMARK  2 active torsions:
REMARK  status: ('A' for Active; 'I' for Inactive)
REMARK    1  A    between atoms: C4_4  and  C7_7 
REMARK    2  A    between atoms: C4_4  and  C8_8 
ROOT
HETATM    1  C1  UNL     1     -23.599  19.065   9.034  1.00 20.00     0.039 C 
HETATM    2  C2  UNL     1     -22.814  18.767   7.772  1.00 20.00     0.168 C 
HETATM    3  C3  UNL     1     -22.544  16.979   9.246  1.00 20.00     0.178 C 
HETATM    4  C4  UNL     1     -22.908  18.204  10.082  1.00 20.00    -0.001 C 
HETATM    5  O9  UNL     1     -22.256  17.454   7.920  1.00 20.00    -0.390 OA
ENDROOT
BRANCH   4   6
HETATM    6  C7  UNL     1     -21.643  18.895  10.617  1.00 20.00     0.126 C 
HETATM    7 CL10 UNL     1     -21.418  18.511  12.332  1.00 20.00    -0.130 Cl
ENDBRANCH   4   6
BRANCH   4   8
HETATM    8  C8  UNL     1     -23.828  17.852  11.250  1.00 20.00    -0.011 C 
HETATM    9  C5  UNL     1     -25.022  18.798  11.283  1.00 20.00     0.010 C 
HETATM   10  C6  UNL     1     -24.283  16.403  11.142  1.00 20.00     0.010 C 
ENDBRANCH   4   8
TORSDOF 2
ENDMDL
MODEL 2
REMARK VINA RESULT:      -3.5      2.222      2.791
REMARK  2 active torsions:
REMARK  status: ('A' for Active; 'I' for Inactive)
REMARK    1  A    between atoms: C4_4  and  C7_7 
REMARK    2  A    between atoms: C4_4  and  C8_8 
ROOT
HETATM    1  C1  UNL     1     -23.121  17.079   9.442  1.00 20.00     0.039 C 
HETATM    2  C2  UNL     1     -21.745  17.687   9.251  1.00 20.00     0.168 C 
HETATM    3  C3  UNL     1     -22.554  18.341  11.339  1.00 20.00     0.178 C 
HETATM    4  C4  UNL     1     -23.763  17.998  10.473  1.00 20.00    -0.001 C 
HETATM    5  O9  UNL     1     -21.415  18.379  10.464  1.00 20.00    -0.390 OA
ENDROOT
BRANCH   4   6
HETATM    6  C7  UNL     1     -24.333  19.261   9.807  1.00 20.00     0.126 C 
HETATM    7 CL10 UNL     1     -24.973  18.868   8.202  1.00 20.00    -0.130 Cl
ENDBRANCH   4   6
BRANCH   4   8
HETATM    8  C8  UNL     1     -24.866  17.302  11.270  1.00 20.00    -0.011 C 
HETATM    9  C5  UNL     1     -24.316  16.053  11.948  1.00 20.00     0.010 C 
HETATM   10  C6  UNL     1     -25.461  18.262  12.292  1.00 20.00     0.010 C 
ENDBRANCH   4   8
TORSDOF 2
ENDMDL
MODEL 3
REMARK VINA RESULT:      -3.2     18.429     19.496
REMARK  2 active torsions:
REMARK  status: ('A' for Active; 'I' for Inactive)
REMARK    1  A    between atoms: C4_4  and  C7_7 
REMARK    2  A    between atoms: C4_4  and  C8_8 
ROOT
HETATM    1  C1  UNL     1     -35.761  14.537  -5.263  1.00 20.00     0.039 C 
HETATM    2  C2  UNL     1     -36.071  14.632  -6.744  1.00 20.00     0.168 C 
HETATM    3  C3  UNL     1     -33.872  15.331  -6.407  1.00 20.00     0.178 C 
HETATM    4  C4  UNL     1     -34.614  15.522  -5.087  1.00 20.00    -0.001 C 
HETATM    5  O9  UNL     1     -34.867  15.044  -7.404  1.00 20.00    -0.390 OA
ENDROOT
BRANCH   4   6
HETATM    6  C7  UNL     1     -35.139  16.962  -4.960  1.00 20.00     0.126 C 
HETATM    7 CL10 UNL     1     -34.350  18.006  -6.154  1.00 20.00    -0.130 Cl
ENDBRANCH   4   6
BRANCH   4   8
HETATM    8  C8  UNL     1     -33.738  15.192  -3.879  1.00 20.00    -0.011 C 
HETATM    9  C5  UNL     1     -32.417  14.587  -4.337  1.00 20.00     0.010 C 
HETATM   10  C6  UNL     1     -33.506  16.442  -3.041  1.00 20.00     0.010 C 
ENDBRANCH   4   8
TORSDOF 2
ENDMDL
MODEL 4
REMARK VINA RESULT:      -3.2     18.974     20.009
REMARK  2 active torsions:
REMARK  status: ('A' for Active; 'I' for Inactive)
REMARK    1  A    between atoms: C4_4  and  C7_7 
REMARK    2  A    between atoms: C4_4  and  C8_8 
ROOT
HETATM    1  C1  UNL     1     -36.002  17.198  -4.850  1.00 20.00     0.039 C 
HETATM    2  C2  UNL     1     -37.325  16.938  -5.543  1.00 20.00     0.168 C 
HETATM    3  C3  UNL     1     -35.993  15.037  -5.765  1.00 20.00     0.178 C 
HETATM    4  C4  UNL     1     -35.057  16.220  -5.533  1.00 20.00    -0.001 C 
HETATM    5  O9  UNL     1     -37.298  15.584  -6.014  1.00 20.00    -0.390 OA
ENDROOT
BRANCH   4   6
HETATM    6  C7  UNL     1     -34.551  16.785  -6.871  1.00 20.00     0.126 C 
HETATM    7 CL10 UNL     1     -33.777  15.504  -7.819  1.00 20.00    -0.130 Cl
ENDBRANCH   4   6
BRANCH   4   8
HETATM    8  C8  UNL     1     -33.863  15.848  -4.654  1.00 20.00    -0.011 C 
HETATM    9  C5  UNL     1     -33.735  16.832  -3.498  1.00 20.00     0.010 C 
HETATM   10  C6  UNL     1     -34.012  14.421  -4.143  1.00 20.00     0.010 C 
ENDBRANCH   4   8
TORSDOF 2
ENDMDL
MODEL 5
REMARK VINA RESULT:      -3.1     18.374     19.314
REMARK  2 active torsions:
REMARK  status: ('A' for Active; 'I' for Inactive)
REMARK    1  A    between atoms: C4_4  and  C7_7 
REMARK    2  A    between atoms: C4_4  and  C8_8 
ROOT
HETATM    1  C1  UNL     1     -42.296  12.572   6.684  1.00 20.00     0.039 C 
HETATM    2  C2  UNL     1     -43.300  13.624   6.255  1.00 20.00     0.168 C 
HETATM    3  C3  UNL     1     -41.500  13.679   4.774  1.00 20.00     0.178 C 
HETATM    4  C4  UNL     1     -40.992  13.074   6.080  1.00 20.00    -0.001 C 
HETATM    5  O9  UNL     1     -42.806  14.213   5.045  1.00 20.00    -0.390 OA
ENDROOT
BRANCH   4   6
HETATM    6  C7  UNL     1     -40.352  14.153   6.969  1.00 20.00     0.126 C 
HETATM    7 CL10 UNL     1     -41.049  14.095   8.597  1.00 20.00    -0.130 Cl
ENDBRANCH   4   6
BRANCH   4   8
HETATM    8  C8  UNL     1     -39.986  11.948   5.842  1.00 20.00    -0.011 C 
HETATM    9  C5  UNL     1     -39.560  11.923   4.380  1.00 20.00     0.010 C 
HETATM   10  C6  UNL     1     -38.781  12.118   6.759  1.00 20.00     0.010 C 
ENDBRANCH   4   8
TORSDOF 2
ENDMDL
MODEL 6
REMARK VINA RESULT:      -3.1     15.650     16.765
REMARK  2 active torsions:
REMARK  status: ('A' for Active; 'I' for Inactive)
REMARK    1  A    between atoms: C4_4  and  C7_7 
REMARK    2  A    between atoms: C4_4  and  C8_8 
ROOT
HETATM    1  C1  UNL     1     -33.159   5.578   3.836  1.00 20.00     0.039 C 
HETATM    2  C2  UNL     1     -34.218   4.574   4.246  1.00 20.00     0.168 C 
HETATM    3  C3  UNL     1     -35.128   6.714   4.419  1.00 20.00     0.178 C 
HETATM    4  C4  UNL     1     -33.612   6.857   4.525  1.00 20.00    -0.001 C 
HETATM    5  O9  UNL     1     -35.419   5.310   4.515  1.00 20.00    -0.390 OA
ENDROOT
BRANCH   4   6
HETATM    6  C7  UNL     1     -33.167   6.879   5.997  1.00 20.00     0.126 C 
HETATM    7 CL10 UNL     1     -34.583   6.915   7.061  1.00 20.00    -0.130 Cl
ENDBRANCH   4   6
BRANCH   4   8
HETATM    8  C8  UNL     1     -33.100   8.114   3.820  1.00 20.00    -0.011 C 
HETATM    9  C5  UNL     1     -32.327   8.988   4.800  1.00 20.00     0.010 C 
HETATM   10  C6  UNL     1     -32.234   7.731   2.628  1.00 20.00     0.010 C 
ENDBRANCH   4   8
TORSDOF 2
ENDMDL
MODEL 7
REMARK VINA RESULT:      -3.1     18.483     19.445
REMARK  2 active torsions:
REMARK  status: ('A' for Active; 'I' for Inactive)
REMARK    1  A    between atoms: C4_4  and  C7_7 
REMARK    2  A    between atoms: C4_4  and  C8_8 
ROOT
HETATM    1  C1  UNL     1     -40.133  12.853   6.503  1.00 20.00     0.039 C 
HETATM    2  C2  UNL     1     -40.079  12.439   5.045  1.00 20.00     0.168 C 
HETATM    3  C3  UNL     1     -41.710  14.088   5.280  1.00 20.00     0.178 C 
HETATM    4  C4  UNL     1     -41.535  13.428   6.645  1.00 20.00    -0.001 C 
HETATM    5  O9  UNL     1     -41.001  13.274   4.332  1.00 20.00    -0.390 OA
ENDROOT
BRANCH   4   6
HETATM    6  C7  UNL     1     -42.572  12.311   6.848  1.00 20.00     0.126 C 
HETATM    7 CL10 UNL     1     -43.406  12.527   8.396  1.00 20.00    -0.130 Cl
ENDBRANCH   4   6
BRANCH   4   8
HETATM    8  C8  UNL     1     -41.641  14.434   7.791  1.00 20.00    -0.011 C 
HETATM    9  C5  UNL     1     -40.316  14.523   8.537  1.00 20.00     0.010 C 
HETATM   10  C6  UNL     1     -42.059  15.797   7.256  1.00 20.00     0.010 C 
ENDBRANCH   4   8
TORSDOF 2
ENDMDL
MODEL 8
REMARK VINA RESULT:      -3.1     15.850     16.823
REMARK  2 active torsions:
REMARK  status: ('A' for Active; 'I' for Inactive)
REMARK    1  A    between atoms: C4_4  and  C7_7 
REMARK    2  A    between atoms: C4_4  and  C8_8 
ROOT
HETATM    1  C1  UNL     1     -33.183   6.269   5.777  1.00 20.00     0.039 C 
HETATM    2  C2  UNL     1     -34.522   6.138   6.476  1.00 20.00     0.168 C 
HETATM    3  C3  UNL     1     -34.878   6.005   4.175  1.00 20.00     0.178 C 
HETATM    4  C4  UNL     1     -33.567   6.757   4.387  1.00 20.00    -0.001 C 
HETATM    5  O9  UNL     1     -35.509   5.901   5.462  1.00 20.00    -0.390 OA
ENDROOT
BRANCH   4   6
HETATM    6  C7  UNL     1     -33.802   8.277   4.381  1.00 20.00     0.126 C 
HETATM    7 CL10 UNL     1     -32.485   9.101   5.233  1.00 20.00    -0.130 Cl
ENDBRANCH   4   6
BRANCH   4   8
HETATM    8  C8  UNL     1     -32.520   6.400   3.332  1.00 20.00    -0.011 C 
HETATM    9  C5  UNL     1     -32.925   5.129   2.598  1.00 20.00     0.010 C 
HETATM   10  C6  UNL     1     -32.337   7.558   2.360  1.00 20.00     0.010 C 
ENDBRANCH   4   8
TORSDOF 2
ENDMDL
MODEL 9
REMARK VINA RESULT:      -3.1     18.876     19.924
REMARK  2 active torsions:
REMARK  status: ('A' for Active; 'I' for Inactive)
REMARK    1  A    between atoms: C4_4  and  C7_7 
REMARK    2  A    between atoms: C4_4  and  C8_8 
ROOT
HETATM    1  C1  UNL     1     -34.453  16.151  -6.955  1.00 20.00     0.039 C 
HETATM    2  C2  UNL     1     -35.570  15.468  -7.719  1.00 20.00     0.168 C 
HETATM    3  C3  UNL     1     -36.356  16.003  -5.589  1.00 20.00     0.178 C 
HETATM    4  C4  UNL     1     -34.834  15.913  -5.501  1.00 20.00    -0.001 C 
HETATM    5  O9  UNL     1     -36.728  15.474  -6.872  1.00 20.00    -0.390 OA
ENDROOT
BRANCH   4   6
HETATM    6  C7  UNL     1     -34.396  14.514  -5.036  1.00 20.00     0.126 C 
HETATM    7 CL10 UNL     1     -35.802  13.587  -4.487  1.00 20.00    -0.130 Cl
ENDBRANCH   4   6
BRANCH   4   8
HETATM    8  C8  UNL     1     -34.247  16.967  -4.562  1.00 20.00    -0.011 C 
HETATM    9  C5  UNL     1     -35.348  17.891  -4.055  1.00 20.00     0.010 C 
HETATM   10  C6  UNL     1     -33.522  16.295  -3.405  1.00 20.00     0.010 C 
ENDBRANCH   4   8
TORSDOF 2
ENDMDL
