MODEL 1
REMARK VINA RESULT:      -4.3      0.000      0.000
REMARK  2 active torsions:
REMARK  status: ('A' for Active; 'I' for Inactive)
REMARK    1  A    between atoms: C3_3  and  C8_8 
REMARK    2  A    between atoms: C8_8  and  C9_9 
ROOT
HETATM    1  C1  UNL     1     -33.010   8.631   3.944  1.00 20.00     0.302 C 
HETATM    2  C2  UNL     1     -33.512   6.900   5.602  1.00 20.00     0.244 C 
HETATM    3  C3  UNL     1     -32.319   7.451   3.266  1.00 20.00     0.150 C 
HETATM    4  C4  UNL     1     -34.070   6.195   4.351  1.00 20.00     0.150 C 
HETATM    5  C5  UNL     1     -34.405   6.759   6.832  1.00 20.00     0.045 C 
HETATM    6  C6  UNL     1     -34.330   4.705   4.558  1.00 20.00     0.042 C 
HETATM    7  N10 UNL     1     -33.334   8.339   5.341  1.00 20.00     0.092 N 
HETATM    8  O11 UNL     1     -33.160   6.294   3.244  1.00 20.00    -0.377 OA
HETATM    9  H30 UNL     1     -32.583   8.707   5.946  1.00 20.00     0.316 HD
ENDROOT
BRANCH   3  10
HETATM   10  C8  UNL     1     -31.950   7.776   1.824  1.00 20.00     0.033 C 
BRANCH  10  11
HETATM   11  C9  UNL     1     -32.582   9.088   1.375  1.00 20.00    -0.002 C 
HETATM   12  C7  UNL     1     -32.908   9.064  -0.110  1.00 20.00     0.005 C 
ENDBRANCH  10  11
ENDBRANCH   3  10
TORSDOF 2
ENDMDL
MODEL 2
REMARK VINA RESULT:      -4.2     11.121     12.506
REMARK  2 active torsions:
REMARK  status: ('A' for Active; 'I' for Inactive)
REMARK    1  A    between atoms: C3_3  and  C8_8 
REMARK    2  A    between atoms: C8_8  and  C9_9 
ROOT
HETATM    1  C1  UNL     1     -33.167  18.387  -3.402  1.00 20.00     0.302 C 
HETATM    2  C2  UNL     1     -34.359  16.814  -4.852  1.00 20.00     0.244 C 
HETATM    3  C3  UNL     1     -33.805  17.514  -2.324  1.00 20.00     0.150 C 
HETATM    4  C4  UNL     1     -33.569  15.798  -4.004  1.00 20.00     0.150 C 
HETATM    5  C5  UNL     1     -34.392  16.473  -6.340  1.00 20.00     0.045 C 
HETATM    6  C6  UNL     1     -34.083  14.367  -4.134  1.00 20.00     0.042 C 
HETATM    7  N10 UNL     1     -33.775  18.159  -4.714  1.00 20.00     0.092 N 
HETATM    8  O11 UNL     1     -33.630  16.123  -2.606  1.00 20.00    -0.377 OA
HETATM    9  H30 UNL     1     -34.507  18.869  -4.874  1.00 20.00     0.316 HD
ENDROOT
BRANCH   3  10
HETATM   10  C8  UNL     1     -33.194  17.784  -0.956  1.00 20.00     0.033 C 
BRANCH  10  11
HETATM   11  C9  UNL     1     -31.917  18.608  -1.074  1.00 20.00    -0.002 C 
HETATM   12  C7  UNL     1     -31.118  18.575   0.218  1.00 20.00     0.005 C 
ENDBRANCH  10  11
ENDBRANCH   3  10
TORSDOF 2
ENDMDL
MODEL 3
REMARK VINA RESULT:      -4.2     11.434     12.916
REMARK  2 active torsions:
REMARK  status: ('A' for Active; 'I' for Inactive)
REMARK    1  A    between atoms: C3_3  and  C8_8 
REMARK    2  A    between atoms: C8_8  and  C9_9 
ROOT
HETATM    1  C1  UNL     1     -33.429  14.936  -4.334  1.00 20.00     0.302 C 
HETATM    2  C2  UNL     1     -34.347  15.907  -6.386  1.00 20.00     0.244 C 
HETATM    3  C3  UNL     1     -33.490  16.396  -3.893  1.00 20.00     0.150 C 
HETATM    4  C4  UNL     1     -35.386  16.449  -5.385  1.00 20.00     0.150 C 
HETATM    5  C5  UNL     1     -34.961  15.394  -7.686  1.00 20.00     0.045 C 
HETATM    6  C6  UNL     1     -36.252  17.569  -5.954  1.00 20.00     0.042 C 
HETATM    7  N10 UNL     1     -33.585  14.800  -5.782  1.00 20.00     0.092 N 
HETATM    8  O11 UNL     1     -34.753  16.986  -4.212  1.00 20.00    -0.377 OA
HETATM    9  H30 UNL     1     -32.652  14.748  -6.219  1.00 20.00     0.316 HD
ENDROOT
BRANCH   3  10
HETATM   10  C8  UNL     1     -33.288  16.531  -2.389  1.00 20.00     0.033 C 
BRANCH  10  11
HETATM   11  C9  UNL     1     -34.028  17.745  -1.840  1.00 20.00    -0.002 C 
HETATM   12  C7  UNL     1     -33.724  17.956  -0.365  1.00 20.00     0.005 C 
ENDBRANCH  10  11
ENDBRANCH   3  10
TORSDOF 2
ENDMDL
MODEL 4
REMARK VINA RESULT:      -4.1      9.902     10.783
REMARK  2 active torsions:
REMARK  status: ('A' for Active; 'I' for Inactive)
REMARK    1  A    between atoms: C3_3  and  C8_8 
REMARK    2  A    between atoms: C8_8  and  C9_9 
ROOT
HETATM    1  C1  UNL     1     -41.630  13.843   5.948  1.00 20.00     0.302 C 
HETATM    2  C2  UNL     1     -41.190  15.727   7.450  1.00 20.00     0.244 C 
HETATM    3  C3  UNL     1     -40.241  13.436   6.430  1.00 20.00     0.150 C 
HETATM    4  C4  UNL     1     -40.940  14.573   8.441  1.00 20.00     0.150 C 
HETATM    5  C5  UNL     1     -41.983  16.885   8.049  1.00 20.00     0.045 C 
HETATM    6  C6  UNL     1     -40.220  15.009   9.713  1.00 20.00     0.042 C 
HETATM    7  N10 UNL     1     -41.930  15.238   6.273  1.00 20.00     0.092 N 
HETATM    8  O11 UNL     1     -40.129  13.543   7.852  1.00 20.00    -0.377 OA
HETATM    9  H30 UNL     1     -41.707  15.831   5.458  1.00 20.00     0.316 HD
ENDROOT
BRANCH   3  10
HETATM   10  C8  UNL     1     -39.922  11.995   6.053  1.00 20.00     0.033 C 
BRANCH  10  11
HETATM   11  C9  UNL     1     -38.643  11.911   5.228  1.00 20.00    -0.002 C 
HETATM   12  C7  UNL     1     -38.949  11.657   3.761  1.00 20.00     0.005 C 
ENDBRANCH  10  11
ENDBRANCH   3  10
TORSDOF 2
ENDMDL
MODEL 5
REMARK VINA RESULT:      -3.9     11.465     12.849
REMARK  2 active torsions:
REMARK  status: ('A' for Active; 'I' for Inactive)
REMARK    1  A    between atoms: C3_3  and  C8_8 
REMARK    2  A    between atoms: C8_8  and  C9_9 
ROOT
HETATM    1  C1  UNL     1     -33.552  17.168  -1.302  1.00 20.00     0.302 C 
HETATM    2  C2  UNL     1     -33.456  16.987  -3.743  1.00 20.00     0.244 C 
HETATM    3  C3  UNL     1     -32.450  18.190  -1.569  1.00 20.00     0.150 C 
HETATM    4  C4  UNL     1     -33.665  18.509  -3.629  1.00 20.00     0.150 C 
HETATM    5  C5  UNL     1     -34.286  16.337  -4.847  1.00 20.00     0.045 C 
HETATM    6  C6  UNL     1     -33.372  19.261  -4.924  1.00 20.00     0.042 C 
HETATM    7  N10 UNL     1     -33.805  16.327  -2.472  1.00 20.00     0.092 N 
HETATM    8  O11 UNL     1     -32.809  19.082  -2.628  1.00 20.00    -0.377 OA
HETATM    9  H30 UNL     1     -33.266  15.451  -2.382  1.00 20.00     0.316 HD
ENDROOT
BRANCH   3  10
HETATM   10  C8  UNL     1     -32.166  19.036  -0.334  1.00 20.00     0.033 C 
BRANCH  10  11
HETATM   11  C9  UNL     1     -30.953  18.513   0.426  1.00 20.00    -0.002 C 
HETATM   12  C7  UNL     1     -31.242  18.401   1.915  1.00 20.00     0.005 C 
ENDBRANCH  10  11
ENDBRANCH   3  10
TORSDOF 2
ENDMDL
MODEL 6
REMARK VINA RESULT:      -3.9     11.514     12.787
REMARK  2 active torsions:
REMARK  status: ('A' for Active; 'I' for Inactive)
REMARK    1  A    between atoms: C3_3  and  C8_8 
REMARK    2  A    between atoms: C8_8  and  C9_9 
ROOT
HETATM    1  C1  UNL     1     -33.562  16.326  -2.729  1.00 20.00     0.302 C 
HETATM    2  C2  UNL     1     -34.482  15.852  -4.948  1.00 20.00     0.244 C 
HETATM    3  C3  UNL     1     -33.168  17.626  -3.426  1.00 20.00     0.150 C 
HETATM    4  C4  UNL     1     -35.180  17.201  -4.688  1.00 20.00     0.150 C 
HETATM    5  C5  UNL     1     -35.395  14.803  -5.577  1.00 20.00     0.045 C 
HETATM    6  C6  UNL     1     -35.793  17.820  -5.941  1.00 20.00     0.042 C 
HETATM    7  N10 UNL     1     -33.960  15.296  -3.688  1.00 20.00     0.092 N 
HETATM    8  O11 UNL     1     -34.262  18.175  -4.166  1.00 20.00    -0.377 OA
HETATM    9  H30 UNL     1     -33.149  14.691  -3.890  1.00 20.00     0.316 HD
ENDROOT
BRANCH   3  10
HETATM   10  C8  UNL     1     -32.717  18.680  -2.424  1.00 20.00     0.033 C 
BRANCH  10  11
HETATM   11  C9  UNL     1     -32.580  18.091  -1.026  1.00 20.00    -0.002 C 
HETATM   12  C7  UNL     1     -31.311  18.577  -0.344  1.00 20.00     0.005 C 
ENDBRANCH  10  11
ENDBRANCH   3  10
TORSDOF 2
ENDMDL
MODEL 7
REMARK VINA RESULT:      -3.7      1.594      2.178
REMARK  2 active torsions:
REMARK  status: ('A' for Active; 'I' for Inactive)
REMARK    1  A    between atoms: C3_3  and  C8_8 
REMARK    2  A    between atoms: C8_8  and  C9_9 
ROOT
HETATM    1  C1  UNL     1     -32.714   5.708   2.835  1.00 20.00     0.302 C 
HETATM    2  C2  UNL     1     -34.320   6.121   4.638  1.00 20.00     0.244 C 
HETATM    3  C3  UNL     1     -32.901   7.210   2.641  1.00 20.00     0.150 C 
HETATM    4  C4  UNL     1     -33.256   7.166   5.027  1.00 20.00     0.150 C 
HETATM    5  C5  UNL     1     -34.883   5.349   5.829  1.00 20.00     0.045 C 
HETATM    6  C6  UNL     1     -33.755   8.191   6.041  1.00 20.00     0.042 C 
HETATM    7  N10 UNL     1     -33.751   5.139   3.697  1.00 20.00     0.092 N 
HETATM    8  O11 UNL     1     -32.813   7.913   3.883  1.00 20.00    -0.377 OA
HETATM    9  H30 UNL     1     -34.506   4.753   3.108  1.00 20.00     0.316 HD
ENDROOT
BRANCH   3  10
HETATM   10  C8  UNL     1     -31.841   7.787   1.712  1.00 20.00     0.033 C 
BRANCH  10  11
HETATM   11  C9  UNL     1     -32.474   8.597   0.587  1.00 20.00    -0.002 C 
HETATM   12  C7  UNL     1     -32.985   9.937   1.093  1.00 20.00     0.005 C 
ENDBRANCH  10  11
ENDBRANCH   3  10
TORSDOF 2
ENDMDL
MODEL 8
REMARK VINA RESULT:      -3.7     10.146     11.104
REMARK  2 active torsions:
REMARK  status: ('A' for Active; 'I' for Inactive)
REMARK    1  A    between atoms: C3_3  and  C8_8 
REMARK    2  A    between atoms: C8_8  and  C9_9 
ROOT
HETATM    1  C1  UNL     1     -40.388  15.072   7.312  1.00 20.00     0.302 C 
HETATM    2  C2  UNL     1     -40.947  14.785   9.679  1.00 20.00     0.244 C 
HETATM    3  C3  UNL     1     -40.591  13.559   7.321  1.00 20.00     0.150 C 
HETATM    4  C4  UNL     1     -42.175  14.089   9.062  1.00 20.00     0.150 C 
HETATM    5  C5  UNL     1     -41.286  15.687  10.863  1.00 20.00     0.045 C 
HETATM    6  C6  UNL     1     -42.966  13.251  10.063  1.00 20.00     0.042 C 
HETATM    7  N10 UNL     1     -40.266  15.611   8.667  1.00 20.00     0.092 N 
HETATM    8  O11 UNL     1     -41.795  13.197   8.002  1.00 20.00    -0.377 OA
HETATM    9  H30 UNL     1     -39.266  15.694   8.908  1.00 20.00     0.316 HD
ENDROOT
BRANCH   3  10
HETATM   10  C8  UNL     1     -40.679  13.001   5.907  1.00 20.00     0.033 C 
BRANCH  10  11
HETATM   11  C9  UNL     1     -39.786  11.777   5.740  1.00 20.00    -0.002 C 
HETATM   12  C7  UNL     1     -39.160  11.736   4.355  1.00 20.00     0.005 C 
ENDBRANCH  10  11
ENDBRANCH   3  10
TORSDOF 2
ENDMDL
MODEL 9
REMARK VINA RESULT:      -3.6     11.341     11.819
REMARK  2 active torsions:
REMARK  status: ('A' for Active; 'I' for Inactive)
REMARK    1  A    between atoms: C3_3  and  C8_8 
REMARK    2  A    between atoms: C8_8  and  C9_9 
ROOT
HETATM    1  C1  UNL     1     -31.792  18.459  -1.119  1.00 20.00     0.302 C 
HETATM    2  C2  UNL     1     -32.473  18.536   1.232  1.00 20.00     0.244 C 
HETATM    3  C3  UNL     1     -33.107  17.692  -1.233  1.00 20.00     0.150 C 
HETATM    4  C4  UNL     1     -33.748  19.126   0.599  1.00 20.00     0.150 C 
HETATM    5  C5  UNL     1     -32.028  19.261   2.499  1.00 20.00     0.045 C 
HETATM    6  C6  UNL     1     -34.940  19.157   1.551  1.00 20.00     0.042 C 
HETATM    7  N10 UNL     1     -31.356  18.586   0.272  1.00 20.00     0.092 N 
HETATM    8  O11 UNL     1     -34.165  18.365  -0.545  1.00 20.00    -0.377 OA
HETATM    9  H30 UNL     1     -30.686  17.830   0.486  1.00 20.00     0.316 HD
ENDROOT
BRANCH   3  10
HETATM   10  C8  UNL     1     -33.533  17.532  -2.686  1.00 20.00     0.033 C 
BRANCH  10  11
HETATM   11  C9  UNL     1     -33.437  16.078  -3.132  1.00 20.00    -0.002 C 
HETATM   12  C7  UNL     1     -33.956  15.900  -4.550  1.00 20.00     0.005 C 
ENDBRANCH  10  11
ENDBRANCH   3  10
TORSDOF 2
ENDMDL
