MODEL 1
REMARK VINA RESULT:      -3.3      0.000      0.000
REMARK  4 active torsions:
REMARK  status: ('A' for Active; 'I' for Inactive)
REMARK    1  A    between atoms: C5_5  and  C8_8 
REMARK    2  A    between atoms: C6_6  and  C8_8 
REMARK    3  A    between atoms: C7_7  and  C8_8 
REMARK    4  A    between atoms: C7_7  and  S10_10 
ROOT
HETATM    1  C1  UNL     1     -42.748  12.439   7.242  1.00 20.00     0.074 C 
HETATM    2  C7  UNL     1     -42.096  13.092   6.089  1.00 20.00     0.157 C 
HETATM    3  N9  UNL     1     -43.258  11.919   8.145  1.00 20.00    -0.196 NA
ENDROOT
BRANCH   2   4
HETATM    4  C8  UNL     1     -40.620  13.478   6.413  1.00 20.00     0.012 C 
BRANCH   4   5
HETATM    5  C5  UNL     1     -39.631  12.300   6.197  1.00 20.00     0.002 C 
HETATM    6  C2  UNL     1     -39.503  11.870   4.740  1.00 20.00     0.005 C 
ENDBRANCH   4   5
BRANCH   4   7
HETATM    7  C6  UNL     1     -40.442  14.078   7.831  1.00 20.00     0.002 C 
HETATM    8  C3  UNL     1     -40.370  15.599   7.866  1.00 20.00     0.005 C 
ENDBRANCH   4   7
ENDBRANCH   2   4
BRANCH   2   9
HETATM    9  S10 UNL     1     -43.119  14.486   5.484  1.00 20.00    -0.154 SA
HETATM   10  C4  UNL     1     -42.344  14.674   3.864  1.00 20.00     0.091 C 
ENDBRANCH   2   9
TORSDOF 4
ENDMDL
MODEL 2
REMARK VINA RESULT:      -3.3     12.421     13.435
REMARK  4 active torsions:
REMARK  status: ('A' for Active; 'I' for Inactive)
REMARK    1  A    between atoms: C5_5  and  C8_8 
REMARK    2  A    between atoms: C6_6  and  C8_8 
REMARK    3  A    between atoms: C7_7  and  C8_8 
REMARK    4  A    between atoms: C7_7  and  S10_10 
ROOT
HETATM    1  C1  UNL     1     -35.076  14.071  -4.718  1.00 20.00     0.074 C 
HETATM    2  C7  UNL     1     -34.166  15.158  -5.134  1.00 20.00     0.157 C 
HETATM    3  N9  UNL     1     -35.784  13.214  -4.388  1.00 20.00    -0.196 NA
ENDROOT
BRANCH   2   4
HETATM    4  C8  UNL     1     -34.245  16.371  -4.156  1.00 20.00     0.012 C 
BRANCH   4   5
HETATM    5  C5  UNL     1     -34.133  17.738  -4.885  1.00 20.00     0.002 C 
HETATM    6  C2  UNL     1     -35.349  18.635  -4.689  1.00 20.00     0.005 C 
ENDBRANCH   4   5
BRANCH   4   7
HETATM    7  C6  UNL     1     -33.216  16.291  -2.999  1.00 20.00     0.002 C 
HETATM    8  C3  UNL     1     -33.587  17.111  -1.770  1.00 20.00     0.005 C 
ENDBRANCH   4   7
ENDBRANCH   2   4
BRANCH   2   9
HETATM    9  S10 UNL     1     -34.454  15.593  -6.890  1.00 20.00    -0.154 SA
HETATM   10  C4  UNL     1     -36.257  15.659  -6.835  1.00 20.00     0.091 C 
ENDBRANCH   2   9
TORSDOF 4
ENDMDL
MODEL 3
REMARK VINA RESULT:      -3.2     12.448     13.130
REMARK  4 active torsions:
REMARK  status: ('A' for Active; 'I' for Inactive)
REMARK    1  A    between atoms: C5_5  and  C8_8 
REMARK    2  A    between atoms: C6_6  and  C8_8 
REMARK    3  A    between atoms: C7_7  and  C8_8 
REMARK    4  A    between atoms: C7_7  and  S10_10 
ROOT
HETATM    1  C1  UNL     1     -35.529  18.272  -3.337  1.00 20.00     0.074 C 
HETATM    2  C7  UNL     1     -34.707  17.419  -4.219  1.00 20.00     0.157 C 
HETATM    3  N9  UNL     1     -36.179  18.935  -2.643  1.00 20.00    -0.196 NA
ENDROOT
BRANCH   2   4
HETATM    4  C8  UNL     1     -33.421  16.921  -3.492  1.00 20.00     0.012 C 
BRANCH   4   5
HETATM    5  C5  UNL     1     -32.985  15.502  -3.947  1.00 20.00     0.002 C 
HETATM    6  C2  UNL     1     -34.152  14.541  -4.148  1.00 20.00     0.005 C 
ENDBRANCH   4   5
BRANCH   4   7
HETATM    7  C6  UNL     1     -33.529  16.982  -1.946  1.00 20.00     0.002 C 
HETATM    8  C3  UNL     1     -32.551  17.944  -1.284  1.00 20.00     0.005 C 
ENDBRANCH   4   7
ENDBRANCH   2   4
BRANCH   2   9
HETATM    9  S10 UNL     1     -34.386  18.270  -5.810  1.00 20.00    -0.154 SA
HETATM   10  C4  UNL     1     -34.916  16.941  -6.910  1.00 20.00     0.091 C 
ENDBRANCH   2   9
TORSDOF 4
ENDMDL
MODEL 4
REMARK VINA RESULT:      -3.2      1.535      2.590
REMARK  4 active torsions:
REMARK  status: ('A' for Active; 'I' for Inactive)
REMARK    1  A    between atoms: C5_5  and  C8_8 
REMARK    2  A    between atoms: C6_6  and  C8_8 
REMARK    3  A    between atoms: C7_7  and  C8_8 
REMARK    4  A    between atoms: C7_7  and  S10_10 
ROOT
HETATM    1  C1  UNL     1     -42.694  12.900   8.196  1.00 20.00     0.074 C 
HETATM    2  C7  UNL     1     -41.820  13.744   7.358  1.00 20.00     0.157 C 
HETATM    3  N9  UNL     1     -43.387  12.240   8.852  1.00 20.00    -0.196 NA
ENDROOT
BRANCH   2   4
HETATM    4  C8  UNL     1     -41.350  12.984   6.080  1.00 20.00     0.012 C 
BRANCH   4   5
HETATM    5  C5  UNL     1     -39.883  12.483   6.185  1.00 20.00     0.002 C 
HETATM    6  C2  UNL     1     -39.366  11.837   4.905  1.00 20.00     0.005 C 
ENDBRANCH   4   5
BRANCH   4   7
HETATM    7  C6  UNL     1     -41.549  13.797   4.776  1.00 20.00     0.002 C 
HETATM    8  C3  UNL     1     -42.729  14.761   4.809  1.00 20.00     0.005 C 
ENDBRANCH   4   7
ENDBRANCH   2   4
BRANCH   2   9
HETATM    9  S10 UNL     1     -40.453  14.440   8.360  1.00 20.00    -0.154 SA
HETATM   10  C4  UNL     1     -40.553  16.141   7.764  1.00 20.00     0.091 C 
ENDBRANCH   2   9
TORSDOF 4
ENDMDL
MODEL 5
REMARK VINA RESULT:      -3.2      1.506      3.246
REMARK  4 active torsions:
REMARK  status: ('A' for Active; 'I' for Inactive)
REMARK    1  A    between atoms: C5_5  and  C8_8 
REMARK    2  A    between atoms: C6_6  and  C8_8 
REMARK    3  A    between atoms: C7_7  and  C8_8 
REMARK    4  A    between atoms: C7_7  and  S10_10 
ROOT
HETATM    1  C1  UNL     1     -42.534  12.810   7.610  1.00 20.00     0.074 C 
HETATM    2  C7  UNL     1     -41.638  13.921   7.234  1.00 20.00     0.157 C 
HETATM    3  N9  UNL     1     -43.244  11.940   7.903  1.00 20.00    -0.196 NA
ENDROOT
BRANCH   2   4
HETATM    4  C8  UNL     1     -40.833  13.589   5.939  1.00 20.00     0.012 C 
BRANCH   4   5
HETATM    5  C5  UNL     1     -41.659  13.819   4.644  1.00 20.00     0.002 C 
HETATM    6  C2  UNL     1     -42.523  15.074   4.687  1.00 20.00     0.005 C 
ENDBRANCH   4   5
BRANCH   4   7
HETATM    7  C6  UNL     1     -40.226  12.163   5.945  1.00 20.00     0.002 C 
HETATM    8  C3  UNL     1     -39.402  11.825   4.709  1.00 20.00     0.005 C 
ENDBRANCH   4   7
ENDBRANCH   2   4
BRANCH   2   9
HETATM    9  S10 UNL     1     -40.595  14.409   8.659  1.00 20.00    -0.154 SA
HETATM   10  C4  UNL     1     -40.536  16.182   8.324  1.00 20.00     0.091 C 
ENDBRANCH   2   9
TORSDOF 4
ENDMDL
MODEL 6
REMARK VINA RESULT:      -3.2     12.717     13.684
REMARK  4 active torsions:
REMARK  status: ('A' for Active; 'I' for Inactive)
REMARK    1  A    between atoms: C5_5  and  C8_8 
REMARK    2  A    between atoms: C6_6  and  C8_8 
REMARK    3  A    between atoms: C7_7  and  C8_8 
REMARK    4  A    between atoms: C7_7  and  S10_10 
ROOT
HETATM    1  C1  UNL     1     -35.337  14.079  -5.029  1.00 20.00     0.074 C 
HETATM    2  C7  UNL     1     -34.562  15.111  -5.746  1.00 20.00     0.157 C 
HETATM    3  N9  UNL     1     -35.939  13.265  -4.464  1.00 20.00    -0.196 NA
ENDROOT
BRANCH   2   4
HETATM    4  C8  UNL     1     -34.181  16.294  -4.805  1.00 20.00     0.012 C 
BRANCH   4   5
HETATM    5  C5  UNL     1     -33.423  15.828  -3.532  1.00 20.00     0.002 C 
HETATM    6  C2  UNL     1     -33.471  16.836  -2.389  1.00 20.00     0.005 C 
ENDBRANCH   4   5
BRANCH   4   7
HETATM    7  C6  UNL     1     -35.392  17.181  -4.415  1.00 20.00     0.002 C 
HETATM    8  C3  UNL     1     -35.317  18.611  -4.935  1.00 20.00     0.005 C 
ENDBRANCH   4   7
ENDBRANCH   2   4
BRANCH   2   9
HETATM    9  S10 UNL     1     -35.440  15.621  -7.271  1.00 20.00    -0.154 SA
HETATM   10  C4  UNL     1     -34.179  16.740  -7.918  1.00 20.00     0.091 C 
ENDBRANCH   2   9
TORSDOF 4
ENDMDL
MODEL 7
REMARK VINA RESULT:      -3.1     12.806     13.784
REMARK  4 active torsions:
REMARK  status: ('A' for Active; 'I' for Inactive)
REMARK    1  A    between atoms: C5_5  and  C8_8 
REMARK    2  A    between atoms: C6_6  and  C8_8 
REMARK    3  A    between atoms: C7_7  and  C8_8 
REMARK    4  A    between atoms: C7_7  and  S10_10 
ROOT
HETATM    1  C1  UNL     1     -35.405  15.331  -6.514  1.00 20.00     0.074 C 
HETATM    2  C7  UNL     1     -34.672  16.410  -5.823  1.00 20.00     0.157 C 
HETATM    3  N9  UNL     1     -35.974  14.481  -7.060  1.00 20.00    -0.196 NA
ENDROOT
BRANCH   2   4
HETATM    4  C8  UNL     1     -34.416  16.056  -4.326  1.00 20.00     0.012 C 
BRANCH   4   5
HETATM    5  C5  UNL     1     -33.470  17.067  -3.623  1.00 20.00     0.002 C 
HETATM    6  C2  UNL     1     -33.477  16.954  -2.103  1.00 20.00     0.005 C 
ENDBRANCH   4   5
BRANCH   4   7
HETATM    7  C6  UNL     1     -33.905  14.607  -4.119  1.00 20.00     0.002 C 
HETATM    8  C3  UNL     1     -32.423  14.414  -4.413  1.00 20.00     0.005 C 
ENDBRANCH   4   7
ENDBRANCH   2   4
BRANCH   2   9
HETATM    9  S10 UNL     1     -35.513  18.018  -6.079  1.00 20.00    -0.154 SA
HETATM   10  C4  UNL     1     -36.986  17.684  -5.090  1.00 20.00     0.091 C 
ENDBRANCH   2   9
TORSDOF 4
ENDMDL
MODEL 8
REMARK VINA RESULT:      -3.0      2.260      3.940
REMARK  4 active torsions:
REMARK  status: ('A' for Active; 'I' for Inactive)
REMARK    1  A    between atoms: C5_5  and  C8_8 
REMARK    2  A    between atoms: C6_6  and  C8_8 
REMARK    3  A    between atoms: C7_7  and  C8_8 
REMARK    4  A    between atoms: C7_7  and  S10_10 
ROOT
HETATM    1  C1  UNL     1     -40.559  15.667   7.688  1.00 20.00     0.074 C 
HETATM    2  C7  UNL     1     -40.722  14.200   7.673  1.00 20.00     0.157 C 
HETATM    3  N9  UNL     1     -40.424  16.819   7.703  1.00 20.00    -0.196 NA
ENDROOT
BRANCH   2   4
HETATM    4  C8  UNL     1     -40.533  13.621   6.237  1.00 20.00     0.012 C 
BRANCH   4   5
HETATM    5  C5  UNL     1     -41.880  13.404   5.496  1.00 20.00     0.002 C 
HETATM    6  C2  UNL     1     -42.177  14.467   4.445  1.00 20.00     0.005 C 
ENDBRANCH   4   5
BRANCH   4   7
HETATM    7  C6  UNL     1     -39.686  12.323   6.207  1.00 20.00     0.002 C 
HETATM    8  C3  UNL     1     -39.339  11.830   4.807  1.00 20.00     0.005 C 
ENDBRANCH   4   7
ENDBRANCH   2   4
BRANCH   2   9
HETATM    9  S10 UNL     1     -42.302  13.725   8.469  1.00 20.00    -0.154 SA
HETATM   10  C4  UNL     1     -41.875  14.193  10.160  1.00 20.00     0.091 C 
ENDBRANCH   2   9
TORSDOF 4
ENDMDL
MODEL 9
REMARK VINA RESULT:      -3.0      2.294      3.762
REMARK  4 active torsions:
REMARK  status: ('A' for Active; 'I' for Inactive)
REMARK    1  A    between atoms: C5_5  and  C8_8 
REMARK    2  A    between atoms: C6_6  and  C8_8 
REMARK    3  A    between atoms: C7_7  and  C8_8 
REMARK    4  A    between atoms: C7_7  and  S10_10 
ROOT
HETATM    1  C1  UNL     1     -41.556  13.705   4.749  1.00 20.00     0.074 C 
HETATM    2  C7  UNL     1     -41.287  12.992   6.014  1.00 20.00     0.157 C 
HETATM    3  N9  UNL     1     -41.775  14.260   3.754  1.00 20.00    -0.196 NA
ENDROOT
BRANCH   2   4
HETATM    4  C8  UNL     1     -41.783  13.810   7.245  1.00 20.00     0.012 C 
BRANCH   4   5
HETATM    5  C5  UNL     1     -40.629  14.218   8.200  1.00 20.00     0.002 C 
HETATM    6  C2  UNL     1     -40.366  15.719   8.234  1.00 20.00     0.005 C 
ENDBRANCH   4   5
BRANCH   4   7
HETATM    7  C6  UNL     1     -42.911  13.100   8.037  1.00 20.00     0.002 C 
HETATM    8  C3  UNL     1     -43.410  11.809   7.400  1.00 20.00     0.005 C 
ENDBRANCH   4   7
ENDBRANCH   2   4
BRANCH   2   9
HETATM    9  S10 UNL     1     -39.525  12.499   6.104  1.00 20.00    -0.154 SA
HETATM   10  C4  UNL     1     -39.412  11.694   4.492  1.00 20.00     0.091 C 
ENDBRANCH   2   9
TORSDOF 4
ENDMDL
