MODEL 1
REMARK VINA RESULT:      -4.1      0.000      0.000
REMARK  3 active torsions:
REMARK  status: ('A' for Active; 'I' for Inactive)
REMARK    1  A    between atoms: C4_4  and  C7_7 
REMARK    2  A    between atoms: C4_4  and  C9_9 
REMARK    3  A    between atoms: C8_8  and  C9_9 
ROOT
HETATM    1  C1  UNL     1     -32.948   8.676   5.340  1.00 20.00     0.002 C 
HETATM    2  C2  UNL     1     -33.846   8.535   4.096  1.00 20.00     0.011 C 
HETATM    3  C3  UNL     1     -31.770   8.167   4.486  1.00 20.00     0.011 C 
HETATM    4  C4  UNL     1     -32.810   7.524   3.522  1.00 20.00    -0.025 C 
ENDROOT
BRANCH   4   5
HETATM    5  C7  UNL     1     -32.496   7.728   2.044  1.00 20.00     0.124 C 
HETATM    6 CL10 UNL     1     -32.830   9.404   1.572  1.00 20.00    -0.130 Cl
ENDBRANCH   4   5
BRANCH   4   7
HETATM    7  C9  UNL     1     -33.127   6.059   3.829  1.00 20.00    -0.010 C 
HETATM    8  C6  UNL     1     -32.889   5.207   2.579  1.00 20.00     0.011 C 
BRANCH   7   9
HETATM    9  C8  UNL     1     -34.569   5.861   4.325  1.00 20.00     0.000 C 
HETATM   10  C5  UNL     1     -34.655   5.312   5.743  1.00 20.00     0.005 C 
ENDBRANCH   7   9
ENDBRANCH   4   7
TORSDOF 3
ENDMDL
MODEL 2
REMARK VINA RESULT:      -4.0      1.496      2.884
REMARK  3 active torsions:
REMARK  status: ('A' for Active; 'I' for Inactive)
REMARK    1  A    between atoms: C4_4  and  C7_7 
REMARK    2  A    between atoms: C4_4  and  C9_9 
REMARK    3  A    between atoms: C8_8  and  C9_9 
ROOT
HETATM    1  C1  UNL     1     -34.756   5.466   6.126  1.00 20.00     0.002 C 
HETATM    2  C2  UNL     1     -35.243   6.261   4.899  1.00 20.00     0.011 C 
HETATM    3  C3  UNL     1     -33.662   6.534   6.321  1.00 20.00     0.011 C 
HETATM    4  C4  UNL     1     -33.831   6.913   4.821  1.00 20.00    -0.025 C 
ENDROOT
BRANCH   4   5
HETATM    5  C7  UNL     1     -33.854   8.415   4.558  1.00 20.00     0.124 C 
HETATM    6 CL10 UNL     1     -32.358   9.162   5.147  1.00 20.00    -0.130 Cl
ENDBRANCH   4   5
BRANCH   4   7
HETATM    7  C9  UNL     1     -32.860   6.195   3.880  1.00 20.00    -0.010 C 
HETATM    8  C6  UNL     1     -32.287   7.193   2.870  1.00 20.00     0.011 C 
BRANCH   7   9
HETATM    9  C8  UNL     1     -33.523   5.024   3.134  1.00 20.00     0.000 C 
HETATM   10  C5  UNL     1     -32.845   4.684   1.814  1.00 20.00     0.005 C 
ENDBRANCH   7   9
ENDBRANCH   4   7
TORSDOF 3
ENDMDL
MODEL 3
REMARK VINA RESULT:      -3.7      9.904     11.224
REMARK  3 active torsions:
REMARK  status: ('A' for Active; 'I' for Inactive)
REMARK    1  A    between atoms: C4_4  and  C7_7 
REMARK    2  A    between atoms: C4_4  and  C9_9 
REMARK    3  A    between atoms: C8_8  and  C9_9 
ROOT
HETATM    1  C1  UNL     1     -40.292  15.455   8.279  1.00 20.00     0.002 C 
HETATM    2  C2  UNL     1     -40.890  14.041   8.410  1.00 20.00     0.011 C 
HETATM    3  C3  UNL     1     -41.475  15.814   7.357  1.00 20.00     0.011 C 
HETATM    4  C4  UNL     1     -41.658  14.293   7.080  1.00 20.00    -0.025 C 
ENDROOT
BRANCH   4   5
HETATM    5  C7  UNL     1     -43.110  13.828   7.103  1.00 20.00     0.124 C 
HETATM    6 CL10 UNL     1     -43.193  12.100   7.491  1.00 20.00    -0.130 Cl
ENDBRANCH   4   5
BRANCH   4   7
HETATM    7  C9  UNL     1     -40.931  13.792   5.830  1.00 20.00    -0.010 C 
HETATM    8  C6  UNL     1     -41.839  13.945   4.608  1.00 20.00     0.011 C 
BRANCH   7   9
HETATM    9  C8  UNL     1     -40.480  12.327   5.961  1.00 20.00     0.000 C 
HETATM   10  C5  UNL     1     -39.029  12.099   5.559  1.00 20.00     0.005 C 
ENDBRANCH   7   9
ENDBRANCH   4   7
TORSDOF 3
ENDMDL
MODEL 4
REMARK VINA RESULT:      -3.6      2.398      3.352
REMARK  3 active torsions:
REMARK  status: ('A' for Active; 'I' for Inactive)
REMARK    1  A    between atoms: C4_4  and  C7_7 
REMARK    2  A    between atoms: C4_4  and  C9_9 
REMARK    3  A    between atoms: C8_8  and  C9_9 
ROOT
HETATM    1  C1  UNL     1     -32.680   8.758   3.789  1.00 20.00     0.002 C 
HETATM    2  C2  UNL     1     -32.265   7.567   4.673  1.00 20.00     0.011 C 
HETATM    3  C3  UNL     1     -34.034   8.767   4.525  1.00 20.00     0.011 C 
HETATM    4  C4  UNL     1     -33.776   7.284   4.920  1.00 20.00    -0.025 C 
ENDROOT
BRANCH   4   5
HETATM    5  C7  UNL     1     -34.118   6.957   6.369  1.00 20.00     0.124 C 
HETATM    6 CL10 UNL     1     -33.815   5.242   6.699  1.00 20.00    -0.130 Cl
ENDBRANCH   4   5
BRANCH   4   7
HETATM    7  C9  UNL     1     -34.388   6.264   3.957  1.00 20.00    -0.010 C 
HETATM    8  C6  UNL     1     -35.725   5.767   4.514  1.00 20.00     0.011 C 
BRANCH   7   9
HETATM    9  C8  UNL     1     -33.457   5.067   3.699  1.00 20.00     0.000 C 
HETATM   10  C5  UNL     1     -32.891   5.030   2.286  1.00 20.00     0.005 C 
ENDBRANCH   7   9
ENDBRANCH   4   7
TORSDOF 3
ENDMDL
MODEL 5
REMARK VINA RESULT:      -3.6      9.138     10.504
REMARK  3 active torsions:
REMARK  status: ('A' for Active; 'I' for Inactive)
REMARK    1  A    between atoms: C4_4  and  C7_7 
REMARK    2  A    between atoms: C4_4  and  C9_9 
REMARK    3  A    between atoms: C8_8  and  C9_9 
ROOT
HETATM    1  C1  UNL     1     -43.366  13.000   6.390  1.00 20.00     0.002 C 
HETATM    2  C2  UNL     1     -42.407  13.980   5.688  1.00 20.00     0.011 C 
HETATM    3  C3  UNL     1     -42.374  12.953   7.569  1.00 20.00     0.011 C 
HETATM    4  C4  UNL     1     -41.263  13.433   6.590  1.00 20.00    -0.025 C 
ENDROOT
BRANCH   4   5
HETATM    5  C7  UNL     1     -40.353  14.513   7.165  1.00 20.00     0.124 C 
HETATM    6 CL10 UNL     1     -40.322  14.411   8.934  1.00 20.00    -0.130 Cl
ENDBRANCH   4   5
BRANCH   4   7
HETATM    7  C9  UNL     1     -40.453  12.299   5.957  1.00 20.00    -0.010 C 
HETATM    8  C6  UNL     1     -39.175  12.063   6.767  1.00 20.00     0.011 C 
BRANCH   7   9
HETATM    9  C8  UNL     1     -40.092  12.584   4.489  1.00 20.00     0.000 C 
HETATM   10  C5  UNL     1     -39.002  11.672   3.943  1.00 20.00     0.005 C 
ENDBRANCH   7   9
ENDBRANCH   4   7
TORSDOF 3
ENDMDL
MODEL 6
REMARK VINA RESULT:      -3.5      1.841      3.723
REMARK  3 active torsions:
REMARK  status: ('A' for Active; 'I' for Inactive)
REMARK    1  A    between atoms: C4_4  and  C7_7 
REMARK    2  A    between atoms: C4_4  and  C9_9 
REMARK    3  A    between atoms: C8_8  and  C9_9 
ROOT
HETATM    1  C1  UNL     1     -34.822   5.338   6.234  1.00 20.00     0.002 C 
HETATM    2  C2  UNL     1     -33.739   4.772   5.297  1.00 20.00     0.011 C 
HETATM    3  C3  UNL     1     -35.339   6.176   5.048  1.00 20.00     0.011 C 
HETATM    4  C4  UNL     1     -33.937   6.022   4.390  1.00 20.00    -0.025 C 
ENDROOT
BRANCH   4   5
HETATM    5  C7  UNL     1     -33.981   5.707   2.899  1.00 20.00     0.124 C 
HETATM    6 CL10 UNL     1     -32.661   4.605   2.466  1.00 20.00    -0.130 Cl
ENDBRANCH   4   5
BRANCH   4   7
HETATM    7  C9  UNL     1     -32.974   7.173   4.689  1.00 20.00    -0.010 C 
HETATM    8  C6  UNL     1     -33.750   8.357   5.271  1.00 20.00     0.011 C 
BRANCH   7   9
HETATM    9  C8  UNL     1     -32.195   7.626   3.442  1.00 20.00     0.000 C 
HETATM   10  C5  UNL     1     -32.552   9.031   2.979  1.00 20.00     0.005 C 
ENDBRANCH   7   9
ENDBRANCH   4   7
TORSDOF 3
ENDMDL
MODEL 7
REMARK VINA RESULT:      -3.4     11.468     13.188
REMARK  3 active torsions:
REMARK  status: ('A' for Active; 'I' for Inactive)
REMARK    1  A    between atoms: C4_4  and  C7_7 
REMARK    2  A    between atoms: C4_4  and  C9_9 
REMARK    3  A    between atoms: C8_8  and  C9_9 
ROOT
HETATM    1  C1  UNL     1     -33.994  17.026  -7.724  1.00 20.00     0.002 C 
HETATM    2  C2  UNL     1     -35.144  17.188  -6.711  1.00 20.00     0.011 C 
HETATM    3  C3  UNL     1     -34.124  15.499  -7.550  1.00 20.00     0.011 C 
HETATM    4  C4  UNL     1     -34.814  15.762  -6.180  1.00 20.00    -0.025 C 
ENDROOT
BRANCH   4   5
HETATM    5  C7  UNL     1     -36.042  14.894  -5.925  1.00 20.00     0.124 C 
HETATM    6 CL10 UNL     1     -37.360  15.877  -5.264  1.00 20.00    -0.130 Cl
ENDBRANCH   4   5
BRANCH   4   7
HETATM    7  C9  UNL     1     -33.859  15.743  -4.984  1.00 20.00    -0.010 C 
HETATM    8  C6  UNL     1     -33.970  14.401  -4.255  1.00 20.00     0.011 C 
BRANCH   7   9
HETATM    9  C8  UNL     1     -34.130  16.893  -3.999  1.00 20.00     0.000 C 
HETATM   10  C5  UNL     1     -33.441  16.715  -2.652  1.00 20.00     0.005 C 
ENDBRANCH   7   9
ENDBRANCH   4   7
TORSDOF 3
ENDMDL
MODEL 8
REMARK VINA RESULT:      -3.3     11.395     12.989
REMARK  3 active torsions:
REMARK  status: ('A' for Active; 'I' for Inactive)
REMARK    1  A    between atoms: C4_4  and  C7_7 
REMARK    2  A    between atoms: C4_4  and  C9_9 
REMARK    3  A    between atoms: C8_8  and  C9_9 
ROOT
HETATM    1  C1  UNL     1     -35.079  14.098  -4.626  1.00 20.00     0.002 C 
HETATM    2  C2  UNL     1     -33.828  14.829  -5.152  1.00 20.00     0.011 C 
HETATM    3  C3  UNL     1     -35.937  15.088  -5.440  1.00 20.00     0.011 C 
HETATM    4  C4  UNL     1     -34.728  16.069  -5.431  1.00 20.00    -0.025 C 
ENDROOT
BRANCH   4   5
HETATM    5  C7  UNL     1     -34.462  16.739  -6.775  1.00 20.00     0.124 C 
HETATM    6 CL10 UNL     1     -33.777  15.570  -7.918  1.00 20.00    -0.130 Cl
ENDBRANCH   4   5
BRANCH   4   7
HETATM    7  C9  UNL     1     -34.759  17.091  -4.293  1.00 20.00    -0.010 C 
HETATM    8  C6  UNL     1     -35.197  18.454  -4.834  1.00 20.00     0.011 C 
BRANCH   7   9
HETATM    9  C8  UNL     1     -33.398  17.225  -3.588  1.00 20.00     0.000 C 
HETATM   10  C5  UNL     1     -33.447  16.894  -2.102  1.00 20.00     0.005 C 
ENDBRANCH   7   9
ENDBRANCH   4   7
TORSDOF 3
ENDMDL
MODEL 9
REMARK VINA RESULT:      -3.3     10.005     11.541
REMARK  3 active torsions:
REMARK  status: ('A' for Active; 'I' for Inactive)
REMARK    1  A    between atoms: C4_4  and  C7_7 
REMARK    2  A    between atoms: C4_4  and  C9_9 
REMARK    3  A    between atoms: C8_8  and  C9_9 
ROOT
HETATM    1  C1  UNL     1     -40.146  12.599   4.875  1.00 20.00     0.002 C 
HETATM    2  C2  UNL     1     -41.283  13.629   4.732  1.00 20.00     0.011 C 
HETATM    3  C3  UNL     1     -40.761  12.183   6.226  1.00 20.00     0.011 C 
HETATM    4  C4  UNL     1     -41.467  13.570   6.277  1.00 20.00    -0.025 C 
ENDROOT
BRANCH   4   5
HETATM    5  C7  UNL     1     -42.923  13.510   6.728  1.00 20.00     0.124 C 
HETATM    6 CL10 UNL     1     -43.250  11.967   7.538  1.00 20.00    -0.130 Cl
ENDBRANCH   4   5
BRANCH   4   7
HETATM    7  C9  UNL     1     -40.689  14.642   7.043  1.00 20.00    -0.010 C 
HETATM    8  C6  UNL     1     -40.395  14.151   8.463  1.00 20.00     0.011 C 
BRANCH   7   9
HETATM    9  C8  UNL     1     -41.440  15.983   7.102  1.00 20.00     0.000 C 
HETATM   10  C5  UNL     1     -40.789  17.005   8.025  1.00 20.00     0.005 C 
ENDBRANCH   7   9
ENDBRANCH   4   7
TORSDOF 3
ENDMDL
