MODEL 1
REMARK VINA RESULT:      -3.9      0.000      0.000
REMARK  5 active torsions:
REMARK  status: ('A' for Active; 'I' for Inactive)
REMARK    1  A    between atoms: C5_5  and  C7_7 
REMARK    2  A    between atoms: C6_6  and  C9_9 
REMARK    3  A    between atoms: C7_7  and  C10_10 
REMARK    4  A    between atoms: C8_8  and  C10_10 
REMARK    5  A    between atoms: C9_9  and  C10_10 
ROOT
HETATM    1  C4  UNL     1     -32.494  19.045  -2.229  1.00 20.00     0.016 C 
HETATM    2  C10 UNL     1     -33.459  18.306  -1.269  1.00 20.00    -0.028 C 
ENDROOT
BRANCH   2   3
HETATM    3  C7  UNL     1     -33.607  16.842  -1.810  1.00 20.00     0.010 C 
BRANCH   3   4
HETATM    4  C5  UNL     1     -33.049  16.596  -3.217  1.00 20.00    -0.004 C 
HETATM    5  C1  UNL     1     -33.627  15.325  -3.822  1.00 20.00     0.005 C 
ENDBRANCH   3   4
ENDBRANCH   2   3
BRANCH   2   6
HETATM    6  C8  UNL     1     -34.838  19.039  -1.281  1.00 20.00     0.124 C 
HETATM    7 CL11 UNL     1     -35.841  18.732  -2.727  1.00 20.00    -0.130 Cl
ENDBRANCH   2   6
BRANCH   2   8
HETATM    8  C9  UNL     1     -32.886  18.323   0.218  1.00 20.00    -0.010 C 
HETATM    9  C3  UNL     1     -33.684  19.233   1.172  1.00 20.00     0.011 C 
BRANCH   8  10
HETATM   10  C6  UNL     1     -31.378  18.688   0.296  1.00 20.00     0.000 C 
HETATM   11  C2  UNL     1     -30.705  18.269   1.600  1.00 20.00     0.005 C 
ENDBRANCH   8  10
ENDBRANCH   2   8
TORSDOF 5
ENDMDL
MODEL 2
REMARK VINA RESULT:      -3.8     11.158     12.159
REMARK  5 active torsions:
REMARK  status: ('A' for Active; 'I' for Inactive)
REMARK    1  A    between atoms: C5_5  and  C7_7 
REMARK    2  A    between atoms: C6_6  and  C9_9 
REMARK    3  A    between atoms: C7_7  and  C10_10 
REMARK    4  A    between atoms: C8_8  and  C10_10 
REMARK    5  A    between atoms: C9_9  and  C10_10 
ROOT
HETATM    1  C4  UNL     1     -41.949  14.020   4.839  1.00 20.00     0.016 C 
HETATM    2  C10 UNL     1     -41.504  13.654   6.276  1.00 20.00    -0.028 C 
ENDROOT
BRANCH   2   3
HETATM    3  C7  UNL     1     -40.014  13.176   6.184  1.00 20.00     0.010 C 
BRANCH   3   4
HETATM    4  C5  UNL     1     -39.809  11.729   5.721  1.00 20.00    -0.004 C 
HETATM    5  C1  UNL     1     -39.129  11.680   4.360  1.00 20.00     0.005 C 
ENDBRANCH   3   4
ENDBRANCH   2   3
BRANCH   2   6
HETATM    6  C8  UNL     1     -42.419  12.505   6.808  1.00 20.00     0.124 C 
HETATM    7 CL11 UNL     1     -43.153  12.808   8.409  1.00 20.00    -0.130 Cl
ENDBRANCH   2   6
BRANCH   2   8
HETATM    8  C9  UNL     1     -41.654  14.913   7.243  1.00 20.00    -0.010 C 
HETATM    9  C3  UNL     1     -42.314  16.130   6.566  1.00 20.00     0.011 C 
BRANCH   8  10
HETATM   10  C6  UNL     1     -40.317  15.349   7.902  1.00 20.00     0.000 C 
HETATM   11  C2  UNL     1     -40.239  15.056   9.398  1.00 20.00     0.005 C 
ENDBRANCH   8  10
ENDBRANCH   2   8
TORSDOF 5
ENDMDL
MODEL 3
REMARK VINA RESULT:      -3.5     11.026     12.263
REMARK  5 active torsions:
REMARK  status: ('A' for Active; 'I' for Inactive)
REMARK    1  A    between atoms: C5_5  and  C7_7 
REMARK    2  A    between atoms: C6_6  and  C9_9 
REMARK    3  A    between atoms: C7_7  and  C10_10 
REMARK    4  A    between atoms: C8_8  and  C10_10 
REMARK    5  A    between atoms: C9_9  and  C10_10 
ROOT
HETATM    1  C4  UNL     1     -42.437  12.318   6.805  1.00 20.00     0.016 C 
HETATM    2  C10 UNL     1     -41.720  13.690   6.761  1.00 20.00    -0.028 C 
ENDROOT
BRANCH   2   3
HETATM    3  C7  UNL     1     -40.251  13.421   6.287  1.00 20.00     0.010 C 
BRANCH   3   4
HETATM    4  C5  UNL     1     -39.903  11.955   6.005  1.00 20.00    -0.004 C 
HETATM    5  C1  UNL     1     -39.386  11.777   4.584  1.00 20.00     0.005 C 
ENDBRANCH   3   4
ENDBRANCH   2   3
BRANCH   2   6
HETATM    6  C8  UNL     1     -41.732  14.309   8.195  1.00 20.00     0.124 C 
HETATM    7 CL11 UNL     1     -40.140  14.863   8.788  1.00 20.00    -0.130 Cl
ENDBRANCH   2   6
BRANCH   2   8
HETATM    8  C9  UNL     1     -42.480  14.683   5.772  1.00 20.00    -0.010 C 
HETATM    9  C3  UNL     1     -42.163  14.428   4.285  1.00 20.00     0.011 C 
BRANCH   8  10
HETATM   10  C6  UNL     1     -42.245  16.183   6.101  1.00 20.00     0.000 C 
HETATM   11  C2  UNL     1     -42.758  17.141   5.029  1.00 20.00     0.005 C 
ENDBRANCH   8  10
ENDBRANCH   2   8
TORSDOF 5
ENDMDL
MODEL 4
REMARK VINA RESULT:      -3.4     10.742     12.200
REMARK  5 active torsions:
REMARK  status: ('A' for Active; 'I' for Inactive)
REMARK    1  A    between atoms: C5_5  and  C7_7 
REMARK    2  A    between atoms: C6_6  and  C9_9 
REMARK    3  A    between atoms: C7_7  and  C10_10 
REMARK    4  A    between atoms: C8_8  and  C10_10 
REMARK    5  A    between atoms: C9_9  and  C10_10 
ROOT
HETATM    1  C4  UNL     1     -42.544  12.509   7.007  1.00 20.00     0.016 C 
HETATM    2  C10 UNL     1     -41.265  13.227   6.510  1.00 20.00    -0.028 C 
ENDROOT
BRANCH   2   3
HETATM    3  C7  UNL     1     -40.648  13.967   7.747  1.00 20.00     0.010 C 
BRANCH   3   4
HETATM    4  C5  UNL     1     -40.371  15.463   7.554  1.00 20.00    -0.004 C 
HETATM    5  C1  UNL     1     -41.233  16.305   8.484  1.00 20.00     0.005 C 
ENDBRANCH   3   4
ENDBRANCH   2   3
BRANCH   2   6
HETATM    6  C8  UNL     1     -41.662  14.250   5.399  1.00 20.00     0.124 C 
HETATM    7 CL11 UNL     1     -43.417  14.378   5.088  1.00 20.00    -0.130 Cl
ENDBRANCH   2   6
BRANCH   2   8
HETATM    8  C9  UNL     1     -40.241  12.175   5.890  1.00 20.00    -0.010 C 
HETATM    9  C3  UNL     1     -38.949  12.016   6.717  1.00 20.00     0.011 C 
BRANCH   8  10
HETATM   10  C6  UNL     1     -39.875  12.468   4.409  1.00 20.00     0.000 C 
HETATM   11  C2  UNL     1     -38.831  11.516   3.828  1.00 20.00     0.005 C 
ENDBRANCH   8  10
ENDBRANCH   2   8
TORSDOF 5
ENDMDL
MODEL 5
REMARK VINA RESULT:      -3.3      2.955      6.039
REMARK  5 active torsions:
REMARK  status: ('A' for Active; 'I' for Inactive)
REMARK    1  A    between atoms: C5_5  and  C7_7 
REMARK    2  A    between atoms: C6_6  and  C9_9 
REMARK    3  A    between atoms: C7_7  and  C10_10 
REMARK    4  A    between atoms: C8_8  and  C10_10 
REMARK    5  A    between atoms: C9_9  and  C10_10 
ROOT
HETATM    1  C4  UNL     1     -36.254  17.354  -4.950  1.00 20.00     0.016 C 
HETATM    2  C10 UNL     1     -34.801  17.127  -5.436  1.00 20.00    -0.028 C 
ENDROOT
BRANCH   2   3
HETATM    3  C7  UNL     1     -33.855  17.582  -4.271  1.00 20.00     0.010 C 
BRANCH   3   4
HETATM    4  C5  UNL     1     -33.386  16.470  -3.325  1.00 20.00    -0.004 C 
HETATM    5  C1  UNL     1     -33.504  16.901  -1.871  1.00 20.00     0.005 C 
ENDBRANCH   3   4
ENDBRANCH   2   3
BRANCH   2   6
HETATM    6  C8  UNL     1     -34.557  17.991  -6.713  1.00 20.00     0.124 C 
HETATM    7 CL11 UNL     1     -36.037  18.459  -7.598  1.00 20.00    -0.130 Cl
ENDBRANCH   2   6
BRANCH   2   8
HETATM    8  C9  UNL     1     -34.571  15.594  -5.808  1.00 20.00    -0.010 C 
HETATM    9  C3  UNL     1     -33.938  15.389  -7.198  1.00 20.00     0.011 C 
BRANCH   8  10
HETATM   10  C6  UNL     1     -35.858  14.731  -5.693  1.00 20.00     0.000 C 
HETATM   11  C2  UNL     1     -35.797  13.669  -4.597  1.00 20.00     0.005 C 
ENDBRANCH   8  10
ENDBRANCH   2   8
TORSDOF 5
ENDMDL
MODEL 6
REMARK VINA RESULT:      -3.3      2.241      3.616
REMARK  5 active torsions:
REMARK  status: ('A' for Active; 'I' for Inactive)
REMARK    1  A    between atoms: C5_5  and  C7_7 
REMARK    2  A    between atoms: C6_6  and  C9_9 
REMARK    3  A    between atoms: C7_7  and  C10_10 
REMARK    4  A    between atoms: C8_8  and  C10_10 
REMARK    5  A    between atoms: C9_9  and  C10_10 
ROOT
HETATM    1  C4  UNL     1     -33.745  18.910  -4.999  1.00 20.00     0.016 C 
HETATM    2  C10 UNL     1     -34.469  17.803  -4.193  1.00 20.00    -0.028 C 
ENDROOT
BRANCH   2   3
HETATM    3  C7  UNL     1     -35.218  16.899  -5.232  1.00 20.00     0.010 C 
BRANCH   3   4
HETATM    4  C5  UNL     1     -34.821  17.105  -6.698  1.00 20.00    -0.004 C 
HETATM    5  C1  UNL     1     -34.298  15.815  -7.312  1.00 20.00     0.005 C 
ENDBRANCH   3   4
ENDBRANCH   2   3
BRANCH   2   6
HETATM    6  C8  UNL     1     -35.484  18.476  -3.216  1.00 20.00     0.124 C 
HETATM    7 CL11 UNL     1     -37.193  18.388  -3.729  1.00 20.00    -0.130 Cl
ENDBRANCH   2   6
BRANCH   2   8
HETATM    8  C9  UNL     1     -33.420  16.961  -3.337  1.00 20.00    -0.010 C 
HETATM    9  C3  UNL     1     -33.451  15.451  -3.642  1.00 20.00     0.011 C 
BRANCH   8  10
HETATM   10  C6  UNL     1     -33.553  17.183  -1.805  1.00 20.00     0.000 C 
HETATM   11  C2  UNL     1     -32.432  18.024  -1.201  1.00 20.00     0.005 C 
ENDBRANCH   8  10
ENDBRANCH   2   8
TORSDOF 5
ENDMDL
MODEL 7
REMARK VINA RESULT:      -3.3     11.044     12.613
REMARK  5 active torsions:
REMARK  status: ('A' for Active; 'I' for Inactive)
REMARK    1  A    between atoms: C5_5  and  C7_7 
REMARK    2  A    between atoms: C6_6  and  C9_9 
REMARK    3  A    between atoms: C7_7  and  C10_10 
REMARK    4  A    between atoms: C8_8  and  C10_10 
REMARK    5  A    between atoms: C9_9  and  C10_10 
ROOT
HETATM    1  C4  UNL     1     -43.006  14.818   7.782  1.00 20.00     0.016 C 
HETATM    2  C10 UNL     1     -41.918  14.646   6.693  1.00 20.00    -0.028 C 
ENDROOT
BRANCH   2   3
HETATM    3  C7  UNL     1     -40.572  15.165   7.308  1.00 20.00     0.010 C 
BRANCH   3   4
HETATM    4  C5  UNL     1     -40.700  15.938   8.627  1.00 20.00    -0.004 C 
HETATM    5  C1  UNL     1     -40.070  15.166   9.777  1.00 20.00     0.005 C 
ENDBRANCH   3   4
ENDBRANCH   2   3
BRANCH   2   6
HETATM    6  C8  UNL     1     -42.317  15.496   5.445  1.00 20.00     0.124 C 
HETATM    7 CL11 UNL     1     -42.275  14.616   3.891  1.00 20.00    -0.130 Cl
ENDBRANCH   2   6
BRANCH   2   8
HETATM    8  C9  UNL     1     -41.807  13.118   6.254  1.00 20.00    -0.010 C 
HETATM    9  C3  UNL     1     -42.759  12.187   7.030  1.00 20.00     0.011 C 
BRANCH   8  10
HETATM   10  C6  UNL     1     -40.361  12.557   6.328  1.00 20.00     0.000 C 
HETATM   11  C2  UNL     1     -39.814  12.073   4.988  1.00 20.00     0.005 C 
ENDBRANCH   8  10
ENDBRANCH   2   8
TORSDOF 5
ENDMDL
MODEL 8
REMARK VINA RESULT:      -3.3     11.536     12.651
REMARK  5 active torsions:
REMARK  status: ('A' for Active; 'I' for Inactive)
REMARK    1  A    between atoms: C5_5  and  C7_7 
REMARK    2  A    between atoms: C6_6  and  C9_9 
REMARK    3  A    between atoms: C7_7  and  C10_10 
REMARK    4  A    between atoms: C8_8  and  C10_10 
REMARK    5  A    between atoms: C9_9  and  C10_10 
ROOT
HETATM    1  C4  UNL     1     -40.351  14.490   7.171  1.00 20.00     0.016 C 
HETATM    2  C10 UNL     1     -41.588  13.690   6.693  1.00 20.00    -0.028 C 
ENDROOT
BRANCH   2   3
HETATM    3  C7  UNL     1     -41.049  12.408   5.969  1.00 20.00     0.010 C 
BRANCH   3   4
HETATM    4  C5  UNL     1     -39.523  12.297   5.866  1.00 20.00    -0.004 C 
HETATM    5  C1  UNL     1     -39.101  11.794   4.493  1.00 20.00     0.005 C 
ENDBRANCH   3   4
ENDBRANCH   2   3
BRANCH   2   6
HETATM    6  C8  UNL     1     -42.408  14.578   5.703  1.00 20.00     0.124 C 
HETATM    7 CL11 UNL     1     -42.002  14.352   3.978  1.00 20.00    -0.130 Cl
ENDBRANCH   2   6
BRANCH   2   8
HETATM    8  C9  UNL     1     -42.520  13.313   7.930  1.00 20.00    -0.010 C 
HETATM    9  C3  UNL     1     -43.393  12.068   7.682  1.00 20.00     0.011 C 
BRANCH   8  10
HETATM   10  C6  UNL     1     -43.417  14.487   8.408  1.00 20.00     0.000 C 
HETATM   11  C2  UNL     1     -42.985  15.095   9.740  1.00 20.00     0.005 C 
ENDBRANCH   8  10
ENDBRANCH   2   8
TORSDOF 5
ENDMDL
MODEL 9
REMARK VINA RESULT:      -3.2     11.400     12.328
REMARK  5 active torsions:
REMARK  status: ('A' for Active; 'I' for Inactive)
REMARK    1  A    between atoms: C5_5  and  C7_7 
REMARK    2  A    between atoms: C6_6  and  C9_9 
REMARK    3  A    between atoms: C7_7  and  C10_10 
REMARK    4  A    between atoms: C8_8  and  C10_10 
REMARK    5  A    between atoms: C9_9  and  C10_10 
ROOT
HETATM    1  C4  UNL     1     -42.527  12.268   6.885  1.00 20.00     0.016 C 
HETATM    2  C10 UNL     1     -41.263  13.086   6.522  1.00 20.00    -0.028 C 
ENDROOT
BRANCH   2   3
HETATM    3  C7  UNL     1     -41.632  13.967   5.279  1.00 20.00     0.010 C 
BRANCH   3   4
HETATM    4  C5  UNL     1     -43.110  14.358   5.159  1.00 20.00    -0.004 C 
HETATM    5  C1  UNL     1     -43.270  15.867   5.043  1.00 20.00     0.005 C 
ENDBRANCH   3   4
ENDBRANCH   2   3
BRANCH   2   6
HETATM    6  C8  UNL     1     -40.107  12.097   6.173  1.00 20.00     0.124 C 
HETATM    7 CL11 UNL     1     -39.623  12.083   4.453  1.00 20.00    -0.130 Cl
ENDBRANCH   2   6
BRANCH   2   8
HETATM    8  C9  UNL     1     -40.808  13.984   7.758  1.00 20.00    -0.010 C 
HETATM    9  C3  UNL     1     -41.883  14.107   8.856  1.00 20.00     0.011 C 
BRANCH   8  10
HETATM   10  C6  UNL     1     -40.324  15.402   7.347  1.00 20.00     0.000 C 
HETATM   11  C2  UNL     1     -40.739  16.505   8.318  1.00 20.00     0.005 C 
ENDBRANCH   8  10
ENDBRANCH   2   8
TORSDOF 5
ENDMDL
