MODEL 1
REMARK VINA RESULT:      -3.9      0.000      0.000
REMARK  6 active torsions:
REMARK  status: ('A' for Active; 'I' for Inactive)
REMARK    1  A    between atoms: C5_5  and  C7_7 
REMARK    2  A    between atoms: C6_6  and  C11_11 
REMARK    3  A    between atoms: C7_7  and  C8_8 
REMARK    4  A    between atoms: C8_8  and  C11_11 
REMARK    5  A    between atoms: C9_9  and  C11_11 
REMARK    6  A    between atoms: C10_10  and  C11_11 
ROOT
HETATM    1  C11 UNL     1     -41.550  13.960   6.777  1.00 20.00    -0.025 C 
ENDROOT
BRANCH   1   2
HETATM    2  C6  UNL     1     -42.376  14.942   5.863  1.00 20.00     0.006 C 
HETATM    3  C2  UNL     1     -42.388  14.634   4.369  1.00 20.00     0.006 C 
ENDBRANCH   1   2
BRANCH   1   4
HETATM    4  C8  UNL     1     -40.863  12.908   5.835  1.00 20.00     0.011 C 
BRANCH   4   5
HETATM    5  C7  UNL     1     -39.634  12.182   6.410  1.00 20.00     0.000 C 
BRANCH   5   6
HETATM    6  C5  UNL     1     -38.532  12.052   5.356  1.00 20.00    -0.005 C 
HETATM    7  C1  UNL     1     -39.103  11.682   3.996  1.00 20.00     0.005 C 
ENDBRANCH   5   6
ENDBRANCH   4   5
ENDBRANCH   1   4
BRANCH   1   8
HETATM    8  C9  UNL     1     -42.574  13.291   7.753  1.00 20.00     0.124 C 
HETATM    9 CL12 UNL     1     -43.282  11.743   7.215  1.00 20.00    -0.130 Cl
ENDBRANCH   1   8
BRANCH   1  10
HETATM   10  C10 UNL     1     -40.454  14.775   7.591  1.00 20.00    -0.013 C 
HETATM   11  C3  UNL     1     -40.589  16.302   7.458  1.00 20.00     0.010 C 
HETATM   12  C4  UNL     1     -40.356  14.447   9.089  1.00 20.00     0.010 C 
ENDBRANCH   1  10
TORSDOF 6
ENDMDL
MODEL 2
REMARK VINA RESULT:      -3.9      1.485      2.773
REMARK  6 active torsions:
REMARK  status: ('A' for Active; 'I' for Inactive)
REMARK    1  A    between atoms: C5_5  and  C7_7 
REMARK    2  A    between atoms: C6_6  and  C11_11 
REMARK    3  A    between atoms: C7_7  and  C8_8 
REMARK    4  A    between atoms: C8_8  and  C11_11 
REMARK    5  A    between atoms: C9_9  and  C11_11 
REMARK    6  A    between atoms: C10_10  and  C11_11 
ROOT
HETATM    1  C11 UNL     1     -41.532  13.896   6.503  1.00 20.00    -0.025 C 
ENDROOT
BRANCH   1   2
HETATM    2  C6  UNL     1     -42.379  13.196   7.632  1.00 20.00     0.006 C 
HETATM    3  C2  UNL     1     -43.242  12.014   7.200  1.00 20.00     0.006 C 
ENDBRANCH   1   2
BRANCH   1   4
HETATM    4  C8  UNL     1     -40.820  12.766   5.679  1.00 20.00     0.011 C 
BRANCH   4   5
HETATM    5  C7  UNL     1     -39.561  12.151   6.314  1.00 20.00     0.000 C 
BRANCH   5   6
HETATM    6  C5  UNL     1     -38.450  11.984   5.275  1.00 20.00    -0.005 C 
HETATM    7  C1  UNL     1     -39.016  11.676   3.898  1.00 20.00     0.005 C 
ENDBRANCH   5   6
ENDBRANCH   4   5
ENDBRANCH   1   4
BRANCH   1   8
HETATM    8  C9  UNL     1     -40.505  14.827   7.229  1.00 20.00     0.124 C 
HETATM    9 CL12 UNL     1     -40.249  14.516   8.968  1.00 20.00    -0.130 Cl
ENDBRANCH   1   8
BRANCH   1  10
HETATM   10  C10 UNL     1     -42.490  14.750   5.563  1.00 20.00    -0.013 C 
HETATM   11  C3  UNL     1     -42.448  16.263   5.842  1.00 20.00     0.010 C 
HETATM   12  C4  UNL     1     -42.289  14.552   4.052  1.00 20.00     0.010 C 
ENDBRANCH   1  10
TORSDOF 6
ENDMDL
MODEL 3
REMARK VINA RESULT:      -3.8      1.441      2.730
REMARK  6 active torsions:
REMARK  status: ('A' for Active; 'I' for Inactive)
REMARK    1  A    between atoms: C5_5  and  C7_7 
REMARK    2  A    between atoms: C6_6  and  C11_11 
REMARK    3  A    between atoms: C7_7  and  C8_8 
REMARK    4  A    between atoms: C8_8  and  C11_11 
REMARK    5  A    between atoms: C9_9  and  C11_11 
REMARK    6  A    between atoms: C10_10  and  C11_11 
ROOT
HETATM    1  C11 UNL     1     -41.652  13.894   6.601  1.00 20.00    -0.025 C 
ENDROOT
BRANCH   1   2
HETATM    2  C6  UNL     1     -40.561  14.601   7.490  1.00 20.00     0.006 C 
HETATM    3  C2  UNL     1     -40.590  16.126   7.519  1.00 20.00     0.006 C 
ENDBRANCH   1   2
BRANCH   1   4
HETATM    4  C8  UNL     1     -40.958  12.690   5.871  1.00 20.00     0.011 C 
BRANCH   4   5
HETATM    5  C7  UNL     1     -39.620  12.216   6.464  1.00 20.00     0.000 C 
BRANCH   5   6
HETATM    6  C5  UNL     1     -38.553  12.089   5.373  1.00 20.00    -0.005 C 
HETATM    7  C1  UNL     1     -39.162  11.678   4.042  1.00 20.00     0.005 C 
ENDBRANCH   5   6
ENDBRANCH   4   5
ENDBRANCH   1   4
BRANCH   1   8
HETATM    8  C9  UNL     1     -42.171  14.971   5.591  1.00 20.00     0.124 C 
HETATM    9 CL12 UNL     1     -42.142  14.513   3.866  1.00 20.00    -0.130 Cl
ENDBRANCH   1   8
BRANCH   1  10
HETATM   10  C10 UNL     1     -42.842  13.374   7.521  1.00 20.00    -0.013 C 
HETATM   11  C3  UNL     1     -43.227  11.906   7.267  1.00 20.00     0.010 C 
HETATM   12  C4  UNL     1     -42.638  13.545   9.034  1.00 20.00     0.010 C 
ENDBRANCH   1  10
TORSDOF 6
ENDMDL
MODEL 4
REMARK VINA RESULT:      -3.4      1.393      4.043
REMARK  6 active torsions:
REMARK  status: ('A' for Active; 'I' for Inactive)
REMARK    1  A    between atoms: C5_5  and  C7_7 
REMARK    2  A    between atoms: C6_6  and  C11_11 
REMARK    3  A    between atoms: C7_7  and  C8_8 
REMARK    4  A    between atoms: C8_8  and  C11_11 
REMARK    5  A    between atoms: C9_9  and  C11_11 
REMARK    6  A    between atoms: C10_10  and  C11_11 
ROOT
HETATM    1  C11 UNL     1     -41.187  13.057   6.330  1.00 20.00    -0.025 C 
ENDROOT
BRANCH   1   2
HETATM    2  C6  UNL     1     -42.496  12.304   6.777  1.00 20.00     0.006 C 
HETATM    3  C2  UNL     1     -43.127  12.758   8.091  1.00 20.00     0.006 C 
ENDBRANCH   1   2
BRANCH   1   4
HETATM    4  C8  UNL     1     -40.670  13.878   7.565  1.00 20.00     0.011 C 
BRANCH   4   5
HETATM    5  C7  UNL     1     -40.520  15.395   7.359  1.00 20.00     0.000 C 
BRANCH   5   6
HETATM    6  C5  UNL     1     -40.617  16.141   8.692  1.00 20.00    -0.005 C 
HETATM    7  C1  UNL     1     -40.183  15.263   9.855  1.00 20.00     0.005 C 
ENDBRANCH   5   6
ENDBRANCH   4   5
ENDBRANCH   1   4
BRANCH   1   8
HETATM    8  C9  UNL     1     -41.590  13.986   5.138  1.00 20.00     0.124 C 
HETATM    9 CL12 UNL     1     -43.337  14.299   4.938  1.00 20.00    -0.130 Cl
ENDBRANCH   1   8
BRANCH   1  10
HETATM   10  C10 UNL     1     -40.090  12.001   5.868  1.00 20.00    -0.013 C 
HETATM   11  C3  UNL     1     -39.704  12.117   4.383  1.00 20.00     0.010 C 
HETATM   12  C4  UNL     1     -38.789  11.991   6.686  1.00 20.00     0.010 C 
ENDBRANCH   1  10
TORSDOF 6
ENDMDL
MODEL 5
REMARK VINA RESULT:      -3.4      1.655      2.373
REMARK  6 active torsions:
REMARK  status: ('A' for Active; 'I' for Inactive)
REMARK    1  A    between atoms: C5_5  and  C7_7 
REMARK    2  A    between atoms: C6_6  and  C11_11 
REMARK    3  A    between atoms: C7_7  and  C8_8 
REMARK    4  A    between atoms: C8_8  and  C11_11 
REMARK    5  A    between atoms: C9_9  and  C11_11 
REMARK    6  A    between atoms: C10_10  and  C11_11 
ROOT
HETATM    1  C11 UNL     1     -41.395  14.333   7.275  1.00 20.00    -0.025 C 
ENDROOT
BRANCH   1   2
HETATM    2  C6  UNL     1     -42.718  13.701   7.850  1.00 20.00     0.006 C 
HETATM    3  C2  UNL     1     -43.088  12.313   7.335  1.00 20.00     0.006 C 
ENDBRANCH   1   2
BRANCH   1   4
HETATM    4  C8  UNL     1     -40.961  13.472   6.036  1.00 20.00     0.011 C 
BRANCH   4   5
HETATM    5  C7  UNL     1     -39.615  12.738   6.156  1.00 20.00     0.000 C 
BRANCH   5   6
HETATM    6  C5  UNL     1     -39.610  11.461   5.311  1.00 20.00    -0.005 C 
HETATM    7  C1  UNL     1     -38.982  11.698   3.947  1.00 20.00     0.005 C 
ENDBRANCH   5   6
ENDBRANCH   4   5
ENDBRANCH   1   4
BRANCH   1   8
HETATM    8  C9  UNL     1     -40.336  14.277   8.426  1.00 20.00     0.124 C 
HETATM    9 CL12 UNL     1     -40.981  14.234  10.090  1.00 20.00    -0.130 Cl
ENDBRANCH   1   8
BRANCH   1  10
HETATM   10  C10 UNL     1     -41.663  15.839   6.838  1.00 20.00    -0.013 C 
HETATM   11  C3  UNL     1     -43.114  16.301   7.057  1.00 20.00     0.010 C 
HETATM   12  C4  UNL     1     -40.741  16.892   7.472  1.00 20.00     0.010 C 
ENDBRANCH   1  10
TORSDOF 6
ENDMDL
MODEL 6
REMARK VINA RESULT:      -3.4     11.919     13.610
REMARK  6 active torsions:
REMARK  status: ('A' for Active; 'I' for Inactive)
REMARK    1  A    between atoms: C5_5  and  C7_7 
REMARK    2  A    between atoms: C6_6  and  C11_11 
REMARK    3  A    between atoms: C7_7  and  C8_8 
REMARK    4  A    between atoms: C8_8  and  C11_11 
REMARK    5  A    between atoms: C9_9  and  C11_11 
REMARK    6  A    between atoms: C10_10  and  C11_11 
ROOT
HETATM    1  C11 UNL     1     -34.909  16.337  -5.434  1.00 20.00    -0.025 C 
ENDROOT
BRANCH   1   2
HETATM    2  C6  UNL     1     -34.444  16.760  -6.877  1.00 20.00     0.006 C 
HETATM    3  C2  UNL     1     -33.907  15.647  -7.773  1.00 20.00     0.006 C 
ENDBRANCH   1   2
BRANCH   1   4
HETATM    4  C8  UNL     1     -34.064  17.167  -4.403  1.00 20.00     0.011 C 
BRANCH   4   5
HETATM    5  C7  UNL     1     -33.299  16.357  -3.342  1.00 20.00     0.000 C 
BRANCH   5   6
HETATM    6  C5  UNL     1     -33.578  16.896  -1.937  1.00 20.00    -0.005 C 
HETATM    7  C1  UNL     1     -32.581  17.975  -1.545  1.00 20.00     0.005 C 
ENDBRANCH   5   6
ENDBRANCH   4   5
ENDBRANCH   1   4
BRANCH   1   8
HETATM    8  C9  UNL     1     -34.638  14.801  -5.310  1.00 20.00     0.124 C 
HETATM    9 CL12 UNL     1     -36.000  13.803  -4.730  1.00 20.00    -0.130 Cl
ENDBRANCH   1   8
BRANCH   1  10
HETATM   10  C10 UNL     1     -36.459  16.645  -5.255  1.00 20.00    -0.013 C 
HETATM   11  C3  UNL     1     -36.750  17.938  -4.473  1.00 20.00     0.010 C 
HETATM   12  C4  UNL     1     -37.283  16.692  -6.552  1.00 20.00     0.010 C 
ENDBRANCH   1  10
TORSDOF 6
ENDMDL
MODEL 7
REMARK VINA RESULT:      -3.3     12.294     13.753
REMARK  6 active torsions:
REMARK  status: ('A' for Active; 'I' for Inactive)
REMARK    1  A    between atoms: C5_5  and  C7_7 
REMARK    2  A    between atoms: C6_6  and  C11_11 
REMARK    3  A    between atoms: C7_7  and  C8_8 
REMARK    4  A    between atoms: C8_8  and  C11_11 
REMARK    5  A    between atoms: C9_9  and  C11_11 
REMARK    6  A    between atoms: C10_10  and  C11_11 
ROOT
HETATM    1  C11 UNL     1     -34.946  16.409  -5.453  1.00 20.00    -0.025 C 
ENDROOT
BRANCH   1   2
HETATM    2  C6  UNL     1     -36.478  16.741  -5.303  1.00 20.00     0.006 C 
HETATM    3  C2  UNL     1     -37.214  17.148  -6.577  1.00 20.00     0.006 C 
ENDBRANCH   1   2
BRANCH   1   4
HETATM    4  C8  UNL     1     -34.178  17.212  -4.344  1.00 20.00     0.011 C 
BRANCH   4   5
HETATM    5  C7  UNL     1     -35.021  18.192  -3.509  1.00 20.00     0.000 C 
BRANCH   5   6
HETATM    6  C5  UNL     1     -34.535  18.232  -2.058  1.00 20.00    -0.005 C 
HETATM    7  C1  UNL     1     -33.525  17.131  -1.778  1.00 20.00     0.005 C 
ENDBRANCH   5   6
ENDBRANCH   4   5
ENDBRANCH   1   4
BRANCH   1   8
HETATM    8  C9  UNL     1     -34.531  16.857  -6.893  1.00 20.00     0.124 C 
HETATM    9 CL12 UNL     1     -33.764  15.612  -7.918  1.00 20.00    -0.130 Cl
ENDBRANCH   1   8
BRANCH   1  10
HETATM   10  C10 UNL     1     -34.713  14.846  -5.267  1.00 20.00    -0.013 C 
HETATM   11  C3  UNL     1     -33.592  14.499  -4.271  1.00 20.00     0.010 C 
HETATM   12  C4  UNL     1     -35.953  14.030  -4.873  1.00 20.00     0.010 C 
ENDBRANCH   1  10
TORSDOF 6
ENDMDL
MODEL 8
REMARK VINA RESULT:      -3.3     11.832     13.845
REMARK  6 active torsions:
REMARK  status: ('A' for Active; 'I' for Inactive)
REMARK    1  A    between atoms: C5_5  and  C7_7 
REMARK    2  A    between atoms: C6_6  and  C11_11 
REMARK    3  A    between atoms: C7_7  and  C8_8 
REMARK    4  A    between atoms: C8_8  and  C11_11 
REMARK    5  A    between atoms: C9_9  and  C11_11 
REMARK    6  A    between atoms: C10_10  and  C11_11 
ROOT
HETATM    1  C11 UNL     1     -34.938  16.382  -5.435  1.00 20.00    -0.025 C 
ENDROOT
BRANCH   1   2
HETATM    2  C6  UNL     1     -34.700  14.840  -5.218  1.00 20.00     0.006 C 
HETATM    3  C2  UNL     1     -35.942  13.990  -4.961  1.00 20.00     0.006 C 
ENDBRANCH   1   2
BRANCH   1   4
HETATM    4  C8  UNL     1     -34.148  17.143  -4.312  1.00 20.00     0.011 C 
BRANCH   4   5
HETATM    5  C7  UNL     1     -33.448  16.266  -3.260  1.00 20.00     0.000 C 
BRANCH   5   6
HETATM    6  C5  UNL     1     -33.354  16.994  -1.916  1.00 20.00    -0.005 C 
HETATM    7  C1  UNL     1     -34.359  18.131  -1.826  1.00 20.00     0.005 C 
ENDBRANCH   5   6
ENDBRANCH   4   5
ENDBRANCH   1   4
BRANCH   1   8
HETATM    8  C9  UNL     1     -36.481  16.616  -5.327  1.00 20.00     0.124 C 
HETATM    9 CL12 UNL     1     -37.001  18.008  -4.338  1.00 20.00    -0.130 Cl
ENDBRANCH   1   8
BRANCH   1  10
HETATM   10  C10 UNL     1     -34.409  16.811  -6.873  1.00 20.00    -0.013 C 
HETATM   11  C3  UNL     1     -33.999  15.624  -7.764  1.00 20.00     0.010 C 
HETATM   12  C4  UNL     1     -35.355  17.701  -7.693  1.00 20.00     0.010 C 
ENDBRANCH   1  10
TORSDOF 6
ENDMDL
MODEL 9
REMARK VINA RESULT:      -3.3     12.224     13.965
REMARK  6 active torsions:
REMARK  status: ('A' for Active; 'I' for Inactive)
REMARK    1  A    between atoms: C5_5  and  C7_7 
REMARK    2  A    between atoms: C6_6  and  C11_11 
REMARK    3  A    between atoms: C7_7  and  C8_8 
REMARK    4  A    between atoms: C8_8  and  C11_11 
REMARK    5  A    between atoms: C9_9  and  C11_11 
REMARK    6  A    between atoms: C10_10  and  C11_11 
ROOT
HETATM    1  C11 UNL     1     -34.691  17.162  -5.345  1.00 20.00    -0.025 C 
ENDROOT
BRANCH   1   2
HETATM    2  C6  UNL     1     -36.163  17.396  -4.837  1.00 20.00     0.006 C 
HETATM    3  C2  UNL     1     -36.371  18.554  -3.864  1.00 20.00     0.006 C 
ENDBRANCH   1   2
BRANCH   1   4
HETATM    4  C8  UNL     1     -33.719  17.582  -4.186  1.00 20.00     0.011 C 
BRANCH   4   5
HETATM    5  C7  UNL     1     -33.361  16.486  -3.168  1.00 20.00     0.000 C 
BRANCH   5   6
HETATM    6  C5  UNL     1     -33.560  16.984  -1.734  1.00 20.00    -0.005 C 
HETATM    7  C1  UNL     1     -32.539  18.050  -1.368  1.00 20.00     0.005 C 
ENDBRANCH   5   6
ENDBRANCH   4   5
ENDBRANCH   1   4
BRANCH   1   8
HETATM    8  C9  UNL     1     -34.509  18.058  -6.615  1.00 20.00     0.124 C 
HETATM    9 CL12 UNL     1     -35.984  18.393  -7.562  1.00 20.00    -0.130 Cl
ENDBRANCH   1   8
BRANCH   1  10
HETATM   10  C10 UNL     1     -34.485  15.627  -5.712  1.00 20.00    -0.013 C 
HETATM   11  C3  UNL     1     -35.755  14.774  -5.547  1.00 20.00     0.010 C 
HETATM   12  C4  UNL     1     -33.916  15.347  -7.111  1.00 20.00     0.010 C 
ENDBRANCH   1  10
TORSDOF 6
ENDMDL
