MODEL 1
REMARK VINA RESULT:      -4.6      0.000      0.000
REMARK  3 active torsions:
REMARK  status: ('A' for Active; 'I' for Inactive)
REMARK    1  A    between atoms: C5_5  and  C6_6 
REMARK    2  A    between atoms: C6_6  and  C7_7 
REMARK    3  A    between atoms: C7_7  and  C8_8 
ROOT
HETATM    1  C1  UNL     1     -34.763   4.996   6.455  1.00 20.00     0.012 C 
HETATM    2  C2  UNL     1     -34.363   6.104   6.220  1.00 20.00    -0.117 C 
HETATM    3  C5  UNL     1     -33.873   7.461   5.937  1.00 20.00     0.093 C 
ENDROOT
BRANCH   3   4
HETATM    4  C6  UNL     1     -34.073   7.820   4.462  1.00 20.00     0.018 C 
BRANCH   4   5
HETATM    5  C7  UNL     1     -32.837   8.494   3.817  1.00 20.00     0.000 C 
HETATM    6  C3  UNL     1     -31.903   9.088   4.880  1.00 20.00     0.011 C 
BRANCH   5   7
HETATM    7  C8  UNL     1     -32.129   7.506   2.853  1.00 20.00     0.082 C 
HETATM    8  C4  UNL     1     -32.773   6.122   2.824  1.00 20.00     0.027 C 
HETATM    9 CL9  UNL     1     -32.037   8.138   1.179  1.00 20.00    -0.125 Cl
ENDBRANCH   5   7
ENDBRANCH   4   5
ENDBRANCH   3   4
TORSDOF 3
ENDMDL
MODEL 2
REMARK VINA RESULT:      -4.5      2.320      4.378
REMARK  3 active torsions:
REMARK  status: ('A' for Active; 'I' for Inactive)
REMARK    1  A    between atoms: C5_5  and  C6_6 
REMARK    2  A    between atoms: C6_6  and  C7_7 
REMARK    3  A    between atoms: C7_7  and  C8_8 
ROOT
HETATM    1  C1  UNL     1     -32.664   9.139   0.639  1.00 20.00     0.012 C 
HETATM    2  C2  UNL     1     -32.653   9.095   1.839  1.00 20.00    -0.117 C 
HETATM    3  C5  UNL     1     -32.640   9.047   3.309  1.00 20.00     0.093 C 
ENDROOT
BRANCH   3   4
HETATM    4  C6  UNL     1     -32.356   7.627   3.808  1.00 20.00     0.018 C 
BRANCH   4   5
HETATM    5  C7  UNL     1     -33.485   6.620   3.479  1.00 20.00     0.000 C 
HETATM    6  C3  UNL     1     -32.930   5.347   2.823  1.00 20.00     0.011 C 
BRANCH   5   7
HETATM    7  C8  UNL     1     -34.341   6.342   4.743  1.00 20.00     0.082 C 
HETATM    8  C4  UNL     1     -34.555   4.856   5.014  1.00 20.00     0.027 C 
HETATM    9 CL9  UNL     1     -33.655   7.108   6.210  1.00 20.00    -0.125 Cl
ENDBRANCH   5   7
ENDBRANCH   4   5
ENDBRANCH   3   4
TORSDOF 3
ENDMDL
MODEL 3
REMARK VINA RESULT:      -4.3      2.661      4.328
REMARK  3 active torsions:
REMARK  status: ('A' for Active; 'I' for Inactive)
REMARK    1  A    between atoms: C5_5  and  C6_6 
REMARK    2  A    between atoms: C6_6  and  C7_7 
REMARK    3  A    between atoms: C7_7  and  C8_8 
ROOT
HETATM    1  C1  UNL     1     -32.561   8.940   0.318  1.00 20.00     0.012 C 
HETATM    2  C2  UNL     1     -32.543   8.921   1.519  1.00 20.00    -0.117 C 
HETATM    3  C5  UNL     1     -32.519   8.902   2.989  1.00 20.00     0.093 C 
ENDROOT
BRANCH   3   4
HETATM    4  C6  UNL     1     -32.485   7.465   3.518  1.00 20.00     0.018 C 
BRANCH   4   5
HETATM    5  C7  UNL     1     -33.182   7.295   4.890  1.00 20.00     0.000 C 
HETATM    6  C3  UNL     1     -33.648   8.644   5.455  1.00 20.00     0.011 C 
BRANCH   5   7
HETATM    7  C8  UNL     1     -34.317   6.242   4.788  1.00 20.00     0.082 C 
HETATM    8  C4  UNL     1     -34.009   5.114   3.807  1.00 20.00     0.027 C 
HETATM    9 CL9  UNL     1     -34.728   5.529   6.380  1.00 20.00    -0.125 Cl
ENDBRANCH   5   7
ENDBRANCH   4   5
ENDBRANCH   3   4
TORSDOF 3
ENDMDL
MODEL 4
REMARK VINA RESULT:      -4.2      2.189      3.830
REMARK  3 active torsions:
REMARK  status: ('A' for Active; 'I' for Inactive)
REMARK    1  A    between atoms: C5_5  and  C6_6 
REMARK    2  A    between atoms: C6_6  and  C7_7 
REMARK    3  A    between atoms: C7_7  and  C8_8 
ROOT
HETATM    1  C1  UNL     1     -32.176   7.794   1.854  1.00 20.00     0.012 C 
HETATM    2  C2  UNL     1     -32.205   8.105   3.014  1.00 20.00    -0.117 C 
HETATM    3  C5  UNL     1     -32.238   8.487   4.433  1.00 20.00     0.093 C 
ENDROOT
BRANCH   3   4
HETATM    4  C6  UNL     1     -33.597   8.160   5.058  1.00 20.00     0.018 C 
BRANCH   4   5
HETATM    5  C7  UNL     1     -33.742   6.677   5.480  1.00 20.00     0.000 C 
HETATM    6  C3  UNL     1     -34.534   6.539   6.787  1.00 20.00     0.011 C 
BRANCH   5   7
HETATM    7  C8  UNL     1     -34.326   5.841   4.311  1.00 20.00     0.082 C 
HETATM    8  C4  UNL     1     -33.985   4.356   4.400  1.00 20.00     0.027 C 
HETATM    9 CL9  UNL     1     -36.102   6.021   4.167  1.00 20.00    -0.125 Cl
ENDBRANCH   5   7
ENDBRANCH   4   5
ENDBRANCH   3   4
TORSDOF 3
ENDMDL
MODEL 5
REMARK VINA RESULT:      -4.0      1.136      2.468
REMARK  3 active torsions:
REMARK  status: ('A' for Active; 'I' for Inactive)
REMARK    1  A    between atoms: C5_5  and  C6_6 
REMARK    2  A    between atoms: C6_6  and  C7_7 
REMARK    3  A    between atoms: C7_7  and  C8_8 
ROOT
HETATM    1  C1  UNL     1     -34.154   7.275   7.083  1.00 20.00     0.012 C 
HETATM    2  C2  UNL     1     -34.425   6.375   6.335  1.00 20.00    -0.117 C 
HETATM    3  C5  UNL     1     -34.756   5.270   5.424  1.00 20.00     0.093 C 
ENDROOT
BRANCH   3   4
HETATM    4  C6  UNL     1     -34.613   5.703   3.962  1.00 20.00     0.018 C 
BRANCH   4   5
HETATM    5  C7  UNL     1     -33.146   5.963   3.537  1.00 20.00     0.000 C 
HETATM    6  C3  UNL     1     -32.729   5.055   2.372  1.00 20.00     0.011 C 
BRANCH   5   7
HETATM    7  C8  UNL     1     -32.930   7.473   3.253  1.00 20.00     0.082 C 
HETATM    8  C4  UNL     1     -32.089   8.174   4.317  1.00 20.00     0.027 C 
HETATM    9 CL9  UNL     1     -32.193   7.763   1.646  1.00 20.00    -0.125 Cl
ENDBRANCH   5   7
ENDBRANCH   4   5
ENDBRANCH   3   4
TORSDOF 3
ENDMDL
MODEL 6
REMARK VINA RESULT:      -3.9      1.163      1.868
REMARK  3 active torsions:
REMARK  status: ('A' for Active; 'I' for Inactive)
REMARK    1  A    between atoms: C5_5  and  C6_6 
REMARK    2  A    between atoms: C6_6  and  C7_7 
REMARK    3  A    between atoms: C7_7  and  C8_8 
ROOT
HETATM    1  C1  UNL     1     -34.735   5.426   6.309  1.00 20.00     0.012 C 
HETATM    2  C2  UNL     1     -34.103   6.410   6.036  1.00 20.00    -0.117 C 
HETATM    3  C5  UNL     1     -33.329   7.616   5.706  1.00 20.00     0.093 C 
ENDROOT
BRANCH   3   4
HETATM    4  C6  UNL     1     -33.495   7.987   4.230  1.00 20.00     0.018 C 
BRANCH   4   5
HETATM    5  C7  UNL     1     -32.399   7.387   3.316  1.00 20.00     0.000 C 
HETATM    6  C3  UNL     1     -32.811   6.012   2.771  1.00 20.00     0.011 C 
BRANCH   5   7
HETATM    7  C8  UNL     1     -32.011   8.401   2.207  1.00 20.00     0.082 C 
HETATM    8  C4  UNL     1     -32.049   7.806   0.802  1.00 20.00     0.027 C 
HETATM    9 CL9  UNL     1     -33.034   9.871   2.243  1.00 20.00    -0.125 Cl
ENDBRANCH   5   7
ENDBRANCH   4   5
ENDBRANCH   3   4
TORSDOF 3
ENDMDL
MODEL 7
REMARK VINA RESULT:      -3.9      2.233      4.323
REMARK  3 active torsions:
REMARK  status: ('A' for Active; 'I' for Inactive)
REMARK    1  A    between atoms: C5_5  and  C6_6 
REMARK    2  A    between atoms: C6_6  and  C7_7 
REMARK    3  A    between atoms: C7_7  and  C8_8 
ROOT
HETATM    1  C1  UNL     1     -32.134   7.797   2.889  1.00 20.00     0.012 C 
HETATM    2  C2  UNL     1     -32.514   6.660   2.831  1.00 20.00    -0.117 C 
HETATM    3  C5  UNL     1     -32.977   5.266   2.756  1.00 20.00     0.093 C 
ENDROOT
BRANCH   3   4
HETATM    4  C6  UNL     1     -33.937   4.945   3.905  1.00 20.00     0.018 C 
BRANCH   4   5
HETATM    5  C7  UNL     1     -34.744   6.172   4.396  1.00 20.00     0.000 C 
HETATM    6  C3  UNL     1     -36.212   6.093   3.955  1.00 20.00     0.011 C 
BRANCH   5   7
HETATM    7  C8  UNL     1     -34.565   6.354   5.927  1.00 20.00     0.082 C 
HETATM    8  C4  UNL     1     -34.330   5.040   6.668  1.00 20.00     0.027 C 
HETATM    9 CL9  UNL     1     -33.240   7.491   6.326  1.00 20.00    -0.125 Cl
ENDBRANCH   5   7
ENDBRANCH   4   5
ENDBRANCH   3   4
TORSDOF 3
ENDMDL
MODEL 8
REMARK VINA RESULT:      -3.9      1.965      3.666
REMARK  3 active torsions:
REMARK  status: ('A' for Active; 'I' for Inactive)
REMARK    1  A    between atoms: C5_5  and  C6_6 
REMARK    2  A    between atoms: C6_6  and  C7_7 
REMARK    3  A    between atoms: C7_7  and  C8_8 
ROOT
HETATM    1  C1  UNL     1     -32.886   5.021   2.207  1.00 20.00     0.012 C 
HETATM    2  C2  UNL     1     -32.608   6.101   2.654  1.00 20.00    -0.117 C 
HETATM    3  C5  UNL     1     -32.263   7.423   3.199  1.00 20.00     0.093 C 
ENDROOT
BRANCH   3   4
HETATM    4  C6  UNL     1     -33.365   7.935   4.131  1.00 20.00     0.018 C 
BRANCH   4   5
HETATM    5  C7  UNL     1     -33.448   7.163   5.471  1.00 20.00     0.000 C 
HETATM    6  C3  UNL     1     -33.961   8.060   6.606  1.00 20.00     0.011 C 
BRANCH   5   7
HETATM    7  C8  UNL     1     -34.274   5.862   5.289  1.00 20.00     0.082 C 
HETATM    8  C4  UNL     1     -34.660   5.201   6.610  1.00 20.00     0.027 C 
HETATM    9 CL9  UNL     1     -35.755   6.126   4.317  1.00 20.00    -0.125 Cl
ENDBRANCH   5   7
ENDBRANCH   4   5
ENDBRANCH   3   4
TORSDOF 3
ENDMDL
MODEL 9
REMARK VINA RESULT:      -3.7      9.479     10.588
REMARK  3 active torsions:
REMARK  status: ('A' for Active; 'I' for Inactive)
REMARK    1  A    between atoms: C5_5  and  C6_6 
REMARK    2  A    between atoms: C6_6  and  C7_7 
REMARK    3  A    between atoms: C7_7  and  C8_8 
ROOT
HETATM    1  C1  UNL     1     -38.928  11.672   3.648  1.00 20.00     0.012 C 
HETATM    2  C2  UNL     1     -39.289  11.779   4.789  1.00 20.00    -0.117 C 
HETATM    3  C5  UNL     1     -39.727  11.908   6.187  1.00 20.00     0.093 C 
ENDROOT
BRANCH   3   4
HETATM    4  C6  UNL     1     -41.159  12.445   6.265  1.00 20.00     0.018 C 
BRANCH   4   5
HETATM    5  C7  UNL     1     -41.263  13.966   5.997  1.00 20.00     0.000 C 
HETATM    6  C3  UNL     1     -42.187  14.266   4.809  1.00 20.00     0.011 C 
BRANCH   5   7
HETATM    7  C8  UNL     1     -41.662  14.713   7.297  1.00 20.00     0.082 C 
HETATM    8  C4  UNL     1     -42.352  13.817   8.322  1.00 20.00     0.027 C 
HETATM    9 CL9  UNL     1     -40.263  15.516   8.076  1.00 20.00    -0.125 Cl
ENDBRANCH   5   7
ENDBRANCH   4   5
ENDBRANCH   3   4
TORSDOF 3
ENDMDL
