MODEL 1
REMARK VINA RESULT:      -4.5      0.000      0.000
REMARK  4 active torsions:
REMARK  status: ('A' for Active; 'I' for Inactive)
REMARK    1  A    between atoms: C2_2  and  C6_6 
REMARK    2  A    between atoms: C2_2  and  C7_7 
REMARK    3  A    between atoms: C7_7  and  C8_8 
REMARK    4  A    between atoms: C8_8  and  C9_9 
ROOT
HETATM    1  C7  UNL     1     -34.053   7.832   4.635  1.00 20.00     0.039 C 
ENDROOT
BRANCH   1   2
HETATM    2  C2  UNL     1     -34.449   6.612   5.446  1.00 20.00    -0.089 C 
HETATM    3  C1  UNL     1     -34.259   6.581   6.776  1.00 20.00     0.014 C 
BRANCH   2   4
HETATM    4  C6  UNL     1     -35.069   5.436   4.726  1.00 20.00     0.029 C 
HETATM    5  C3  UNL     1     -34.080   4.308   4.461  1.00 20.00     0.010 C 
ENDBRANCH   2   4
ENDBRANCH   1   2
BRANCH   1   6
HETATM    6  C8  UNL     1     -32.528   8.024   4.448  1.00 20.00     0.003 C 
HETATM    7  C4  UNL     1     -32.055   9.353   5.057  1.00 20.00     0.011 C 
BRANCH   6   8
HETATM    8  C9  UNL     1     -32.063   7.899   2.973  1.00 20.00     0.082 C 
HETATM    9  C5  UNL     1     -32.378   6.540   2.355  1.00 20.00     0.027 C 
HETATM   10 CL10 UNL     1     -32.739   9.183   1.924  1.00 20.00    -0.125 Cl
ENDBRANCH   6   8
ENDBRANCH   1   6
TORSDOF 4
ENDMDL
MODEL 2
REMARK VINA RESULT:      -4.1      1.937      4.078
REMARK  4 active torsions:
REMARK  status: ('A' for Active; 'I' for Inactive)
REMARK    1  A    between atoms: C2_2  and  C6_6 
REMARK    2  A    between atoms: C2_2  and  C7_7 
REMARK    3  A    between atoms: C7_7  and  C8_8 
REMARK    4  A    between atoms: C8_8  and  C9_9 
ROOT
HETATM    1  C7  UNL     1     -32.338   7.884   3.923  1.00 20.00     0.039 C 
ENDROOT
BRANCH   1   2
HETATM    2  C2  UNL     1     -32.352   7.244   2.548  1.00 20.00    -0.089 C 
HETATM    3  C1  UNL     1     -32.584   5.928   2.405  1.00 20.00     0.014 C 
BRANCH   2   4
HETATM    4  C6  UNL     1     -32.105   8.120   1.340  1.00 20.00     0.029 C 
HETATM    5  C3  UNL     1     -32.848   9.448   1.403  1.00 20.00     0.010 C 
ENDBRANCH   2   4
ENDBRANCH   1   2
BRANCH   1   6
HETATM    6  C8  UNL     1     -33.694   7.851   4.671  1.00 20.00     0.003 C 
HETATM    7  C4  UNL     1     -33.683   8.792   5.886  1.00 20.00     0.011 C 
BRANCH   6   8
HETATM    8  C9  UNL     1     -34.140   6.424   5.086  1.00 20.00     0.082 C 
HETATM    9  C5  UNL     1     -34.277   6.251   6.595  1.00 20.00     0.027 C 
HETATM   10 CL10 UNL     1     -35.673   5.925   4.303  1.00 20.00    -0.125 Cl
ENDBRANCH   6   8
ENDBRANCH   1   6
TORSDOF 4
ENDMDL
MODEL 3
REMARK VINA RESULT:      -3.9      2.456      4.272
REMARK  4 active torsions:
REMARK  status: ('A' for Active; 'I' for Inactive)
REMARK    1  A    between atoms: C2_2  and  C6_6 
REMARK    2  A    between atoms: C2_2  and  C7_7 
REMARK    3  A    between atoms: C7_7  and  C8_8 
REMARK    4  A    between atoms: C8_8  and  C9_9 
ROOT
HETATM    1  C7  UNL     1     -32.672   7.007   3.623  1.00 20.00     0.039 C 
ENDROOT
BRANCH   1   2
HETATM    2  C2  UNL     1     -32.485   8.246   2.768  1.00 20.00    -0.089 C 
HETATM    3  C1  UNL     1     -32.625   9.473   3.298  1.00 20.00     0.014 C 
BRANCH   2   4
HETATM    4  C6  UNL     1     -32.132   8.071   1.308  1.00 20.00     0.029 C 
HETATM    5  C3  UNL     1     -32.665   9.192   0.425  1.00 20.00     0.010 C 
ENDBRANCH   2   4
ENDBRANCH   1   2
BRANCH   1   6
HETATM    6  C8  UNL     1     -33.862   7.069   4.611  1.00 20.00     0.003 C 
HETATM    7  C4  UNL     1     -33.418   7.588   5.988  1.00 20.00     0.011 C 
BRANCH   6   8
HETATM    8  C9  UNL     1     -34.624   5.724   4.751  1.00 20.00     0.082 C 
HETATM    9  C5  UNL     1     -33.971   4.579   3.982  1.00 20.00     0.027 C 
HETATM   10 CL10 UNL     1     -34.840   5.227   6.459  1.00 20.00    -0.125 Cl
ENDBRANCH   6   8
ENDBRANCH   1   6
TORSDOF 4
ENDMDL
MODEL 4
REMARK VINA RESULT:      -3.7      2.179      4.277
REMARK  4 active torsions:
REMARK  status: ('A' for Active; 'I' for Inactive)
REMARK    1  A    between atoms: C2_2  and  C6_6 
REMARK    2  A    between atoms: C2_2  and  C7_7 
REMARK    3  A    between atoms: C7_7  and  C8_8 
REMARK    4  A    between atoms: C8_8  and  C9_9 
ROOT
HETATM    1  C7  UNL     1     -32.465   7.184   2.837  1.00 20.00     0.039 C 
ENDROOT
BRANCH   1   2
HETATM    2  C2  UNL     1     -32.527   8.625   3.308  1.00 20.00    -0.089 C 
HETATM    3  C1  UNL     1     -32.161   8.955   4.558  1.00 20.00     0.014 C 
BRANCH   2   4
HETATM    4  C6  UNL     1     -33.003   9.683   2.338  1.00 20.00     0.029 C 
HETATM    5  C3  UNL     1     -32.706   9.338   0.884  1.00 20.00     0.010 C 
ENDBRANCH   2   4
ENDBRANCH   1   2
BRANCH   1   6
HETATM    6  C8  UNL     1     -33.023   6.146   3.842  1.00 20.00     0.003 C 
HETATM    7  C4  UNL     1     -33.369   4.823   3.141  1.00 20.00     0.011 C 
BRANCH   6   8
HETATM    8  C9  UNL     1     -34.232   6.664   4.664  1.00 20.00     0.082 C 
HETATM    9  C5  UNL     1     -35.513   5.874   4.416  1.00 20.00     0.027 C 
HETATM   10 CL10 UNL     1     -33.904   6.700   6.425  1.00 20.00    -0.125 Cl
ENDBRANCH   6   8
ENDBRANCH   1   6
TORSDOF 4
ENDMDL
MODEL 5
REMARK VINA RESULT:      -3.7     11.755     12.616
REMARK  4 active torsions:
REMARK  status: ('A' for Active; 'I' for Inactive)
REMARK    1  A    between atoms: C2_2  and  C6_6 
REMARK    2  A    between atoms: C2_2  and  C7_7 
REMARK    3  A    between atoms: C7_7  and  C8_8 
REMARK    4  A    between atoms: C8_8  and  C9_9 
ROOT
HETATM    1  C7  UNL     1     -33.582  17.046  -1.770  1.00 20.00     0.039 C 
ENDROOT
BRANCH   1   2
HETATM    2  C2  UNL     1     -33.093  17.943  -0.649  1.00 20.00    -0.089 C 
HETATM    3  C1  UNL     1     -33.879  18.212   0.406  1.00 20.00     0.014 C 
BRANCH   2   4
HETATM    4  C6  UNL     1     -31.699  18.522  -0.742  1.00 20.00     0.029 C 
HETATM    5  C3  UNL     1     -30.974  18.553   0.597  1.00 20.00     0.010 C 
ENDBRANCH   2   4
ENDBRANCH   1   2
BRANCH   1   6
HETATM    6  C8  UNL     1     -33.491  17.664  -3.187  1.00 20.00     0.003 C 
HETATM    7  C4  UNL     1     -34.353  18.931  -3.299  1.00 20.00     0.011 C 
BRANCH   6   8
HETATM    8  C9  UNL     1     -33.833  16.665  -4.324  1.00 20.00     0.082 C 
HETATM    9  C5  UNL     1     -33.625  15.207  -3.927  1.00 20.00     0.027 C 
HETATM   10 CL10 UNL     1     -35.503  16.866  -4.940  1.00 20.00    -0.125 Cl
ENDBRANCH   6   8
ENDBRANCH   1   6
TORSDOF 4
ENDMDL
MODEL 6
REMARK VINA RESULT:      -3.6     11.831     12.777
REMARK  4 active torsions:
REMARK  status: ('A' for Active; 'I' for Inactive)
REMARK    1  A    between atoms: C2_2  and  C6_6 
REMARK    2  A    between atoms: C2_2  and  C7_7 
REMARK    3  A    between atoms: C7_7  and  C8_8 
REMARK    4  A    between atoms: C8_8  and  C9_9 
ROOT
HETATM    1  C7  UNL     1     -32.464  18.193  -1.739  1.00 20.00     0.039 C 
ENDROOT
BRANCH   1   2
HETATM    2  C2  UNL     1     -32.415  18.404  -0.238  1.00 20.00    -0.089 C 
HETATM    3  C1  UNL     1     -33.526  18.288   0.508  1.00 20.00     0.014 C 
BRANCH   2   4
HETATM    4  C6  UNL     1     -31.087  18.742   0.402  1.00 20.00     0.029 C 
HETATM    5  C3  UNL     1     -31.003  18.322   1.863  1.00 20.00     0.010 C 
ENDBRANCH   2   4
ENDBRANCH   1   2
BRANCH   1   6
HETATM    6  C8  UNL     1     -33.734  17.473  -2.256  1.00 20.00     0.003 C 
HETATM    7  C4  UNL     1     -33.373  16.203  -3.042  1.00 20.00     0.011 C 
BRANCH   6   8
HETATM    8  C9  UNL     1     -34.671  18.387  -3.089  1.00 20.00     0.082 C 
HETATM    9  C5  UNL     1     -35.222  17.707  -4.338  1.00 20.00     0.027 C 
HETATM   10 CL10 UNL     1     -36.039  19.032  -2.128  1.00 20.00    -0.125 Cl
ENDBRANCH   6   8
ENDBRANCH   1   6
TORSDOF 4
ENDMDL
MODEL 7
REMARK VINA RESULT:      -3.4      1.716      2.875
REMARK  4 active torsions:
REMARK  status: ('A' for Active; 'I' for Inactive)
REMARK    1  A    between atoms: C2_2  and  C6_6 
REMARK    2  A    between atoms: C2_2  and  C7_7 
REMARK    3  A    between atoms: C7_7  and  C8_8 
REMARK    4  A    between atoms: C8_8  and  C9_9 
ROOT
HETATM    1  C7  UNL     1     -33.507   5.406   4.313  1.00 20.00     0.039 C 
ENDROOT
BRANCH   1   2
HETATM    2  C2  UNL     1     -34.839   5.788   4.932  1.00 20.00    -0.089 C 
HETATM    3  C1  UNL     1     -35.935   5.927   4.169  1.00 20.00     0.014 C 
BRANCH   2   4
HETATM    4  C6  UNL     1     -34.906   6.003   6.428  1.00 20.00     0.029 C 
HETATM    5  C3  UNL     1     -34.119   7.222   6.893  1.00 20.00     0.010 C 
ENDBRANCH   2   4
ENDBRANCH   1   2
BRANCH   1   6
HETATM    6  C8  UNL     1     -33.243   6.008   2.911  1.00 20.00     0.003 C 
HETATM    7  C4  UNL     1     -32.908   4.911   1.888  1.00 20.00     0.011 C 
BRANCH   6   8
HETATM    8  C9  UNL     1     -32.157   7.115   2.905  1.00 20.00     0.082 C 
HETATM    9  C5  UNL     1     -32.166   7.961   1.635  1.00 20.00     0.027 C 
HETATM   10 CL10 UNL     1     -32.269   8.201   4.325  1.00 20.00    -0.125 Cl
ENDBRANCH   6   8
ENDBRANCH   1   6
TORSDOF 4
ENDMDL
MODEL 8
REMARK VINA RESULT:      -3.4     14.813     15.951
REMARK  4 active torsions:
REMARK  status: ('A' for Active; 'I' for Inactive)
REMARK    1  A    between atoms: C2_2  and  C6_6 
REMARK    2  A    between atoms: C2_2  and  C7_7 
REMARK    3  A    between atoms: C7_7  and  C8_8 
REMARK    4  A    between atoms: C8_8  and  C9_9 
ROOT
HETATM    1  C7  UNL     1     -24.237  18.340   9.876  1.00 20.00     0.039 C 
ENDROOT
BRANCH   1   2
HETATM    2  C2  UNL     1     -24.716  17.844  11.227  1.00 20.00    -0.089 C 
HETATM    3  C1  UNL     1     -24.759  16.529  11.499  1.00 20.00     0.014 C 
BRANCH   2   4
HETATM    4  C6  UNL     1     -25.138  18.862  12.263  1.00 20.00     0.029 C 
HETATM    5  C3  UNL     1     -26.622  19.199  12.201  1.00 20.00     0.010 C 
ENDBRANCH   2   4
ENDBRANCH   1   2
BRANCH   1   6
HETATM    6  C8  UNL     1     -22.741  18.074   9.576  1.00 20.00     0.003 C 
HETATM    7  C4  UNL     1     -21.851  18.514  10.748  1.00 20.00     0.011 C 
BRANCH   6   8
HETATM    8  C9  UNL     1     -22.252  18.709   8.247  1.00 20.00     0.082 C 
HETATM    9  C5  UNL     1     -21.351  17.784   7.434  1.00 20.00     0.027 C 
HETATM   10 CL10 UNL     1     -23.602  19.263   7.208  1.00 20.00    -0.125 Cl
ENDBRANCH   6   8
ENDBRANCH   1   6
TORSDOF 4
ENDMDL
MODEL 9
REMARK VINA RESULT:      -3.4     11.650     13.155
REMARK  4 active torsions:
REMARK  status: ('A' for Active; 'I' for Inactive)
REMARK    1  A    between atoms: C2_2  and  C6_6 
REMARK    2  A    between atoms: C2_2  and  C7_7 
REMARK    3  A    between atoms: C7_7  and  C8_8 
REMARK    4  A    between atoms: C8_8  and  C9_9 
ROOT
HETATM    1  C7  UNL     1     -33.898  15.272  -4.545  1.00 20.00     0.039 C 
ENDROOT
BRANCH   1   2
HETATM    2  C2  UNL     1     -33.771  16.583  -3.792  1.00 20.00    -0.089 C 
HETATM    3  C1  UNL     1     -33.953  17.756  -4.422  1.00 20.00     0.014 C 
BRANCH   2   4
HETATM    4  C6  UNL     1     -33.442  16.541  -2.317  1.00 20.00     0.029 C 
HETATM    5  C3  UNL     1     -32.878  17.855  -1.792  1.00 20.00     0.010 C 
ENDBRANCH   2   4
ENDBRANCH   1   2
BRANCH   1   6
HETATM    6  C8  UNL     1     -35.302  14.991  -5.134  1.00 20.00     0.003 C 
HETATM    7  C4  UNL     1     -35.851  13.641  -4.646  1.00 20.00     0.011 C 
BRANCH   6   8
HETATM    8  C9  UNL     1     -35.355  15.078  -6.682  1.00 20.00     0.082 C 
HETATM    9  C5  UNL     1     -36.315  16.148  -7.193  1.00 20.00     0.027 C 
HETATM   10 CL10 UNL     1     -33.742  15.350  -7.413  1.00 20.00    -0.125 Cl
ENDBRANCH   6   8
ENDBRANCH   1   6
TORSDOF 4
ENDMDL
