MODEL 1
REMARK VINA RESULT:      -3.4      0.000      0.000
REMARK  4 active torsions:
REMARK  status: ('A' for Active; 'I' for Inactive)
REMARK    1  A    between atoms: C5_5  and  C6_6 
REMARK    2  A    between atoms: C6_6  and  C9_9 
REMARK    3  A    between atoms: C7_7  and  C9_9 
REMARK    4  A    between atoms: C8_8  and  C9_9 
ROOT
HETATM    1  C4  UNL     1     -42.702  13.317   7.936  1.00 20.00     0.016 C 
HETATM    2  C9  UNL     1     -41.625  13.792   6.918  1.00 20.00    -0.029 C 
ENDROOT
BRANCH   2   3
HETATM    3  C6  UNL     1     -41.088  12.482   6.244  1.00 20.00     0.010 C 
BRANCH   3   4
HETATM    4  C5  UNL     1     -39.576  12.350   6.043  1.00 20.00    -0.004 C 
HETATM    5  C1  UNL     1     -39.253  11.803   4.657  1.00 20.00     0.005 C 
ENDBRANCH   3   4
ENDBRANCH   2   3
BRANCH   2   6
HETATM    6  C7  UNL     1     -42.392  14.672   5.883  1.00 20.00     0.124 C 
HETATM    7 CL10 UNL     1     -42.045  14.336   4.169  1.00 20.00    -0.130 Cl
ENDBRANCH   2   6
BRANCH   2   8
HETATM    8  C8  UNL     1     -40.488  14.597   7.657  1.00 20.00    -0.014 C 
HETATM    9  C2  UNL     1     -40.407  14.315   9.167  1.00 20.00     0.010 C 
HETATM   10  C3  UNL     1     -40.569  16.120   7.461  1.00 20.00     0.010 C 
ENDBRANCH   2   8
TORSDOF 4
ENDMDL
MODEL 2
REMARK VINA RESULT:      -3.3      1.684      2.743
REMARK  4 active torsions:
REMARK  status: ('A' for Active; 'I' for Inactive)
REMARK    1  A    between atoms: C5_5  and  C6_6 
REMARK    2  A    between atoms: C6_6  and  C9_9 
REMARK    3  A    between atoms: C7_7  and  C9_9 
REMARK    4  A    between atoms: C8_8  and  C9_9 
ROOT
HETATM    1  C4  UNL     1     -40.513  14.463   7.325  1.00 20.00     0.016 C 
HETATM    2  C9  UNL     1     -41.714  13.695   6.699  1.00 20.00    -0.029 C 
ENDROOT
BRANCH   2   3
HETATM    3  C6  UNL     1     -41.085  12.430   6.019  1.00 20.00     0.010 C 
BRANCH   3   4
HETATM    4  C5  UNL     1     -39.560  12.292   6.037  1.00 20.00    -0.004 C 
HETATM    5  C1  UNL     1     -39.034  11.858   4.674  1.00 20.00     0.005 C 
ENDBRANCH   3   4
ENDBRANCH   2   3
BRANCH   2   6
HETATM    6  C7  UNL     1     -42.617  13.286   7.903  1.00 20.00     0.124 C 
HETATM    7 CL10 UNL     1     -43.416  11.700   7.771  1.00 20.00    -0.130 Cl
ENDBRANCH   2   6
BRANCH   2   8
HETATM    8  C8  UNL     1     -42.476  14.614   5.669  1.00 20.00    -0.014 C 
HETATM    9  C2  UNL     1     -42.063  14.384   4.205  1.00 20.00     0.010 C 
HETATM   10  C3  UNL     1     -42.359  16.119   5.964  1.00 20.00     0.010 C 
ENDBRANCH   2   8
TORSDOF 4
ENDMDL
MODEL 3
REMARK VINA RESULT:      -3.2     11.230     12.654
REMARK  4 active torsions:
REMARK  status: ('A' for Active; 'I' for Inactive)
REMARK    1  A    between atoms: C5_5  and  C6_6 
REMARK    2  A    between atoms: C6_6  and  C9_9 
REMARK    3  A    between atoms: C7_7  and  C9_9 
REMARK    4  A    between atoms: C8_8  and  C9_9 
ROOT
HETATM    1  C4  UNL     1     -35.014  18.358  -2.577  1.00 20.00     0.016 C 
HETATM    2  C9  UNL     1     -33.486  18.160  -2.354  1.00 20.00    -0.029 C 
ENDROOT
BRANCH   2   3
HETATM    3  C6  UNL     1     -33.238  16.623  -2.535  1.00 20.00     0.010 C 
BRANCH   3   4
HETATM    4  C5  UNL     1     -33.916  15.924  -3.717  1.00 20.00    -0.004 C 
HETATM    5  C1  UNL     1     -33.028  14.822  -4.283  1.00 20.00     0.005 C 
ENDBRANCH   3   4
ENDBRANCH   2   3
BRANCH   2   6
HETATM    6  C7  UNL     1     -32.792  18.971  -3.492  1.00 20.00     0.124 C 
HETATM    7 CL10 UNL     1     -33.774  19.262  -4.948  1.00 20.00    -0.130 Cl
ENDBRANCH   2   6
BRANCH   2   8
HETATM    8  C8  UNL     1     -33.070  18.671  -0.921  1.00 20.00    -0.014 C 
HETATM    9  C2  UNL     1     -31.577  18.484  -0.603  1.00 20.00     0.010 C 
HETATM   10  C3  UNL     1     -33.882  18.048   0.227  1.00 20.00     0.010 C 
ENDBRANCH   2   8
TORSDOF 4
ENDMDL
MODEL 4
REMARK VINA RESULT:      -3.2      8.912     10.727
REMARK  4 active torsions:
REMARK  status: ('A' for Active; 'I' for Inactive)
REMARK    1  A    between atoms: C5_5  and  C6_6 
REMARK    2  A    between atoms: C6_6  and  C9_9 
REMARK    3  A    between atoms: C7_7  and  C9_9 
REMARK    4  A    between atoms: C8_8  and  C9_9 
ROOT
HETATM    1  C4  UNL     1     -40.535   5.643  -0.395  1.00 20.00     0.016 C 
HETATM    2  C9  UNL     1     -41.950   5.984   0.157  1.00 20.00    -0.029 C 
ENDROOT
BRANCH   2   3
HETATM    3  C6  UNL     1     -42.944   5.610  -0.997  1.00 20.00     0.010 C 
BRANCH   3   4
HETATM    4  C5  UNL     1     -43.392   4.150  -1.110  1.00 20.00    -0.004 C 
HETATM    5  C1  UNL     1     -43.099   3.593  -2.497  1.00 20.00     0.005 C 
ENDBRANCH   3   4
ENDBRANCH   2   3
BRANCH   2   6
HETATM    6  C7  UNL     1     -42.152   5.045   1.387  1.00 20.00     0.124 C 
HETATM    7 CL10 UNL     1     -43.416   5.537   2.540  1.00 20.00    -0.130 Cl
ENDBRANCH   2   6
BRANCH   2   8
HETATM    8  C8  UNL     1     -42.034   7.508   0.551  1.00 20.00    -0.014 C 
HETATM    9  C2  UNL     1     -43.296   8.217   0.033  1.00 20.00     0.010 C 
HETATM   10  C3  UNL     1     -40.812   8.336   0.118  1.00 20.00     0.010 C 
ENDBRANCH   2   8
TORSDOF 4
ENDMDL
MODEL 5
REMARK VINA RESULT:      -3.2      9.254     11.097
REMARK  4 active torsions:
REMARK  status: ('A' for Active; 'I' for Inactive)
REMARK    1  A    between atoms: C5_5  and  C6_6 
REMARK    2  A    between atoms: C6_6  and  C9_9 
REMARK    3  A    between atoms: C7_7  and  C9_9 
REMARK    4  A    between atoms: C8_8  and  C9_9 
ROOT
HETATM    1  C4  UNL     1     -34.560   8.174   4.317  1.00 20.00     0.016 C 
HETATM    2  C9  UNL     1     -33.442   7.092   4.370  1.00 20.00    -0.029 C 
ENDROOT
BRANCH   2   3
HETATM    3  C6  UNL     1     -32.218   7.728   3.624  1.00 20.00     0.010 C 
BRANCH   3   4
HETATM    4  C5  UNL     1     -32.492   8.877   2.651  1.00 20.00    -0.004 C 
HETATM    5  C1  UNL     1     -32.223   8.453   1.212  1.00 20.00     0.005 C 
ENDBRANCH   3   4
ENDBRANCH   2   3
BRANCH   2   6
HETATM    6  C7  UNL     1     -33.127   6.895   5.885  1.00 20.00     0.124 C 
HETATM    7 CL10 UNL     1     -34.520   7.002   6.989  1.00 20.00    -0.130 Cl
ENDBRANCH   2   6
BRANCH   2   8
HETATM    8  C8  UNL     1     -33.935   5.759   3.686  1.00 20.00    -0.014 C 
HETATM    9  C2  UNL     1     -34.347   4.663   4.684  1.00 20.00     0.010 C 
HETATM   10  C3  UNL     1     -32.925   5.149   2.700  1.00 20.00     0.010 C 
ENDBRANCH   2   8
TORSDOF 4
ENDMDL
MODEL 6
REMARK VINA RESULT:      -3.2      1.649      2.719
REMARK  4 active torsions:
REMARK  status: ('A' for Active; 'I' for Inactive)
REMARK    1  A    between atoms: C5_5  and  C6_6 
REMARK    2  A    between atoms: C6_6  and  C9_9 
REMARK    3  A    between atoms: C7_7  and  C9_9 
REMARK    4  A    between atoms: C8_8  and  C9_9 
ROOT
HETATM    1  C4  UNL     1     -42.025  15.174   5.864  1.00 20.00     0.016 C 
HETATM    2  C9  UNL     1     -41.629  13.920   6.696  1.00 20.00    -0.029 C 
ENDROOT
BRANCH   2   3
HETATM    3  C6  UNL     1     -41.120  12.873   5.646  1.00 20.00     0.010 C 
BRANCH   3   4
HETATM    4  C5  UNL     1     -39.730  12.266   5.857  1.00 20.00    -0.004 C 
HETATM    5  C1  UNL     1     -39.147  11.762   4.542  1.00 20.00     0.005 C 
ENDBRANCH   3   4
ENDBRANCH   2   3
BRANCH   2   6
HETATM    6  C7  UNL     1     -40.463  14.388   7.621  1.00 20.00     0.124 C 
HETATM    7 CL10 UNL     1     -40.411  16.130   7.985  1.00 20.00    -0.130 Cl
ENDBRANCH   2   6
BRANCH   2   8
HETATM    8  C8  UNL     1     -42.867  13.393   7.518  1.00 20.00    -0.014 C 
HETATM    9  C2  UNL     1     -42.702  13.519   9.042  1.00 20.00     0.010 C 
HETATM   10  C3  UNL     1     -43.257  11.939   7.201  1.00 20.00     0.010 C 
ENDBRANCH   2   8
TORSDOF 4
ENDMDL
MODEL 7
REMARK VINA RESULT:      -3.1     11.392     12.914
REMARK  4 active torsions:
REMARK  status: ('A' for Active; 'I' for Inactive)
REMARK    1  A    between atoms: C5_5  and  C6_6 
REMARK    2  A    between atoms: C6_6  and  C9_9 
REMARK    3  A    between atoms: C7_7  and  C9_9 
REMARK    4  A    between atoms: C8_8  and  C9_9 
ROOT
HETATM    1  C4  UNL     1     -33.044  18.862  -3.682  1.00 20.00     0.016 C 
HETATM    2  C9  UNL     1     -34.066  17.738  -3.342  1.00 20.00    -0.029 C 
ENDROOT
BRANCH   2   3
HETATM    3  C6  UNL     1     -33.672  17.242  -1.909  1.00 20.00     0.010 C 
BRANCH   3   4
HETATM    4  C5  UNL     1     -32.547  17.982  -1.180  1.00 20.00    -0.004 C 
HETATM    5  C1  UNL     1     -32.975  18.380   0.228  1.00 20.00     0.005 C 
ENDBRANCH   3   4
ENDBRANCH   2   3
BRANCH   2   6
HETATM    6  C7  UNL     1     -35.461  18.439  -3.322  1.00 20.00     0.124 C 
HETATM    7 CL10 UNL     1     -35.897  19.256  -1.802  1.00 20.00    -0.130 Cl
ENDBRANCH   2   6
BRANCH   2   8
HETATM    8  C8  UNL     1     -33.995  16.587  -4.418  1.00 20.00    -0.014 C 
HETATM    9  C2  UNL     1     -35.304  16.380  -5.196  1.00 20.00     0.010 C 
HETATM   10  C3  UNL     1     -33.558  15.226  -3.851  1.00 20.00     0.010 C 
ENDBRANCH   2   8
TORSDOF 4
ENDMDL
MODEL 8
REMARK VINA RESULT:      -3.0     11.836     13.797
REMARK  4 active torsions:
REMARK  status: ('A' for Active; 'I' for Inactive)
REMARK    1  A    between atoms: C5_5  and  C6_6 
REMARK    2  A    between atoms: C6_6  and  C9_9 
REMARK    3  A    between atoms: C7_7  and  C9_9 
REMARK    4  A    between atoms: C8_8  and  C9_9 
ROOT
HETATM    1  C4  UNL     1     -34.487  17.892  -6.545  1.00 20.00     0.016 C 
HETATM    2  C9  UNL     1     -34.836  17.048  -5.285  1.00 20.00    -0.029 C 
ENDROOT
BRANCH   2   3
HETATM    3  C6  UNL     1     -33.877  17.570  -4.160  1.00 20.00     0.010 C 
BRANCH   3   4
HETATM    4  C5  UNL     1     -33.355  16.556  -3.138  1.00 20.00    -0.004 C 
HETATM    5  C1  UNL     1     -33.547  17.065  -1.714  1.00 20.00     0.005 C 
ENDBRANCH   3   4
ENDBRANCH   2   3
BRANCH   2   6
HETATM    6  C7  UNL     1     -36.321  17.394  -4.952  1.00 20.00     0.124 C 
HETATM    7 CL10 UNL     1     -36.571  18.499  -3.578  1.00 20.00    -0.130 Cl
ENDBRANCH   2   6
BRANCH   2   8
HETATM    8  C8  UNL     1     -34.636  15.512  -5.580  1.00 20.00    -0.014 C 
HETATM    9  C2  UNL     1     -33.975  15.219  -6.937  1.00 20.00     0.010 C 
HETATM   10  C3  UNL     1     -35.928  14.682  -5.491  1.00 20.00     0.010 C 
ENDBRANCH   2   8
TORSDOF 4
ENDMDL
MODEL 9
REMARK VINA RESULT:      -3.0      1.698      3.540
REMARK  4 active torsions:
REMARK  status: ('A' for Active; 'I' for Inactive)
REMARK    1  A    between atoms: C5_5  and  C6_6 
REMARK    2  A    between atoms: C6_6  and  C9_9 
REMARK    3  A    between atoms: C7_7  and  C9_9 
REMARK    4  A    between atoms: C8_8  and  C9_9 
ROOT
HETATM    1  C4  UNL     1     -42.198  12.812   7.042  1.00 20.00     0.016 C 
HETATM    2  C9  UNL     1     -41.450  13.803   6.102  1.00 20.00    -0.029 C 
ENDROOT
BRANCH   2   3
HETATM    3  C6  UNL     1     -40.484  14.609   7.038  1.00 20.00     0.010 C 
BRANCH   3   4
HETATM    4  C5  UNL     1     -40.423  14.211   8.516  1.00 20.00    -0.004 C 
HETATM    5  C1  UNL     1     -40.261  15.437   9.406  1.00 20.00     0.005 C 
ENDBRANCH   3   4
ENDBRANCH   2   3
BRANCH   2   6
HETATM    6  C7  UNL     1     -40.642  12.906   5.113  1.00 20.00     0.124 C 
HETATM    7 CL10 UNL     1     -39.648  11.630   5.856  1.00 20.00    -0.130 Cl
ENDBRANCH   2   6
BRANCH   2   8
HETATM    8  C8  UNL     1     -42.480  14.735   5.356  1.00 20.00    -0.014 C 
HETATM    9  C2  UNL     1     -42.361  14.692   3.823  1.00 20.00     0.010 C 
HETATM   10  C3  UNL     1     -42.426  16.208   5.795  1.00 20.00     0.010 C 
ENDBRANCH   2   8
TORSDOF 4
ENDMDL
