MODEL 1
REMARK VINA RESULT:      -3.5      0.000      0.000
REMARK  5 active torsions:
REMARK  status: ('A' for Active; 'I' for Inactive)
REMARK    1  A    between atoms: C1_1  and  C7_7 
REMARK    2  A    between atoms: C1_1  and  C11_11 
REMARK    3  A    between atoms: C7_7  and  C10_10 
REMARK    4  A    between atoms: C8_8  and  C10_10 
REMARK    5  A    between atoms: C9_9  and  C10_10 
ROOT
HETATM    1  C1  UNL     1     -40.936  14.249   8.294  1.00 20.00     0.134 C 
HETATM    2  O12 UNL     1     -40.068  13.740   9.007  1.00 20.00    -0.297 OA
ENDROOT
BRANCH   1   3
HETATM    3  C7  UNL     1     -41.572  13.461   7.150  1.00 20.00     0.083 C 
BRANCH   3   4
HETATM    4  C10 UNL     1     -40.678  13.362   5.896  1.00 20.00    -0.008 C 
BRANCH   4   5
HETATM    5  C8  UNL     1     -41.467  13.766   4.631  1.00 20.00     0.000 C 
HETATM    6  C2  UNL     1     -42.784  14.486   4.888  1.00 20.00     0.005 C 
ENDBRANCH   4   5
BRANCH   4   7
HETATM    7  C9  UNL     1     -40.035  11.960   5.806  1.00 20.00     0.000 C 
HETATM    8  C3  UNL     1     -39.287  11.713   4.504  1.00 20.00     0.005 C 
ENDBRANCH   4   7
ENDBRANCH   3   4
ENDBRANCH   1   3
BRANCH   1   9
HETATM    9  C11 UNL     1     -41.406  15.701   8.520  1.00 20.00     0.009 C 
HETATM   10  C4  UNL     1     -42.930  15.762   8.361  1.00 20.00     0.022 C 
HETATM   11  C5  UNL     1     -41.037  16.144   9.948  1.00 20.00     0.022 C 
HETATM   12  C6  UNL     1     -40.726  16.652   7.527  1.00 20.00     0.022 C 
ENDBRANCH   1   9
TORSDOF 5
ENDMDL
MODEL 2
REMARK VINA RESULT:      -3.5      0.723      2.538
REMARK  5 active torsions:
REMARK  status: ('A' for Active; 'I' for Inactive)
REMARK    1  A    between atoms: C1_1  and  C7_7 
REMARK    2  A    between atoms: C1_1  and  C11_11 
REMARK    3  A    between atoms: C7_7  and  C10_10 
REMARK    4  A    between atoms: C8_8  and  C10_10 
REMARK    5  A    between atoms: C9_9  and  C10_10 
ROOT
HETATM    1  C1  UNL     1     -41.302  14.188   8.315  1.00 20.00     0.134 C 
HETATM    2  O12 UNL     1     -41.907  13.310   8.935  1.00 20.00    -0.297 OA
ENDROOT
BRANCH   1   3
HETATM    3  C7  UNL     1     -40.307  13.826   7.214  1.00 20.00     0.083 C 
BRANCH   3   4
HETATM    4  C10 UNL     1     -40.880  12.857   6.158  1.00 20.00    -0.008 C 
BRANCH   4   5
HETATM    5  C8  UNL     1     -39.872  11.729   5.848  1.00 20.00     0.000 C 
HETATM    6  C2  UNL     1     -39.246  11.780   4.460  1.00 20.00     0.005 C 
ENDBRANCH   4   5
BRANCH   4   7
HETATM    7  C9  UNL     1     -41.341  13.639   4.907  1.00 20.00     0.000 C 
HETATM    8  C3  UNL     1     -42.701  14.302   5.067  1.00 20.00     0.005 C 
ENDBRANCH   4   7
ENDBRANCH   3   4
ENDBRANCH   1   3
BRANCH   1   9
HETATM    9  C11 UNL     1     -41.518  15.683   8.631  1.00 20.00     0.009 C 
HETATM   10  C4  UNL     1     -40.694  16.524   7.649  1.00 20.00     0.022 C 
HETATM   11  C5  UNL     1     -43.007  16.035   8.460  1.00 20.00     0.022 C 
HETATM   12  C6  UNL     1     -41.110  15.996  10.077  1.00 20.00     0.022 C 
ENDBRANCH   1   9
TORSDOF 5
ENDMDL
MODEL 3
REMARK VINA RESULT:      -3.5     12.719     14.637
REMARK  5 active torsions:
REMARK  status: ('A' for Active; 'I' for Inactive)
REMARK    1  A    between atoms: C1_1  and  C7_7 
REMARK    2  A    between atoms: C1_1  and  C11_11 
REMARK    3  A    between atoms: C7_7  and  C10_10 
REMARK    4  A    between atoms: C8_8  and  C10_10 
REMARK    5  A    between atoms: C9_9  and  C10_10 
ROOT
HETATM    1  C1  UNL     1     -34.544  17.831  -5.593  1.00 20.00     0.134 C 
HETATM    2  O12 UNL     1     -33.840  18.831  -5.749  1.00 20.00    -0.297 OA
ENDROOT
BRANCH   1   3
HETATM    3  C7  UNL     1     -34.732  17.212  -4.209  1.00 20.00     0.083 C 
BRANCH   3   4
HETATM    4  C10 UNL     1     -33.410  16.767  -3.547  1.00 20.00    -0.008 C 
BRANCH   4   5
HETATM    5  C8  UNL     1     -33.010  15.354  -4.024  1.00 20.00     0.000 C 
HETATM    6  C2  UNL     1     -34.160  14.365  -4.162  1.00 20.00     0.005 C 
ENDBRANCH   4   5
BRANCH   4   7
HETATM    7  C9  UNL     1     -33.509  16.900  -2.011  1.00 20.00     0.000 C 
HETATM    8  C3  UNL     1     -32.608  17.980  -1.431  1.00 20.00     0.005 C 
ENDBRANCH   4   7
ENDBRANCH   3   4
ENDBRANCH   1   3
BRANCH   1   9
HETATM    9  C11 UNL     1     -35.254  17.159  -6.788  1.00 20.00     0.009 C 
HETATM   10  C4  UNL     1     -34.280  16.187  -7.464  1.00 20.00     0.022 C 
HETATM   11  C5  UNL     1     -36.474  16.369  -6.281  1.00 20.00     0.022 C 
HETATM   12  C6  UNL     1     -35.741  18.213  -7.791  1.00 20.00     0.022 C 
ENDBRANCH   1   9
TORSDOF 5
ENDMDL
MODEL 4
REMARK VINA RESULT:      -3.4     11.740     13.787
REMARK  5 active torsions:
REMARK  status: ('A' for Active; 'I' for Inactive)
REMARK    1  A    between atoms: C1_1  and  C7_7 
REMARK    2  A    between atoms: C1_1  and  C11_11 
REMARK    3  A    between atoms: C7_7  and  C10_10 
REMARK    4  A    between atoms: C8_8  and  C10_10 
REMARK    5  A    between atoms: C9_9  and  C10_10 
ROOT
HETATM    1  C1  UNL     1     -35.602  17.854  -4.558  1.00 20.00     0.134 C 
HETATM    2  O12 UNL     1     -36.417  18.312  -3.754  1.00 20.00    -0.297 OA
ENDROOT
BRANCH   1   3
HETATM    3  C7  UNL     1     -34.113  17.802  -4.220  1.00 20.00     0.083 C 
BRANCH   3   4
HETATM    4  C10 UNL     1     -33.758  16.740  -3.158  1.00 20.00    -0.008 C 
BRANCH   4   5
HETATM    5  C8  UNL     1     -32.959  17.375  -1.998  1.00 20.00     0.000 C 
HETATM    6  C2  UNL     1     -33.776  17.720  -0.759  1.00 20.00     0.005 C 
ENDBRANCH   4   5
BRANCH   4   7
HETATM    7  C9  UNL     1     -33.044  15.539  -3.818  1.00 20.00     0.000 C 
HETATM    8  C3  UNL     1     -33.986  14.413  -4.219  1.00 20.00     0.005 C 
ENDBRANCH   4   7
ENDBRANCH   3   4
ENDBRANCH   1   3
BRANCH   1   9
HETATM    9  C11 UNL     1     -36.049  17.325  -5.937  1.00 20.00     0.009 C 
HETATM   10  C4  UNL     1     -36.913  16.074  -5.735  1.00 20.00     0.022 C 
HETATM   11  C5  UNL     1     -36.890  18.399  -6.651  1.00 20.00     0.022 C 
HETATM   12  C6  UNL     1     -34.833  16.999  -6.813  1.00 20.00     0.022 C 
ENDBRANCH   1   9
TORSDOF 5
ENDMDL
MODEL 5
REMARK VINA RESULT:      -3.4      0.594      2.178
REMARK  5 active torsions:
REMARK  status: ('A' for Active; 'I' for Inactive)
REMARK    1  A    between atoms: C1_1  and  C7_7 
REMARK    2  A    between atoms: C1_1  and  C11_11 
REMARK    3  A    between atoms: C7_7  and  C10_10 
REMARK    4  A    between atoms: C8_8  and  C10_10 
REMARK    5  A    between atoms: C9_9  and  C10_10 
ROOT
HETATM    1  C1  UNL     1     -40.686  14.482   8.496  1.00 20.00     0.134 C 
HETATM    2  O12 UNL     1     -40.445  13.624   9.348  1.00 20.00    -0.297 OA
ENDROOT
BRANCH   1   3
HETATM    3  C7  UNL     1     -40.152  14.343   7.071  1.00 20.00     0.083 C 
BRANCH   3   4
HETATM    4  C10 UNL     1     -40.755  13.151   6.299  1.00 20.00    -0.008 C 
BRANCH   4   5
HETATM    5  C8  UNL     1     -39.697  12.045   6.090  1.00 20.00     0.000 C 
HETATM    6  C2  UNL     1     -39.368  11.727   4.637  1.00 20.00     0.005 C 
ENDBRANCH   4   5
BRANCH   4   7
HETATM    7  C9  UNL     1     -41.412  13.638   4.988  1.00 20.00     0.000 C 
HETATM    8  C3  UNL     1     -42.638  14.512   5.206  1.00 20.00     0.005 C 
ENDBRANCH   4   7
ENDBRANCH   3   4
ENDBRANCH   1   3
BRANCH   1   9
HETATM    9  C11 UNL     1     -41.525  15.732   8.834  1.00 20.00     0.009 C 
HETATM   10  C4  UNL     1     -43.012  15.363   8.783  1.00 20.00     0.022 C 
HETATM   11  C5  UNL     1     -41.181  16.212  10.256  1.00 20.00     0.022 C 
HETATM   12  C6  UNL     1     -41.222  16.871   7.852  1.00 20.00     0.022 C 
ENDBRANCH   1   9
TORSDOF 5
ENDMDL
MODEL 6
REMARK VINA RESULT:      -3.3     11.611     13.749
REMARK  5 active torsions:
REMARK  status: ('A' for Active; 'I' for Inactive)
REMARK    1  A    between atoms: C1_1  and  C7_7 
REMARK    2  A    between atoms: C1_1  and  C11_11 
REMARK    3  A    between atoms: C7_7  and  C10_10 
REMARK    4  A    between atoms: C8_8  and  C10_10 
REMARK    5  A    between atoms: C9_9  and  C10_10 
ROOT
HETATM    1  C1  UNL     1     -34.734  16.760  -4.995  1.00 20.00     0.134 C 
HETATM    2  O12 UNL     1     -35.691  17.383  -5.460  1.00 20.00    -0.297 OA
ENDROOT
BRANCH   1   3
HETATM    3  C7  UNL     1     -33.760  17.426  -4.025  1.00 20.00     0.083 C 
BRANCH   3   4
HETATM    4  C10 UNL     1     -34.360  17.683  -2.627  1.00 20.00    -0.008 C 
BRANCH   4   5
HETATM    5  C8  UNL     1     -34.895  19.129  -2.520  1.00 20.00     0.000 C 
HETATM    6  C2  UNL     1     -36.411  19.257  -2.449  1.00 20.00     0.005 C 
ENDBRANCH   4   5
BRANCH   4   7
HETATM    7  C9  UNL     1     -33.337  17.317  -1.528  1.00 20.00     0.000 C 
HETATM    8  C3  UNL     1     -33.664  17.910  -0.166  1.00 20.00     0.005 C 
ENDBRANCH   4   7
ENDBRANCH   3   4
ENDBRANCH   1   3
BRANCH   1   9
HETATM    9  C11 UNL     1     -34.475  15.288  -5.382  1.00 20.00     0.009 C 
HETATM   10  C4  UNL     1     -33.951  15.235  -6.822  1.00 20.00     0.022 C 
HETATM   11  C5  UNL     1     -33.411  14.690  -4.443  1.00 20.00     0.022 C 
HETATM   12  C6  UNL     1     -35.759  14.459  -5.249  1.00 20.00     0.022 C 
ENDBRANCH   1   9
TORSDOF 5
ENDMDL
MODEL 7
REMARK VINA RESULT:      -3.3     10.573     11.612
REMARK  5 active torsions:
REMARK  status: ('A' for Active; 'I' for Inactive)
REMARK    1  A    between atoms: C1_1  and  C7_7 
REMARK    2  A    between atoms: C1_1  and  C11_11 
REMARK    3  A    between atoms: C7_7  and  C10_10 
REMARK    4  A    between atoms: C8_8  and  C10_10 
REMARK    5  A    between atoms: C9_9  and  C10_10 
ROOT
HETATM    1  C1  UNL     1     -33.298   5.893   3.620  1.00 20.00     0.134 C 
HETATM    2  O12 UNL     1     -33.277   4.994   2.777  1.00 20.00    -0.297 OA
ENDROOT
BRANCH   1   3
HETATM    3  C7  UNL     1     -32.302   7.051   3.556  1.00 20.00     0.083 C 
BRANCH   3   4
HETATM    4  C10 UNL     1     -32.803   8.250   2.723  1.00 20.00    -0.008 C 
BRANCH   4   5
HETATM    5  C8  UNL     1     -32.170   8.239   1.314  1.00 20.00     0.000 C 
HETATM    6  C2  UNL     1     -32.669   9.323   0.369  1.00 20.00     0.005 C 
ENDBRANCH   4   5
BRANCH   4   7
HETATM    7  C9  UNL     1     -32.577   9.570   3.495  1.00 20.00     0.000 C 
HETATM    8  C3  UNL     1     -32.035   9.370   4.903  1.00 20.00     0.005 C 
ENDBRANCH   4   7
ENDBRANCH   3   4
ENDBRANCH   1   3
BRANCH   1   9
HETATM    9  C11 UNL     1     -34.320   5.883   4.776  1.00 20.00     0.009 C 
HETATM   10  C4  UNL     1     -35.720   6.140   4.206  1.00 20.00     0.022 C 
HETATM   11  C5  UNL     1     -34.308   4.504   5.460  1.00 20.00     0.022 C 
HETATM   12  C6  UNL     1     -33.965   6.946   5.823  1.00 20.00     0.022 C 
ENDBRANCH   1   9
TORSDOF 5
ENDMDL
MODEL 8
REMARK VINA RESULT:      -3.2     12.260     13.819
REMARK  5 active torsions:
REMARK  status: ('A' for Active; 'I' for Inactive)
REMARK    1  A    between atoms: C1_1  and  C7_7 
REMARK    2  A    between atoms: C1_1  and  C11_11 
REMARK    3  A    between atoms: C7_7  and  C10_10 
REMARK    4  A    between atoms: C8_8  and  C10_10 
REMARK    5  A    between atoms: C9_9  and  C10_10 
ROOT
HETATM    1  C1  UNL     1     -35.198  18.044  -4.167  1.00 20.00     0.134 C 
HETATM    2  O12 UNL     1     -35.931  18.354  -3.226  1.00 20.00    -0.297 OA
ENDROOT
BRANCH   1   3
HETATM    3  C7  UNL     1     -33.680  17.995  -3.996  1.00 20.00     0.083 C 
BRANCH   3   4
HETATM    4  C10 UNL     1     -33.203  16.885  -3.035  1.00 20.00    -0.008 C 
BRANCH   4   5
HETATM    5  C8  UNL     1     -33.866  15.535  -3.389  1.00 20.00     0.000 C 
HETATM    6  C2  UNL     1     -33.148  14.719  -4.456  1.00 20.00     0.005 C 
ENDBRANCH   4   5
BRANCH   4   7
HETATM    7  C9  UNL     1     -33.420  17.318  -1.568  1.00 20.00     0.000 C 
HETATM    8  C3  UNL     1     -32.308  18.201  -1.020  1.00 20.00     0.005 C 
ENDBRANCH   4   7
ENDBRANCH   3   4
ENDBRANCH   1   3
BRANCH   1   9
HETATM    9  C11 UNL     1     -35.780  17.704  -5.556  1.00 20.00     0.009 C 
HETATM   10  C4  UNL     1     -36.588  18.904  -6.065  1.00 20.00     0.022 C 
HETATM   11  C5  UNL     1     -34.630  17.426  -6.541  1.00 20.00     0.022 C 
HETATM   12  C6  UNL     1     -36.667  16.455  -5.480  1.00 20.00     0.022 C 
ENDBRANCH   1   9
TORSDOF 5
ENDMDL
MODEL 9
REMARK VINA RESULT:      -3.2     12.079     13.838
REMARK  5 active torsions:
REMARK  status: ('A' for Active; 'I' for Inactive)
REMARK    1  A    between atoms: C1_1  and  C7_7 
REMARK    2  A    between atoms: C1_1  and  C11_11 
REMARK    3  A    between atoms: C7_7  and  C10_10 
REMARK    4  A    between atoms: C8_8  and  C10_10 
REMARK    5  A    between atoms: C9_9  and  C10_10 
ROOT
HETATM    1  C1  UNL     1     -33.667  16.711  -3.793  1.00 20.00     0.134 C 
HETATM    2  O12 UNL     1     -32.932  15.754  -3.541  1.00 20.00    -0.297 OA
ENDROOT
BRANCH   1   3
HETATM    3  C7  UNL     1     -34.417  16.796  -5.122  1.00 20.00     0.083 C 
BRANCH   3   4
HETATM    4  C10 UNL     1     -34.562  15.436  -5.836  1.00 20.00    -0.008 C 
BRANCH   4   5
HETATM    5  C8  UNL     1     -34.148  15.553  -7.320  1.00 20.00     0.000 C 
HETATM    6  C2  UNL     1     -34.242  16.953  -7.912  1.00 20.00     0.005 C 
ENDBRANCH   4   5
BRANCH   4   7
HETATM    7  C9  UNL     1     -35.986  14.872  -5.631  1.00 20.00     0.000 C 
HETATM    8  C3  UNL     1     -37.062  15.943  -5.544  1.00 20.00     0.005 C 
ENDBRANCH   4   7
ENDBRANCH   3   4
ENDBRANCH   1   3
BRANCH   1   9
HETATM    9  C11 UNL     1     -33.853  17.865  -2.784  1.00 20.00     0.009 C 
HETATM   10  C4  UNL     1     -32.846  18.976  -3.106  1.00 20.00     0.022 C 
HETATM   11  C5  UNL     1     -35.278  18.434  -2.911  1.00 20.00     0.022 C 
HETATM   12  C6  UNL     1     -33.656  17.365  -1.347  1.00 20.00     0.022 C 
ENDBRANCH   1   9
TORSDOF 5
ENDMDL
