MODEL 1
REMARK VINA RESULT:      -4.3      0.000      0.000
REMARK  2 active torsions:
REMARK  status: ('A' for Active; 'I' for Inactive)
REMARK    1  A    between atoms: C4_4  and  C7_7 
REMARK    2  A    between atoms: C7_7  and  C8_8 
ROOT
HETATM    1  C1  UNL     1     -34.687   5.997   4.507  1.00 20.00     0.033 C 
HETATM    2  C2  UNL     1     -35.093   5.307   5.793  1.00 20.00     0.168 C 
HETATM    3  C3  UNL     1     -33.826   7.185   6.337  1.00 20.00     0.172 C 
HETATM    4  C4  UNL     1     -33.440   6.738   4.938  1.00 20.00     0.016 C 
HETATM    5  O9  UNL     1     -34.681   6.162   6.870  1.00 20.00    -0.391 OA
ENDROOT
BRANCH   4   6
HETATM    6  C7  UNL     1     -33.044   7.877   4.019  1.00 20.00     0.002 C 
HETATM    7  C5  UNL     1     -32.371   8.968   4.819  1.00 20.00     0.011 C 
BRANCH   6   8
HETATM    8  C8  UNL     1     -32.200   7.356   2.839  1.00 20.00     0.058 C 
HETATM    9  C6  UNL     1     -32.498   5.936   2.379  1.00 20.00     0.022 C 
HETATM   10 BR10 UNL     1     -32.387   8.559   1.294  1.00 20.00    -0.091 Br
ENDBRANCH   6   8
ENDBRANCH   4   6
TORSDOF 2
ENDMDL
MODEL 2
REMARK VINA RESULT:      -4.1      0.967      2.223
REMARK  2 active torsions:
REMARK  status: ('A' for Active; 'I' for Inactive)
REMARK    1  A    between atoms: C4_4  and  C7_7 
REMARK    2  A    between atoms: C7_7  and  C8_8 
ROOT
HETATM    1  C1  UNL     1     -33.789   6.703   6.039  1.00 20.00     0.033 C 
HETATM    2  C2  UNL     1     -34.888   5.864   6.658  1.00 20.00     0.168 C 
HETATM    3  C3  UNL     1     -34.411   5.004   4.547  1.00 20.00     0.172 C 
HETATM    4  C4  UNL     1     -34.023   6.472   4.562  1.00 20.00     0.016 C 
HETATM    5  O9  UNL     1     -35.110   4.754   5.776  1.00 20.00    -0.391 OA
ENDROOT
BRANCH   4   6
HETATM    6  C7  UNL     1     -32.830   6.799   3.685  1.00 20.00     0.002 C 
HETATM    7  C5  UNL     1     -32.742   5.805   2.551  1.00 20.00     0.011 C 
BRANCH   6   8
HETATM    8  C8  UNL     1     -32.881   8.269   3.224  1.00 20.00     0.058 C 
HETATM    9  C6  UNL     1     -32.169   9.276   4.117  1.00 20.00     0.022 C 
HETATM   10 BR10 UNL     1     -32.151   8.431   1.405  1.00 20.00    -0.091 Br
ENDBRANCH   6   8
ENDBRANCH   4   6
TORSDOF 2
ENDMDL
MODEL 3
REMARK VINA RESULT:      -4.1     12.126     13.223
REMARK  2 active torsions:
REMARK  status: ('A' for Active; 'I' for Inactive)
REMARK    1  A    between atoms: C4_4  and  C7_7 
REMARK    2  A    between atoms: C7_7  and  C8_8 
ROOT
HETATM    1  C1  UNL     1     -33.470  17.196  -1.797  1.00 20.00     0.033 C 
HETATM    2  C2  UNL     1     -32.382  18.108  -1.266  1.00 20.00     0.168 C 
HETATM    3  C3  UNL     1     -32.928  18.796  -3.424  1.00 20.00     0.172 C 
HETATM    4  C4  UNL     1     -33.273  17.323  -3.292  1.00 20.00     0.016 C 
HETATM    5  O9  UNL     1     -32.211  19.155  -2.233  1.00 20.00    -0.391 OA
ENDROOT
BRANCH   4   6
HETATM    6  C7  UNL     1     -34.475  16.900  -4.115  1.00 20.00     0.002 C 
HETATM    7  C5  UNL     1     -35.020  18.090  -4.871  1.00 20.00     0.011 C 
BRANCH   6   8
HETATM    8  C8  UNL     1     -34.123  15.697  -5.012  1.00 20.00     0.058 C 
HETATM    9  C6  UNL     1     -33.389  14.549  -4.334  1.00 20.00     0.022 C 
HETATM   10 BR10 UNL     1     -35.753  14.982  -5.850  1.00 20.00    -0.091 Br
ENDBRANCH   6   8
ENDBRANCH   4   6
TORSDOF 2
ENDMDL
MODEL 4
REMARK VINA RESULT:      -4.0     12.507     13.666
REMARK  2 active torsions:
REMARK  status: ('A' for Active; 'I' for Inactive)
REMARK    1  A    between atoms: C4_4  and  C7_7 
REMARK    2  A    between atoms: C7_7  and  C8_8 
ROOT
HETATM    1  C1  UNL     1     -35.991  15.336  -5.724  1.00 20.00     0.033 C 
HETATM    2  C2  UNL     1     -36.136  15.219  -7.228  1.00 20.00     0.168 C 
HETATM    3  C3  UNL     1     -33.865  15.294  -6.712  1.00 20.00     0.172 C 
HETATM    4  C4  UNL     1     -34.630  15.984  -5.597  1.00 20.00     0.016 C 
HETATM    5  O9  UNL     1     -34.815  15.035  -7.758  1.00 20.00    -0.391 OA
ENDROOT
BRANCH   4   6
HETATM    6  C7  UNL     1     -33.992  15.827  -4.230  1.00 20.00     0.002 C 
HETATM    7  C5  UNL     1     -32.959  14.725  -4.272  1.00 20.00     0.011 C 
BRANCH   6   8
HETATM    8  C8  UNL     1     -33.445  17.178  -3.726  1.00 20.00     0.058 C 
HETATM    9  C6  UNL     1     -34.119  18.423  -4.285  1.00 20.00     0.022 C 
HETATM   10 BR10 UNL     1     -33.537  17.253  -1.763  1.00 20.00    -0.091 Br
ENDBRANCH   6   8
ENDBRANCH   4   6
TORSDOF 2
ENDMDL
MODEL 5
REMARK VINA RESULT:      -3.9     12.147     13.114
REMARK  2 active torsions:
REMARK  status: ('A' for Active; 'I' for Inactive)
REMARK    1  A    between atoms: C4_4  and  C7_7 
REMARK    2  A    between atoms: C7_7  and  C8_8 
ROOT
HETATM    1  C1  UNL     1     -32.974  15.730  -3.652  1.00 20.00     0.033 C 
HETATM    2  C2  UNL     1     -34.043  14.957  -4.397  1.00 20.00     0.168 C 
HETATM    3  C3  UNL     1     -34.609  17.217  -4.437  1.00 20.00     0.172 C 
HETATM    4  C4  UNL     1     -33.734  16.966  -3.222  1.00 20.00     0.016 C 
HETATM    5  O9  UNL     1     -34.919  15.928  -4.988  1.00 20.00    -0.391 OA
ENDROOT
BRANCH   4   6
HETATM    6  C7  UNL     1     -32.850  18.141  -2.851  1.00 20.00     0.002 C 
HETATM    7  C5  UNL     1     -33.047  19.262  -3.845  1.00 20.00     0.011 C 
BRANCH   6   8
HETATM    8  C8  UNL     1     -33.085  18.558  -1.385  1.00 20.00     0.058 C 
HETATM    9  C6  UNL     1     -34.058  17.696  -0.593  1.00 20.00     0.022 C 
HETATM   10 BR10 UNL     1     -31.374  18.610  -0.417  1.00 20.00    -0.091 Br
ENDBRANCH   6   8
ENDBRANCH   4   6
TORSDOF 2
ENDMDL
MODEL 6
REMARK VINA RESULT:      -3.9      9.950     10.717
REMARK  2 active torsions:
REMARK  status: ('A' for Active; 'I' for Inactive)
REMARK    1  A    between atoms: C4_4  and  C7_7 
REMARK    2  A    between atoms: C7_7  and  C8_8 
ROOT
HETATM    1  C1  UNL     1     -39.389  12.043   6.102  1.00 20.00     0.033 C 
HETATM    2  C2  UNL     1     -39.232  11.722   4.630  1.00 20.00     0.168 C 
HETATM    3  C3  UNL     1     -40.932  13.299   4.860  1.00 20.00     0.172 C 
HETATM    4  C4  UNL     1     -40.823  12.522   6.160  1.00 20.00     0.016 C 
HETATM    5  O9  UNL     1     -40.081  12.632   3.915  1.00 20.00    -0.391 OA
ENDROOT
BRANCH   4   6
HETATM    6  C7  UNL     1     -41.155  13.342   7.392  1.00 20.00     0.002 C 
HETATM    7  C5  UNL     1     -40.641  14.753   7.221  1.00 20.00     0.011 C 
BRANCH   6   8
HETATM    8  C8  UNL     1     -42.661  13.260   7.710  1.00 20.00     0.058 C 
HETATM    9  C6  UNL     1     -43.349  11.948   7.361  1.00 20.00     0.022 C 
HETATM   10 BR10 UNL     1     -42.969  13.632   9.617  1.00 20.00    -0.091 Br
ENDBRANCH   6   8
ENDBRANCH   4   6
TORSDOF 2
ENDMDL
MODEL 7
REMARK VINA RESULT:      -3.8     12.016     13.118
REMARK  2 active torsions:
REMARK  status: ('A' for Active; 'I' for Inactive)
REMARK    1  A    between atoms: C4_4  and  C7_7 
REMARK    2  A    between atoms: C7_7  and  C8_8 
ROOT
HETATM    1  C1  UNL     1     -33.472  16.651  -2.135  1.00 20.00     0.033 C 
HETATM    2  C2  UNL     1     -33.888  17.847  -1.302  1.00 20.00     0.168 C 
HETATM    3  C3  UNL     1     -34.867  18.044  -3.407  1.00 20.00     0.172 C 
HETATM    4  C4  UNL     1     -33.616  17.194  -3.541  1.00 20.00     0.016 C 
HETATM    5  O9  UNL     1     -34.861  18.569  -2.071  1.00 20.00    -0.391 OA
ENDROOT
BRANCH   4   6
HETATM    6  C7  UNL     1     -33.714  16.125  -4.612  1.00 20.00     0.002 C 
HETATM    7  C5  UNL     1     -33.695  14.757  -3.971  1.00 20.00     0.011 C 
BRANCH   6   8
HETATM    8  C8  UNL     1     -34.936  16.374  -5.518  1.00 20.00     0.058 C 
HETATM    9  C6  UNL     1     -34.633  16.826  -6.940  1.00 20.00     0.022 C 
HETATM   10 BR10 UNL     1     -36.050  14.755  -5.607  1.00 20.00    -0.091 Br
ENDBRANCH   6   8
ENDBRANCH   4   6
TORSDOF 2
ENDMDL
MODEL 8
REMARK VINA RESULT:      -3.7     10.216     11.058
REMARK  2 active torsions:
REMARK  status: ('A' for Active; 'I' for Inactive)
REMARK    1  A    between atoms: C4_4  and  C7_7 
REMARK    2  A    between atoms: C7_7  and  C8_8 
ROOT
HETATM    1  C1  UNL     1     -39.953  12.541   6.429  1.00 20.00     0.033 C 
HETATM    2  C2  UNL     1     -39.642  12.072   5.023  1.00 20.00     0.168 C 
HETATM    3  C3  UNL     1     -41.367  13.634   4.910  1.00 20.00     0.172 C 
HETATM    4  C4  UNL     1     -41.389  12.998   6.289  1.00 20.00     0.016 C 
HETATM    5  O9  UNL     1     -40.417  12.888   4.133  1.00 20.00    -0.391 OA
ENDROOT
BRANCH   4   6
HETATM    6  C7  UNL     1     -41.853  13.935   7.387  1.00 20.00     0.002 C 
HETATM    7  C5  UNL     1     -42.779  13.198   8.328  1.00 20.00     0.011 C 
BRANCH   6   8
HETATM    8  C8  UNL     1     -40.647  14.594   8.086  1.00 20.00     0.058 C 
HETATM    9  C6  UNL     1     -40.417  16.066   7.777  1.00 20.00     0.022 C 
HETATM   10 BR10 UNL     1     -40.803  14.388  10.036  1.00 20.00    -0.091 Br
ENDBRANCH   6   8
ENDBRANCH   4   6
TORSDOF 2
ENDMDL
MODEL 9
REMARK VINA RESULT:      -3.6     12.844     13.938
REMARK  2 active torsions:
REMARK  status: ('A' for Active; 'I' for Inactive)
REMARK    1  A    between atoms: C4_4  and  C7_7 
REMARK    2  A    between atoms: C7_7  and  C8_8 
ROOT
HETATM    1  C1  UNL     1     -34.899  16.563  -7.087  1.00 20.00     0.033 C 
HETATM    2  C2  UNL     1     -36.074  15.840  -7.713  1.00 20.00     0.168 C 
HETATM    3  C3  UNL     1     -36.655  16.438  -5.538  1.00 20.00     0.172 C 
HETATM    4  C4  UNL     1     -35.143  16.324  -5.613  1.00 20.00     0.016 C 
HETATM    5  O9  UNL     1     -37.164  15.939  -6.784  1.00 20.00    -0.391 OA
ENDROOT
BRANCH   4   6
HETATM    6  C7  UNL     1     -34.410  17.286  -4.698  1.00 20.00     0.002 C 
HETATM    7  C5  UNL     1     -35.409  18.114  -3.922  1.00 20.00     0.011 C 
BRANCH   6   8
HETATM    8  C8  UNL     1     -33.402  16.530  -3.809  1.00 20.00     0.058 C 
HETATM    9  C6  UNL     1     -33.513  16.778  -2.312  1.00 20.00     0.022 C 
HETATM   10 BR10 UNL     1     -33.540  14.594  -4.129  1.00 20.00    -0.091 Br
ENDBRANCH   6   8
ENDBRANCH   4   6
TORSDOF 2
ENDMDL
