MODEL 1
REMARK VINA RESULT:      -3.9      0.000      0.000
REMARK  4 active torsions:
REMARK  status: ('A' for Active; 'I' for Inactive)
REMARK    1  A    between atoms: C2_2  and  C6_6 
REMARK    2  A    between atoms: C2_2  and  C7_7 
REMARK    3  A    between atoms: C7_7  and  C8_8 
REMARK    4  A    between atoms: C8_8  and  C9_9 
ROOT
HETATM    1  C7  UNL     1     -33.996   7.844   4.816  1.00 20.00     0.039 C 
ENDROOT
BRANCH   1   2
HETATM    2  C2  UNL     1     -32.655   8.197   4.200  1.00 20.00    -0.089 C 
HETATM    3  C1  UNL     1     -31.935   9.230   4.668  1.00 20.00     0.014 C 
BRANCH   2   4
HETATM    4  C6  UNL     1     -32.144   7.357   3.052  1.00 20.00     0.029 C 
HETATM    5  C3  UNL     1     -32.198   8.077   1.711  1.00 20.00     0.010 C 
ENDBRANCH   2   4
ENDBRANCH   1   2
BRANCH   1   6
HETATM    6  C8  UNL     1     -34.012   6.529   5.634  1.00 20.00     0.003 C 
HETATM    7  C4  UNL     1     -34.443   6.782   7.087  1.00 20.00     0.011 C 
BRANCH   6   8
HETATM    8  C9  UNL     1     -34.877   5.415   4.988  1.00 20.00     0.082 C 
HETATM    9  C5  UNL     1     -35.961   5.956   4.059  1.00 20.00     0.027 C 
HETATM   10 CL10 UNL     1     -33.897   4.210   4.095  1.00 20.00    -0.125 Cl
ENDBRANCH   6   8
ENDBRANCH   1   6
TORSDOF 4
ENDMDL
MODEL 2
REMARK VINA RESULT:      -3.7      1.808      2.482
REMARK  4 active torsions:
REMARK  status: ('A' for Active; 'I' for Inactive)
REMARK    1  A    between atoms: C2_2  and  C6_6 
REMARK    2  A    between atoms: C2_2  and  C7_7 
REMARK    3  A    between atoms: C7_7  and  C8_8 
REMARK    4  A    between atoms: C8_8  and  C9_9 
ROOT
HETATM    1  C7  UNL     1     -32.415   7.000   3.618  1.00 20.00     0.039 C 
ENDROOT
BRANCH   1   2
HETATM    2  C2  UNL     1     -32.451   8.253   2.763  1.00 20.00    -0.089 C 
HETATM    3  C1  UNL     1     -32.754   9.445   3.305  1.00 20.00     0.014 C 
BRANCH   2   4
HETATM    4  C6  UNL     1     -32.133   8.133   1.291  1.00 20.00     0.029 C 
HETATM    5  C3  UNL     1     -32.675   9.289   0.463  1.00 20.00     0.010 C 
ENDBRANCH   2   4
ENDBRANCH   1   2
BRANCH   1   6
HETATM    6  C8  UNL     1     -33.751   6.218   3.685  1.00 20.00     0.003 C 
HETATM    7  C4  UNL     1     -33.553   4.744   3.299  1.00 20.00     0.011 C 
BRANCH   6   8
HETATM    8  C9  UNL     1     -34.464   6.339   5.057  1.00 20.00     0.082 C 
HETATM    9  C5  UNL     1     -34.589   5.006   5.791  1.00 20.00     0.027 C 
HETATM   10 CL10 UNL     1     -33.677   7.527   6.143  1.00 20.00    -0.125 Cl
ENDBRANCH   6   8
ENDBRANCH   1   6
TORSDOF 4
ENDMDL
MODEL 3
REMARK VINA RESULT:      -3.7     12.177     13.268
REMARK  4 active torsions:
REMARK  status: ('A' for Active; 'I' for Inactive)
REMARK    1  A    between atoms: C2_2  and  C6_6 
REMARK    2  A    between atoms: C2_2  and  C7_7 
REMARK    3  A    between atoms: C7_7  and  C8_8 
REMARK    4  A    between atoms: C8_8  and  C9_9 
ROOT
HETATM    1  C7  UNL     1     -33.654  16.996  -1.530  1.00 20.00     0.039 C 
ENDROOT
BRANCH   1   2
HETATM    2  C2  UNL     1     -33.177  18.176  -0.704  1.00 20.00    -0.089 C 
HETATM    3  C1  UNL     1     -34.043  18.894   0.030  1.00 20.00     0.014 C 
BRANCH   2   4
HETATM    4  C6  UNL     1     -31.706  18.522  -0.721  1.00 20.00     0.029 C 
HETATM    5  C3  UNL     1     -31.077  18.533   0.665  1.00 20.00     0.010 C 
ENDBRANCH   2   4
ENDBRANCH   1   2
BRANCH   1   6
HETATM    6  C8  UNL     1     -33.216  17.021  -3.016  1.00 20.00     0.003 C 
HETATM    7  C4  UNL     1     -33.407  15.647  -3.677  1.00 20.00     0.011 C 
BRANCH   6   8
HETATM    8  C9  UNL     1     -33.913  18.133  -3.842  1.00 20.00     0.082 C 
HETATM    9  C5  UNL     1     -32.970  19.262  -4.249  1.00 20.00     0.027 C 
HETATM   10 CL10 UNL     1     -34.723  17.498  -5.309  1.00 20.00    -0.125 Cl
ENDBRANCH   6   8
ENDBRANCH   1   6
TORSDOF 4
ENDMDL
MODEL 4
REMARK VINA RESULT:      -3.7      1.424      1.801
REMARK  4 active torsions:
REMARK  status: ('A' for Active; 'I' for Inactive)
REMARK    1  A    between atoms: C2_2  and  C6_6 
REMARK    2  A    between atoms: C2_2  and  C7_7 
REMARK    3  A    between atoms: C7_7  and  C8_8 
REMARK    4  A    between atoms: C8_8  and  C9_9 
ROOT
HETATM    1  C7  UNL     1     -33.753   8.379   4.111  1.00 20.00     0.039 C 
ENDROOT
BRANCH   1   2
HETATM    2  C2  UNL     1     -32.746   8.487   2.981  1.00 20.00    -0.089 C 
HETATM    3  C1  UNL     1     -31.737   7.607   2.875  1.00 20.00     0.014 C 
BRANCH   2   4
HETATM    4  C6  UNL     1     -32.906   9.604   1.976  1.00 20.00     0.029 C 
HETATM    5  C3  UNL     1     -32.655   9.160   0.541  1.00 20.00     0.010 C 
ENDBRANCH   2   4
ENDBRANCH   1   2
BRANCH   1   6
HETATM    6  C8  UNL     1     -33.552   7.163   5.050  1.00 20.00     0.003 C 
HETATM    7  C4  UNL     1     -33.639   7.578   6.527  1.00 20.00     0.011 C 
BRANCH   6   8
HETATM    8  C9  UNL     1     -34.520   5.989   4.749  1.00 20.00     0.082 C 
HETATM    9  C5  UNL     1     -33.967   4.999   3.726  1.00 20.00     0.027 C 
HETATM   10 CL10 UNL     1     -34.998   5.092   6.224  1.00 20.00    -0.125 Cl
ENDBRANCH   6   8
ENDBRANCH   1   6
TORSDOF 4
ENDMDL
MODEL 5
REMARK VINA RESULT:      -3.6      2.084      4.527
REMARK  4 active torsions:
REMARK  status: ('A' for Active; 'I' for Inactive)
REMARK    1  A    between atoms: C2_2  and  C6_6 
REMARK    2  A    between atoms: C2_2  and  C7_7 
REMARK    3  A    between atoms: C7_7  and  C8_8 
REMARK    4  A    between atoms: C8_8  and  C9_9 
ROOT
HETATM    1  C7  UNL     1     -34.295   6.329   3.907  1.00 20.00     0.039 C 
ENDROOT
BRANCH   1   2
HETATM    2  C2  UNL     1     -34.278   5.170   4.886  1.00 20.00    -0.089 C 
HETATM    3  C1  UNL     1     -33.896   3.944   4.492  1.00 20.00     0.014 C 
BRANCH   2   4
HETATM    4  C6  UNL     1     -34.695   5.427   6.316  1.00 20.00     0.029 C 
HETATM    5  C3  UNL     1     -34.363   6.833   6.794  1.00 20.00     0.010 C 
ENDBRANCH   2   4
ENDBRANCH   1   2
BRANCH   1   6
HETATM    6  C8  UNL     1     -32.928   7.028   3.700  1.00 20.00     0.003 C 
HETATM    7  C4  UNL     1     -32.278   6.600   2.375  1.00 20.00     0.011 C 
BRANCH   6   8
HETATM    8  C9  UNL     1     -33.009   8.574   3.801  1.00 20.00     0.082 C 
HETATM    9  C5  UNL     1     -32.077   9.157   4.860  1.00 20.00     0.027 C 
HETATM   10 CL10 UNL     1     -32.688   9.386   2.236  1.00 20.00    -0.125 Cl
ENDBRANCH   6   8
ENDBRANCH   1   6
TORSDOF 4
ENDMDL
MODEL 6
REMARK VINA RESULT:      -3.6     12.078     12.971
REMARK  4 active torsions:
REMARK  status: ('A' for Active; 'I' for Inactive)
REMARK    1  A    between atoms: C2_2  and  C6_6 
REMARK    2  A    between atoms: C2_2  and  C7_7 
REMARK    3  A    between atoms: C7_7  and  C8_8 
REMARK    4  A    between atoms: C8_8  and  C9_9 
ROOT
HETATM    1  C7  UNL     1     -33.130  16.915  -2.165  1.00 20.00     0.039 C 
ENDROOT
BRANCH   1   2
HETATM    2  C2  UNL     1     -32.969  17.901  -1.023  1.00 20.00    -0.089 C 
HETATM    3  C1  UNL     1     -34.023  18.256  -0.269  1.00 20.00     0.014 C 
BRANCH   2   4
HETATM    4  C6  UNL     1     -31.597  18.472  -0.749  1.00 20.00     0.029 C 
HETATM    5  C3  UNL     1     -31.247  18.508   0.732  1.00 20.00     0.010 C 
ENDBRANCH   2   4
ENDBRANCH   1   2
BRANCH   1   6
HETATM    6  C8  UNL     1     -33.907  17.457  -3.390  1.00 20.00     0.003 C 
HETATM    7  C4  UNL     1     -33.250  18.730  -3.949  1.00 20.00     0.011 C 
BRANCH   6   8
HETATM    8  C9  UNL     1     -34.102  16.401  -4.509  1.00 20.00     0.082 C 
HETATM    9  C5  UNL     1     -33.798  14.976  -4.052  1.00 20.00     0.027 C 
HETATM   10 CL10 UNL     1     -35.747  16.443  -5.219  1.00 20.00    -0.125 Cl
ENDBRANCH   6   8
ENDBRANCH   1   6
TORSDOF 4
ENDMDL
MODEL 7
REMARK VINA RESULT:      -3.5      2.184      4.121
REMARK  4 active torsions:
REMARK  status: ('A' for Active; 'I' for Inactive)
REMARK    1  A    between atoms: C2_2  and  C6_6 
REMARK    2  A    between atoms: C2_2  and  C7_7 
REMARK    3  A    between atoms: C7_7  and  C8_8 
REMARK    4  A    between atoms: C8_8  and  C9_9 
ROOT
HETATM    1  C7  UNL     1     -33.989   7.160   4.061  1.00 20.00     0.039 C 
ENDROOT
BRANCH   1   2
HETATM    2  C2  UNL     1     -33.891   7.391   5.557  1.00 20.00    -0.089 C 
HETATM    3  C1  UNL     1     -33.432   8.556   6.044  1.00 20.00     0.014 C 
BRANCH   2   4
HETATM    4  C6  UNL     1     -34.325   6.282   6.489  1.00 20.00     0.029 C 
HETATM    5  C3  UNL     1     -34.655   4.985   5.764  1.00 20.00     0.010 C 
ENDBRANCH   2   4
ENDBRANCH   1   2
BRANCH   1   6
HETATM    6  C8  UNL     1     -32.653   6.791   3.369  1.00 20.00     0.003 C 
HETATM    7  C4  UNL     1     -32.794   5.510   2.532  1.00 20.00     0.011 C 
BRANCH   6   8
HETATM    8  C9  UNL     1     -32.065   7.945   2.515  1.00 20.00     0.082 C 
HETATM    9  C5  UNL     1     -32.103   7.665   1.015  1.00 20.00     0.027 C 
HETATM   10 CL10 UNL     1     -32.866   9.516   2.832  1.00 20.00    -0.125 Cl
ENDBRANCH   6   8
ENDBRANCH   1   6
TORSDOF 4
ENDMDL
MODEL 8
REMARK VINA RESULT:      -3.5     12.039     13.079
REMARK  4 active torsions:
REMARK  status: ('A' for Active; 'I' for Inactive)
REMARK    1  A    between atoms: C2_2  and  C6_6 
REMARK    2  A    between atoms: C2_2  and  C7_7 
REMARK    3  A    between atoms: C7_7  and  C8_8 
REMARK    4  A    between atoms: C8_8  and  C9_9 
ROOT
HETATM    1  C7  UNL     1     -33.565  16.652  -2.402  1.00 20.00     0.039 C 
ENDROOT
BRANCH   1   2
HETATM    2  C2  UNL     1     -32.970  17.974  -1.957  1.00 20.00    -0.089 C 
HETATM    3  C1  UNL     1     -32.718  18.948  -2.847  1.00 20.00     0.014 C 
BRANCH   2   4
HETATM    4  C6  UNL     1     -32.671  18.174  -0.488  1.00 20.00     0.029 C 
HETATM    5  C3  UNL     1     -31.225  18.565  -0.218  1.00 20.00     0.010 C 
ENDBRANCH   2   4
ENDBRANCH   1   2
BRANCH   1   6
HETATM    6  C8  UNL     1     -33.458  16.367  -3.921  1.00 20.00     0.003 C 
HETATM    7  C4  UNL     1     -32.945  14.943  -4.186  1.00 20.00     0.011 C 
BRANCH   6   8
HETATM    8  C9  UNL     1     -34.781  16.629  -4.688  1.00 20.00     0.082 C 
HETATM    9  C5  UNL     1     -34.635  17.659  -5.805  1.00 20.00     0.027 C 
HETATM   10 CL10 UNL     1     -35.492  15.132  -5.370  1.00 20.00    -0.125 Cl
ENDBRANCH   6   8
ENDBRANCH   1   6
TORSDOF 4
ENDMDL
MODEL 9
REMARK VINA RESULT:      -3.5      1.920      3.728
REMARK  4 active torsions:
REMARK  status: ('A' for Active; 'I' for Inactive)
REMARK    1  A    between atoms: C2_2  and  C6_6 
REMARK    2  A    between atoms: C2_2  and  C7_7 
REMARK    3  A    between atoms: C7_7  and  C8_8 
REMARK    4  A    between atoms: C8_8  and  C9_9 
ROOT
HETATM    1  C7  UNL     1     -34.241   7.385   4.386  1.00 20.00     0.039 C 
ENDROOT
BRANCH   1   2
HETATM    2  C2  UNL     1     -34.138   6.974   5.842  1.00 20.00    -0.089 C 
HETATM    3  C1  UNL     1     -33.983   7.896   6.807  1.00 20.00     0.014 C 
BRANCH   2   4
HETATM    4  C6  UNL     1     -34.219   5.504   6.185  1.00 20.00     0.029 C 
HETATM    5  C3  UNL     1     -34.627   4.634   5.004  1.00 20.00     0.010 C 
ENDBRANCH   2   4
ENDBRANCH   1   2
BRANCH   1   6
HETATM    6  C8  UNL     1     -33.009   8.146   3.834  1.00 20.00     0.003 C 
HETATM    7  C4  UNL     1     -32.117   8.663   4.974  1.00 20.00     0.011 C 
BRANCH   6   8
HETATM    8  C9  UNL     1     -32.181   7.318   2.817  1.00 20.00     0.082 C 
HETATM    9  C5  UNL     1     -32.714   5.902   2.618  1.00 20.00     0.027 C 
HETATM   10 CL10 UNL     1     -32.049   8.118   1.220  1.00 20.00    -0.125 Cl
ENDBRANCH   6   8
ENDBRANCH   1   6
TORSDOF 4
ENDMDL
