MODEL 1
REMARK VINA RESULT:      -4.1      0.000      0.000
REMARK  3 active torsions:
REMARK  status: ('A' for Active; 'I' for Inactive)
REMARK    1  A    between atoms: C1_1  and  C5_5 
REMARK    2  A    between atoms: C1_1  and  C8_8 
REMARK    3  A    between atoms: C8_8  and  C9_9 
ROOT
HETATM    1  C2  UNL     1     -35.136  16.912  -7.349  1.00 20.00     0.029 C 
HETATM    2  C3  UNL     1     -35.089  16.768  -5.847  1.00 20.00     0.048 C 
HETATM    3  C4  UNL     1     -34.074  15.935  -7.792  1.00 20.00     0.169 C 
HETATM    4  C5  UNL     1     -34.760  15.292  -5.659  1.00 20.00     0.117 C 
HETATM    5  C6  UNL     1     -35.990  14.430  -5.404  1.00 20.00     0.054 C 
HETATM    6  O11 UNL     1     -34.130  14.841  -6.867  1.00 20.00    -0.373 OA
ENDROOT
BRANCH   4   7
HETATM    7  C1  UNL     1     -33.751  15.101  -4.567  1.00 20.00     0.160 C 
HETATM    8  O10 UNL     1     -33.375  13.977  -4.239  1.00 20.00    -0.295 OA
BRANCH   7   9
HETATM    9  C8  UNL     1     -33.235  16.368  -3.906  1.00 20.00     0.081 C 
BRANCH   9  10
HETATM   10  C9  UNL     1     -33.521  16.405  -2.408  1.00 20.00     0.003 C 
HETATM   11  C7  UNL     1     -32.946  17.655  -1.762  1.00 20.00     0.005 C 
ENDBRANCH   9  10
ENDBRANCH   7   9
ENDBRANCH   4   7
TORSDOF 3
ENDMDL
MODEL 2
REMARK VINA RESULT:      -4.0      1.224      1.860
REMARK  3 active torsions:
REMARK  status: ('A' for Active; 'I' for Inactive)
REMARK    1  A    between atoms: C1_1  and  C5_5 
REMARK    2  A    between atoms: C1_1  and  C8_8 
REMARK    3  A    between atoms: C8_8  and  C9_9 
ROOT
HETATM    1  C2  UNL     1     -36.987  16.155  -5.937  1.00 20.00     0.029 C 
HETATM    2  C3  UNL     1     -36.153  14.977  -5.492  1.00 20.00     0.048 C 
HETATM    3  C4  UNL     1     -36.241  17.316  -5.324  1.00 20.00     0.169 C 
HETATM    4  C5  UNL     1     -34.738  15.543  -5.499  1.00 20.00     0.117 C 
HETATM    5  C6  UNL     1     -33.969  15.224  -6.774  1.00 20.00     0.054 C 
HETATM    6  O11 UNL     1     -34.852  16.969  -5.377  1.00 20.00    -0.373 OA
ENDROOT
BRANCH   4   7
HETATM    7  C1  UNL     1     -33.971  15.083  -4.295  1.00 20.00     0.160 C 
HETATM    8  O10 UNL     1     -34.065  13.927  -3.886  1.00 20.00    -0.295 OA
BRANCH   7   9
HETATM    9  C8  UNL     1     -33.087  16.123  -3.630  1.00 20.00     0.081 C 
BRANCH   9  10
HETATM   10  C9  UNL     1     -33.589  16.520  -2.245  1.00 20.00     0.003 C 
HETATM   11  C7  UNL     1     -32.802  17.691  -1.681  1.00 20.00     0.005 C 
ENDBRANCH   9  10
ENDBRANCH   7   9
ENDBRANCH   4   7
TORSDOF 3
ENDMDL
MODEL 3
REMARK VINA RESULT:      -3.9     11.843     13.484
REMARK  3 active torsions:
REMARK  status: ('A' for Active; 'I' for Inactive)
REMARK    1  A    between atoms: C1_1  and  C5_5 
REMARK    2  A    between atoms: C1_1  and  C8_8 
REMARK    3  A    between atoms: C8_8  and  C9_9 
ROOT
HETATM    1  C2  UNL     1     -34.528   5.443   6.641  1.00 20.00     0.029 C 
HETATM    2  C3  UNL     1     -34.235   4.876   5.272  1.00 20.00     0.048 C 
HETATM    3  C4  UNL     1     -33.890   6.809   6.559  1.00 20.00     0.169 C 
HETATM    4  C5  UNL     1     -34.306   6.107   4.375  1.00 20.00     0.117 C 
HETATM    5  C6  UNL     1     -35.656   6.273   3.690  1.00 20.00     0.054 C 
HETATM    6  O11 UNL     1     -34.073   7.252   5.208  1.00 20.00    -0.373 OA
ENDROOT
BRANCH   4   7
HETATM    7  C1  UNL     1     -33.201   6.097   3.362  1.00 20.00     0.160 C 
HETATM    8  O10 UNL     1     -33.001   5.114   2.650  1.00 20.00    -0.295 OA
BRANCH   7   9
HETATM    9  C8  UNL     1     -32.362   7.360   3.277  1.00 20.00     0.081 C 
BRANCH   9  10
HETATM   10  C9  UNL     1     -32.190   7.855   1.844  1.00 20.00     0.003 C 
HETATM   11  C7  UNL     1     -32.793   9.237   1.657  1.00 20.00     0.005 C 
ENDBRANCH   9  10
ENDBRANCH   7   9
ENDBRANCH   4   7
TORSDOF 3
ENDMDL
MODEL 4
REMARK VINA RESULT:      -3.9     12.230     14.004
REMARK  3 active torsions:
REMARK  status: ('A' for Active; 'I' for Inactive)
REMARK    1  A    between atoms: C1_1  and  C5_5 
REMARK    2  A    between atoms: C1_1  and  C8_8 
REMARK    3  A    between atoms: C8_8  and  C9_9 
ROOT
HETATM    1  C2  UNL     1     -40.344  15.488   8.667  1.00 20.00     0.029 C 
HETATM    2  C3  UNL     1     -40.324  14.085   8.110  1.00 20.00     0.048 C 
HETATM    3  C4  UNL     1     -40.784  16.295   7.469  1.00 20.00     0.169 C 
HETATM    4  C5  UNL     1     -41.481  14.098   7.118  1.00 20.00     0.117 C 
HETATM    5  C6  UNL     1     -42.772  13.531   7.694  1.00 20.00     0.054 C 
HETATM    6  O11 UNL     1     -41.707  15.466   6.749  1.00 20.00    -0.373 OA
ENDROOT
BRANCH   4   7
HETATM    7  C1  UNL     1     -41.112  13.381   5.854  1.00 20.00     0.160 C 
HETATM    8  O10 UNL     1     -41.427  13.832   4.754  1.00 20.00    -0.295 OA
BRANCH   7   9
HETATM    9  C8  UNL     1     -40.338  12.085   6.022  1.00 20.00     0.081 C 
BRANCH   9  10
HETATM   10  C9  UNL     1     -38.943  12.152   5.409  1.00 20.00     0.003 C 
HETATM   11  C7  UNL     1     -38.932  11.613   3.988  1.00 20.00     0.005 C 
ENDBRANCH   9  10
ENDBRANCH   7   9
ENDBRANCH   4   7
TORSDOF 3
ENDMDL
MODEL 5
REMARK VINA RESULT:      -3.7     12.954     14.678
REMARK  3 active torsions:
REMARK  status: ('A' for Active; 'I' for Inactive)
REMARK    1  A    between atoms: C1_1  and  C5_5 
REMARK    2  A    between atoms: C1_1  and  C8_8 
REMARK    3  A    between atoms: C8_8  and  C9_9 
ROOT
HETATM    1  C2  UNL     1     -40.441  15.900   8.419  1.00 20.00     0.029 C 
HETATM    2  C3  UNL     1     -40.418  14.391   8.425  1.00 20.00     0.048 C 
HETATM    3  C4  UNL     1     -41.323  16.196   7.230  1.00 20.00     0.169 C 
HETATM    4  C5  UNL     1     -41.815  14.029   7.935  1.00 20.00     0.117 C 
HETATM    5  C6  UNL     1     -42.787  13.721   9.066  1.00 20.00     0.054 C 
HETATM    6  O11 UNL     1     -42.311  15.158   7.200  1.00 20.00    -0.373 OA
ENDROOT
BRANCH   4   7
HETATM    7  C1  UNL     1     -41.764  12.889   6.963  1.00 20.00     0.160 C 
HETATM    8  O10 UNL     1     -42.513  11.920   7.081  1.00 20.00    -0.295 OA
BRANCH   7   9
HETATM    9  C8  UNL     1     -40.744  13.010   5.844  1.00 20.00     0.081 C 
BRANCH   9  10
HETATM   10  C9  UNL     1     -39.796  11.816   5.783  1.00 20.00     0.003 C 
HETATM   11  C7  UNL     1     -39.053  11.762   4.458  1.00 20.00     0.005 C 
ENDBRANCH   9  10
ENDBRANCH   7   9
ENDBRANCH   4   7
TORSDOF 3
ENDMDL
MODEL 6
REMARK VINA RESULT:      -3.7     12.686     14.160
REMARK  3 active torsions:
REMARK  status: ('A' for Active; 'I' for Inactive)
REMARK    1  A    between atoms: C1_1  and  C5_5 
REMARK    2  A    between atoms: C1_1  and  C8_8 
REMARK    3  A    between atoms: C8_8  and  C9_9 
ROOT
HETATM    1  C2  UNL     1     -39.697  11.871   4.977  1.00 20.00     0.029 C 
HETATM    2  C3  UNL     1     -40.685  13.012   4.992  1.00 20.00     0.048 C 
HETATM    3  C4  UNL     1     -38.962  12.074   6.281  1.00 20.00     0.169 C 
HETATM    4  C5  UNL     1     -41.024  13.147   6.472  1.00 20.00     0.117 C 
HETATM    5  C6  UNL     1     -42.306  12.424   6.863  1.00 20.00     0.054 C 
HETATM    6  O11 UNL     1     -39.933  12.574   7.209  1.00 20.00    -0.373 OA
ENDROOT
BRANCH   4   7
HETATM    7  C1  UNL     1     -41.089  14.589   6.878  1.00 20.00     0.160 C 
HETATM    8  O10 UNL     1     -41.743  15.402   6.228  1.00 20.00    -0.295 OA
BRANCH   7   9
HETATM    9  C8  UNL     1     -40.307  14.967   8.124  1.00 20.00     0.081 C 
BRANCH   9  10
HETATM   10  C9  UNL     1     -41.203  15.153   9.345  1.00 20.00     0.003 C 
HETATM   11  C7  UNL     1     -40.796  14.229  10.481  1.00 20.00     0.005 C 
ENDBRANCH   9  10
ENDBRANCH   7   9
ENDBRANCH   4   7
TORSDOF 3
ENDMDL
MODEL 7
REMARK VINA RESULT:      -3.7     11.562     13.295
REMARK  3 active torsions:
REMARK  status: ('A' for Active; 'I' for Inactive)
REMARK    1  A    between atoms: C1_1  and  C5_5 
REMARK    2  A    between atoms: C1_1  and  C8_8 
REMARK    3  A    between atoms: C8_8  and  C9_9 
ROOT
HETATM    1  C2  UNL     1     -35.199   5.512   6.000  1.00 20.00     0.029 C 
HETATM    2  C3  UNL     1     -35.046   6.014   4.584  1.00 20.00     0.048 C 
HETATM    3  C4  UNL     1     -33.762   5.395   6.448  1.00 20.00     0.169 C 
HETATM    4  C5  UNL     1     -33.812   6.904   4.672  1.00 20.00     0.117 C 
HETATM    5  C6  UNL     1     -34.146   8.380   4.841  1.00 20.00     0.054 C 
HETATM    6  O11 UNL     1     -33.059   6.471   5.815  1.00 20.00    -0.373 OA
ENDROOT
BRANCH   4   7
HETATM    7  C1  UNL     1     -32.919   6.702   3.484  1.00 20.00     0.160 C 
HETATM    8  O10 UNL     1     -32.835   5.606   2.933  1.00 20.00    -0.295 OA
BRANCH   7   9
HETATM    9  C8  UNL     1     -32.141   7.921   3.019  1.00 20.00     0.081 C 
BRANCH   9  10
HETATM   10  C9  UNL     1     -32.098   8.043   1.499  1.00 20.00     0.003 C 
HETATM   11  C7  UNL     1     -32.751   9.332   1.026  1.00 20.00     0.005 C 
ENDBRANCH   9  10
ENDBRANCH   7   9
ENDBRANCH   4   7
TORSDOF 3
ENDMDL
MODEL 8
REMARK VINA RESULT:      -3.7     13.366     15.270
REMARK  3 active torsions:
REMARK  status: ('A' for Active; 'I' for Inactive)
REMARK    1  A    between atoms: C1_1  and  C5_5 
REMARK    2  A    between atoms: C1_1  and  C8_8 
REMARK    3  A    between atoms: C8_8  and  C9_9 
ROOT
HETATM    1  C2  UNL     1     -42.044  15.140  10.289  1.00 20.00     0.029 C 
HETATM    2  C3  UNL     1     -42.445  14.923   8.849  1.00 20.00     0.048 C 
HETATM    3  C4  UNL     1     -41.028  14.043  10.500  1.00 20.00     0.169 C 
HETATM    4  C5  UNL     1     -41.149  14.442   8.207  1.00 20.00     0.117 C 
HETATM    5  C6  UNL     1     -40.374  15.554   7.512  1.00 20.00     0.054 C 
HETATM    6  O11 UNL     1     -40.332  13.901   9.255  1.00 20.00    -0.373 OA
ENDROOT
BRANCH   4   7
HETATM    7  C1  UNL     1     -41.409  13.312   7.256  1.00 20.00     0.160 C 
HETATM    8  O10 UNL     1     -42.272  12.469   7.493  1.00 20.00    -0.295 OA
BRANCH   7   9
HETATM    9  C8  UNL     1     -40.548  13.281   6.005  1.00 20.00     0.081 C 
BRANCH   9  10
HETATM   10  C9  UNL     1     -39.636  12.059   5.952  1.00 20.00     0.003 C 
HETATM   11  C7  UNL     1     -39.242  11.720   4.523  1.00 20.00     0.005 C 
ENDBRANCH   9  10
ENDBRANCH   7   9
ENDBRANCH   4   7
TORSDOF 3
ENDMDL
MODEL 9
REMARK VINA RESULT:      -3.7      2.565      3.920
REMARK  3 active torsions:
REMARK  status: ('A' for Active; 'I' for Inactive)
REMARK    1  A    between atoms: C1_1  and  C5_5 
REMARK    2  A    between atoms: C1_1  and  C8_8 
REMARK    3  A    between atoms: C8_8  and  C9_9 
ROOT
HETATM    1  C2  UNL     1     -33.634  15.679  -4.478  1.00 20.00     0.029 C 
HETATM    2  C3  UNL     1     -33.219  16.356  -3.193  1.00 20.00     0.048 C 
HETATM    3  C4  UNL     1     -35.014  16.248  -4.701  1.00 20.00     0.169 C 
HETATM    4  C5  UNL     1     -33.872  17.728  -3.309  1.00 20.00     0.117 C 
HETATM    5  C6  UNL     1     -32.926  18.801  -3.831  1.00 20.00     0.054 C 
HETATM    6  O11 UNL     1     -34.968  17.600  -4.226  1.00 20.00    -0.373 OA
ENDROOT
BRANCH   4   7
HETATM    7  C1  UNL     1     -34.471  18.149  -2.000  1.00 20.00     0.160 C 
HETATM    8  O10 UNL     1     -35.452  18.889  -1.961  1.00 20.00    -0.295 OA
BRANCH   7   9
HETATM    9  C8  UNL     1     -33.796  17.608  -0.752  1.00 20.00     0.081 C 
BRANCH   9  10
HETATM   10  C9  UNL     1     -32.906  18.644  -0.072  1.00 20.00     0.003 C 
HETATM   11  C7  UNL     1     -31.451  18.486  -0.485  1.00 20.00     0.005 C 
ENDBRANCH   9  10
ENDBRANCH   7   9
ENDBRANCH   4   7
TORSDOF 3
ENDMDL
