MODEL 1
REMARK VINA RESULT:      -3.9      0.000      0.000
REMARK  3 active torsions:
REMARK  status: ('A' for Active; 'I' for Inactive)
REMARK    1  A    between atoms: C6_6  and  C10_10 
REMARK    2  A    between atoms: C6_6  and  C11_11 
REMARK    3  A    between atoms: C9_9  and  N12_12 
ROOT
HETATM    1  C1  UNL     1     -40.717  14.397  11.724  1.00 20.00     0.013 C 
HETATM    2  C2  UNL     1     -40.567  14.746  10.586  1.00 20.00    -0.087 C 
HETATM    3  C9  UNL     1     -40.381  15.177   9.198  1.00 20.00     0.364 C 
ENDROOT
BRANCH   3   4
HETATM    4  N12 UNL     1     -40.655  14.083   8.279  1.00 20.00     0.100 N 
HETATM    5  C4  UNL     1     -42.057  13.665   8.306  1.00 20.00     0.274 C 
HETATM    6  C3  UNL     1     -42.274  12.949   6.971  1.00 20.00     0.041 C 
HETATM    7  C6  UNL     1     -41.027  13.270   6.123  1.00 20.00    -0.013 C 
HETATM    8  C5  UNL     1     -40.388  14.440   6.884  1.00 20.00     0.283 C 
BRANCH   7   9
HETATM    9  C10 UNL     1     -41.393  13.667   4.691  1.00 20.00     0.007 C 
HETATM   10  C7  UNL     1     -42.528  14.631   4.673  1.00 20.00     0.006 C 
ENDBRANCH   7   9
BRANCH   7  11
HETATM   11  C11 UNL     1     -40.084  12.053   6.085  1.00 20.00     0.007 C 
HETATM   12  C8  UNL     1     -39.510  11.847   4.723  1.00 20.00     0.006 C 
ENDBRANCH   7  11
ENDBRANCH   3   4
TORSDOF 3
ENDMDL
MODEL 2
REMARK VINA RESULT:      -3.8     11.572     12.393
REMARK  3 active torsions:
REMARK  status: ('A' for Active; 'I' for Inactive)
REMARK    1  A    between atoms: C6_6  and  C10_10 
REMARK    2  A    between atoms: C6_6  and  C11_11 
REMARK    3  A    between atoms: C9_9  and  N12_12 
ROOT
HETATM    1  C1  UNL     1     -30.640  18.554   3.067  1.00 20.00     0.013 C 
HETATM    2  C2  UNL     1     -30.748  18.788   1.895  1.00 20.00    -0.087 C 
HETATM    3  C9  UNL     1     -30.875  19.076   0.464  1.00 20.00     0.364 C 
ENDROOT
BRANCH   3   4
HETATM    4  N12 UNL     1     -32.032  18.395  -0.097  1.00 20.00     0.100 N 
HETATM    5  C4  UNL     1     -33.280  18.771   0.567  1.00 20.00     0.274 C 
HETATM    6  C3  UNL     1     -34.376  18.426  -0.444  1.00 20.00     0.041 C 
HETATM    7  C6  UNL     1     -33.641  18.140  -1.768  1.00 20.00    -0.013 C 
HETATM    8  C5  UNL     1     -32.239  18.711  -1.511  1.00 20.00     0.283 C 
BRANCH   7   9
HETATM    9  C10 UNL     1     -34.315  18.825  -2.959  1.00 20.00     0.007 C 
HETATM   10  C7  UNL     1     -35.798  18.779  -2.838  1.00 20.00     0.006 C 
ENDBRANCH   7   9
BRANCH   7  11
HETATM   11  C11 UNL     1     -33.581  16.623  -2.024  1.00 20.00     0.007 C 
HETATM   12  C8  UNL     1     -33.119  16.318  -3.411  1.00 20.00     0.006 C 
ENDBRANCH   7  11
ENDBRANCH   3   4
TORSDOF 3
ENDMDL
MODEL 3
REMARK VINA RESULT:      -3.7     12.162     13.910
REMARK  3 active torsions:
REMARK  status: ('A' for Active; 'I' for Inactive)
REMARK    1  A    between atoms: C6_6  and  C10_10 
REMARK    2  A    between atoms: C6_6  and  C11_11 
REMARK    3  A    between atoms: C9_9  and  N12_12 
ROOT
HETATM    1  C1  UNL     1     -33.738  17.634  -0.878  1.00 20.00     0.013 C 
HETATM    2  C2  UNL     1     -33.567  17.863  -2.043  1.00 20.00    -0.087 C 
HETATM    3  C9  UNL     1     -33.357  18.149  -3.465  1.00 20.00     0.364 C 
ENDROOT
BRANCH   3   4
HETATM    4  N12 UNL     1     -33.466  16.931  -4.255  1.00 20.00     0.100 N 
HETATM    5  C4  UNL     1     -33.334  15.721  -3.443  1.00 20.00     0.274 C 
HETATM    6  C3  UNL     1     -33.995  14.621  -4.276  1.00 20.00     0.041 C 
HETATM    7  C6  UNL     1     -34.739  15.353  -5.410  1.00 20.00    -0.013 C 
HETATM    8  C5  UNL     1     -34.765  16.807  -4.920  1.00 20.00     0.283 C 
BRANCH   7   9
HETATM    9  C10 UNL     1     -36.154  14.807  -5.615  1.00 20.00     0.007 C 
HETATM   10  C7  UNL     1     -37.174  15.879  -5.453  1.00 20.00     0.006 C 
ENDBRANCH   7   9
BRANCH   7  11
HETATM   11  C11 UNL     1     -33.953  15.227  -6.728  1.00 20.00     0.007 C 
HETATM   12  C8  UNL     1     -34.323  16.304  -7.693  1.00 20.00     0.006 C 
ENDBRANCH   7  11
ENDBRANCH   3   4
TORSDOF 3
ENDMDL
MODEL 4
REMARK VINA RESULT:      -3.7      1.482      4.649
REMARK  3 active torsions:
REMARK  status: ('A' for Active; 'I' for Inactive)
REMARK    1  A    between atoms: C6_6  and  C10_10 
REMARK    2  A    between atoms: C6_6  and  C11_11 
REMARK    3  A    between atoms: C9_9  and  N12_12 
ROOT
HETATM    1  C1  UNL     1     -38.998  11.657   3.750  1.00 20.00     0.013 C 
HETATM    2  C2  UNL     1     -39.189  11.886   4.912  1.00 20.00    -0.087 C 
HETATM    3  C9  UNL     1     -39.416  12.163   6.333  1.00 20.00     0.364 C 
ENDROOT
BRANCH   3   4
HETATM    4  N12 UNL     1     -40.464  13.158   6.501  1.00 20.00     0.100 N 
HETATM    5  C4  UNL     1     -41.799  12.561   6.569  1.00 20.00     0.274 C 
HETATM    6  C3  UNL     1     -42.660  13.616   7.267  1.00 20.00     0.041 C 
HETATM    7  C6  UNL     1     -41.667  14.653   7.828  1.00 20.00    -0.013 C 
HETATM    8  C5  UNL     1     -40.321  13.921   7.743  1.00 20.00     0.283 C 
BRANCH   7   9
HETATM    9  C10 UNL     1     -42.000  15.045   9.270  1.00 20.00     0.007 C 
HETATM   10  C7  UNL     1     -41.064  14.403  10.233  1.00 20.00     0.006 C 
ENDBRANCH   7   9
BRANCH   7  11
HETATM   11  C11 UNL     1     -41.666  15.917   6.948  1.00 20.00     0.007 C 
HETATM   12  C8  UNL     1     -40.719  16.947   7.468  1.00 20.00     0.006 C 
ENDBRANCH   7  11
ENDBRANCH   3   4
TORSDOF 3
ENDMDL
MODEL 5
REMARK VINA RESULT:      -3.7      1.685      4.728
REMARK  3 active torsions:
REMARK  status: ('A' for Active; 'I' for Inactive)
REMARK    1  A    between atoms: C6_6  and  C10_10 
REMARK    2  A    between atoms: C6_6  and  C11_11 
REMARK    3  A    between atoms: C9_9  and  N12_12 
ROOT
HETATM    1  C1  UNL     1     -38.917  11.655   3.705  1.00 20.00     0.013 C 
HETATM    2  C2  UNL     1     -39.225  11.875   4.844  1.00 20.00    -0.087 C 
HETATM    3  C9  UNL     1     -39.597  12.138   6.237  1.00 20.00     0.364 C 
ENDROOT
BRANCH   3   4
HETATM    4  N12 UNL     1     -40.167  13.470   6.373  1.00 20.00     0.100 N 
HETATM    5  C4  UNL     1     -41.394  13.638   5.593  1.00 20.00     0.274 C 
HETATM    6  C3  UNL     1     -42.114  14.816   6.252  1.00 20.00     0.041 C 
HETATM    7  C6  UNL     1     -41.372  15.063   7.580  1.00 20.00    -0.013 C 
HETATM    8  C5  UNL     1     -40.544  13.782   7.753  1.00 20.00     0.283 C 
BRANCH   7   9
HETATM    9  C10 UNL     1     -42.338  15.267   8.749  1.00 20.00     0.007 C 
HETATM   10  C7  UNL     1     -42.666  13.973   9.409  1.00 20.00     0.006 C 
ENDBRANCH   7   9
BRANCH   7  11
HETATM   11  C11 UNL     1     -40.460  16.298   7.457  1.00 20.00     0.007 C 
HETATM   12  C8  UNL     1     -40.991  17.453   8.239  1.00 20.00     0.006 C 
ENDBRANCH   7  11
ENDBRANCH   3   4
TORSDOF 3
ENDMDL
MODEL 6
REMARK VINA RESULT:      -3.6     12.910     14.099
REMARK  3 active torsions:
REMARK  status: ('A' for Active; 'I' for Inactive)
REMARK    1  A    between atoms: C6_6  and  C10_10 
REMARK    2  A    between atoms: C6_6  and  C11_11 
REMARK    3  A    between atoms: C9_9  and  N12_12 
ROOT
HETATM    1  C1  UNL     1     -33.574  17.022  -2.146  1.00 20.00     0.013 C 
HETATM    2  C2  UNL     1     -33.261  16.247  -3.008  1.00 20.00    -0.087 C 
HETATM    3  C9  UNL     1     -32.874  15.300  -4.057  1.00 20.00     0.364 C 
ENDROOT
BRANCH   3   4
HETATM    4  N12 UNL     1     -33.977  15.074  -4.978  1.00 20.00     0.100 N 
HETATM    5  C4  UNL     1     -34.903  14.046  -4.503  1.00 20.00     0.274 C 
HETATM    6  C3  UNL     1     -36.207  14.321  -5.255  1.00 20.00     0.041 C 
HETATM    7  C6  UNL     1     -36.022  15.704  -5.909  1.00 20.00    -0.013 C 
HETATM    8  C5  UNL     1     -34.800  16.270  -5.174  1.00 20.00     0.283 C 
BRANCH   7   9
HETATM    9  C10 UNL     1     -37.251  16.597  -5.721  1.00 20.00     0.007 C 
HETATM   10  C7  UNL     1     -36.963  17.719  -4.786  1.00 20.00     0.006 C 
ENDBRANCH   7   9
BRANCH   7  11
HETATM   11  C11 UNL     1     -35.738  15.546  -7.414  1.00 20.00     0.007 C 
HETATM   12  C8  UNL     1     -34.833  16.620  -7.918  1.00 20.00     0.006 C 
ENDBRANCH   7  11
ENDBRANCH   3   4
TORSDOF 3
ENDMDL
MODEL 7
REMARK VINA RESULT:      -3.6     12.218     14.220
REMARK  3 active torsions:
REMARK  status: ('A' for Active; 'I' for Inactive)
REMARK    1  A    between atoms: C6_6  and  C10_10 
REMARK    2  A    between atoms: C6_6  and  C11_11 
REMARK    3  A    between atoms: C9_9  and  N12_12 
ROOT
HETATM    1  C1  UNL     1     -33.671  17.761  -0.837  1.00 20.00     0.013 C 
HETATM    2  C2  UNL     1     -33.502  17.089  -1.817  1.00 20.00    -0.087 C 
HETATM    3  C9  UNL     1     -33.292  16.264  -3.010  1.00 20.00     0.364 C 
ENDROOT
BRANCH   3   4
HETATM    4  N12 UNL     1     -34.330  16.516  -3.998  1.00 20.00     0.100 N 
HETATM    5  C4  UNL     1     -34.105  17.754  -4.745  1.00 20.00     0.274 C 
HETATM    6  C3  UNL     1     -34.915  17.584  -6.031  1.00 20.00     0.041 C 
HETATM    7  C6  UNL     1     -35.327  16.099  -6.066  1.00 20.00    -0.013 C 
HETATM    8  C5  UNL     1     -34.408  15.464  -5.013  1.00 20.00     0.283 C 
BRANCH   7   9
HETATM    9  C10 UNL     1     -35.110  15.475  -7.447  1.00 20.00     0.007 C 
HETATM   10  C7  UNL     1     -33.673  15.513  -7.836  1.00 20.00     0.006 C 
ENDBRANCH   7   9
BRANCH   7  11
HETATM   11  C11 UNL     1     -36.807  15.949  -5.671  1.00 20.00     0.007 C 
HETATM   12  C8  UNL     1     -37.616  17.120  -6.120  1.00 20.00     0.006 C 
ENDBRANCH   7  11
ENDBRANCH   3   4
TORSDOF 3
ENDMDL
MODEL 8
REMARK VINA RESULT:      -3.6      2.283      4.268
REMARK  3 active torsions:
REMARK  status: ('A' for Active; 'I' for Inactive)
REMARK    1  A    between atoms: C6_6  and  C10_10 
REMARK    2  A    between atoms: C6_6  and  C11_11 
REMARK    3  A    between atoms: C9_9  and  N12_12 
ROOT
HETATM    1  C1  UNL     1     -38.846  11.641   3.831  1.00 20.00     0.013 C 
HETATM    2  C2  UNL     1     -39.464  11.778   4.851  1.00 20.00    -0.087 C 
HETATM    3  C9  UNL     1     -40.213  11.943   6.099  1.00 20.00     0.364 C 
ENDROOT
BRANCH   3   4
HETATM    4  N12 UNL     1     -41.456  12.661   5.861  1.00 20.00     0.100 N 
HETATM    5  C4  UNL     1     -42.429  12.471   6.937  1.00 20.00     0.274 C 
HETATM    6  C3  UNL     1     -43.382  13.662   6.811  1.00 20.00     0.041 C 
HETATM    7  C6  UNL     1     -42.702  14.634   5.829  1.00 20.00    -0.013 C 
HETATM    8  C5  UNL     1     -41.260  14.109   5.771  1.00 20.00     0.283 C 
BRANCH   7   9
HETATM    9  C10 UNL     1     -42.751  16.081   6.325  1.00 20.00     0.007 C 
HETATM   10  C7  UNL     1     -41.674  16.346   7.319  1.00 20.00     0.006 C 
ENDBRANCH   7   9
BRANCH   7  11
HETATM   11  C11 UNL     1     -43.376  14.551   4.447  1.00 20.00     0.007 C 
HETATM   12  C8  UNL     1     -42.475  15.048   3.366  1.00 20.00     0.006 C 
ENDBRANCH   7  11
ENDBRANCH   3   4
TORSDOF 3
ENDMDL
MODEL 9
REMARK VINA RESULT:      -3.5      1.310      4.635
REMARK  3 active torsions:
REMARK  status: ('A' for Active; 'I' for Inactive)
REMARK    1  A    between atoms: C6_6  and  C10_10 
REMARK    2  A    between atoms: C6_6  and  C11_11 
REMARK    3  A    between atoms: C9_9  and  N12_12 
ROOT
HETATM    1  C1  UNL     1     -39.346  11.765   5.744  1.00 20.00     0.013 C 
HETATM    2  C2  UNL     1     -40.214  12.564   5.525  1.00 20.00    -0.087 C 
HETATM    3  C9  UNL     1     -41.275  13.538   5.253  1.00 20.00     0.364 C 
ENDROOT
BRANCH   3   4
HETATM    4  N12 UNL     1     -41.666  14.227   6.474  1.00 20.00     0.100 N 
HETATM    5  C4  UNL     1     -42.355  13.347   7.418  1.00 20.00     0.274 C 
HETATM    6  C3  UNL     1     -42.197  14.036   8.775  1.00 20.00     0.041 C 
HETATM    7  C6  UNL     1     -41.149  15.144   8.556  1.00 20.00    -0.013 C 
HETATM    8  C5  UNL     1     -40.518  14.757   7.212  1.00 20.00     0.283 C 
BRANCH   7   9
HETATM    9  C10 UNL     1     -40.106  15.177   9.675  1.00 20.00     0.007 C 
HETATM   10  C7  UNL     1     -40.588  14.452  10.883  1.00 20.00     0.006 C 
ENDBRANCH   7   9
BRANCH   7  11
HETATM   11  C11 UNL     1     -41.840  16.518   8.468  1.00 20.00     0.007 C 
HETATM   12  C8  UNL     1     -40.940  17.547   7.868  1.00 20.00     0.006 C 
ENDBRANCH   7  11
ENDBRANCH   3   4
TORSDOF 3
ENDMDL
