MODEL 1
REMARK VINA RESULT:      -3.9      0.000      0.000
REMARK  1 active torsions:
REMARK  status: ('A' for Active; 'I' for Inactive)
REMARK    1  A    between atoms: C4_4  and  C6_6 
ROOT
HETATM    1  C1  UNL     1     -33.733   7.924   5.552  1.00 20.00     0.029 C 
HETATM    2  C2  UNL     1     -33.566   7.087   4.307  1.00 20.00     0.041 C 
HETATM    3  C3  UNL     1     -33.804   6.869   6.631  1.00 20.00     0.169 C 
HETATM    4  C4  UNL     1     -34.427   5.861   4.612  1.00 20.00     0.070 C 
HETATM    5  C5  UNL     1     -35.879   6.055   4.167  1.00 20.00     0.047 C 
HETATM    6  O7  UNL     1     -34.424   5.715   6.046  1.00 20.00    -0.379 OA
ENDROOT
BRANCH   4   7
HETATM    7  C6  UNL     1     -33.851   4.591   3.992  1.00 20.00     0.152 C 
HETATM    8 CL8  UNL     1     -32.842   4.999   2.593  1.00 20.00    -0.127 Cl
ENDBRANCH   4   7
TORSDOF 1
ENDMDL
MODEL 2
REMARK VINA RESULT:      -3.7      2.262      2.981
REMARK  1 active torsions:
REMARK  status: ('A' for Active; 'I' for Inactive)
REMARK    1  A    between atoms: C4_4  and  C6_6 
ROOT
HETATM    1  C1  UNL     1     -33.046   5.275   2.719  1.00 20.00     0.029 C 
HETATM    2  C2  UNL     1     -33.712   4.629   3.909  1.00 20.00     0.041 C 
HETATM    3  C3  UNL     1     -32.631   6.614   3.283  1.00 20.00     0.169 C 
HETATM    4  C4  UNL     1     -34.400   5.812   4.590  1.00 20.00     0.070 C 
HETATM    5  C5  UNL     1     -35.813   6.043   4.049  1.00 20.00     0.047 C 
HETATM    6  O7  UNL     1     -33.611   6.975   4.266  1.00 20.00    -0.379 OA
ENDROOT
BRANCH   4   7
HETATM    7  C6  UNL     1     -34.435   5.654   6.107  1.00 20.00     0.152 C 
HETATM    8 CL8  UNL     1     -34.215   7.229   6.890  1.00 20.00    -0.127 Cl
ENDBRANCH   4   7
TORSDOF 1
ENDMDL
MODEL 3
REMARK VINA RESULT:      -3.6      1.509      2.503
REMARK  1 active torsions:
REMARK  status: ('A' for Active; 'I' for Inactive)
REMARK    1  A    between atoms: C4_4  and  C6_6 
ROOT
HETATM    1  C1  UNL     1     -34.657   5.690   6.359  1.00 20.00     0.029 C 
HETATM    2  C2  UNL     1     -33.605   6.773   6.342  1.00 20.00     0.041 C 
HETATM    3  C3  UNL     1     -34.496   5.077   4.987  1.00 20.00     0.169 C 
HETATM    4  C4  UNL     1     -33.649   7.259   4.893  1.00 20.00     0.070 C 
HETATM    5  C5  UNL     1     -34.669   8.383   4.696  1.00 20.00     0.047 C 
HETATM    6  O7  UNL     1     -34.082   6.131   4.105  1.00 20.00    -0.379 OA
ENDROOT
BRANCH   4   7
HETATM    7  C6  UNL     1     -32.275   7.700   4.398  1.00 20.00     0.152 C 
HETATM    8 CL8  UNL     1     -32.175   7.526   2.637  1.00 20.00    -0.127 Cl
ENDBRANCH   4   7
TORSDOF 1
ENDMDL
MODEL 4
REMARK VINA RESULT:      -3.5     16.158     17.164
REMARK  1 active torsions:
REMARK  status: ('A' for Active; 'I' for Inactive)
REMARK    1  A    between atoms: C4_4  and  C6_6 
ROOT
HETATM    1  C1  UNL     1     -25.287  17.455  12.332  1.00 20.00     0.029 C 
HETATM    2  C2  UNL     1     -24.230  18.518  12.159  1.00 20.00     0.041 C 
HETATM    3  C3  UNL     1     -24.640  16.261  11.667  1.00 20.00     0.169 C 
HETATM    4  C4  UNL     1     -23.647  18.189  10.785  1.00 20.00     0.070 C 
HETATM    5  C5  UNL     1     -24.403  18.896   9.657  1.00 20.00     0.047 C 
HETATM    6  O7  UNL     1     -23.820  16.769  10.605  1.00 20.00    -0.379 OA
ENDROOT
BRANCH   4   7
HETATM    7  C6  UNL     1     -22.158  18.513  10.705  1.00 20.00     0.152 C 
HETATM    8 CL8  UNL     1     -21.449  18.527  12.330  1.00 20.00    -0.127 Cl
ENDBRANCH   4   7
TORSDOF 1
ENDMDL
MODEL 5
REMARK VINA RESULT:      -3.5      8.643      9.329
REMARK  1 active torsions:
REMARK  status: ('A' for Active; 'I' for Inactive)
REMARK    1  A    between atoms: C4_4  and  C6_6 
ROOT
HETATM    1  C1  UNL     1     -40.916   8.423   0.095  1.00 20.00     0.029 C 
HETATM    2  C2  UNL     1     -40.817   7.205   0.981  1.00 20.00     0.041 C 
HETATM    3  C3  UNL     1     -42.328   8.309  -0.434  1.00 20.00     0.169 C 
HETATM    4  C4  UNL     1     -41.640   6.168   0.217  1.00 20.00     0.070 C 
HETATM    5  C5  UNL     1     -40.788   5.386  -0.786  1.00 20.00     0.047 C 
HETATM    6  O7  UNL     1     -42.626   6.909  -0.529  1.00 20.00    -0.379 OA
ENDROOT
BRANCH   4   7
HETATM    7  C6  UNL     1     -42.361   5.207   1.158  1.00 20.00     0.152 C 
HETATM    8 CL8  UNL     1     -43.413   6.109   2.263  1.00 20.00    -0.127 Cl
ENDBRANCH   4   7
TORSDOF 1
ENDMDL
MODEL 6
REMARK VINA RESULT:      -3.4      2.016      2.908
REMARK  1 active torsions:
REMARK  status: ('A' for Active; 'I' for Inactive)
REMARK    1  A    between atoms: C4_4  and  C6_6 
ROOT
HETATM    1  C1  UNL     1     -35.075   5.021   5.206  1.00 20.00     0.029 C 
HETATM    2  C2  UNL     1     -35.164   6.330   4.461  1.00 20.00     0.041 C 
HETATM    3  C3  UNL     1     -34.223   5.397   6.397  1.00 20.00     0.169 C 
HETATM    4  C4  UNL     1     -33.782   6.941   4.693  1.00 20.00     0.070 C 
HETATM    5  C5  UNL     1     -32.778   6.512   3.620  1.00 20.00     0.047 C 
HETATM    6  O7  UNL     1     -33.321   6.422   5.957  1.00 20.00    -0.379 OA
ENDROOT
BRANCH   4   7
HETATM    7  C6  UNL     1     -33.839   8.463   4.783  1.00 20.00     0.152 C 
HETATM    8 CL8  UNL     1     -32.200   9.132   4.870  1.00 20.00    -0.127 Cl
ENDBRANCH   4   7
TORSDOF 1
ENDMDL
MODEL 7
REMARK VINA RESULT:      -3.4      1.797      2.624
REMARK  1 active torsions:
REMARK  status: ('A' for Active; 'I' for Inactive)
REMARK    1  A    between atoms: C4_4  and  C6_6 
ROOT
HETATM    1  C1  UNL     1     -32.563   8.915   4.159  1.00 20.00     0.029 C 
HETATM    2  C2  UNL     1     -33.943   8.540   4.643  1.00 20.00     0.041 C 
HETATM    3  C3  UNL     1     -32.139   7.663   3.426  1.00 20.00     0.169 C 
HETATM    4  C4  UNL     1     -33.789   7.055   4.972  1.00 20.00     0.070 C 
HETATM    5  C5  UNL     1     -33.329   6.832   6.414  1.00 20.00     0.047 C 
HETATM    6  O7  UNL     1     -32.754   6.556   4.100  1.00 20.00    -0.379 OA
ENDROOT
BRANCH   4   7
HETATM    7  C6  UNL     1     -35.072   6.275   4.701  1.00 20.00     0.152 C 
HETATM    8 CL8  UNL     1     -34.749   4.533   4.747  1.00 20.00    -0.127 Cl
ENDBRANCH   4   7
TORSDOF 1
ENDMDL
MODEL 8
REMARK VINA RESULT:      -3.2      8.744      9.743
REMARK  1 active torsions:
REMARK  status: ('A' for Active; 'I' for Inactive)
REMARK    1  A    between atoms: C4_4  and  C6_6 
ROOT
HETATM    1  C1  UNL     1     -43.417   4.360   0.561  1.00 20.00     0.029 C 
HETATM    2  C2  UNL     1     -43.263   5.376  -0.544  1.00 20.00     0.041 C 
HETATM    3  C3  UNL     1     -43.152   5.194   1.793  1.00 20.00     0.169 C 
HETATM    4  C4  UNL     1     -42.133   6.266  -0.023  1.00 20.00     0.070 C 
HETATM    5  C5  UNL     1     -40.755   5.746  -0.442  1.00 20.00     0.047 C 
HETATM    6  O7  UNL     1     -42.206   6.205   1.415  1.00 20.00    -0.379 OA
ENDROOT
BRANCH   4   7
HETATM    7  C6  UNL     1     -42.304   7.718  -0.460  1.00 20.00     0.152 C 
HETATM    8 CL8  UNL     1     -40.840   8.644  -0.086  1.00 20.00    -0.127 Cl
ENDBRANCH   4   7
TORSDOF 1
ENDMDL
MODEL 9
REMARK VINA RESULT:      -3.2     13.168     13.800
REMARK  1 active torsions:
REMARK  status: ('A' for Active; 'I' for Inactive)
REMARK    1  A    between atoms: C4_4  and  C6_6 
ROOT
HETATM    1  C1  UNL     1     -33.125  15.803  -3.668  1.00 20.00     0.029 C 
HETATM    2  C2  UNL     1     -33.948  14.645  -4.178  1.00 20.00     0.041 C 
HETATM    3  C3  UNL     1     -34.068  16.967  -3.865  1.00 20.00     0.169 C 
HETATM    4  C4  UNL     1     -34.718  15.270  -5.341  1.00 20.00     0.070 C 
HETATM    5  C5  UNL     1     -33.945  15.173  -6.659  1.00 20.00     0.047 C 
HETATM    6  O7  UNL     1     -34.864  16.669  -5.021  1.00 20.00    -0.379 OA
ENDROOT
BRANCH   4   7
HETATM    7  C6  UNL     1     -36.107  14.659  -5.499  1.00 20.00     0.152 C 
HETATM    8 CL8  UNL     1     -37.345  15.923  -5.405  1.00 20.00    -0.127 Cl
ENDBRANCH   4   7
TORSDOF 1
ENDMDL
