MODEL 1
REMARK VINA RESULT:      -4.5      0.000      0.000
REMARK  2 active torsions:
REMARK  status: ('A' for Active; 'I' for Inactive)
REMARK    1  A    between atoms: C1_1  and  C6_6 
REMARK    2  A    between atoms: C1_1  and  C9_9 
ROOT
HETATM    1  C2  UNL     1     -33.868   5.002   6.120  1.00 20.00     0.005 C 
HETATM    2  C3  UNL     1     -34.246   6.466   6.392  1.00 20.00     0.006 C 
HETATM    3  C4  UNL     1     -33.494   5.515   3.699  1.00 20.00     0.017 C 
HETATM    4  C5  UNL     1     -35.662   5.633   4.687  1.00 20.00     0.010 C 
HETATM    5  C6  UNL     1     -33.873   6.989   3.927  1.00 20.00     0.061 C 
HETATM    6  C7  UNL     1     -34.400   4.770   4.696  1.00 20.00    -0.013 C 
HETATM    7  C8  UNL     1     -34.905   6.907   5.072  1.00 20.00    -0.003 C 
ENDROOT
BRANCH   5   8
HETATM    8  C1  UNL     1     -32.699   7.862   4.236  1.00 20.00     0.145 C 
HETATM    9  O10 UNL     1     -32.717   8.615   5.208  1.00 20.00    -0.296 OA
BRANCH   8  10
HETATM   10  C9  UNL     1     -31.529   7.749   3.285  1.00 20.00     0.193 C 
HETATM   11 CL11 UNL     1     -32.046   8.043   1.618  1.00 20.00    -0.123 Cl
ENDBRANCH   8  10
ENDBRANCH   5   8
TORSDOF 2
ENDMDL
MODEL 2
REMARK VINA RESULT:      -4.5     12.087     13.326
REMARK  2 active torsions:
REMARK  status: ('A' for Active; 'I' for Inactive)
REMARK    1  A    between atoms: C1_1  and  C6_6 
REMARK    2  A    between atoms: C1_1  and  C9_9 
ROOT
HETATM    1  C2  UNL     1     -33.291  16.881  -2.901  1.00 20.00     0.005 C 
HETATM    2  C3  UNL     1     -33.668  16.837  -1.413  1.00 20.00     0.006 C 
HETATM    3  C4  UNL     1     -32.524  19.252  -2.671  1.00 20.00     0.017 C 
HETATM    4  C5  UNL     1     -34.818  18.644  -2.423  1.00 20.00     0.010 C 
HETATM    5  C6  UNL     1     -32.896  19.254  -1.178  1.00 20.00     0.061 C 
HETATM    6  C7  UNL     1     -33.597  18.336  -3.291  1.00 20.00    -0.013 C 
HETATM    7  C8  UNL     1     -34.098  18.287  -1.120  1.00 20.00    -0.003 C 
ENDROOT
BRANCH   5   8
HETATM    8  C1  UNL     1     -31.763  18.860  -0.285  1.00 20.00     0.145 C 
HETATM    9  O10 UNL     1     -30.666  18.567  -0.756  1.00 20.00    -0.296 OA
BRANCH   8  10
HETATM   10  C9  UNL     1     -32.070  18.847   1.195  1.00 20.00     0.193 C 
HETATM   11 CL11 UNL     1     -30.661  18.315   2.123  1.00 20.00    -0.123 Cl
ENDBRANCH   8  10
ENDBRANCH   5   8
TORSDOF 2
ENDMDL
MODEL 3
REMARK VINA RESULT:      -4.0     12.552     14.049
REMARK  2 active torsions:
REMARK  status: ('A' for Active; 'I' for Inactive)
REMARK    1  A    between atoms: C1_1  and  C6_6 
REMARK    2  A    between atoms: C1_1  and  C9_9 
ROOT
HETATM    1  C2  UNL     1     -34.316  17.030  -7.450  1.00 20.00     0.005 C 
HETATM    2  C3  UNL     1     -34.066  15.520  -7.336  1.00 20.00     0.006 C 
HETATM    3  C4  UNL     1     -35.494  17.036  -5.242  1.00 20.00     0.017 C 
HETATM    4  C5  UNL     1     -36.394  15.908  -7.143  1.00 20.00     0.010 C 
HETATM    5  C6  UNL     1     -35.272  15.521  -5.092  1.00 20.00     0.061 C 
HETATM    6  C7  UNL     1     -35.679  17.206  -6.762  1.00 20.00    -0.013 C 
HETATM    7  C8  UNL     1     -35.294  15.021  -6.552  1.00 20.00    -0.003 C 
ENDROOT
BRANCH   5   8
HETATM    8  C1  UNL     1     -34.015  15.176  -4.357  1.00 20.00     0.145 C 
HETATM    9  O10 UNL     1     -33.674  14.003  -4.216  1.00 20.00    -0.296 OA
BRANCH   8  10
HETATM   10  C9  UNL     1     -33.228  16.349  -3.819  1.00 20.00     0.193 C 
HETATM   11 CL11 UNL     1     -33.550  16.581  -2.094  1.00 20.00    -0.123 Cl
ENDBRANCH   8  10
ENDBRANCH   5   8
TORSDOF 2
ENDMDL
MODEL 4
REMARK VINA RESULT:      -4.0     12.470     13.827
REMARK  2 active torsions:
REMARK  status: ('A' for Active; 'I' for Inactive)
REMARK    1  A    between atoms: C1_1  and  C6_6 
REMARK    2  A    between atoms: C1_1  and  C9_9 
ROOT
HETATM    1  C2  UNL     1     -37.115  16.466  -5.648  1.00 20.00     0.005 C 
HETATM    2  C3  UNL     1     -35.919  17.150  -4.970  1.00 20.00     0.006 C 
HETATM    3  C4  UNL     1     -35.604  14.735  -6.641  1.00 20.00     0.017 C 
HETATM    4  C5  UNL     1     -35.490  17.028  -7.296  1.00 20.00     0.010 C 
HETATM    5  C6  UNL     1     -34.378  15.394  -5.986  1.00 20.00     0.061 C 
HETATM    6  C7  UNL     1     -36.511  15.940  -6.960  1.00 20.00    -0.013 C 
HETATM    7  C8  UNL     1     -34.764  16.889  -5.954  1.00 20.00    -0.003 C 
ENDROOT
BRANCH   5   8
HETATM    8  C1  UNL     1     -34.049  14.829  -4.641  1.00 20.00     0.145 C 
HETATM    9  O10 UNL     1     -34.703  13.899  -4.176  1.00 20.00    -0.296 OA
BRANCH   8  10
HETATM   10  C9  UNL     1     -32.887  15.478  -3.924  1.00 20.00     0.193 C 
HETATM   11 CL11 UNL     1     -33.449  16.386  -2.513  1.00 20.00    -0.123 Cl
ENDBRANCH   8  10
ENDBRANCH   5   8
TORSDOF 2
ENDMDL
MODEL 5
REMARK VINA RESULT:      -4.0      9.256     10.333
REMARK  2 active torsions:
REMARK  status: ('A' for Active; 'I' for Inactive)
REMARK    1  A    between atoms: C1_1  and  C6_6 
REMARK    2  A    between atoms: C1_1  and  C9_9 
ROOT
HETATM    1  C2  UNL     1     -43.338  12.983   6.548  1.00 20.00     0.005 C 
HETATM    2  C3  UNL     1     -42.377  12.971   7.746  1.00 20.00     0.006 C 
HETATM    3  C4  UNL     1     -41.492  13.731   5.032  1.00 20.00     0.017 C 
HETATM    4  C5  UNL     1     -42.333  15.130   6.773  1.00 20.00     0.010 C 
HETATM    5  C6  UNL     1     -40.498  13.741   6.206  1.00 20.00     0.061 C 
HETATM    6  C7  UNL     1     -42.815  14.153   5.700  1.00 20.00    -0.013 C 
HETATM    7  C8  UNL     1     -41.390  14.106   7.412  1.00 20.00    -0.003 C 
ENDROOT
BRANCH   5   8
HETATM    8  C1  UNL     1     -39.763  12.448   6.371  1.00 20.00     0.145 C 
HETATM    9  O10 UNL     1     -39.084  12.238   7.374  1.00 20.00    -0.296 OA
BRANCH   8  10
HETATM   10  C9  UNL     1     -39.917  11.458   5.239  1.00 20.00     0.193 C 
HETATM   11 CL11 UNL     1     -38.645  11.686   4.031  1.00 20.00    -0.123 Cl
ENDBRANCH   8  10
ENDBRANCH   5   8
TORSDOF 2
ENDMDL
MODEL 6
REMARK VINA RESULT:      -3.9      9.175     10.451
REMARK  2 active torsions:
REMARK  status: ('A' for Active; 'I' for Inactive)
REMARK    1  A    between atoms: C1_1  and  C6_6 
REMARK    2  A    between atoms: C1_1  and  C9_9 
ROOT
HETATM    1  C2  UNL     1     -42.675   8.314  -0.371  1.00 20.00     0.005 C 
HETATM    2  C3  UNL     1     -43.242   7.631   0.883  1.00 20.00     0.006 C 
HETATM    3  C4  UNL     1     -41.149   6.372  -0.778  1.00 20.00     0.017 C 
HETATM    4  C5  UNL     1     -40.891   7.795   1.120  1.00 20.00     0.010 C 
HETATM    5  C6  UNL     1     -41.684   5.657   0.474  1.00 20.00     0.061 C 
HETATM    6  C7  UNL     1     -41.207   7.858  -0.375  1.00 20.00    -0.013 C 
HETATM    7  C8  UNL     1     -42.041   6.828   1.416  1.00 20.00    -0.003 C 
ENDROOT
BRANCH   5   8
HETATM    8  C1  UNL     1     -42.834   4.743   0.190  1.00 20.00     0.145 C 
HETATM    9  O10 UNL     1     -43.307   4.036   1.078  1.00 20.00    -0.296 OA
BRANCH   8  10
HETATM   10  C9  UNL     1     -43.345   4.756  -1.233  1.00 20.00     0.193 C 
HETATM   11 CL11 UNL     1     -43.395   3.116  -1.896  1.00 20.00    -0.123 Cl
ENDBRANCH   8  10
ENDBRANCH   5   8
TORSDOF 2
ENDMDL
MODEL 7
REMARK VINA RESULT:      -3.9     10.064     11.159
REMARK  2 active torsions:
REMARK  status: ('A' for Active; 'I' for Inactive)
REMARK    1  A    between atoms: C1_1  and  C6_6 
REMARK    2  A    between atoms: C1_1  and  C9_9 
ROOT
HETATM    1  C2  UNL     1     -42.381  14.927   8.816  1.00 20.00     0.005 C 
HETATM    2  C3  UNL     1     -40.928  14.432   8.847  1.00 20.00     0.006 C 
HETATM    3  C4  UNL     1     -42.448  14.671   6.327  1.00 20.00     0.017 C 
HETATM    4  C5  UNL     1     -41.052  16.291   7.385  1.00 20.00     0.010 C 
HETATM    5  C6  UNL     1     -40.991  14.178   6.313  1.00 20.00     0.061 C 
HETATM    6  C7  UNL     1     -42.455  15.690   7.483  1.00 20.00    -0.013 C 
HETATM    7  C8  UNL     1     -40.360  14.930   7.505  1.00 20.00    -0.003 C 
ENDROOT
BRANCH   5   8
HETATM    8  C1  UNL     1     -40.867  12.690   6.407  1.00 20.00     0.145 C 
HETATM    9  O10 UNL     1     -41.842  11.998   6.695  1.00 20.00    -0.296 OA
BRANCH   8  10
HETATM   10  C9  UNL     1     -39.491  12.129   6.132  1.00 20.00     0.193 C 
HETATM   11 CL11 UNL     1     -39.291  11.774   4.410  1.00 20.00    -0.123 Cl
ENDBRANCH   8  10
ENDBRANCH   5   8
TORSDOF 2
ENDMDL
MODEL 8
REMARK VINA RESULT:      -3.8      1.104      2.041
REMARK  2 active torsions:
REMARK  status: ('A' for Active; 'I' for Inactive)
REMARK    1  A    between atoms: C1_1  and  C6_6 
REMARK    2  A    between atoms: C1_1  and  C9_9 
ROOT
HETATM    1  C2  UNL     1     -35.814   5.821   4.470  1.00 20.00     0.005 C 
HETATM    2  C3  UNL     1     -34.641   6.160   3.539  1.00 20.00     0.006 C 
HETATM    3  C4  UNL     1     -34.433   6.398   6.476  1.00 20.00     0.017 C 
HETATM    4  C5  UNL     1     -33.915   4.525   5.091  1.00 20.00     0.010 C 
HETATM    5  C6  UNL     1     -33.230   6.741   5.580  1.00 20.00     0.061 C 
HETATM    6  C7  UNL     1     -35.113   5.246   5.711  1.00 20.00    -0.013 C 
HETATM    7  C8  UNL     1     -33.408   5.784   4.381  1.00 20.00    -0.003 C 
ENDROOT
BRANCH   5   8
HETATM    8  C1  UNL     1     -33.171   8.184   5.193  1.00 20.00     0.145 C 
HETATM    9  O10 UNL     1     -34.007   8.980   5.616  1.00 20.00    -0.296 OA
BRANCH   8  10
HETATM   10  C9  UNL     1     -32.039   8.569   4.268  1.00 20.00     0.193 C 
HETATM   11 CL11 UNL     1     -32.656   8.996   2.666  1.00 20.00    -0.123 Cl
ENDBRANCH   8  10
ENDBRANCH   5   8
TORSDOF 2
ENDMDL
MODEL 9
REMARK VINA RESULT:      -3.8     11.779     13.006
REMARK  2 active torsions:
REMARK  status: ('A' for Active; 'I' for Inactive)
REMARK    1  A    between atoms: C1_1  and  C6_6 
REMARK    2  A    between atoms: C1_1  and  C9_9 
ROOT
HETATM    1  C2  UNL     1     -26.579  -2.241  10.196  1.00 20.00     0.005 C 
HETATM    2  C3  UNL     1     -27.777  -1.291  10.049  1.00 20.00     0.006 C 
HETATM    3  C4  UNL     1     -27.519  -3.147  12.332  1.00 20.00     0.017 C 
HETATM    4  C5  UNL     1     -26.761  -0.892  12.150  1.00 20.00     0.010 C 
HETATM    5  C6  UNL     1     -28.732  -2.206  12.226  1.00 20.00     0.061 C 
HETATM    6  C7  UNL     1     -26.381  -2.309  11.719  1.00 20.00    -0.013 C 
HETATM    7  C8  UNL     1     -28.149  -0.970  11.508  1.00 20.00    -0.003 C 
ENDROOT
BRANCH   5   8
HETATM    8  C1  UNL     1     -29.898  -2.818  11.518  1.00 20.00     0.145 C 
HETATM    9  O10 UNL     1     -30.880  -2.139  11.226  1.00 20.00    -0.296 OA
BRANCH   8  10
HETATM   10  C9  UNL     1     -29.775  -4.292  11.206  1.00 20.00     0.193 C 
HETATM   11 CL11 UNL     1     -29.529  -4.548   9.473  1.00 20.00    -0.123 Cl
ENDBRANCH   8  10
ENDBRANCH   5   8
TORSDOF 2
ENDMDL
