MODEL 1
REMARK VINA RESULT:      -3.6      0.000      0.000
REMARK  2 active torsions:
REMARK  status: ('A' for Active; 'I' for Inactive)
REMARK    1  A    between atoms: C5_5  and  C7_7 
REMARK    2  A    between atoms: C7_7  and  N8_8 
ROOT
HETATM    1  C1  UNL     1     -33.628  15.311  -3.963  1.00 20.00     0.332 C 
HETATM    2  N8  UNL     1     -33.530  16.443  -3.657  1.00 20.00    -0.245 NA
HETATM    3  O9  UNL     1     -33.727  14.180  -4.270  1.00 20.00    -0.260 OA
ENDROOT
BRANCH   2   4
HETATM    4  C7  UNL     1     -33.299  16.671  -2.237  1.00 20.00     0.190 C 
BRANCH   4   5
HETATM    5  C5  UNL     1     -33.447  18.168  -1.956  1.00 20.00     0.075 C 
HETATM    6  C3  UNL     1     -34.025  18.435  -0.566  1.00 20.00     0.041 C 
HETATM    7  C2  UNL     1     -32.790  18.493   0.299  1.00 20.00     0.029 C 
HETATM    8  C4  UNL     1     -31.792  19.155  -0.624  1.00 20.00     0.169 C 
HETATM    9  O10 UNL     1     -32.126  18.747  -1.959  1.00 20.00    -0.379 OA
HETATM   10  C6  UNL     1     -34.273  18.831  -3.054  1.00 20.00     0.048 C 
ENDBRANCH   4   5
ENDBRANCH   2   4
TORSDOF 2
ENDMDL
MODEL 2
REMARK VINA RESULT:      -3.6     11.801     12.643
REMARK  2 active torsions:
REMARK  status: ('A' for Active; 'I' for Inactive)
REMARK    1  A    between atoms: C5_5  and  C7_7 
REMARK    2  A    between atoms: C7_7  and  N8_8 
ROOT
HETATM    1  C1  UNL     1     -32.357   8.291   2.249  1.00 20.00     0.332 C 
HETATM    2  N8  UNL     1     -32.577   8.388   3.401  1.00 20.00    -0.245 NA
HETATM    3  O9  UNL     1     -32.137   8.195   1.098  1.00 20.00    -0.260 OA
ENDROOT
BRANCH   2   4
HETATM    4  C7  UNL     1     -32.646   7.121   4.116  1.00 20.00     0.190 C 
BRANCH   4   5
HETATM    5  C5  UNL     1     -33.809   7.188   5.110  1.00 20.00     0.075 C 
HETATM    6  C3  UNL     1     -35.039   6.436   4.602  1.00 20.00     0.041 C 
HETATM    7  C2  UNL     1     -34.806   5.037   5.117  1.00 20.00     0.029 C 
HETATM    8  C4  UNL     1     -34.151   5.302   6.454  1.00 20.00     0.169 C 
HETATM    9  O10 UNL     1     -33.395   6.513   6.315  1.00 20.00    -0.379 OA
HETATM   10  C6  UNL     1     -34.128   8.641   5.449  1.00 20.00     0.048 C 
ENDBRANCH   4   5
ENDBRANCH   2   4
TORSDOF 2
ENDMDL
MODEL 3
REMARK VINA RESULT:      -3.4     13.238     14.736
REMARK  2 active torsions:
REMARK  status: ('A' for Active; 'I' for Inactive)
REMARK    1  A    between atoms: C5_5  and  C7_7 
REMARK    2  A    between atoms: C7_7  and  N8_8 
ROOT
HETATM    1  C1  UNL     1     -42.619   4.052  -2.395  1.00 20.00     0.332 C 
HETATM    2  N8  UNL     1     -42.846   4.821  -1.534  1.00 20.00    -0.245 NA
HETATM    3  O9  UNL     1     -42.393   3.283  -3.256  1.00 20.00    -0.260 OA
ENDROOT
BRANCH   2   4
HETATM    4  C7  UNL     1     -41.675   5.266  -0.791  1.00 20.00     0.190 C 
BRANCH   4   5
HETATM    5  C5  UNL     1     -42.133   6.235   0.302  1.00 20.00     0.075 C 
HETATM    6  C3  UNL     1     -41.006   7.167   0.748  1.00 20.00     0.041 C 
HETATM    7  C2  UNL     1     -41.143   8.330  -0.205  1.00 20.00     0.029 C 
HETATM    8  C4  UNL     1     -42.642   8.418  -0.376  1.00 20.00     0.169 C 
HETATM    9  O10 UNL     1     -43.154   7.082  -0.263  1.00 20.00    -0.379 OA
HETATM   10  C6  UNL     1     -42.731   5.463   1.473  1.00 20.00     0.048 C 
ENDBRANCH   4   5
ENDBRANCH   2   4
TORSDOF 2
ENDMDL
MODEL 4
REMARK VINA RESULT:      -3.4     11.759     12.472
REMARK  2 active torsions:
REMARK  status: ('A' for Active; 'I' for Inactive)
REMARK    1  A    between atoms: C5_5  and  C7_7 
REMARK    2  A    between atoms: C7_7  and  N8_8 
ROOT
HETATM    1  C1  UNL     1     -39.042  12.094   5.764  1.00 20.00     0.332 C 
HETATM    2  N8  UNL     1     -40.088  12.106   6.304  1.00 20.00    -0.245 NA
HETATM    3  O9  UNL     1     -37.997  12.080   5.225  1.00 20.00    -0.260 OA
ENDROOT
BRANCH   2   4
HETATM    4  C7  UNL     1     -41.019  13.107   5.803  1.00 20.00     0.190 C 
BRANCH   4   5
HETATM    5  C5  UNL     1     -41.746  13.735   6.995  1.00 20.00     0.075 C 
HETATM    6  C3  UNL     1     -40.775  14.158   8.098  1.00 20.00     0.041 C 
HETATM    7  C2  UNL     1     -40.417  15.569   7.698  1.00 20.00     0.029 C 
HETATM    8  C4  UNL     1     -41.724  16.072   7.128  1.00 20.00     0.169 C 
HETATM    9  O10 UNL     1     -42.382  14.944   6.535  1.00 20.00    -0.379 OA
HETATM   10  C6  UNL     1     -42.820  12.785   7.516  1.00 20.00     0.048 C 
ENDBRANCH   4   5
ENDBRANCH   2   4
TORSDOF 2
ENDMDL
MODEL 5
REMARK VINA RESULT:      -3.3      2.195      5.253
REMARK  2 active torsions:
REMARK  status: ('A' for Active; 'I' for Inactive)
REMARK    1  A    between atoms: C5_5  and  C7_7 
REMARK    2  A    between atoms: C7_7  and  N8_8 
ROOT
HETATM    1  C1  UNL     1     -33.293  16.962  -2.203  1.00 20.00     0.332 C 
HETATM    2  N8  UNL     1     -33.353  16.166  -3.068  1.00 20.00    -0.245 NA
HETATM    3  O9  UNL     1     -33.231  17.756  -1.338  1.00 20.00    -0.260 OA
ENDROOT
BRANCH   2   4
HETATM    4  C7  UNL     1     -34.059  16.617  -4.260  1.00 20.00     0.190 C 
BRANCH   4   5
HETATM    5  C5  UNL     1     -34.532  15.386  -5.038  1.00 20.00     0.075 C 
HETATM    6  C3  UNL     1     -35.945  15.568  -5.594  1.00 20.00     0.041 C 
HETATM    7  C2  UNL     1     -35.690  16.202  -6.940  1.00 20.00     0.029 C 
HETATM    8  C4  UNL     1     -34.416  15.512  -7.373  1.00 20.00     0.169 C 
HETATM    9  O10 UNL     1     -33.668  15.233  -6.182  1.00 20.00    -0.379 OA
HETATM   10  C6  UNL     1     -34.418  14.138  -4.169  1.00 20.00     0.048 C 
ENDBRANCH   4   5
ENDBRANCH   2   4
TORSDOF 2
ENDMDL
MODEL 6
REMARK VINA RESULT:      -3.3     12.283     13.002
REMARK  2 active torsions:
REMARK  status: ('A' for Active; 'I' for Inactive)
REMARK    1  A    between atoms: C5_5  and  C7_7 
REMARK    2  A    between atoms: C7_7  and  N8_8 
ROOT
HETATM    1  C1  UNL     1     -39.085  12.187   5.938  1.00 20.00     0.332 C 
HETATM    2  N8  UNL     1     -40.003  12.259   6.670  1.00 20.00    -0.245 NA
HETATM    3  O9  UNL     1     -38.167  12.115   5.206  1.00 20.00    -0.260 OA
ENDROOT
BRANCH   2   4
HETATM    4  C7  UNL     1     -40.439  13.616   6.968  1.00 20.00     0.190 C 
BRANCH   4   5
HETATM    5  C5  UNL     1     -41.907  13.756   6.557  1.00 20.00     0.075 C 
HETATM    6  C3  UNL     1     -42.729  12.526   6.944  1.00 20.00     0.041 C 
HETATM    7  C2  UNL     1     -43.189  12.864   8.342  1.00 20.00     0.029 C 
HETATM    8  C4  UNL     1     -43.417  14.355   8.243  1.00 20.00     0.169 C 
HETATM    9  O10 UNL     1     -42.466  14.861   7.296  1.00 20.00    -0.379 OA
HETATM   10  C6  UNL     1     -42.009  14.063   5.066  1.00 20.00     0.048 C 
ENDBRANCH   4   5
ENDBRANCH   2   4
TORSDOF 2
ENDMDL
MODEL 7
REMARK VINA RESULT:      -3.3      2.185      4.355
REMARK  2 active torsions:
REMARK  status: ('A' for Active; 'I' for Inactive)
REMARK    1  A    between atoms: C5_5  and  C7_7 
REMARK    2  A    between atoms: C7_7  and  N8_8 
ROOT
HETATM    1  C1  UNL     1     -30.737  18.878   0.553  1.00 20.00     0.332 C 
HETATM    2  N8  UNL     1     -31.079  18.524  -0.517  1.00 20.00    -0.245 NA
HETATM    3  O9  UNL     1     -30.395  19.230   1.621  1.00 20.00    -0.260 OA
ENDROOT
BRANCH   2   4
HETATM    4  C7  UNL     1     -32.206  19.263  -1.070  1.00 20.00     0.190 C 
BRANCH   4   5
HETATM    5  C5  UNL     1     -33.395  18.307  -1.197  1.00 20.00     0.075 C 
HETATM    6  C3  UNL     1     -34.328  18.705  -2.342  1.00 20.00     0.041 C 
HETATM    7  C2  UNL     1     -33.736  17.969  -3.520  1.00 20.00     0.029 C 
HETATM    8  C4  UNL     1     -33.263  16.684  -2.879  1.00 20.00     0.169 C 
HETATM    9  O10 UNL     1     -32.878  17.005  -1.535  1.00 20.00    -0.379 OA
HETATM   10  C6  UNL     1     -34.136  18.209   0.133  1.00 20.00     0.048 C 
ENDBRANCH   4   5
ENDBRANCH   2   4
TORSDOF 2
ENDMDL
MODEL 8
REMARK VINA RESULT:      -3.2     23.697     24.394
REMARK  2 active torsions:
REMARK  status: ('A' for Active; 'I' for Inactive)
REMARK    1  A    between atoms: C5_5  and  C7_7 
REMARK    2  A    between atoms: C7_7  and  N8_8 
ROOT
HETATM    1  C1  UNL     1     -30.239  -2.643  11.355  1.00 20.00     0.332 C 
HETATM    2  N8  UNL     1     -29.094  -2.801  11.131  1.00 20.00    -0.245 NA
HETATM    3  O9  UNL     1     -31.383  -2.486  11.579  1.00 20.00    -0.260 OA
ENDROOT
BRANCH   2   4
HETATM    4  C7  UNL     1     -28.200  -1.963  11.917  1.00 20.00     0.190 C 
BRANCH   4   5
HETATM    5  C5  UNL     1     -27.115  -1.408  10.989  1.00 20.00     0.075 C 
HETATM    6  C3  UNL     1     -25.853  -1.013  11.757  1.00 20.00     0.041 C 
HETATM    7  C2  UNL     1     -25.056  -2.295  11.761  1.00 20.00     0.029 C 
HETATM    8  C4  UNL     1     -25.384  -2.872  10.403  1.00 20.00     0.169 C 
HETATM    9  O10 UNL     1     -26.724  -2.465  10.090  1.00 20.00    -0.379 OA
HETATM   10  C6  UNL     1     -27.669  -0.248  10.168  1.00 20.00     0.048 C 
ENDBRANCH   4   5
ENDBRANCH   2   4
TORSDOF 2
ENDMDL
MODEL 9
REMARK VINA RESULT:      -3.1     12.212     13.023
REMARK  2 active torsions:
REMARK  status: ('A' for Active; 'I' for Inactive)
REMARK    1  A    between atoms: C5_5  and  C7_7 
REMARK    2  A    between atoms: C7_7  and  N8_8 
ROOT
HETATM    1  C1  UNL     1     -32.331   7.432   2.512  1.00 20.00     0.332 C 
HETATM    2  N8  UNL     1     -32.608   6.998   3.570  1.00 20.00    -0.245 NA
HETATM    3  O9  UNL     1     -32.052   7.867   1.455  1.00 20.00    -0.260 OA
ENDROOT
BRANCH   2   4
HETATM    4  C7  UNL     1     -33.495   5.842   3.539  1.00 20.00     0.190 C 
BRANCH   4   5
HETATM    5  C5  UNL     1     -34.621   6.068   4.551  1.00 20.00     0.075 C 
HETATM    6  C3  UNL     1     -34.654   4.977   5.622  1.00 20.00     0.041 C 
HETATM    7  C2  UNL     1     -33.727   5.526   6.679  1.00 20.00     0.029 C 
HETATM    8  C4  UNL     1     -34.013   7.008   6.608  1.00 20.00     0.169 C 
HETATM    9  O10 UNL     1     -34.347   7.303   5.244  1.00 20.00    -0.379 OA
HETATM   10  C6  UNL     1     -35.959   6.199   3.830  1.00 20.00     0.048 C 
ENDBRANCH   4   5
ENDBRANCH   2   4
TORSDOF 2
ENDMDL
