MODEL 1
REMARK VINA RESULT:      -4.4      0.000      0.000
REMARK  1 active torsions:
REMARK  status: ('A' for Active; 'I' for Inactive)
REMARK    1  A    between atoms: C3_3  and  C8_8 
ROOT
HETATM    1  C1  UNL     1     -31.554  18.486  -0.816  1.00 20.00     0.017 A 
HETATM    2  C2  UNL     1     -31.047  18.869   0.459  1.00 20.00     0.032 A 
HETATM    3  C3  UNL     1     -32.903  18.209  -0.775  1.00 20.00    -0.012 A 
HETATM    4  C4  UNL     1     -32.028  18.870   1.427  1.00 20.00     0.075 A 
HETATM    5  S10 UNL     1     -33.552  18.411   0.796  1.00 20.00    -0.082 SA
HETATM    6 CL11 UNL     1     -31.866  19.262   3.086  1.00 20.00    -0.076 Cl
ENDROOT
BRANCH   3   7
HETATM    7  C8  UNL     1     -33.809  17.774  -1.907  1.00 20.00     0.027 C 
HETATM    8  C5  UNL     1     -33.395  16.444  -2.575  1.00 20.00     0.011 C 
HETATM    9  C6  UNL     1     -33.796  16.549  -4.050  1.00 20.00     0.021 C 
HETATM   10  C9  UNL     1     -34.593  17.842  -4.154  1.00 20.00     0.083 C 
HETATM   11  C7  UNL     1     -33.957  18.732  -3.097  1.00 20.00     0.030 C 
HETATM   12 CL12 UNL     1     -34.516  18.555  -5.772  1.00 20.00    -0.125 Cl
ENDBRANCH   3   7
TORSDOF 1
ENDMDL
MODEL 2
REMARK VINA RESULT:      -4.4      2.475      5.918
REMARK  1 active torsions:
REMARK  status: ('A' for Active; 'I' for Inactive)
REMARK    1  A    between atoms: C3_3  and  C8_8 
ROOT
HETATM    1  C1  UNL     1     -33.325  15.611  -3.754  1.00 20.00     0.017 A 
HETATM    2  C2  UNL     1     -33.746  14.869  -4.896  1.00 20.00     0.032 A 
HETATM    3  C3  UNL     1     -34.014  16.796  -3.625  1.00 20.00    -0.012 A 
HETATM    4  C4  UNL     1     -34.740  15.517  -5.596  1.00 20.00     0.075 A 
HETATM    5  S10 UNL     1     -35.162  17.012  -4.877  1.00 20.00    -0.082 SA
HETATM    6 CL11 UNL     1     -35.532  14.993  -7.022  1.00 20.00    -0.076 Cl
ENDROOT
BRANCH   3   7
HETATM    7  C8  UNL     1     -33.869  17.859  -2.556  1.00 20.00     0.027 C 
HETATM    8  C5  UNL     1     -32.710  18.851  -2.802  1.00 20.00     0.011 C 
HETATM    9  C6  UNL     1     -32.182  19.263  -1.424  1.00 20.00     0.021 C 
HETATM   10  C9  UNL     1     -33.157  18.653  -0.427  1.00 20.00     0.083 C 
HETATM   11  C7  UNL     1     -33.617  17.380  -1.119  1.00 20.00     0.030 C 
HETATM   12 CL12 UNL     1     -32.407  18.335   1.144  1.00 20.00    -0.125 Cl
ENDBRANCH   3   7
TORSDOF 1
ENDMDL
MODEL 3
REMARK VINA RESULT:      -3.5     11.301     12.056
REMARK  1 active torsions:
REMARK  status: ('A' for Active; 'I' for Inactive)
REMARK    1  A    between atoms: C3_3  and  C8_8 
ROOT
HETATM    1  C1  UNL     1     -41.998  14.939   6.608  1.00 20.00     0.017 A 
HETATM    2  C2  UNL     1     -42.263  15.956   7.571  1.00 20.00     0.032 A 
HETATM    3  C3  UNL     1     -41.034  14.056   7.042  1.00 20.00    -0.012 A 
HETATM    4  C4  UNL     1     -41.492  15.812   8.703  1.00 20.00     0.075 A 
HETATM    5  S10 UNL     1     -40.453  14.455   8.602  1.00 20.00    -0.082 SA
HETATM    6 CL11 UNL     1     -41.482  16.802  10.100  1.00 20.00    -0.076 Cl
ENDROOT
BRANCH   3   7
HETATM    7  C8  UNL     1     -40.473  12.846   6.324  1.00 20.00     0.027 C 
HETATM    8  C5  UNL     1     -39.021  12.493   6.717  1.00 20.00     0.011 C 
HETATM    9  C6  UNL     1     -38.360  11.897   5.470  1.00 20.00     0.021 C 
HETATM   10  C9  UNL     1     -39.486  11.747   4.457  1.00 20.00     0.083 C 
HETATM   11  C7  UNL     1     -40.415  12.904   4.791  1.00 20.00     0.030 C 
HETATM   12 CL12 UNL     1     -38.905  11.809   2.786  1.00 20.00    -0.125 Cl
ENDBRANCH   3   7
TORSDOF 1
ENDMDL
MODEL 4
REMARK VINA RESULT:      -3.5      3.269      6.538
REMARK  1 active torsions:
REMARK  status: ('A' for Active; 'I' for Inactive)
REMARK    1  A    between atoms: C3_3  and  C8_8 
ROOT
HETATM    1  C1  UNL     1     -34.835  15.598  -5.690  1.00 20.00     0.017 A 
HETATM    2  C2  UNL     1     -35.823  15.383  -6.694  1.00 20.00     0.032 A 
HETATM    3  C3  UNL     1     -34.957  16.838  -5.102  1.00 20.00    -0.012 A 
HETATM    4  C4  UNL     1     -36.662  16.466  -6.836  1.00 20.00     0.075 A 
HETATM    5  S10 UNL     1     -36.258  17.736  -5.762  1.00 20.00    -0.082 SA
HETATM    6 CL11 UNL     1     -37.979  16.640  -7.918  1.00 20.00    -0.076 Cl
ENDROOT
BRANCH   3   7
HETATM    7  C8  UNL     1     -34.112  17.447  -4.003  1.00 20.00     0.027 C 
HETATM    8  C5  UNL     1     -33.384  16.412  -3.117  1.00 20.00     0.011 C 
HETATM    9  C6  UNL     1     -33.295  17.019  -1.713  1.00 20.00     0.021 C 
HETATM   10  C9  UNL     1     -33.799  18.447  -1.865  1.00 20.00     0.083 C 
HETATM   11  C7  UNL     1     -34.828  18.340  -2.980  1.00 20.00     0.030 C 
HETATM   12 CL12 UNL     1     -34.491  19.084  -0.366  1.00 20.00    -0.125 Cl
ENDBRANCH   3   7
TORSDOF 1
ENDMDL
MODEL 5
REMARK VINA RESULT:      -3.4      2.404      5.723
REMARK  1 active torsions:
REMARK  status: ('A' for Active; 'I' for Inactive)
REMARK    1  A    between atoms: C3_3  and  C8_8 
ROOT
HETATM    1  C1  UNL     1     -35.486  17.971  -4.052  1.00 20.00     0.017 A 
HETATM    2  C2  UNL     1     -35.574  17.032  -5.120  1.00 20.00     0.032 A 
HETATM    3  C3  UNL     1     -34.394  17.737  -3.245  1.00 20.00    -0.012 A 
HETATM    4  C4  UNL     1     -34.546  16.115  -5.089  1.00 20.00     0.075 A 
HETATM    5  S10 UNL     1     -33.482  16.389  -3.776  1.00 20.00    -0.082 SA
HETATM    6 CL11 UNL     1     -34.262  14.818  -6.171  1.00 20.00    -0.076 Cl
ENDROOT
BRANCH   3   7
HETATM    7  C8  UNL     1     -33.950  18.502  -2.017  1.00 20.00     0.027 C 
HETATM    8  C5  UNL     1     -32.847  17.796  -1.196  1.00 20.00     0.011 C 
HETATM    9  C6  UNL     1     -33.080  18.174   0.271  1.00 20.00     0.021 C 
HETATM   10  C9  UNL     1     -34.180  19.226   0.240  1.00 20.00     0.083 C 
HETATM   11  C7  UNL     1     -35.019  18.820  -0.962  1.00 20.00     0.030 C 
HETATM   12 CL12 UNL     1     -35.122  19.263   1.738  1.00 20.00    -0.125 Cl
ENDBRANCH   3   7
TORSDOF 1
ENDMDL
MODEL 6
REMARK VINA RESULT:      -3.4      2.404      3.330
REMARK  1 active torsions:
REMARK  status: ('A' for Active; 'I' for Inactive)
REMARK    1  A    between atoms: C3_3  and  C8_8 
ROOT
HETATM    1  C1  UNL     1     -33.424  17.039  -2.542  1.00 20.00     0.017 A 
HETATM    2  C2  UNL     1     -33.277  17.399  -1.171  1.00 20.00     0.032 A 
HETATM    3  C3  UNL     1     -34.392  17.790  -3.172  1.00 20.00    -0.012 A 
HETATM    4  C4  UNL     1     -34.138  18.411  -0.806  1.00 20.00     0.075 A 
HETATM    5  S10 UNL     1     -35.119  18.921  -2.112  1.00 20.00    -0.082 SA
HETATM    6 CL11 UNL     1     -34.302  19.146   0.733  1.00 20.00    -0.076 Cl
ENDROOT
BRANCH   3   7
HETATM    7  C8  UNL     1     -34.849  17.719  -4.614  1.00 20.00     0.027 C 
HETATM    8  C5  UNL     1     -36.353  18.006  -4.818  1.00 20.00     0.011 C 
HETATM    9  C6  UNL     1     -36.806  17.158  -6.011  1.00 20.00     0.021 C 
HETATM   10  C9  UNL     1     -35.528  16.555  -6.577  1.00 20.00     0.083 C 
HETATM   11  C7  UNL     1     -34.645  16.387  -5.350  1.00 20.00     0.030 C 
HETATM   12 CL12 UNL     1     -35.817  15.024  -7.417  1.00 20.00    -0.125 Cl
ENDBRANCH   3   7
TORSDOF 1
ENDMDL
MODEL 7
REMARK VINA RESULT:      -3.3      2.864      3.995
REMARK  1 active torsions:
REMARK  status: ('A' for Active; 'I' for Inactive)
REMARK    1  A    between atoms: C3_3  and  C8_8 
ROOT
HETATM    1  C1  UNL     1     -33.429  16.460  -3.223  1.00 20.00     0.017 A 
HETATM    2  C2  UNL     1     -33.374  16.964  -1.892  1.00 20.00     0.032 A 
HETATM    3  C3  UNL     1     -34.307  17.173  -4.010  1.00 20.00    -0.012 A 
HETATM    4  C4  UNL     1     -34.212  18.042  -1.711  1.00 20.00     0.075 A 
HETATM    5  S10 UNL     1     -35.060  18.442  -3.143  1.00 20.00    -0.082 SA
HETATM    6 CL11 UNL     1     -34.461  18.950  -0.280  1.00 20.00    -0.076 Cl
ENDROOT
BRANCH   3   7
HETATM    7  C8  UNL     1     -34.651  16.960  -5.469  1.00 20.00     0.027 C 
HETATM    8  C5  UNL     1     -34.461  18.212  -6.354  1.00 20.00     0.011 C 
HETATM    9  C6  UNL     1     -35.524  18.139  -7.455  1.00 20.00     0.021 C 
HETATM   10  C9  UNL     1     -36.170  16.770  -7.293  1.00 20.00     0.083 C 
HETATM   11  C7  UNL     1     -36.084  16.517  -5.796  1.00 20.00     0.030 C 
HETATM   12 CL12 UNL     1     -37.836  16.734  -7.889  1.00 20.00    -0.125 Cl
ENDBRANCH   3   7
TORSDOF 1
ENDMDL
MODEL 8
REMARK VINA RESULT:      -3.3      4.087      7.223
REMARK  1 active torsions:
REMARK  status: ('A' for Active; 'I' for Inactive)
REMARK    1  A    between atoms: C3_3  and  C8_8 
ROOT
HETATM    1  C1  UNL     1     -36.352  16.707  -7.615  1.00 20.00     0.017 A 
HETATM    2  C2  UNL     1     -37.738  16.839  -7.918  1.00 20.00     0.032 A 
HETATM    3  C3  UNL     1     -36.116  16.716  -6.258  1.00 20.00    -0.012 A 
HETATM    4  C4  UNL     1     -38.509  16.945  -6.781  1.00 20.00     0.075 A 
HETATM    5  S10 UNL     1     -37.562  16.885  -5.356  1.00 20.00    -0.082 SA
HETATM    6 CL11 UNL     1     -40.210  17.121  -6.678  1.00 20.00    -0.076 Cl
ENDROOT
BRANCH   3   7
HETATM    7  C8  UNL     1     -34.793  16.600  -5.531  1.00 20.00     0.027 C 
HETATM    8  C5  UNL     1     -34.371  15.148  -5.212  1.00 20.00     0.011 C 
HETATM    9  C6  UNL     1     -33.588  15.196  -3.896  1.00 20.00     0.021 C 
HETATM   10  C9  UNL     1     -33.417  16.678  -3.589  1.00 20.00     0.083 C 
HETATM   11  C7  UNL     1     -34.674  17.304  -4.171  1.00 20.00     0.030 C 
HETATM   12 CL12 UNL     1     -33.245  16.994  -1.856  1.00 20.00    -0.125 Cl
ENDBRANCH   3   7
TORSDOF 1
ENDMDL
MODEL 9
REMARK VINA RESULT:      -3.3     11.833     13.520
REMARK  1 active torsions:
REMARK  status: ('A' for Active; 'I' for Inactive)
REMARK    1  A    between atoms: C3_3  and  C8_8 
ROOT
HETATM    1  C1  UNL     1     -41.445  14.025   5.988  1.00 20.00     0.017 A 
HETATM    2  C2  UNL     1     -41.061  13.287   4.832  1.00 20.00     0.032 A 
HETATM    3  C3  UNL     1     -40.632  13.756   7.067  1.00 20.00    -0.012 A 
HETATM    4  C4  UNL     1     -39.969  12.481   5.071  1.00 20.00     0.075 A 
HETATM    5  S10 UNL     1     -39.413  12.617   6.685  1.00 20.00    -0.082 SA
HETATM    6 CL11 UNL     1     -39.179  11.430   3.974  1.00 20.00    -0.076 Cl
ENDROOT
BRANCH   3   7
HETATM    7  C8  UNL     1     -40.704  14.330   8.467  1.00 20.00     0.027 C 
HETATM    8  C5  UNL     1     -42.035  14.047   9.200  1.00 20.00     0.011 C 
HETATM    9  C6  UNL     1     -42.298  15.248  10.114  1.00 20.00     0.021 C 
HETATM   10  C9  UNL     1     -41.036  16.095  10.030  1.00 20.00     0.083 C 
HETATM   11  C7  UNL     1     -40.542  15.850   8.612  1.00 20.00     0.030 C 
HETATM   12 CL12 UNL     1     -41.348  17.808  10.348  1.00 20.00    -0.125 Cl
ENDBRANCH   3   7
TORSDOF 1
ENDMDL
