MODEL 1
REMARK VINA RESULT:      -5.3      0.000      0.000
REMARK  3 active torsions:
REMARK  status: ('A' for Active; 'I' for Inactive)
REMARK    1  A    between atoms: C3_3  and  C6_6 
REMARK    2  A    between atoms: C6_6  and  C7_7 
REMARK    3  A    between atoms: C6_6  and  O8_8 
ROOT
HETATM    1  C5  UNL     1     -34.075   4.557   4.302  1.00 20.00     0.056 C 
HETATM    2  C6  UNL     1     -34.375   5.952   4.815  1.00 20.00     0.158 C 
ENDROOT
BRANCH   2   3
HETATM    3  C3  UNL     1     -33.421   6.965   4.247  1.00 20.00    -0.004 A 
HETATM    4  C1  UNL     1     -32.797   7.961   5.195  1.00 20.00     0.013 A 
HETATM    5  C2  UNL     1     -33.852   8.412   4.226  1.00 20.00     0.013 A 
HETATM    6  C4  UNL     1     -32.585   6.463   3.102  1.00 20.00     0.018 C 
ENDBRANCH   2   3
BRANCH   2   7
HETATM    7  C7  UNL     1     -34.366   5.958   6.349  1.00 20.00     0.418 C 
HETATM    8  F9  UNL     1     -35.282   5.091   6.836  1.00 20.00    -0.168 F 
HETATM    9  F10 UNL     1     -34.651   7.177   6.860  1.00 20.00    -0.168 F 
HETATM   10  F11 UNL     1     -33.159   5.586   6.829  1.00 20.00    -0.168 F 
ENDBRANCH   2   7
BRANCH   2  11
HETATM   11  O8  UNL     1     -35.712   6.277   4.397  1.00 20.00    -0.380 OA
HETATM   12  H22 UNL     1     -35.643   6.534   3.468  1.00 20.00     0.211 HD
ENDBRANCH   2  11
TORSDOF 3
ENDMDL
MODEL 2
REMARK VINA RESULT:      -4.9      1.041      1.674
REMARK  3 active torsions:
REMARK  status: ('A' for Active; 'I' for Inactive)
REMARK    1  A    between atoms: C3_3  and  C6_6 
REMARK    2  A    between atoms: C6_6  and  C7_7 
REMARK    3  A    between atoms: C6_6  and  O8_8 
ROOT
HETATM    1  C5  UNL     1     -33.537   5.432   3.608  1.00 20.00     0.056 C 
HETATM    2  C6  UNL     1     -34.175   6.353   4.631  1.00 20.00     0.158 C 
ENDROOT
BRANCH   2   3
HETATM    3  C3  UNL     1     -33.519   7.705   4.639  1.00 20.00    -0.004 A 
HETATM    4  C1  UNL     1     -33.144   8.319   3.310  1.00 20.00     0.013 A 
HETATM    5  C2  UNL     1     -32.071   7.794   4.220  1.00 20.00     0.013 A 
HETATM    6  C4  UNL     1     -33.994   8.624   5.731  1.00 20.00     0.018 C 
ENDBRANCH   2   3
BRANCH   2   7
HETATM    7  C7  UNL     1     -34.143   5.695   6.017  1.00 20.00     0.418 C 
HETATM    8  F9  UNL     1     -35.297   5.925   6.681  1.00 20.00    -0.168 F 
HETATM    9  F10 UNL     1     -33.133   6.163   6.784  1.00 20.00    -0.168 F 
HETATM   10  F11 UNL     1     -33.992   4.356   5.915  1.00 20.00    -0.168 F 
ENDBRANCH   2   7
BRANCH   2  11
HETATM   11  O8  UNL     1     -35.556   6.501   4.263  1.00 20.00    -0.380 OA
HETATM   12  H22 UNL     1     -35.973   6.982   4.990  1.00 20.00     0.211 HD
ENDBRANCH   2  11
TORSDOF 3
ENDMDL
MODEL 3
REMARK VINA RESULT:      -4.7      1.780      2.363
REMARK  3 active torsions:
REMARK  status: ('A' for Active; 'I' for Inactive)
REMARK    1  A    between atoms: C3_3  and  C6_6 
REMARK    2  A    between atoms: C6_6  and  C7_7 
REMARK    3  A    between atoms: C6_6  and  O8_8 
ROOT
HETATM    1  C5  UNL     1     -34.428   8.340   5.464  1.00 20.00     0.056 C 
HETATM    2  C6  UNL     1     -33.718   7.028   5.194  1.00 20.00     0.158 C 
ENDROOT
BRANCH   2   3
HETATM    3  C3  UNL     1     -32.929   7.082   3.915  1.00 20.00    -0.004 A 
HETATM    4  C1  UNL     1     -31.662   7.903   3.899  1.00 20.00     0.013 A 
HETATM    5  C2  UNL     1     -32.879   8.393   3.168  1.00 20.00     0.013 A 
HETATM    6  C4  UNL     1     -32.957   5.812   3.110  1.00 20.00     0.018 C 
ENDBRANCH   2   3
BRANCH   2   7
HETATM    7  C7  UNL     1     -34.732   5.876   5.190  1.00 20.00     0.418 C 
HETATM    8  F9  UNL     1     -35.273   5.712   6.417  1.00 20.00    -0.168 F 
HETATM    9  F10 UNL     1     -34.171   4.699   4.833  1.00 20.00    -0.168 F 
HETATM   10  F11 UNL     1     -35.745   6.124   4.330  1.00 20.00    -0.168 F 
ENDBRANCH   2   7
BRANCH   2  11
HETATM   11  O8  UNL     1     -32.820   6.799   6.293  1.00 20.00    -0.380 OA
HETATM   12  H22 UNL     1     -32.499   5.894   6.187  1.00 20.00     0.211 HD
ENDBRANCH   2  11
TORSDOF 3
ENDMDL
MODEL 4
REMARK VINA RESULT:      -4.7      9.019      9.573
REMARK  3 active torsions:
REMARK  status: ('A' for Active; 'I' for Inactive)
REMARK    1  A    between atoms: C3_3  and  C6_6 
REMARK    2  A    between atoms: C6_6  and  C7_7 
REMARK    3  A    between atoms: C6_6  and  O8_8 
ROOT
HETATM    1  C5  UNL     1     -40.801   5.334  -0.604  1.00 20.00     0.056 C 
HETATM    2  C6  UNL     1     -42.129   5.845  -0.081  1.00 20.00     0.158 C 
ENDROOT
BRANCH   2   3
HETATM    3  C3  UNL     1     -42.074   7.317   0.217  1.00 20.00    -0.004 A 
HETATM    4  C1  UNL     1     -40.911   8.108  -0.333  1.00 20.00     0.013 A 
HETATM    5  C2  UNL     1     -40.984   7.814   1.137  1.00 20.00     0.013 A 
HETATM    6  C4  UNL     1     -43.416   7.992   0.286  1.00 20.00     0.018 C 
ENDBRANCH   2   3
BRANCH   2   7
HETATM    7  C7  UNL     1     -42.555   5.030   1.147  1.00 20.00     0.418 C 
HETATM    8  F9  UNL     1     -43.384   4.025   0.789  1.00 20.00    -0.168 F 
HETATM    9  F10 UNL     1     -43.203   5.783   2.064  1.00 20.00    -0.168 F 
HETATM   10  F11 UNL     1     -41.484   4.475   1.757  1.00 20.00    -0.168 F 
ENDBRANCH   2   7
BRANCH   2  11
HETATM   11  O8  UNL     1     -43.107   5.608  -1.107  1.00 20.00    -0.380 OA
HETATM   12  H22 UNL     1     -42.653   5.766  -1.946  1.00 20.00     0.211 HD
ENDBRANCH   2  11
TORSDOF 3
ENDMDL
MODEL 5
REMARK VINA RESULT:      -4.7      9.171      9.921
REMARK  3 active torsions:
REMARK  status: ('A' for Active; 'I' for Inactive)
REMARK    1  A    between atoms: C3_3  and  C6_6 
REMARK    2  A    between atoms: C6_6  and  C7_7 
REMARK    3  A    between atoms: C6_6  and  O8_8 
ROOT
HETATM    1  C5  UNL     1     -43.106   7.557  -0.353  1.00 20.00     0.056 C 
HETATM    2  C6  UNL     1     -42.395   6.233  -0.154  1.00 20.00     0.158 C 
ENDROOT
BRANCH   2   3
HETATM    3  C3  UNL     1     -42.839   5.554   1.111  1.00 20.00    -0.004 A 
HETATM    4  C1  UNL     1     -42.047   4.360   1.590  1.00 20.00     0.013 A 
HETATM    5  C2  UNL     1     -43.416   4.163   1.005  1.00 20.00     0.013 A 
HETATM    6  C4  UNL     1     -43.415   6.479   2.148  1.00 20.00     0.018 C 
ENDBRANCH   2   3
BRANCH   2   7
HETATM    7  C7  UNL     1     -40.876   6.446  -0.185  1.00 20.00     0.418 C 
HETATM    8  F9  UNL     1     -40.375   6.497   1.069  1.00 20.00    -0.168 F 
HETATM    9  F10 UNL     1     -40.531   7.596  -0.807  1.00 20.00    -0.168 F 
HETATM   10  F11 UNL     1     -40.257   5.431  -0.829  1.00 20.00    -0.168 F 
ENDBRANCH   2   7
BRANCH   2  11
HETATM   11  O8  UNL     1     -42.730   5.401  -1.278  1.00 20.00    -0.380 OA
HETATM   12  H22 UNL     1     -42.590   5.948  -2.062  1.00 20.00     0.211 HD
ENDBRANCH   2  11
TORSDOF 3
ENDMDL
MODEL 6
REMARK VINA RESULT:      -4.7      2.548      3.463
REMARK  3 active torsions:
REMARK  status: ('A' for Active; 'I' for Inactive)
REMARK    1  A    between atoms: C3_3  and  C6_6 
REMARK    2  A    between atoms: C6_6  and  C7_7 
REMARK    3  A    between atoms: C6_6  and  O8_8 
ROOT
HETATM    1  C5  UNL     1     -33.294   7.344   6.339  1.00 20.00     0.056 C 
HETATM    2  C6  UNL     1     -33.638   7.438   4.866  1.00 20.00     0.158 C 
ENDROOT
BRANCH   2   3
HETATM    3  C3  UNL     1     -34.020   6.097   4.303  1.00 20.00    -0.004 A 
HETATM    4  C1  UNL     1     -35.458   5.657   4.433  1.00 20.00     0.013 A 
HETATM    5  C2  UNL     1     -34.398   5.003   5.272  1.00 20.00     0.013 A 
HETATM    6  C4  UNL     1     -33.274   5.708   3.056  1.00 20.00     0.018 C 
ENDBRANCH   2   3
BRANCH   2   7
HETATM    7  C7  UNL     1     -32.471   8.069   4.096  1.00 20.00     0.418 C 
HETATM    8  F9  UNL     1     -32.923   8.757   3.024  1.00 20.00    -0.168 F 
HETATM    9  F10 UNL     1     -31.594   7.144   3.644  1.00 20.00    -0.168 F 
HETATM   10  F11 UNL     1     -31.787   8.935   4.875  1.00 20.00    -0.168 F 
ENDBRANCH   2   7
BRANCH   2  11
HETATM   11  O8  UNL     1     -34.757   8.334   4.750  1.00 20.00    -0.380 OA
HETATM   12  H22 UNL     1     -34.403   9.219   4.906  1.00 20.00     0.211 HD
ENDBRANCH   2  11
TORSDOF 3
ENDMDL
MODEL 7
REMARK VINA RESULT:      -4.5      2.560      3.746
REMARK  3 active torsions:
REMARK  status: ('A' for Active; 'I' for Inactive)
REMARK    1  A    between atoms: C3_3  and  C6_6 
REMARK    2  A    between atoms: C6_6  and  C7_7 
REMARK    3  A    between atoms: C6_6  and  O8_8 
ROOT
HETATM    1  C5  UNL     1     -32.858   8.673   5.448  1.00 20.00     0.056 C 
HETATM    2  C6  UNL     1     -33.426   7.749   4.388  1.00 20.00     0.158 C 
ENDROOT
BRANCH   2   3
HETATM    3  C3  UNL     1     -34.048   6.525   5.000  1.00 20.00    -0.004 A 
HETATM    4  C1  UNL     1     -34.184   5.293   4.138  1.00 20.00     0.013 A 
HETATM    5  C2  UNL     1     -35.404   6.092   4.497  1.00 20.00     0.013 A 
HETATM    6  C4  UNL     1     -33.745   6.334   6.461  1.00 20.00     0.018 C 
ENDBRANCH   2   3
BRANCH   2   7
HETATM    7  C7  UNL     1     -32.335   7.387   3.372  1.00 20.00     0.418 C 
HETATM    8  F9  UNL     1     -32.465   8.125   2.248  1.00 20.00    -0.168 F 
HETATM    9  F10 UNL     1     -32.382   6.085   3.011  1.00 20.00    -0.168 F 
HETATM   10  F11 UNL     1     -31.104   7.627   3.876  1.00 20.00    -0.168 F 
ENDBRANCH   2   7
BRANCH   2  11
HETATM   11  O8  UNL     1     -34.436   8.488   3.681  1.00 20.00    -0.380 OA
HETATM   12  H22 UNL     1     -34.862   9.051   4.341  1.00 20.00     0.211 HD
ENDBRANCH   2  11
TORSDOF 3
ENDMDL
MODEL 8
REMARK VINA RESULT:      -4.4      9.151      9.843
REMARK  3 active torsions:
REMARK  status: ('A' for Active; 'I' for Inactive)
REMARK    1  A    between atoms: C3_3  and  C6_6 
REMARK    2  A    between atoms: C6_6  and  C7_7 
REMARK    3  A    between atoms: C6_6  and  O8_8 
ROOT
HETATM    1  C5  UNL     1     -43.140   7.634   1.428  1.00 20.00     0.056 C 
HETATM    2  C6  UNL     1     -42.438   7.019   0.233  1.00 20.00     0.158 C 
ENDROOT
BRANCH   2   3
HETATM    3  C3  UNL     1     -42.598   5.524   0.210  1.00 20.00    -0.004 A 
HETATM    4  C1  UNL     1     -43.417   4.883   1.304  1.00 20.00     0.013 A 
HETATM    5  C2  UNL     1     -41.924   4.723   1.298  1.00 20.00     0.013 A 
HETATM    6  C4  UNL     1     -42.666   4.924  -1.168  1.00 20.00     0.018 C 
ENDBRANCH   2   3
BRANCH   2   7
HETATM    7  C7  UNL     1     -40.962   7.435   0.223  1.00 20.00     0.418 C 
HETATM    8  F9  UNL     1     -40.210   6.513  -0.418  1.00 20.00    -0.168 F 
HETATM    9  F10 UNL     1     -40.458   7.572   1.470  1.00 20.00    -0.168 F 
HETATM   10  F11 UNL     1     -40.794   8.613  -0.418  1.00 20.00    -0.168 F 
ENDBRANCH   2   7
BRANCH   2  11
HETATM   11  O8  UNL     1     -43.044   7.576  -0.946  1.00 20.00    -0.380 OA
HETATM   12  H22 UNL     1     -43.757   6.970  -1.187  1.00 20.00     0.211 HD
ENDBRANCH   2  11
TORSDOF 3
ENDMDL
MODEL 9
REMARK VINA RESULT:      -4.4      1.320      1.461
REMARK  3 active torsions:
REMARK  status: ('A' for Active; 'I' for Inactive)
REMARK    1  A    between atoms: C3_3  and  C6_6 
REMARK    2  A    between atoms: C6_6  and  C7_7 
REMARK    3  A    between atoms: C6_6  and  O8_8 
ROOT
HETATM    1  C5  UNL     1     -35.439   6.128   4.226  1.00 20.00     0.056 C 
HETATM    2  C6  UNL     1     -34.312   6.954   4.814  1.00 20.00     0.158 C 
ENDROOT
BRANCH   2   3
HETATM    3  C3  UNL     1     -33.119   6.986   3.900  1.00 20.00    -0.004 A 
HETATM    4  C1  UNL     1     -31.960   7.878   4.278  1.00 20.00     0.013 A 
HETATM    5  C2  UNL     1     -32.850   8.257   3.129  1.00 20.00     0.013 A 
HETATM    6  C4  UNL     1     -32.810   5.676   3.228  1.00 20.00     0.018 C 
ENDBRANCH   2   3
BRANCH   2   7
HETATM    7  C7  UNL     1     -33.948   6.426   6.207  1.00 20.00     0.418 C 
HETATM    8  F9  UNL     1     -34.894   6.768   7.110  1.00 20.00    -0.168 F 
HETATM    9  F10 UNL     1     -32.768   6.915   6.650  1.00 20.00    -0.168 F 
HETATM   10  F11 UNL     1     -33.857   5.077   6.206  1.00 20.00    -0.168 F 
ENDBRANCH   2   7
BRANCH   2  11
HETATM   11  O8  UNL     1     -34.812   8.291   4.984  1.00 20.00    -0.380 OA
HETATM   12  H22 UNL     1     -35.768   8.203   5.094  1.00 20.00     0.211 HD
ENDBRANCH   2  11
TORSDOF 3
ENDMDL
