MODEL 1
REMARK VINA RESULT:      -3.8      0.000      0.000
REMARK  3 active torsions:
REMARK  status: ('A' for Active; 'I' for Inactive)
REMARK    1  A    between atoms: C1_1  and  C3_3 
REMARK    2  A    between atoms: C2_2  and  C8_8 
REMARK    3  A    between atoms: C8_8  and  C10_10 
ROOT
HETATM    1  C4  UNL     1     -34.690  18.959  -1.179  1.00 20.00     0.002 C 
HETATM    2  C5  UNL     1     -33.611  17.968  -0.742  1.00 20.00     0.002 C 
HETATM    3  C6  UNL     1     -35.141  18.514  -2.570  1.00 20.00     0.022 C 
HETATM    4  C7  UNL     1     -33.460  16.969  -1.890  1.00 20.00     0.022 C 
HETATM    5  C8  UNL     1     -33.959  17.714  -3.133  1.00 20.00     0.024 C 
ENDROOT
BRANCH   5   6
HETATM    6  C2  UNL     1     -34.395  16.753  -4.238  1.00 20.00    -0.085 C 
HETATM    7  C1  UNL     1     -34.738  15.998  -5.107  1.00 20.00     0.005 C 
BRANCH   7   8
HETATM    8  C3  UNL     1     -35.178  15.028  -6.221  1.00 20.00     0.258 C 
HETATM    9  O11 UNL     1     -34.389  14.919  -7.204  1.00 20.00    -0.637 OA
HETATM   10  O12 UNL     1     -36.285  14.441  -6.037  1.00 20.00    -0.637 OA
ENDBRANCH   7   8
ENDBRANCH   5   6
BRANCH   5  11
HETATM   11  C10 UNL     1     -32.915  18.620  -3.659  1.00 20.00     0.018 C 
HETATM   12  C9  UNL     1     -33.339  19.263  -4.939  1.00 20.00     0.007 C 
ENDBRANCH   5  11
TORSDOF 3
ENDMDL
MODEL 2
REMARK VINA RESULT:      -3.7     13.403     14.912
REMARK  3 active torsions:
REMARK  status: ('A' for Active; 'I' for Inactive)
REMARK    1  A    between atoms: C1_1  and  C3_3 
REMARK    2  A    between atoms: C2_2  and  C8_8 
REMARK    3  A    between atoms: C8_8  and  C10_10 
ROOT
HETATM    1  C4  UNL     1     -41.127   7.645   0.616  1.00 20.00     0.002 C 
HETATM    2  C5  UNL     1     -42.648   7.776   0.712  1.00 20.00     0.002 C 
HETATM    3  C6  UNL     1     -40.859   6.467  -0.322  1.00 20.00     0.022 C 
HETATM    4  C7  UNL     1     -43.228   6.672  -0.172  1.00 20.00     0.022 C 
HETATM    5  C8  UNL     1     -42.128   5.608  -0.252  1.00 20.00     0.024 C 
ENDROOT
BRANCH   5   6
HETATM    6  C2  UNL     1     -42.282   4.718  -1.485  1.00 20.00    -0.085 C 
HETATM    7  C1  UNL     1     -42.403   4.019  -2.454  1.00 20.00     0.005 C 
BRANCH   7   8
HETATM    8  C3  UNL     1     -42.559   3.122  -3.697  1.00 20.00     0.258 C 
HETATM    9  O11 UNL     1     -42.854   3.716  -4.775  1.00 20.00    -0.637 OA
HETATM   10  O12 UNL     1     -42.377   1.883  -3.511  1.00 20.00    -0.637 OA
ENDBRANCH   7   8
ENDBRANCH   5   6
BRANCH   5  11
HETATM   11  C10 UNL     1     -42.123   4.762   0.961  1.00 20.00     0.018 C 
HETATM   12  C9  UNL     1     -43.417   4.035   1.130  1.00 20.00     0.007 C 
ENDBRANCH   5  11
TORSDOF 3
ENDMDL
MODEL 3
REMARK VINA RESULT:      -3.5     11.999     13.441
REMARK  3 active torsions:
REMARK  status: ('A' for Active; 'I' for Inactive)
REMARK    1  A    between atoms: C1_1  and  C3_3 
REMARK    2  A    between atoms: C2_2  and  C8_8 
REMARK    3  A    between atoms: C8_8  and  C10_10 
ROOT
HETATM    1  C4  UNL     1     -42.717  15.319   8.819  1.00 20.00     0.002 C 
HETATM    2  C5  UNL     1     -42.966  16.148   7.559  1.00 20.00     0.002 C 
HETATM    3  C6  UNL     1     -41.854  14.134   8.386  1.00 20.00     0.022 C 
HETATM    4  C7  UNL     1     -42.242  15.425   6.423  1.00 20.00     0.022 C 
HETATM    5  C8  UNL     1     -42.130  13.968   6.887  1.00 20.00     0.024 C 
ENDROOT
BRANCH   5   6
HETATM    6  C2  UNL     1     -40.998  13.228   6.177  1.00 20.00    -0.085 C 
HETATM    7  C1  UNL     1     -40.107  12.647   5.618  1.00 20.00     0.005 C 
BRANCH   7   8
HETATM    8  C3  UNL     1     -38.965  11.900   4.902  1.00 20.00     0.258 C 
HETATM    9  O11 UNL     1     -37.802  12.104   5.355  1.00 20.00    -0.637 OA
HETATM   10  O12 UNL     1     -39.310  11.159   3.935  1.00 20.00    -0.637 OA
ENDBRANCH   7   8
ENDBRANCH   5   6
BRANCH   5  11
HETATM   11  C10 UNL     1     -43.401  13.245   6.663  1.00 20.00     0.018 C 
HETATM   12  C9  UNL     1     -43.417  11.930   7.371  1.00 20.00     0.007 C 
ENDBRANCH   5  11
TORSDOF 3
ENDMDL
MODEL 4
REMARK VINA RESULT:      -3.5     24.606     25.854
REMARK  3 active torsions:
REMARK  status: ('A' for Active; 'I' for Inactive)
REMARK    1  A    between atoms: C1_1  and  C3_3 
REMARK    2  A    between atoms: C2_2  and  C8_8 
REMARK    3  A    between atoms: C8_8  and  C10_10 
ROOT
HETATM    1  C4  UNL     1     -29.609  -2.945  10.897  1.00 20.00     0.002 C 
HETATM    2  C5  UNL     1     -29.020  -2.900  12.307  1.00 20.00     0.002 C 
HETATM    3  C6  UNL     1     -28.419  -2.927   9.937  1.00 20.00     0.022 C 
HETATM    4  C7  UNL     1     -27.501  -2.858  12.133  1.00 20.00     0.022 C 
HETATM    5  C8  UNL     1     -27.277  -2.281  10.731  1.00 20.00     0.024 C 
ENDROOT
BRANCH   5   6
HETATM    6  C2  UNL     1     -25.907  -2.659  10.170  1.00 20.00    -0.085 C 
HETATM    7  C1  UNL     1     -24.830  -2.955   9.729  1.00 20.00     0.005 C 
BRANCH   7   8
HETATM    8  C3  UNL     1     -23.448  -3.336   9.163  1.00 20.00     0.258 C 
HETATM    9  O11 UNL     1     -23.309  -3.210   7.912  1.00 20.00    -0.637 OA
HETATM   10  O12 UNL     1     -22.595  -3.737  10.009  1.00 20.00    -0.637 OA
ENDBRANCH   7   8
ENDBRANCH   5   6
BRANCH   5  11
HETATM   11  C10 UNL     1     -27.412  -0.808  10.739  1.00 20.00     0.018 C 
HETATM   12  C9  UNL     1     -26.555  -0.184  11.791  1.00 20.00     0.007 C 
ENDBRANCH   5  11
TORSDOF 3
ENDMDL
MODEL 5
REMARK VINA RESULT:      -3.5      3.829      5.245
REMARK  3 active torsions:
REMARK  status: ('A' for Active; 'I' for Inactive)
REMARK    1  A    between atoms: C1_1  and  C3_3 
REMARK    2  A    between atoms: C2_2  and  C8_8 
REMARK    3  A    between atoms: C8_8  and  C10_10 
ROOT
HETATM    1  C4  UNL     1     -36.134  18.313  -4.960  1.00 20.00     0.002 C 
HETATM    2  C5  UNL     1     -34.896  18.391  -5.854  1.00 20.00     0.002 C 
HETATM    3  C6  UNL     1     -35.618  18.187  -3.527  1.00 20.00     0.022 C 
HETATM    4  C7  UNL     1     -33.690  18.308  -4.920  1.00 20.00     0.022 C 
HETATM    5  C8  UNL     1     -34.208  17.599  -3.663  1.00 20.00     0.024 C 
ENDROOT
BRANCH   5   6
HETATM    6  C2  UNL     1     -33.343  17.901  -2.440  1.00 20.00    -0.085 C 
HETATM    7  C1  UNL     1     -32.663  18.138  -1.478  1.00 20.00     0.005 C 
BRANCH   7   8
HETATM    8  C3  UNL     1     -31.792  18.443  -0.244  1.00 20.00     0.258 C 
HETATM    9  O11 UNL     1     -32.390  18.434   0.871  1.00 20.00    -0.637 OA
HETATM   10  O12 UNL     1     -30.568  18.670  -0.474  1.00 20.00    -0.637 OA
ENDBRANCH   7   8
ENDBRANCH   5   6
BRANCH   5  11
HETATM   11  C10 UNL     1     -34.266  16.136  -3.869  1.00 20.00     0.018 C 
HETATM   12  C9  UNL     1     -32.900  15.536  -3.947  1.00 20.00     0.007 C 
ENDBRANCH   5  11
TORSDOF 3
ENDMDL
MODEL 6
REMARK VINA RESULT:      -3.4     24.778     26.046
REMARK  3 active torsions:
REMARK  status: ('A' for Active; 'I' for Inactive)
REMARK    1  A    between atoms: C1_1  and  C3_3 
REMARK    2  A    between atoms: C2_2  and  C8_8 
REMARK    3  A    between atoms: C8_8  and  C10_10 
ROOT
HETATM    1  C4  UNL     1     -27.054  -0.341  12.196  1.00 20.00     0.002 C 
HETATM    2  C5  UNL     1     -28.025  -0.612  11.046  1.00 20.00     0.002 C 
HETATM    3  C6  UNL     1     -25.785  -1.131  11.877  1.00 20.00     0.022 C 
HETATM    4  C7  UNL     1     -27.297  -1.553  10.086  1.00 20.00     0.022 C 
HETATM    5  C8  UNL     1     -26.243  -2.260  10.945  1.00 20.00     0.024 C 
ENDROOT
BRANCH   5   6
HETATM    6  C2  UNL     1     -25.091  -2.807  10.102  1.00 20.00    -0.085 C 
HETATM    7  C1  UNL     1     -24.187  -3.236   9.439  1.00 20.00     0.005 C 
BRANCH   7   8
HETATM    8  C3  UNL     1     -23.026  -3.788   8.589  1.00 20.00     0.258 C 
HETATM    9  O11 UNL     1     -22.861  -3.244   7.458  1.00 20.00    -0.637 OA
HETATM   10  O12 UNL     1     -22.357  -4.727   9.110  1.00 20.00    -0.637 OA
ENDBRANCH   7   8
ENDBRANCH   5   6
BRANCH   5  11
HETATM   11  C10 UNL     1     -26.848  -3.366  11.719  1.00 20.00     0.018 C 
HETATM   12  C9  UNL     1     -27.576  -4.323  10.833  1.00 20.00     0.007 C 
ENDBRANCH   5  11
TORSDOF 3
ENDMDL
MODEL 7
REMARK VINA RESULT:      -3.4     11.258     12.648
REMARK  3 active torsions:
REMARK  status: ('A' for Active; 'I' for Inactive)
REMARK    1  A    between atoms: C1_1  and  C3_3 
REMARK    2  A    between atoms: C2_2  and  C8_8 
REMARK    3  A    between atoms: C8_8  and  C10_10 
ROOT
HETATM    1  C4  UNL     1     -40.515  14.391   8.560  1.00 20.00     0.002 C 
HETATM    2  C5  UNL     1     -41.964  13.989   8.838  1.00 20.00     0.002 C 
HETATM    3  C6  UNL     1     -40.420  14.630   7.053  1.00 20.00     0.022 C 
HETATM    4  C7  UNL     1     -42.677  14.004   7.486  1.00 20.00     0.022 C 
HETATM    5  C8  UNL     1     -41.566  13.809   6.448  1.00 20.00     0.024 C 
ENDROOT
BRANCH   5   6
HETATM    6  C2  UNL     1     -41.974  14.329   5.070  1.00 20.00    -0.085 C 
HETATM    7  C1  UNL     1     -42.295  14.736   3.987  1.00 20.00     0.005 C 
BRANCH   7   8
HETATM    8  C3  UNL     1     -42.706  15.261   2.597  1.00 20.00     0.258 C 
HETATM    9  O11 UNL     1     -43.417  14.480   1.900  1.00 20.00    -0.637 OA
HETATM   10  O12 UNL     1     -42.290  16.418   2.297  1.00 20.00    -0.637 OA
ENDBRANCH   7   8
ENDBRANCH   5   6
BRANCH   5  11
HETATM   11  C10 UNL     1     -41.189  12.383   6.339  1.00 20.00     0.018 C 
HETATM   12  C9  UNL     1     -39.941  12.203   5.540  1.00 20.00     0.007 C 
ENDBRANCH   5  11
TORSDOF 3
ENDMDL
MODEL 8
REMARK VINA RESULT:      -3.3     25.004     26.379
REMARK  3 active torsions:
REMARK  status: ('A' for Active; 'I' for Inactive)
REMARK    1  A    between atoms: C1_1  and  C3_3 
REMARK    2  A    between atoms: C2_2  and  C8_8 
REMARK    3  A    between atoms: C8_8  and  C10_10 
ROOT
HETATM    1  C4  UNL     1     -22.565  -4.737   9.657  1.00 20.00     0.002 C 
HETATM    2  C5  UNL     1     -22.506  -3.749   8.490  1.00 20.00     0.002 C 
HETATM    3  C6  UNL     1     -23.913  -4.508  10.341  1.00 20.00     0.022 C 
HETATM    4  C7  UNL     1     -23.821  -2.970   8.524  1.00 20.00     0.022 C 
HETATM    5  C8  UNL     1     -24.306  -3.072   9.975  1.00 20.00     0.024 C 
ENDROOT
BRANCH   5   6
HETATM    6  C2  UNL     1     -25.812  -2.845  10.091  1.00 20.00    -0.085 C 
HETATM    7  C1  UNL     1     -26.997  -2.667  10.183  1.00 20.00     0.005 C 
BRANCH   7   8
HETATM    8  C3  UNL     1     -28.516  -2.439  10.300  1.00 20.00     0.258 C 
HETATM    9  O11 UNL     1     -28.876  -1.275  10.644  1.00 20.00    -0.637 OA
HETATM   10  O12 UNL     1     -29.247  -3.439  10.040  1.00 20.00    -0.637 OA
ENDBRANCH   7   8
ENDBRANCH   5   6
BRANCH   5  11
HETATM   11  C10 UNL     1     -23.599  -2.099  10.836  1.00 20.00     0.018 C 
HETATM   12  C9  UNL     1     -24.175  -2.062  12.214  1.00 20.00     0.007 C 
ENDBRANCH   5  11
TORSDOF 3
ENDMDL
MODEL 9
REMARK VINA RESULT:      -3.2     16.701     19.235
REMARK  3 active torsions:
REMARK  status: ('A' for Active; 'I' for Inactive)
REMARK    1  A    between atoms: C1_1  and  C3_3 
REMARK    2  A    between atoms: C2_2  and  C8_8 
REMARK    3  A    between atoms: C8_8  and  C10_10 
ROOT
HETATM    1  C4  UNL     1     -40.714  -2.825  -3.493  1.00 20.00     0.002 C 
HETATM    2  C5  UNL     1     -41.886  -2.872  -2.511  1.00 20.00     0.002 C 
HETATM    3  C6  UNL     1     -40.732  -1.427  -4.112  1.00 20.00     0.022 C 
HETATM    4  C7  UNL     1     -42.557  -1.501  -2.583  1.00 20.00     0.022 C 
HETATM    5  C8  UNL     1     -42.181  -0.944  -3.961  1.00 20.00     0.024 C 
ENDROOT
BRANCH   5   6
HETATM    6  C2  UNL     1     -42.282   0.579  -4.009  1.00 20.00    -0.085 C 
HETATM    7  C1  UNL     1     -42.362   1.777  -4.048  1.00 20.00     0.005 C 
BRANCH   7   8
HETATM    8  C3  UNL     1     -42.465   3.314  -4.097  1.00 20.00     0.258 C 
HETATM    9  O11 UNL     1     -42.539   3.828  -5.251  1.00 20.00    -0.637 OA
HETATM   10  O12 UNL     1     -42.464   3.904  -2.976  1.00 20.00    -0.637 OA
ENDBRANCH   7   8
ENDBRANCH   5   6
BRANCH   5  11
HETATM   11  C10 UNL     1     -43.040  -1.524  -5.016  1.00 20.00     0.018 C 
HETATM   12  C9  UNL     1     -42.567  -1.143  -6.381  1.00 20.00     0.007 C 
ENDBRANCH   5  11
TORSDOF 3
ENDMDL
