MODEL 1
REMARK VINA RESULT:      -4.6      0.000      0.000
REMARK  1 active torsions:
REMARK  status: ('A' for Active; 'I' for Inactive)
REMARK    1  A    between atoms: C4_4  and  C5_5 
ROOT
HETATM    1  C1  UNL     1     -34.488   5.126   5.447  1.00 20.00     0.013 A 
HETATM    2  C2  UNL     1     -35.464   5.779   4.510  1.00 20.00     0.013 A 
HETATM    3  C4  UNL     1     -33.979   5.909   4.259  1.00 20.00    -0.011 A 
HETATM    4  C6  UNL     1     -33.419   5.104   3.113  1.00 20.00     0.018 C 
ENDROOT
BRANCH   3   5
HETATM    5  C5  UNL     1     -33.277   7.257   4.465  1.00 20.00     0.086 A 
HETATM    6  C3  UNL     1     -33.907   8.355   5.277  1.00 20.00     0.207 A 
HETATM    7  O8  UNL     1     -32.873   7.514   5.811  1.00 20.00    -0.375 OA
HETATM    8  C7  UNL     1     -32.242   7.620   3.450  1.00 20.00     0.049 C 
ENDBRANCH   3   5
TORSDOF 1
ENDMDL
MODEL 2
REMARK VINA RESULT:      -4.4      1.165      1.800
REMARK  1 active torsions:
REMARK  status: ('A' for Active; 'I' for Inactive)
REMARK    1  A    between atoms: C4_4  and  C5_5 
ROOT
HETATM    1  C1  UNL     1     -35.499   5.931   4.495  1.00 20.00     0.013 A 
HETATM    2  C2  UNL     1     -34.427   4.924   4.799  1.00 20.00     0.013 A 
HETATM    3  C4  UNL     1     -34.162   6.394   5.026  1.00 20.00    -0.011 A 
HETATM    4  C6  UNL     1     -34.132   6.857   6.460  1.00 20.00     0.018 C 
ENDROOT
BRANCH   3   5
HETATM    5  C5  UNL     1     -33.189   7.153   4.114  1.00 20.00     0.086 A 
HETATM    6  C3  UNL     1     -33.201   8.654   4.027  1.00 20.00     0.207 A 
HETATM    7  O8  UNL     1     -32.225   7.948   4.808  1.00 20.00    -0.375 OA
HETATM    8  C7  UNL     1     -32.614   6.374   2.976  1.00 20.00     0.049 C 
ENDBRANCH   3   5
TORSDOF 1
ENDMDL
MODEL 3
REMARK VINA RESULT:      -4.3      0.994      1.542
REMARK  1 active torsions:
REMARK  status: ('A' for Active; 'I' for Inactive)
REMARK    1  A    between atoms: C4_4  and  C5_5 
ROOT
HETATM    1  C1  UNL     1     -34.576   4.931   5.264  1.00 20.00     0.013 A 
HETATM    2  C2  UNL     1     -35.491   5.758   4.408  1.00 20.00     0.013 A 
HETATM    3  C4  UNL     1     -34.000   6.002   4.367  1.00 20.00    -0.011 A 
HETATM    4  C6  UNL     1     -33.275   5.529   3.133  1.00 20.00     0.018 C 
ENDROOT
BRANCH   3   5
HETATM    5  C5  UNL     1     -33.411   7.283   4.973  1.00 20.00     0.086 A 
HETATM    6  C3  UNL     1     -32.335   8.062   4.269  1.00 20.00     0.207 A 
HETATM    7  O8  UNL     1     -33.710   8.474   4.243  1.00 20.00    -0.375 OA
HETATM    8  C7  UNL     1     -33.556   7.436   6.453  1.00 20.00     0.049 C 
ENDBRANCH   3   5
TORSDOF 1
ENDMDL
MODEL 4
REMARK VINA RESULT:      -4.3      1.304      2.848
REMARK  1 active torsions:
REMARK  status: ('A' for Active; 'I' for Inactive)
REMARK    1  A    between atoms: C4_4  and  C5_5 
ROOT
HETATM    1  C1  UNL     1     -34.150   8.337   4.917  1.00 20.00     0.013 A 
HETATM    2  C2  UNL     1     -33.103   7.720   5.799  1.00 20.00     0.013 A 
HETATM    3  C4  UNL     1     -33.301   7.202   4.394  1.00 20.00    -0.011 A 
HETATM    4  C6  UNL     1     -32.238   7.565   3.388  1.00 20.00     0.018 C 
ENDROOT
BRANCH   3   5
HETATM    5  C5  UNL     1     -33.919   5.817   4.162  1.00 20.00     0.086 A 
HETATM    6  C3  UNL     1     -34.581   5.055   5.277  1.00 20.00     0.207 A 
HETATM    7  O8  UNL     1     -35.341   5.775   4.294  1.00 20.00    -0.375 OA
HETATM    8  C7  UNL     1     -33.405   5.058   2.982  1.00 20.00     0.049 C 
ENDBRANCH   3   5
TORSDOF 1
ENDMDL
MODEL 5
REMARK VINA RESULT:      -4.1      1.207      1.681
REMARK  1 active torsions:
REMARK  status: ('A' for Active; 'I' for Inactive)
REMARK    1  A    between atoms: C4_4  and  C5_5 
ROOT
HETATM    1  C1  UNL     1     -33.740   5.628   6.328  1.00 20.00     0.013 A 
HETATM    2  C2  UNL     1     -34.394   6.964   6.535  1.00 20.00     0.013 A 
HETATM    3  C4  UNL     1     -34.239   6.411   5.136  1.00 20.00    -0.011 A 
HETATM    4  C6  UNL     1     -35.493   5.902   4.473  1.00 20.00     0.018 C 
ENDROOT
BRANCH   3   5
HETATM    5  C5  UNL     1     -33.243   7.051   4.160  1.00 20.00     0.086 A 
HETATM    6  C3  UNL     1     -33.166   8.542   3.980  1.00 20.00     0.207 A 
HETATM    7  O8  UNL     1     -32.216   7.825   4.784  1.00 20.00    -0.375 OA
HETATM    8  C7  UNL     1     -32.744   6.170   3.061  1.00 20.00     0.049 C 
ENDBRANCH   3   5
TORSDOF 1
ENDMDL
MODEL 6
REMARK VINA RESULT:      -4.1      1.460      3.075
REMARK  1 active torsions:
REMARK  status: ('A' for Active; 'I' for Inactive)
REMARK    1  A    between atoms: C4_4  and  C5_5 
ROOT
HETATM    1  C1  UNL     1     -32.293   7.993   4.316  1.00 20.00     0.013 A 
HETATM    2  C2  UNL     1     -33.678   8.560   4.197  1.00 20.00     0.013 A 
HETATM    3  C4  UNL     1     -33.463   7.246   4.912  1.00 20.00    -0.011 A 
HETATM    4  C6  UNL     1     -33.584   7.272   6.415  1.00 20.00     0.018 C 
ENDROOT
BRANCH   3   5
HETATM    5  C5  UNL     1     -33.946   5.935   4.279  1.00 20.00     0.086 A 
HETATM    6  C3  UNL     1     -34.634   4.875   5.095  1.00 20.00     0.207 A 
HETATM    7  O8  UNL     1     -35.366   5.778   4.252  1.00 20.00    -0.375 OA
HETATM    8  C7  UNL     1     -33.276   5.536   3.005  1.00 20.00     0.049 C 
ENDBRANCH   3   5
TORSDOF 1
ENDMDL
MODEL 7
REMARK VINA RESULT:      -4.0      1.597      2.977
REMARK  1 active torsions:
REMARK  status: ('A' for Active; 'I' for Inactive)
REMARK    1  A    between atoms: C4_4  and  C5_5 
ROOT
HETATM    1  C1  UNL     1     -33.361   8.674   3.820  1.00 20.00     0.013 A 
HETATM    2  C2  UNL     1     -32.232   8.236   4.707  1.00 20.00     0.013 A 
HETATM    3  C4  UNL     1     -33.167   7.205   4.119  1.00 20.00    -0.011 A 
HETATM    4  C6  UNL     1     -32.615   6.358   3.001  1.00 20.00     0.018 C 
ENDROOT
BRANCH   3   5
HETATM    5  C5  UNL     1     -34.162   6.462   5.020  1.00 20.00     0.086 A 
HETATM    6  C3  UNL     1     -35.428   5.866   4.469  1.00 20.00     0.207 A 
HETATM    7  O8  UNL     1     -34.272   5.063   4.752  1.00 20.00    -0.375 OA
HETATM    8  C7  UNL     1     -34.098   6.789   6.477  1.00 20.00     0.049 C 
ENDBRANCH   3   5
TORSDOF 1
ENDMDL
MODEL 8
REMARK VINA RESULT:      -3.8      1.535      2.570
REMARK  1 active torsions:
REMARK  status: ('A' for Active; 'I' for Inactive)
REMARK    1  A    between atoms: C4_4  and  C5_5 
ROOT
HETATM    1  C1  UNL     1     -35.476   5.865   4.611  1.00 20.00     0.013 A 
HETATM    2  C2  UNL     1     -34.487   5.058   5.403  1.00 20.00     0.013 A 
HETATM    3  C4  UNL     1     -34.053   6.353   4.756  1.00 20.00    -0.011 A 
HETATM    4  C6  UNL     1     -33.834   7.525   5.679  1.00 20.00     0.018 C 
ENDROOT
BRANCH   3   5
HETATM    5  C5  UNL     1     -33.104   6.334   3.551  1.00 20.00     0.086 A 
HETATM    6  C3  UNL     1     -32.697   5.045   2.891  1.00 20.00     0.207 A 
HETATM    7  O8  UNL     1     -33.706   5.899   2.330  1.00 20.00    -0.375 OA
HETATM    8  C7  UNL     1     -32.222   7.529   3.391  1.00 20.00     0.049 C 
ENDBRANCH   3   5
TORSDOF 1
ENDMDL
MODEL 9
REMARK VINA RESULT:      -3.6     15.633     16.902
REMARK  1 active torsions:
REMARK  status: ('A' for Active; 'I' for Inactive)
REMARK    1  A    between atoms: C4_4  and  C5_5 
ROOT
HETATM    1  C1  UNL     1     -21.650  18.638   9.367  1.00 20.00     0.013 A 
HETATM    2  C2  UNL     1     -22.229  17.369   8.810  1.00 20.00     0.013 A 
HETATM    3  C4  UNL     1     -23.066  18.244   9.715  1.00 20.00    -0.011 A 
HETATM    4  C6  UNL     1     -24.167  19.034   9.054  1.00 20.00     0.018 C 
ENDROOT
BRANCH   3   5
HETATM    5  C5  UNL     1     -23.412  17.777  11.135  1.00 20.00     0.086 A 
HETATM    6  C3  UNL     1     -22.601  18.213  12.325  1.00 20.00     0.207 A 
HETATM    7  O8  UNL     1     -23.864  18.816  12.006  1.00 20.00    -0.375 OA
HETATM    8  C7  UNL     1     -24.214  16.520  11.236  1.00 20.00     0.049 C 
ENDBRANCH   3   5
TORSDOF 1
ENDMDL
