MODEL 1
REMARK VINA RESULT:      -4.2      0.000      0.000
REMARK  1 active torsions:
REMARK  status: ('A' for Active; 'I' for Inactive)
REMARK    1  A    between atoms: C3_3  and  C8_8 
ROOT
HETATM    1  C1  UNL     1     -35.641  15.389  -6.246  1.00 20.00     0.089 C 
HETATM    2  C2  UNL     1     -35.270  16.515  -5.461  1.00 20.00     0.113 C 
HETATM    3  C3  UNL     1     -34.442  16.444  -4.408  1.00 20.00     0.030 C 
HETATM    4  N10 UNL     1     -35.948  14.476  -6.892  1.00 20.00    -0.192 NA
HETATM    5 CL11 UNL     1     -33.776  14.899  -3.967  1.00 20.00    -0.087 Cl
ENDROOT
BRANCH   3   6
HETATM    6  C8  UNL     1     -33.989  17.592  -3.510  1.00 20.00    -0.005 C 
HETATM    7  C6  UNL     1     -35.180  18.285  -2.828  1.00 20.00     0.015 C 
HETATM    8  C4  UNL     1     -34.637  18.725  -1.476  1.00 20.00     0.001 C 
HETATM    9  C5  UNL     1     -33.758  17.556  -1.068  1.00 20.00     0.001 C 
HETATM   10  C7  UNL     1     -33.077  17.114  -2.362  1.00 20.00     0.015 C 
HETATM   11  C9  UNL     1     -33.235  18.588  -4.354  1.00 20.00     0.021 C 
ENDBRANCH   3   6
TORSDOF 1
ENDMDL
MODEL 2
REMARK VINA RESULT:      -4.2      4.568      6.044
REMARK  1 active torsions:
REMARK  status: ('A' for Active; 'I' for Inactive)
REMARK    1  A    between atoms: C3_3  and  C8_8 
ROOT
HETATM    1  C1  UNL     1     -30.583  18.713   1.373  1.00 20.00     0.089 C 
HETATM    2  C2  UNL     1     -31.287  18.504   0.156  1.00 20.00     0.113 C 
HETATM    3  C3  UNL     1     -32.605  18.709   0.017  1.00 20.00     0.030 C 
HETATM    4  N10 UNL     1     -30.002  18.881   2.363  1.00 20.00    -0.192 NA
HETATM    5 CL11 UNL     1     -33.518  19.261   1.391  1.00 20.00    -0.087 Cl
ENDROOT
BRANCH   3   6
HETATM    6  C8  UNL     1     -33.443  18.513  -1.244  1.00 20.00    -0.005 C 
HETATM    7  C6  UNL     1     -32.783  19.161  -2.472  1.00 20.00     0.015 C 
HETATM    8  C4  UNL     1     -33.173  18.255  -3.631  1.00 20.00     0.001 C 
HETATM    9  C5  UNL     1     -33.073  16.867  -3.025  1.00 20.00     0.001 C 
HETATM   10  C7  UNL     1     -33.619  17.024  -1.607  1.00 20.00     0.015 C 
HETATM   11  C9  UNL     1     -34.801  19.126  -1.012  1.00 20.00     0.021 C 
ENDBRANCH   3   6
TORSDOF 1
ENDMDL
MODEL 3
REMARK VINA RESULT:      -4.1      2.026      2.789
REMARK  1 active torsions:
REMARK  status: ('A' for Active; 'I' for Inactive)
REMARK    1  A    between atoms: C3_3  and  C8_8 
ROOT
HETATM    1  C1  UNL     1     -33.512  15.443  -4.181  1.00 20.00     0.089 C 
HETATM    2  C2  UNL     1     -33.306  16.271  -3.045  1.00 20.00     0.113 C 
HETATM    3  C3  UNL     1     -33.956  17.426  -2.841  1.00 20.00     0.030 C 
HETATM    4  N10 UNL     1     -33.675  14.761  -5.106  1.00 20.00    -0.192 NA
HETATM    5 CL11 UNL     1     -35.121  17.953  -4.022  1.00 20.00    -0.087 Cl
ENDROOT
BRANCH   3   6
HETATM    6  C8  UNL     1     -33.802  18.379  -1.658  1.00 20.00    -0.005 C 
HETATM    7  C6  UNL     1     -33.646  17.616  -0.331  1.00 20.00     0.015 C 
HETATM    8  C4  UNL     1     -32.725  18.496   0.502  1.00 20.00     0.001 C 
HETATM    9  C5  UNL     1     -31.719  18.996  -0.519  1.00 20.00     0.001 C 
HETATM   10  C7  UNL     1     -32.544  19.263  -1.776  1.00 20.00     0.015 C 
HETATM   11  C9  UNL     1     -35.021  19.263  -1.597  1.00 20.00     0.021 C 
ENDBRANCH   3   6
TORSDOF 1
ENDMDL
MODEL 4
REMARK VINA RESULT:      -4.0      1.304      1.306
REMARK  1 active torsions:
REMARK  status: ('A' for Active; 'I' for Inactive)
REMARK    1  A    between atoms: C3_3  and  C8_8 
ROOT
HETATM    1  C1  UNL     1     -35.322  14.979  -6.135  1.00 20.00     0.089 C 
HETATM    2  C2  UNL     1     -34.551  15.722  -5.200  1.00 20.00     0.113 C 
HETATM    3  C3  UNL     1     -34.933  16.906  -4.698  1.00 20.00     0.030 C 
HETATM    4  N10 UNL     1     -35.946  14.366  -6.897  1.00 20.00    -0.192 NA
HETATM    5 CL11 UNL     1     -36.454  17.581  -5.206  1.00 20.00    -0.087 Cl
ENDROOT
BRANCH   3   6
HETATM    6  C8  UNL     1     -34.175  17.773  -3.695  1.00 20.00    -0.005 C 
HETATM    7  C6  UNL     1     -35.131  18.481  -2.720  1.00 20.00     0.015 C 
HETATM    8  C4  UNL     1     -34.348  18.559  -1.417  1.00 20.00     0.001 C 
HETATM    9  C5  UNL     1     -33.640  17.217  -1.367  1.00 20.00     0.001 C 
HETATM   10  C7  UNL     1     -33.219  16.948  -2.811  1.00 20.00     0.015 C 
HETATM   11  C9  UNL     1     -33.377  18.797  -4.461  1.00 20.00     0.021 C 
ENDBRANCH   3   6
TORSDOF 1
ENDMDL
MODEL 5
REMARK VINA RESULT:      -3.9     11.647     12.938
REMARK  1 active torsions:
REMARK  status: ('A' for Active; 'I' for Inactive)
REMARK    1  A    between atoms: C3_3  and  C8_8 
ROOT
HETATM    1  C1  UNL     1     -39.423  11.952   4.991  1.00 20.00     0.089 C 
HETATM    2  C2  UNL     1     -39.823  12.612   6.185  1.00 20.00     0.113 C 
HETATM    3  C3  UNL     1     -40.802  13.527   6.235  1.00 20.00     0.030 C 
HETATM    4  N10 UNL     1     -39.091  11.410   4.021  1.00 20.00    -0.192 NA
HETATM    5 CL11 UNL     1     -41.640  13.939   4.767  1.00 20.00    -0.087 Cl
ENDROOT
BRANCH   3   6
HETATM    6  C8  UNL     1     -41.299  14.284   7.464  1.00 20.00    -0.005 C 
HETATM    7  C6  UNL     1     -40.244  14.306   8.583  1.00 20.00     0.015 C 
HETATM    8  C4  UNL     1     -40.453  15.647   9.272  1.00 20.00     0.001 C 
HETATM    9  C5  UNL     1     -40.737  16.583   8.111  1.00 20.00     0.001 C 
HETATM   10  C7  UNL     1     -41.605  15.764   7.158  1.00 20.00     0.015 C 
HETATM   11  C9  UNL     1     -42.555  13.614   7.960  1.00 20.00     0.021 C 
ENDBRANCH   3   6
TORSDOF 1
ENDMDL
MODEL 6
REMARK VINA RESULT:      -3.9     12.000     13.133
REMARK  1 active torsions:
REMARK  status: ('A' for Active; 'I' for Inactive)
REMARK    1  A    between atoms: C3_3  and  C8_8 
ROOT
HETATM    1  C1  UNL     1     -40.652  16.658   7.908  1.00 20.00     0.089 C 
HETATM    2  C2  UNL     1     -40.379  15.300   7.590  1.00 20.00     0.113 C 
HETATM    3  C3  UNL     1     -41.047  14.608   6.655  1.00 20.00     0.030 C 
HETATM    4  N10 UNL     1     -40.869  17.766   8.173  1.00 20.00    -0.192 NA
HETATM    5 CL11 UNL     1     -42.319  15.402   5.773  1.00 20.00    -0.087 Cl
ENDROOT
BRANCH   3   6
HETATM    6  C8  UNL     1     -40.826  13.153   6.247  1.00 20.00    -0.005 C 
HETATM    7  C6  UNL     1     -40.600  13.016   4.732  1.00 20.00     0.015 C 
HETATM    8  C4  UNL     1     -39.634  11.848   4.600  1.00 20.00     0.001 C 
HETATM    9  C5  UNL     1     -38.683  12.062   5.764  1.00 20.00     0.001 C 
HETATM   10  C7  UNL     1     -39.575  12.541   6.908  1.00 20.00     0.015 C 
HETATM   11  C9  UNL     1     -42.039  12.356   6.655  1.00 20.00     0.021 C 
ENDBRANCH   3   6
TORSDOF 1
ENDMDL
MODEL 7
REMARK VINA RESULT:      -3.8      2.844      4.828
REMARK  1 active torsions:
REMARK  status: ('A' for Active; 'I' for Inactive)
REMARK    1  A    between atoms: C3_3  and  C8_8 
ROOT
HETATM    1  C1  UNL     1     -32.921  17.470  -2.023  1.00 20.00     0.089 C 
HETATM    2  C2  UNL     1     -33.435  16.409  -2.818  1.00 20.00     0.113 C 
HETATM    3  C3  UNL     1     -33.940  16.582  -4.049  1.00 20.00     0.030 C 
HETATM    4  N10 UNL     1     -32.500  18.330  -1.368  1.00 20.00    -0.192 NA
HETATM    5 CL11 UNL     1     -33.975  18.185  -4.723  1.00 20.00    -0.087 Cl
ENDROOT
BRANCH   3   6
HETATM    6  C8  UNL     1     -34.511  15.510  -4.973  1.00 20.00    -0.005 C 
HETATM    7  C6  UNL     1     -35.926  15.871  -5.456  1.00 20.00     0.015 C 
HETATM    8  C4  UNL     1     -36.005  15.289  -6.860  1.00 20.00     0.001 C 
HETATM    9  C5  UNL     1     -34.624  15.575  -7.423  1.00 20.00     0.001 C 
HETATM   10  C7  UNL     1     -33.672  15.330  -6.254  1.00 20.00     0.015 C 
HETATM   11  C9  UNL     1     -34.547  14.204  -4.221  1.00 20.00     0.021 C 
ENDBRANCH   3   6
TORSDOF 1
ENDMDL
MODEL 8
REMARK VINA RESULT:      -3.7     11.759     12.974
REMARK  1 active torsions:
REMARK  status: ('A' for Active; 'I' for Inactive)
REMARK    1  A    between atoms: C3_3  and  C8_8 
ROOT
HETATM    1  C1  UNL     1     -39.530  12.053   5.016  1.00 20.00     0.089 C 
HETATM    2  C2  UNL     1     -39.945  12.834   6.129  1.00 20.00     0.113 C 
HETATM    3  C3  UNL     1     -40.921  13.752   6.068  1.00 20.00     0.030 C 
HETATM    4  N10 UNL     1     -39.186  11.412   4.112  1.00 20.00    -0.192 NA
HETATM    5 CL11 UNL     1     -41.733  14.013   4.552  1.00 20.00    -0.087 Cl
ENDROOT
BRANCH   3   6
HETATM    6  C8  UNL     1     -41.433  14.634   7.204  1.00 20.00    -0.005 C 
HETATM    7  C6  UNL     1     -42.016  13.797   8.355  1.00 20.00     0.015 C 
HETATM    8  C4  UNL     1     -41.693  14.602   9.606  1.00 20.00     0.001 C 
HETATM    9  C5  UNL     1     -40.297  15.125   9.322  1.00 20.00     0.001 C 
HETATM   10  C7  UNL     1     -40.313  15.484   7.837  1.00 20.00     0.015 C 
HETATM   11  C9  UNL     1     -42.494  15.551   6.652  1.00 20.00     0.021 C 
ENDBRANCH   3   6
TORSDOF 1
ENDMDL
MODEL 9
REMARK VINA RESULT:      -3.7     25.274     26.378
REMARK  1 active torsions:
REMARK  status: ('A' for Active; 'I' for Inactive)
REMARK    1  A    between atoms: C3_3  and  C8_8 
ROOT
HETATM    1  C1  UNL     1     -22.757  -3.534   8.102  1.00 20.00     0.089 C 
HETATM    2  C2  UNL     1     -23.886  -3.172   8.886  1.00 20.00     0.113 C 
HETATM    3  C3  UNL     1     -23.902  -3.214  10.227  1.00 20.00     0.030 C 
HETATM    4  N10 UNL     1     -21.840  -3.828   7.455  1.00 20.00    -0.192 NA
HETATM    5 CL11 UNL     1     -22.471  -3.738  11.066  1.00 20.00    -0.087 Cl
ENDROOT
BRANCH   3   6
HETATM    6  C8  UNL     1     -25.061  -2.847  11.149  1.00 20.00    -0.005 C 
HETATM    7  C6  UNL     1     -24.825  -1.499  11.851  1.00 20.00     0.015 C 
HETATM    8  C4  UNL     1     -26.217  -0.900  11.994  1.00 20.00     0.001 C 
HETATM    9  C5  UNL     1     -26.882  -1.272  10.681  1.00 20.00     0.001 C 
HETATM   10  C7  UNL     1     -26.391  -2.688  10.386  1.00 20.00     0.015 C 
HETATM   11  C9  UNL     1     -25.213  -3.938  12.179  1.00 20.00     0.021 C 
ENDBRANCH   3   6
TORSDOF 1
ENDMDL
