MODEL 1
REMARK VINA RESULT:      -3.6      0.000      0.000
REMARK  4 active torsions:
REMARK  status: ('A' for Active; 'I' for Inactive)
REMARK    1  A    between atoms: C3_3  and  C10_10 
REMARK    2  A    between atoms: C8_8  and  C9_9 
REMARK    3  A    between atoms: C9_9  and  C10_10 
REMARK    4  A    between atoms: C10_10  and  O11_11 
ROOT
HETATM    1  C7  UNL     1     -34.637  17.734  -6.161  1.00 20.00     0.047 C 
HETATM    2  C10 UNL     1     -34.506  16.983  -4.851  1.00 20.00     0.065 C 
ENDROOT
BRANCH   2   3
HETATM    3  C3  UNL     1     -34.008  15.557  -5.117  1.00 20.00    -0.013 A 
HETATM    4  C1  UNL     1     -34.295  14.501  -4.077  1.00 20.00     0.013 A 
HETATM    5  C2  UNL     1     -32.897  15.021  -4.246  1.00 20.00     0.013 A 
HETATM    6  C4  UNL     1     -34.032  15.147  -6.564  1.00 20.00     0.018 C 
ENDBRANCH   2   3
BRANCH   2   7
HETATM    7  C9  UNL     1     -33.625  17.766  -3.820  1.00 20.00     0.016 C 
HETATM    8  C6  UNL     1     -33.121  19.103  -4.393  1.00 20.00     0.013 C 
BRANCH   7   9
HETATM    9  C8  UNL     1     -34.327  17.982  -2.459  1.00 20.00     0.002 C 
HETATM   10  C5  UNL     1     -33.625  17.298  -1.291  1.00 20.00     0.005 C 
ENDBRANCH   7   9
ENDBRANCH   2   7
BRANCH   2  11
HETATM   11  O11 UNL     1     -35.829  16.851  -4.310  1.00 20.00    -0.389 OA
HETATM   12  H31 UNL     1     -36.413  17.324  -4.918  1.00 20.00     0.210 HD
ENDBRANCH   2  11
TORSDOF 4
ENDMDL
MODEL 2
REMARK VINA RESULT:      -3.6      1.502      3.543
REMARK  4 active torsions:
REMARK  status: ('A' for Active; 'I' for Inactive)
REMARK    1  A    between atoms: C3_3  and  C10_10 
REMARK    2  A    between atoms: C8_8  and  C9_9 
REMARK    3  A    between atoms: C9_9  and  C10_10 
REMARK    4  A    between atoms: C10_10  and  O11_11 
ROOT
HETATM    1  C7  UNL     1     -35.251  18.141  -3.709  1.00 20.00     0.047 C 
HETATM    2  C10 UNL     1     -34.386  17.215  -4.541  1.00 20.00     0.065 C 
ENDROOT
BRANCH   2   3
HETATM    3  C3  UNL     1     -33.717  16.175  -3.633  1.00 20.00    -0.013 A 
HETATM    4  C1  UNL     1     -32.736  15.214  -4.261  1.00 20.00     0.013 A 
HETATM    5  C2  UNL     1     -34.087  14.725  -3.827  1.00 20.00     0.013 A 
HETATM    6  C4  UNL     1     -33.440  16.652  -2.234  1.00 20.00     0.018 C 
ENDBRANCH   2   3
BRANCH   2   7
HETATM    7  C9  UNL     1     -35.189  16.581  -5.726  1.00 20.00     0.016 C 
HETATM    8  C6  UNL     1     -36.681  16.957  -5.675  1.00 20.00     0.013 C 
BRANCH   7   9
HETATM    9  C8  UNL     1     -34.588  16.907  -7.112  1.00 20.00     0.002 C 
HETATM   10  C5  UNL     1     -33.968  15.702  -7.811  1.00 20.00     0.005 C 
ENDBRANCH   7   9
ENDBRANCH   2   7
BRANCH   2  11
HETATM   11  O11 UNL     1     -33.323  18.012  -5.086  1.00 20.00    -0.389 OA
HETATM   12  H31 UNL     1     -33.752  18.756  -5.531  1.00 20.00     0.210 HD
ENDBRANCH   2  11
TORSDOF 4
ENDMDL
MODEL 3
REMARK VINA RESULT:      -3.5     12.317     14.341
REMARK  4 active torsions:
REMARK  status: ('A' for Active; 'I' for Inactive)
REMARK    1  A    between atoms: C3_3  and  C10_10 
REMARK    2  A    between atoms: C8_8  and  C9_9 
REMARK    3  A    between atoms: C9_9  and  C10_10 
REMARK    4  A    between atoms: C10_10  and  O11_11 
ROOT
HETATM    1  C7  UNL     1     -40.541  15.208   7.022  1.00 20.00     0.047 C 
HETATM    2  C10 UNL     1     -40.858  13.785   7.435  1.00 20.00     0.065 C 
ENDROOT
BRANCH   2   3
HETATM    3  C3  UNL     1     -42.090  13.773   8.348  1.00 20.00    -0.013 A 
HETATM    4  C1  UNL     1     -43.158  12.738   8.082  1.00 20.00     0.013 A 
HETATM    5  C2  UNL     1     -43.417  14.180   7.752  1.00 20.00     0.013 A 
HETATM    6  C4  UNL     1     -41.814  14.149   9.777  1.00 20.00     0.018 C 
ENDBRANCH   2   3
BRANCH   2   7
HETATM    7  C9  UNL     1     -40.994  12.838   6.195  1.00 20.00     0.016 C 
HETATM    8  C6  UNL     1     -41.293  13.622   4.904  1.00 20.00     0.013 C 
BRANCH   7   9
HETATM    9  C8  UNL     1     -39.774  11.909   6.002  1.00 20.00     0.002 C 
HETATM   10  C5  UNL     1     -39.319  11.787   4.552  1.00 20.00     0.005 C 
ENDBRANCH   7   9
ENDBRANCH   2   7
BRANCH   2  11
HETATM   11  O11 UNL     1     -39.760  13.327   8.239  1.00 20.00    -0.389 OA
HETATM   12  H31 UNL     1     -38.961  13.661   7.809  1.00 20.00     0.210 HD
ENDBRANCH   2  11
TORSDOF 4
ENDMDL
MODEL 4
REMARK VINA RESULT:      -3.4      1.725      3.048
REMARK  4 active torsions:
REMARK  status: ('A' for Active; 'I' for Inactive)
REMARK    1  A    between atoms: C3_3  and  C10_10 
REMARK    2  A    between atoms: C8_8  and  C9_9 
REMARK    3  A    between atoms: C9_9  and  C10_10 
REMARK    4  A    between atoms: C10_10  and  O11_11 
ROOT
HETATM    1  C7  UNL     1     -34.252  15.613  -6.592  1.00 20.00     0.047 C 
HETATM    2  C10 UNL     1     -34.529  16.483  -5.383  1.00 20.00     0.065 C 
ENDROOT
BRANCH   2   3
HETATM    3  C3  UNL     1     -36.003  16.907  -5.377  1.00 20.00    -0.013 A 
HETATM    4  C1  UNL     1     -37.052  15.825  -5.477  1.00 20.00     0.013 A 
HETATM    5  C2  UNL     1     -36.796  16.728  -6.649  1.00 20.00     0.013 A 
HETATM    6  C4  UNL     1     -36.306  18.105  -4.519  1.00 20.00     0.018 C 
ENDBRANCH   2   3
BRANCH   2   7
HETATM    7  C9  UNL     1     -34.077  15.790  -4.054  1.00 20.00     0.016 C 
HETATM    8  C6  UNL     1     -33.535  14.370  -4.302  1.00 20.00     0.013 C 
BRANCH   7   9
HETATM    9  C8  UNL     1     -33.062  16.630  -3.244  1.00 20.00     0.002 C 
HETATM   10  C5  UNL     1     -33.580  17.067  -1.878  1.00 20.00     0.005 C 
ENDBRANCH   7   9
ENDBRANCH   2   7
BRANCH   2  11
HETATM   11  O11 UNL     1     -33.767  17.688  -5.550  1.00 20.00    -0.389 OA
HETATM   12  H31 UNL     1     -32.870  17.405  -5.773  1.00 20.00     0.210 HD
ENDBRANCH   2  11
TORSDOF 4
ENDMDL
MODEL 5
REMARK VINA RESULT:      -3.3     11.837     13.536
REMARK  4 active torsions:
REMARK  status: ('A' for Active; 'I' for Inactive)
REMARK    1  A    between atoms: C3_3  and  C10_10 
REMARK    2  A    between atoms: C8_8  and  C9_9 
REMARK    3  A    between atoms: C9_9  and  C10_10 
REMARK    4  A    between atoms: C10_10  and  O11_11 
ROOT
HETATM    1  C7  UNL     1     -34.294   8.481   4.653  1.00 20.00     0.047 C 
HETATM    2  C10 UNL     1     -33.556   7.171   4.844  1.00 20.00     0.065 C 
ENDROOT
BRANCH   2   3
HETATM    3  C3  UNL     1     -34.564   6.028   5.017  1.00 20.00    -0.013 A 
HETATM    4  C1  UNL     1     -34.697   5.403   6.386  1.00 20.00     0.013 A 
HETATM    5  C2  UNL     1     -34.024   4.643   5.280  1.00 20.00     0.013 A 
HETATM    6  C4  UNL     1     -35.804   6.155   4.176  1.00 20.00     0.018 C 
ENDBRANCH   2   3
BRANCH   2   7
HETATM    7  C9  UNL     1     -32.520   6.917   3.697  1.00 20.00     0.016 C 
HETATM    8  C6  UNL     1     -32.992   5.815   2.731  1.00 20.00     0.013 C 
BRANCH   7   9
HETATM    9  C8  UNL     1     -32.143   8.201   2.922  1.00 20.00     0.002 C 
HETATM   10  C5  UNL     1     -32.175   8.033   1.406  1.00 20.00     0.005 C 
ENDBRANCH   7   9
ENDBRANCH   2   7
BRANCH   2  11
HETATM   11  O11 UNL     1     -32.843   7.268   6.086  1.00 20.00    -0.389 OA
HETATM   12  H31 UNL     1     -32.427   8.141   6.085  1.00 20.00     0.210 HD
ENDBRANCH   2  11
TORSDOF 4
ENDMDL
MODEL 6
REMARK VINA RESULT:      -3.3      1.967      3.644
REMARK  4 active torsions:
REMARK  status: ('A' for Active; 'I' for Inactive)
REMARK    1  A    between atoms: C3_3  and  C10_10 
REMARK    2  A    between atoms: C8_8  and  C9_9 
REMARK    3  A    between atoms: C9_9  and  C10_10 
REMARK    4  A    between atoms: C10_10  and  O11_11 
ROOT
HETATM    1  C7  UNL     1     -35.778  14.679  -7.312  1.00 20.00     0.047 C 
HETATM    2  C10 UNL     1     -34.738  15.443  -6.516  1.00 20.00     0.065 C 
ENDROOT
BRANCH   2   3
HETATM    3  C3  UNL     1     -34.819  16.937  -6.858  1.00 20.00    -0.013 A 
HETATM    4  C1  UNL     1     -35.150  17.901  -5.744  1.00 20.00     0.013 A 
HETATM    5  C2  UNL     1     -36.172  17.603  -6.802  1.00 20.00     0.013 A 
HETATM    6  C4  UNL     1     -33.852  17.389  -7.918  1.00 20.00     0.018 C 
ENDBRANCH   2   3
BRANCH   2   7
HETATM    7  C9  UNL     1     -34.852  15.150  -4.982  1.00 20.00     0.016 C 
HETATM    8  C6  UNL     1     -35.698  13.896  -4.698  1.00 20.00     0.013 C 
BRANCH   7   9
HETATM    9  C8  UNL     1     -33.479  15.057  -4.277  1.00 20.00     0.002 C 
HETATM   10  C5  UNL     1     -33.285  16.090  -3.172  1.00 20.00     0.005 C 
ENDBRANCH   7   9
ENDBRANCH   2   7
BRANCH   2  11
HETATM   11  O11 UNL     1     -33.451  14.998  -6.971  1.00 20.00    -0.389 OA
HETATM   12  H31 UNL     1     -33.122  15.693  -7.555  1.00 20.00     0.210 HD
ENDBRANCH   2  11
TORSDOF 4
ENDMDL
MODEL 7
REMARK VINA RESULT:      -3.3      1.886      2.974
REMARK  4 active torsions:
REMARK  status: ('A' for Active; 'I' for Inactive)
REMARK    1  A    between atoms: C3_3  and  C10_10 
REMARK    2  A    between atoms: C8_8  and  C9_9 
REMARK    3  A    between atoms: C9_9  and  C10_10 
REMARK    4  A    between atoms: C10_10  and  O11_11 
ROOT
HETATM    1  C7  UNL     1     -35.480  14.485  -5.187  1.00 20.00     0.047 C 
HETATM    2  C10 UNL     1     -34.500  15.485  -5.766  1.00 20.00     0.065 C 
ENDROOT
BRANCH   2   3
HETATM    3  C3  UNL     1     -35.080  16.098  -7.047  1.00 20.00    -0.013 A 
HETATM    4  C1  UNL     1     -36.571  16.326  -7.110  1.00 20.00     0.013 A 
HETATM    5  C2  UNL     1     -35.950  15.224  -7.918  1.00 20.00     0.013 A 
HETATM    6  C4  UNL     1     -34.184  17.099  -7.723  1.00 20.00     0.018 C 
ENDBRANCH   2   3
BRANCH   2   7
HETATM    7  C9  UNL     1     -34.069  16.555  -4.706  1.00 20.00     0.016 C 
HETATM    8  C6  UNL     1     -35.249  17.446  -4.277  1.00 20.00     0.013 C 
BRANCH   7   9
HETATM    9  C8  UNL     1     -33.368  15.941  -3.472  1.00 20.00     0.002 C 
HETATM   10  C5  UNL     1     -33.405  16.836  -2.238  1.00 20.00     0.005 C 
ENDBRANCH   7   9
ENDBRANCH   2   7
BRANCH   2  11
HETATM   11  O11 UNL     1     -33.335  14.747  -6.167  1.00 20.00    -0.389 OA
HETATM   12  H31 UNL     1     -32.667  15.409  -6.390  1.00 20.00     0.210 HD
ENDBRANCH   2  11
TORSDOF 4
ENDMDL
MODEL 8
REMARK VINA RESULT:      -3.3      0.529      1.388
REMARK  4 active torsions:
REMARK  status: ('A' for Active; 'I' for Inactive)
REMARK    1  A    between atoms: C3_3  and  C10_10 
REMARK    2  A    between atoms: C8_8  and  C9_9 
REMARK    3  A    between atoms: C9_9  and  C10_10 
REMARK    4  A    between atoms: C10_10  and  O11_11 
ROOT
HETATM    1  C7  UNL     1     -34.657  17.930  -6.061  1.00 20.00     0.047 C 
HETATM    2  C10 UNL     1     -34.606  17.135  -4.771  1.00 20.00     0.065 C 
ENDROOT
BRANCH   2   3
HETATM    3  C3  UNL     1     -34.239  15.677  -5.076  1.00 20.00    -0.013 A 
HETATM    4  C1  UNL     1     -34.214  15.240  -6.521  1.00 20.00     0.013 A 
HETATM    5  C2  UNL     1     -35.320  14.774  -5.619  1.00 20.00     0.013 A 
HETATM    6  C4  UNL     1     -33.224  15.079  -4.141  1.00 20.00     0.018 C 
ENDBRANCH   2   3
BRANCH   2   7
HETATM    7  C9  UNL     1     -33.664  17.804  -3.714  1.00 20.00     0.016 C 
HETATM    8  C6  UNL     1     -33.035  19.105  -4.248  1.00 20.00     0.013 C 
BRANCH   7   9
HETATM    9  C8  UNL     1     -34.354  18.047  -2.352  1.00 20.00     0.002 C 
HETATM   10  C5  UNL     1     -33.633  17.398  -1.176  1.00 20.00     0.005 C 
ENDBRANCH   7   9
ENDBRANCH   2   7
BRANCH   2  11
HETATM   11  O11 UNL     1     -35.940  17.109  -4.241  1.00 20.00    -0.389 OA
HETATM   12  H31 UNL     1     -36.392  17.871  -4.626  1.00 20.00     0.210 HD
ENDBRANCH   2  11
TORSDOF 4
ENDMDL
MODEL 9
REMARK VINA RESULT:      -3.2      2.276      3.417
REMARK  4 active torsions:
REMARK  status: ('A' for Active; 'I' for Inactive)
REMARK    1  A    between atoms: C3_3  and  C10_10 
REMARK    2  A    between atoms: C8_8  and  C9_9 
REMARK    3  A    between atoms: C9_9  and  C10_10 
REMARK    4  A    between atoms: C10_10  and  O11_11 
ROOT
HETATM    1  C7  UNL     1     -33.745  15.273  -7.244  1.00 20.00     0.047 C 
HETATM    2  C10 UNL     1     -35.013  15.277  -6.413  1.00 20.00     0.065 C 
ENDROOT
BRANCH   2   3
HETATM    3  C3  UNL     1     -34.716  14.725  -5.013  1.00 20.00    -0.013 A 
HETATM    4  C1  UNL     1     -34.129  15.667  -3.989  1.00 20.00     0.013 A 
HETATM    5  C2  UNL     1     -33.271  14.595  -4.595  1.00 20.00     0.013 A 
HETATM    6  C4  UNL     1     -35.686  13.679  -4.535  1.00 20.00     0.018 C 
ENDBRANCH   2   3
BRANCH   2   7
HETATM    7  C9  UNL     1     -35.688  16.690  -6.393  1.00 20.00     0.016 C 
HETATM    8  C6  UNL     1     -35.065  17.639  -7.431  1.00 20.00     0.013 C 
BRANCH   7   9
HETATM    9  C8  UNL     1     -37.225  16.632  -6.555  1.00 20.00     0.002 C 
HETATM   10  C5  UNL     1     -37.981  16.624  -5.232  1.00 20.00     0.005 C 
ENDBRANCH   7   9
ENDBRANCH   2   7
BRANCH   2  11
HETATM   11  O11 UNL     1     -35.919  14.348  -7.026  1.00 20.00    -0.389 OA
HETATM   12  H31 UNL     1     -36.084  13.663  -6.364  1.00 20.00     0.210 HD
ENDBRANCH   2  11
TORSDOF 4
ENDMDL
