MODEL 1
REMARK VINA RESULT:      -4.0      0.000      0.000
REMARK  3 active torsions:
REMARK  status: ('A' for Active; 'I' for Inactive)
REMARK    1  A    between atoms: C1_1  and  C10_10 
REMARK    2  A    between atoms: C5_5  and  C10_10 
REMARK    3  A    between atoms: C10_10  and  O11_11 
ROOT
HETATM    1  C9  UNL     1     -34.742  18.915  -2.289  1.00 20.00     0.051 C 
HETATM    2  C10 UNL     1     -33.347  18.352  -2.144  1.00 20.00     0.079 C 
ENDROOT
BRANCH   2   3
HETATM    3  C1  UNL     1     -33.240  16.912  -2.618  1.00 20.00     0.013 C 
HETATM    4  C2  UNL     1     -33.622  16.367  -3.791  1.00 20.00    -0.088 C 
HETATM    5  C6  UNL     1     -33.416  14.896  -4.045  1.00 20.00     0.042 C 
HETATM    6  C7  UNL     1     -34.289  17.098  -4.921  1.00 20.00     0.042 C 
ENDBRANCH   2   3
BRANCH   2   7
HETATM    7  C5  UNL     1     -32.901  18.432  -0.673  1.00 20.00    -0.010 A 
HETATM    8  C3  UNL     1     -33.769  17.764   0.368  1.00 20.00     0.013 A 
HETATM    9  C4  UNL     1     -33.733  19.263   0.274  1.00 20.00     0.013 A 
HETATM   10  C8  UNL     1     -31.411  18.409  -0.470  1.00 20.00     0.018 C 
ENDBRANCH   2   7
BRANCH   2  11
HETATM   11  O11 UNL     1     -32.438  19.172  -2.885  1.00 20.00    -0.385 OA
HETATM   12  H29 UNL     1     -32.839  19.300  -3.757  1.00 20.00     0.211 HD
ENDBRANCH   2  11
TORSDOF 3
ENDMDL
MODEL 2
REMARK VINA RESULT:      -3.9      1.683      4.570
REMARK  3 active torsions:
REMARK  status: ('A' for Active; 'I' for Inactive)
REMARK    1  A    between atoms: C1_1  and  C10_10 
REMARK    2  A    between atoms: C5_5  and  C10_10 
REMARK    3  A    between atoms: C10_10  and  O11_11 
ROOT
HETATM    1  C9  UNL     1     -34.075  18.094  -5.259  1.00 20.00     0.051 C 
HETATM    2  C10 UNL     1     -34.465  16.964  -4.333  1.00 20.00     0.079 C 
ENDROOT
BRANCH   2   3
HETATM    3  C1  UNL     1     -33.827  17.082  -2.959  1.00 20.00     0.013 C 
HETATM    4  C2  UNL     1     -34.133  17.911  -1.941  1.00 20.00    -0.088 C 
HETATM    5  C6  UNL     1     -33.354  17.849  -0.653  1.00 20.00     0.042 C 
HETATM    6  C7  UNL     1     -35.205  18.962  -1.961  1.00 20.00     0.042 C 
ENDBRANCH   2   3
BRANCH   2   7
HETATM    7  C5  UNL     1     -34.070  15.615  -4.959  1.00 20.00    -0.010 A 
HETATM    8  C3  UNL     1     -34.326  14.360  -4.156  1.00 20.00     0.013 A 
HETATM    9  C4  UNL     1     -32.920  14.857  -4.339  1.00 20.00     0.013 A 
HETATM   10  C8  UNL     1     -34.240  15.544  -6.451  1.00 20.00     0.018 C 
ENDBRANCH   2   7
BRANCH   2  11
HETATM   11  O11 UNL     1     -35.890  16.945  -4.202  1.00 20.00    -0.385 OA
HETATM   12  H29 UNL     1     -36.217  17.710  -4.699  1.00 20.00     0.211 HD
ENDBRANCH   2  11
TORSDOF 3
ENDMDL
MODEL 3
REMARK VINA RESULT:      -3.8     11.336     12.916
REMARK  3 active torsions:
REMARK  status: ('A' for Active; 'I' for Inactive)
REMARK    1  A    between atoms: C1_1  and  C10_10 
REMARK    2  A    between atoms: C5_5  and  C10_10 
REMARK    3  A    between atoms: C10_10  and  O11_11 
ROOT
HETATM    1  C9  UNL     1     -42.101  13.124   7.710  1.00 20.00     0.051 C 
HETATM    2  C10 UNL     1     -40.774  13.632   7.193  1.00 20.00     0.079 C 
ENDROOT
BRANCH   2   3
HETATM    3  C1  UNL     1     -40.736  15.144   7.052  1.00 20.00     0.013 C 
HETATM    4  C2  UNL     1     -40.671  16.092   8.009  1.00 20.00    -0.088 C 
HETATM    5  C6  UNL     1     -40.644  17.550   7.630  1.00 20.00     0.042 C 
HETATM    6  C7  UNL     1     -40.648  15.841   9.489  1.00 20.00     0.042 C 
ENDBRANCH   2   3
BRANCH   2   7
HETATM    7  C5  UNL     1     -40.463  12.990   5.830  1.00 20.00    -0.010 A 
HETATM    8  C3  UNL     1     -40.127  11.517   5.801  1.00 20.00     0.013 A 
HETATM    9  C4  UNL     1     -39.047  12.534   5.568  1.00 20.00     0.013 A 
HETATM   10  C8  UNL     1     -41.246  13.558   4.678  1.00 20.00     0.018 C 
ENDBRANCH   2   7
BRANCH   2  11
HETATM   11  O11 UNL     1     -39.737  13.205   8.083  1.00 20.00    -0.385 OA
HETATM   12  H29 UNL     1     -39.144  12.647   7.559  1.00 20.00     0.211 HD
ENDBRANCH   2  11
TORSDOF 3
ENDMDL
MODEL 4
REMARK VINA RESULT:      -3.7      2.630      5.468
REMARK  3 active torsions:
REMARK  status: ('A' for Active; 'I' for Inactive)
REMARK    1  A    between atoms: C1_1  and  C10_10 
REMARK    2  A    between atoms: C5_5  and  C10_10 
REMARK    3  A    between atoms: C10_10  and  O11_11 
ROOT
HETATM    1  C9  UNL     1     -33.377  14.469  -4.194  1.00 20.00     0.051 C 
HETATM    2  C10 UNL     1     -34.014  15.350  -5.245  1.00 20.00     0.079 C 
ENDROOT
BRANCH   2   3
HETATM    3  C1  UNL     1     -34.029  16.818  -4.853  1.00 20.00     0.013 C 
HETATM    4  C2  UNL     1     -33.795  17.387  -3.653  1.00 20.00    -0.088 C 
HETATM    5  C6  UNL     1     -33.866  18.884  -3.497  1.00 20.00     0.042 C 
HETATM    6  C7  UNL     1     -33.480  16.651  -2.382  1.00 20.00     0.042 C 
ENDBRANCH   2   3
BRANCH   2   7
HETATM    7  C5  UNL     1     -35.456  14.885  -5.513  1.00 20.00    -0.010 A 
HETATM    8  C3  UNL     1     -35.982  14.989  -6.926  1.00 20.00     0.013 A 
HETATM    9  C4  UNL     1     -36.482  15.933  -5.871  1.00 20.00     0.013 A 
HETATM   10  C8  UNL     1     -35.902  13.716  -4.679  1.00 20.00     0.018 C 
ENDBRANCH   2   7
BRANCH   2  11
HETATM   11  O11 UNL     1     -33.303  15.187  -6.476  1.00 20.00    -0.385 OA
HETATM   12  H29 UNL     1     -33.118  14.240  -6.558  1.00 20.00     0.211 HD
ENDBRANCH   2  11
TORSDOF 3
ENDMDL
MODEL 5
REMARK VINA RESULT:      -3.6     10.813     12.687
REMARK  3 active torsions:
REMARK  status: ('A' for Active; 'I' for Inactive)
REMARK    1  A    between atoms: C1_1  and  C10_10 
REMARK    2  A    between atoms: C5_5  and  C10_10 
REMARK    3  A    between atoms: C10_10  and  O11_11 
ROOT
HETATM    1  C9  UNL     1     -41.353  13.620   5.003  1.00 20.00     0.051 C 
HETATM    2  C10 UNL     1     -40.612  12.865   6.083  1.00 20.00     0.079 C 
ENDROOT
BRANCH   2   3
HETATM    3  C1  UNL     1     -40.140  13.764   7.213  1.00 20.00     0.013 C 
HETATM    4  C2  UNL     1     -40.860  14.405   8.156  1.00 20.00    -0.088 C 
HETATM    5  C6  UNL     1     -40.169  15.254   9.191  1.00 20.00     0.042 C 
HETATM    6  C7  UNL     1     -42.357  14.384   8.278  1.00 20.00     0.042 C 
ENDBRANCH   2   3
BRANCH   2   7
HETATM    7  C5  UNL     1     -39.399  12.139   5.475  1.00 20.00    -0.010 A 
HETATM    8  C3  UNL     1     -39.277  12.103   3.969  1.00 20.00     0.013 A 
HETATM    9  C4  UNL     1     -39.647  10.856   4.719  1.00 20.00     0.013 A 
HETATM   10  C8  UNL     1     -38.135  12.250   6.283  1.00 20.00     0.018 C 
ENDBRANCH   2   7
BRANCH   2  11
HETATM   11  O11 UNL     1     -41.470  11.845   6.605  1.00 20.00    -0.385 OA
HETATM   12  H29 UNL     1     -42.097  11.632   5.898  1.00 20.00     0.211 HD
ENDBRANCH   2  11
TORSDOF 3
ENDMDL
MODEL 6
REMARK VINA RESULT:      -3.6     11.801     13.410
REMARK  3 active torsions:
REMARK  status: ('A' for Active; 'I' for Inactive)
REMARK    1  A    between atoms: C1_1  and  C10_10 
REMARK    2  A    between atoms: C5_5  and  C10_10 
REMARK    3  A    between atoms: C10_10  and  O11_11 
ROOT
HETATM    1  C9  UNL     1     -42.210  13.966   8.914  1.00 20.00     0.051 C 
HETATM    2  C10 UNL     1     -41.146  14.027   7.842  1.00 20.00     0.079 C 
ENDROOT
BRANCH   2   3
HETATM    3  C1  UNL     1     -40.987  15.418   7.249  1.00 20.00     0.013 C 
HETATM    4  C2  UNL     1     -40.878  16.608   7.874  1.00 20.00    -0.088 C 
HETATM    5  C6  UNL     1     -40.727  17.874   7.072  1.00 20.00     0.042 C 
HETATM    6  C7  UNL     1     -40.918  16.823   9.360  1.00 20.00     0.042 C 
ENDBRANCH   2   3
BRANCH   2   7
HETATM    7  C5  UNL     1     -41.481  13.034   6.715  1.00 20.00    -0.010 A 
HETATM    8  C3  UNL     1     -40.332  12.345   6.015  1.00 20.00     0.013 A 
HETATM    9  C4  UNL     1     -41.108  13.415   5.302  1.00 20.00     0.013 A 
HETATM   10  C8  UNL     1     -42.749  12.254   6.925  1.00 20.00     0.018 C 
ENDBRANCH   2   7
BRANCH   2  11
HETATM   11  O11 UNL     1     -39.901  13.597   8.401  1.00 20.00    -0.385 OA
HETATM   12  H29 UNL     1     -39.748  14.152   9.180  1.00 20.00     0.211 HD
ENDBRANCH   2  11
TORSDOF 3
ENDMDL
MODEL 7
REMARK VINA RESULT:      -3.6     10.833     12.362
REMARK  3 active torsions:
REMARK  status: ('A' for Active; 'I' for Inactive)
REMARK    1  A    between atoms: C1_1  and  C10_10 
REMARK    2  A    between atoms: C5_5  and  C10_10 
REMARK    3  A    between atoms: C10_10  and  O11_11 
ROOT
HETATM    1  C9  UNL     1     -40.420  14.077   7.447  1.00 20.00     0.051 C 
HETATM    2  C10 UNL     1     -41.344  13.414   6.451  1.00 20.00     0.079 C 
ENDROOT
BRANCH   2   3
HETATM    3  C1  UNL     1     -40.612  12.886   5.228  1.00 20.00     0.013 C 
HETATM    4  C2  UNL     1     -39.466  12.179   5.155  1.00 20.00    -0.088 C 
HETATM    5  C6  UNL     1     -38.920  11.759   3.815  1.00 20.00     0.042 C 
HETATM    6  C7  UNL     1     -38.617  11.765   6.322  1.00 20.00     0.042 C 
ENDBRANCH   2   3
BRANCH   2   7
HETATM    7  C5  UNL     1     -42.428  14.408   6.000  1.00 20.00    -0.010 A 
HETATM    8  C3  UNL     1     -43.417  13.951   4.953  1.00 20.00     0.013 A 
HETATM    9  C4  UNL     1     -42.353  14.946   4.590  1.00 20.00     0.013 A 
HETATM   10  C8  UNL     1     -42.920  15.330   7.082  1.00 20.00     0.018 C 
ENDBRANCH   2   7
BRANCH   2  11
HETATM   11  O11 UNL     1     -42.030  12.340   7.102  1.00 20.00    -0.385 OA
HETATM   12  H29 UNL     1     -42.116  11.635   6.443  1.00 20.00     0.211 HD
ENDBRANCH   2  11
TORSDOF 3
ENDMDL
MODEL 8
REMARK VINA RESULT:      -3.6      1.298      4.313
REMARK  3 active torsions:
REMARK  status: ('A' for Active; 'I' for Inactive)
REMARK    1  A    between atoms: C1_1  and  C10_10 
REMARK    2  A    between atoms: C5_5  and  C10_10 
REMARK    3  A    between atoms: C10_10  and  O11_11 
ROOT
HETATM    1  C9  UNL     1     -33.248  15.970  -3.522  1.00 20.00     0.051 C 
HETATM    2  C10 UNL     1     -33.801  17.376  -3.481  1.00 20.00     0.079 C 
ENDROOT
BRANCH   2   3
HETATM    3  C1  UNL     1     -34.222  17.803  -2.085  1.00 20.00     0.013 C 
HETATM    4  C2  UNL     1     -33.459  18.164  -1.032  1.00 20.00    -0.088 C 
HETATM    5  C6  UNL     1     -34.104  18.554   0.272  1.00 20.00     0.042 C 
HETATM    6  C7  UNL     1     -31.958  18.197  -1.011  1.00 20.00     0.042 C 
ENDBRANCH   2   3
BRANCH   2   7
HETATM    7  C5  UNL     1     -35.007  17.492  -4.429  1.00 20.00    -0.010 A 
HETATM    8  C3  UNL     1     -35.278  18.834  -5.069  1.00 20.00     0.013 A 
HETATM    9  C4  UNL     1     -36.182  18.329  -3.981  1.00 20.00     0.013 A 
HETATM   10  C8  UNL     1     -35.288  16.255  -5.237  1.00 20.00     0.018 C 
ENDBRANCH   2   7
BRANCH   2  11
HETATM   11  O11 UNL     1     -32.808  18.278  -3.981  1.00 20.00    -0.385 OA
HETATM   12  H29 UNL     1     -32.897  18.269  -4.946  1.00 20.00     0.211 HD
ENDBRANCH   2  11
TORSDOF 3
ENDMDL
MODEL 9
REMARK VINA RESULT:      -3.6     11.330     12.901
REMARK  3 active torsions:
REMARK  status: ('A' for Active; 'I' for Inactive)
REMARK    1  A    between atoms: C1_1  and  C10_10 
REMARK    2  A    between atoms: C5_5  and  C10_10 
REMARK    3  A    between atoms: C10_10  and  O11_11 
ROOT
HETATM    1  C9  UNL     1     -40.951  15.480   7.053  1.00 20.00     0.051 C 
HETATM    2  C10 UNL     1     -40.943  13.973   7.177  1.00 20.00     0.079 C 
ENDROOT
BRANCH   2   3
HETATM    3  C1  UNL     1     -40.542  13.278   5.887  1.00 20.00     0.013 C 
HETATM    4  C2  UNL     1     -39.528  12.419   5.656  1.00 20.00    -0.088 C 
HETATM    5  C6  UNL     1     -39.319  11.847   4.278  1.00 20.00     0.042 C 
HETATM    6  C7  UNL     1     -38.517  11.966   6.670  1.00 20.00     0.042 C 
ENDBRANCH   2   3
BRANCH   2   7
HETATM    7  C5  UNL     1     -42.334  13.476   7.607  1.00 20.00    -0.010 A 
HETATM    8  C3  UNL     1     -42.804  12.141   7.075  1.00 20.00     0.013 A 
HETATM    9  C4  UNL     1     -43.417  13.410   6.557  1.00 20.00     0.013 A 
HETATM   10  C8  UNL     1     -42.729  13.856   9.007  1.00 20.00     0.018 C 
ENDBRANCH   2   7
BRANCH   2  11
HETATM   11  O11 UNL     1     -40.042  13.601   8.225  1.00 20.00    -0.385 OA
HETATM   12  H29 UNL     1     -39.415  14.335   8.316  1.00 20.00     0.211 HD
ENDBRANCH   2  11
TORSDOF 3
ENDMDL
