MODEL 1
REMARK VINA RESULT:      -4.0      0.000      0.000
REMARK  3 active torsions:
REMARK  status: ('A' for Active; 'I' for Inactive)
REMARK    1  A    between atoms: C4_4  and  C9_9 
REMARK    2  A    between atoms: C8_8  and  C9_9 
REMARK    3  A    between atoms: C9_9  and  O11_11 
ROOT
HETATM    1  C1  UNL     1     -35.877  14.804  -6.784  1.00 20.00     0.066 C 
HETATM    2  C6  UNL     1     -35.898  13.686  -4.614  1.00 20.00     0.028 C 
HETATM    3  C8  UNL     1     -35.606  15.006  -5.342  1.00 20.00     0.123 C 
HETATM    4  N10 UNL     1     -36.087  14.651  -7.915  1.00 20.00    -0.197 NA
ENDROOT
BRANCH   3   5
HETATM    5  C9  UNL     1     -34.163  15.542  -5.095  1.00 20.00     0.077 C 
HETATM    6  C7  UNL     1     -33.329  14.534  -4.326  1.00 20.00     0.048 C 
BRANCH   5   7
HETATM    7  C4  UNL     1     -34.174  16.869  -4.316  1.00 20.00    -0.012 A 
HETATM    8  C2  UNL     1     -35.430  17.708  -4.363  1.00 20.00     0.013 A 
HETATM    9  C3  UNL     1     -34.206  18.156  -5.108  1.00 20.00     0.013 A 
HETATM   10  C5  UNL     1     -33.388  16.850  -3.034  1.00 20.00     0.018 C 
ENDBRANCH   5   7
BRANCH   5  11
HETATM   11  O11 UNL     1     -33.530  15.775  -6.357  1.00 20.00    -0.388 OA
HETATM   12  H26 UNL     1     -34.232  15.728  -7.023  1.00 20.00     0.210 HD
ENDBRANCH   5  11
ENDBRANCH   3   5
TORSDOF 3
ENDMDL
MODEL 2
REMARK VINA RESULT:      -3.9      1.423      2.804
REMARK  3 active torsions:
REMARK  status: ('A' for Active; 'I' for Inactive)
REMARK    1  A    between atoms: C4_4  and  C9_9 
REMARK    2  A    between atoms: C8_8  and  C9_9 
REMARK    3  A    between atoms: C9_9  and  O11_11 
ROOT
HETATM    1  C1  UNL     1     -35.404  15.228  -6.987  1.00 20.00     0.066 C 
HETATM    2  C6  UNL     1     -34.294  17.354  -7.448  1.00 20.00     0.028 C 
HETATM    3  C8  UNL     1     -34.388  16.174  -6.470  1.00 20.00     0.123 C 
HETATM    4  N10 UNL     1     -36.198  14.484  -7.388  1.00 20.00    -0.197 NA
ENDROOT
BRANCH   3   5
HETATM    5  C9  UNL     1     -34.699  16.611  -5.005  1.00 20.00     0.077 C 
HETATM    6  C7  UNL     1     -34.477  18.100  -4.820  1.00 20.00     0.048 C 
BRANCH   5   7
HETATM    7  C4  UNL     1     -33.828  15.851  -3.988  1.00 20.00    -0.012 A 
HETATM    8  C2  UNL     1     -32.806  14.874  -4.520  1.00 20.00     0.013 A 
HETATM    9  C3  UNL     1     -34.045  14.363  -3.842  1.00 20.00     0.013 A 
HETATM   10  C5  UNL     1     -33.476  16.637  -2.755  1.00 20.00     0.018 C 
ENDBRANCH   5   7
BRANCH   5  11
HETATM   11  O11 UNL     1     -36.071  16.324  -4.715  1.00 20.00    -0.388 OA
HETATM   12  H26 UNL     1     -36.304  15.553  -5.252  1.00 20.00     0.210 HD
ENDBRANCH   5  11
ENDBRANCH   3   5
TORSDOF 3
ENDMDL
MODEL 3
REMARK VINA RESULT:      -3.5      1.784      2.708
REMARK  3 active torsions:
REMARK  status: ('A' for Active; 'I' for Inactive)
REMARK    1  A    between atoms: C4_4  and  C9_9 
REMARK    2  A    between atoms: C8_8  and  C9_9 
REMARK    3  A    between atoms: C9_9  and  O11_11 
ROOT
HETATM    1  C1  UNL     1     -35.377  14.423  -4.959  1.00 20.00     0.066 C 
HETATM    2  C6  UNL     1     -33.949  15.237  -6.765  1.00 20.00     0.028 C 
HETATM    3  C8  UNL     1     -34.322  15.410  -5.285  1.00 20.00     0.123 C 
HETATM    4  N10 UNL     1     -36.204  13.652  -4.698  1.00 20.00    -0.197 NA
ENDROOT
BRANCH   3   5
HETATM    5  C9  UNL     1     -34.759  16.863  -4.925  1.00 20.00     0.077 C 
HETATM    6  C7  UNL     1     -34.809  17.741  -6.160  1.00 20.00     0.048 C 
BRANCH   5   7
HETATM    7  C4  UNL     1     -33.806  17.506  -3.900  1.00 20.00    -0.012 A 
HETATM    8  C2  UNL     1     -32.934  16.591  -3.072  1.00 20.00     0.013 A 
HETATM    9  C3  UNL     1     -34.097  17.293  -2.432  1.00 20.00     0.013 A 
HETATM   10  C5  UNL     1     -33.237  18.832  -4.321  1.00 20.00     0.018 C 
ENDBRANCH   5   7
BRANCH   5  11
HETATM   11  O11 UNL     1     -36.069  16.826  -4.349  1.00 20.00    -0.388 OA
HETATM   12  H26 UNL     1     -36.154  17.633  -3.820  1.00 20.00     0.210 HD
ENDBRANCH   5  11
ENDBRANCH   3   5
TORSDOF 3
ENDMDL
MODEL 4
REMARK VINA RESULT:      -3.4      1.426      2.124
REMARK  3 active torsions:
REMARK  status: ('A' for Active; 'I' for Inactive)
REMARK    1  A    between atoms: C4_4  and  C9_9 
REMARK    2  A    between atoms: C8_8  and  C9_9 
REMARK    3  A    between atoms: C9_9  and  O11_11 
ROOT
HETATM    1  C1  UNL     1     -34.141  15.287  -6.509  1.00 20.00     0.066 C 
HETATM    2  C6  UNL     1     -34.072  14.505  -4.197  1.00 20.00     0.028 C 
HETATM    3  C8  UNL     1     -34.679  15.542  -5.153  1.00 20.00     0.123 C 
HETATM    4  N10 UNL     1     -33.722  15.091  -7.574  1.00 20.00    -0.197 NA
ENDROOT
BRANCH   3   5
HETATM    5  C9  UNL     1     -34.434  17.015  -4.702  1.00 20.00     0.077 C 
HETATM    6  C7  UNL     1     -33.657  17.066  -3.400  1.00 20.00     0.048 C 
BRANCH   5   7
HETATM    7  C4  UNL     1     -35.756  17.781  -4.519  1.00 20.00    -0.012 A 
HETATM    8  C2  UNL     1     -37.023  17.146  -5.044  1.00 20.00     0.013 A 
HETATM    9  C3  UNL     1     -36.433  18.332  -5.753  1.00 20.00     0.013 A 
HETATM   10  C5  UNL     1     -35.844  18.583  -3.250  1.00 20.00     0.018 C 
ENDBRANCH   5   7
BRANCH   5  11
HETATM   11  O11 UNL     1     -33.668  17.688  -5.707  1.00 20.00    -0.388 OA
HETATM   12  H26 UNL     1     -32.765  17.346  -5.632  1.00 20.00     0.210 HD
ENDBRANCH   5  11
ENDBRANCH   3   5
TORSDOF 3
ENDMDL
MODEL 5
REMARK VINA RESULT:      -3.4      1.564      2.530
REMARK  3 active torsions:
REMARK  status: ('A' for Active; 'I' for Inactive)
REMARK    1  A    between atoms: C4_4  and  C9_9 
REMARK    2  A    between atoms: C8_8  and  C9_9 
REMARK    3  A    between atoms: C9_9  and  O11_11 
ROOT
HETATM    1  C1  UNL     1     -35.369  15.423  -7.168  1.00 20.00     0.066 C 
HETATM    2  C6  UNL     1     -34.691  17.768  -7.136  1.00 20.00     0.028 C 
HETATM    3  C8  UNL     1     -34.567  16.417  -6.418  1.00 20.00     0.123 C 
HETATM    4  N10 UNL     1     -35.997  14.641  -7.752  1.00 20.00    -0.197 NA
ENDROOT
BRANCH   3   5
HETATM    5  C9  UNL     1     -34.978  16.476  -4.915  1.00 20.00     0.077 C 
HETATM    6  C7  UNL     1     -35.753  17.743  -4.609  1.00 20.00     0.048 C 
BRANCH   5   7
HETATM    7  C4  UNL     1     -33.752  16.410  -3.987  1.00 20.00    -0.012 A 
HETATM    8  C2  UNL     1     -33.892  16.959  -2.586  1.00 20.00     0.013 A 
HETATM    9  C3  UNL     1     -33.082  17.710  -3.604  1.00 20.00     0.013 A 
HETATM   10  C5  UNL     1     -32.882  15.200  -4.184  1.00 20.00     0.018 C 
ENDBRANCH   5   7
BRANCH   5  11
HETATM   11  O11 UNL     1     -35.819  15.355  -4.618  1.00 20.00    -0.388 OA
HETATM   12  H26 UNL     1     -36.153  15.036  -5.469  1.00 20.00     0.210 HD
ENDBRANCH   5  11
ENDBRANCH   3   5
TORSDOF 3
ENDMDL
MODEL 6
REMARK VINA RESULT:      -3.3     24.481     25.960
REMARK  3 active torsions:
REMARK  status: ('A' for Active; 'I' for Inactive)
REMARK    1  A    between atoms: C4_4  and  C9_9 
REMARK    2  A    between atoms: C8_8  and  C9_9 
REMARK    3  A    between atoms: C9_9  and  O11_11 
ROOT
HETATM    1  C1  UNL     1     -25.080  -1.379  11.907  1.00 20.00     0.066 C 
HETATM    2  C6  UNL     1     -27.185  -0.219  12.332  1.00 20.00     0.028 C 
HETATM    3  C8  UNL     1     -26.548  -1.566  11.965  1.00 20.00     0.123 C 
HETATM    4  N10 UNL     1     -23.929  -1.238  11.860  1.00 20.00    -0.197 NA
ENDROOT
BRANCH   3   5
HETATM    5  C9  UNL     1     -27.106  -2.173  10.641  1.00 20.00     0.077 C 
HETATM    6  C7  UNL     1     -28.021  -1.192   9.933  1.00 20.00     0.048 C 
BRANCH   5   7
HETATM    7  C4  UNL     1     -27.881  -3.478  10.895  1.00 20.00    -0.012 A 
HETATM    8  C2  UNL     1     -28.046  -3.938  12.324  1.00 20.00     0.013 A 
HETATM    9  C3  UNL     1     -27.110  -4.672  11.408  1.00 20.00     0.013 A 
HETATM   10  C5  UNL     1     -29.015  -3.729   9.939  1.00 20.00     0.018 C 
ENDBRANCH   5   7
BRANCH   5  11
HETATM   11  O11 UNL     1     -26.011  -2.471   9.768  1.00 20.00    -0.388 OA
HETATM   12  H26 UNL     1     -26.159  -3.374   9.450  1.00 20.00     0.210 HD
ENDBRANCH   5  11
ENDBRANCH   3   5
TORSDOF 3
ENDMDL
MODEL 7
REMARK VINA RESULT:      -3.3      2.197      3.146
REMARK  3 active torsions:
REMARK  status: ('A' for Active; 'I' for Inactive)
REMARK    1  A    between atoms: C4_4  and  C9_9 
REMARK    2  A    between atoms: C8_8  and  C9_9 
REMARK    3  A    between atoms: C9_9  and  O11_11 
ROOT
HETATM    1  C1  UNL     1     -35.432  13.873  -4.544  1.00 20.00     0.066 C 
HETATM    2  C6  UNL     1     -33.311  15.067  -4.738  1.00 20.00     0.028 C 
HETATM    3  C8  UNL     1     -34.818  15.131  -5.026  1.00 20.00     0.123 C 
HETATM    4  N10 UNL     1     -35.918  12.888  -4.168  1.00 20.00    -0.197 NA
ENDROOT
BRANCH   3   5
HETATM    5  C9  UNL     1     -35.149  15.398  -6.527  1.00 20.00     0.077 C 
HETATM    6  C7  UNL     1     -33.882  15.513  -7.354  1.00 20.00     0.048 C 
BRANCH   5   7
HETATM    7  C4  UNL     1     -35.976  16.683  -6.707  1.00 20.00    -0.012 A 
HETATM    8  C2  UNL     1     -36.424  17.419  -5.466  1.00 20.00     0.013 A 
HETATM    9  C3  UNL     1     -37.427  16.658  -6.285  1.00 20.00     0.013 A 
HETATM   10  C5  UNL     1     -35.608  17.500  -7.915  1.00 20.00     0.018 C 
ENDBRANCH   5   7
BRANCH   5  11
HETATM   11  O11 UNL     1     -35.917  14.302  -7.035  1.00 20.00    -0.388 OA
HETATM   12  H26 UNL     1     -36.512  14.676  -7.702  1.00 20.00     0.210 HD
ENDBRANCH   5  11
ENDBRANCH   3   5
TORSDOF 3
ENDMDL
MODEL 8
REMARK VINA RESULT:      -3.3     13.430     14.209
REMARK  3 active torsions:
REMARK  status: ('A' for Active; 'I' for Inactive)
REMARK    1  A    between atoms: C4_4  and  C9_9 
REMARK    2  A    between atoms: C8_8  and  C9_9 
REMARK    3  A    between atoms: C9_9  and  O11_11 
ROOT
HETATM    1  C1  UNL     1     -40.189  12.370   5.550  1.00 20.00     0.066 C 
HETATM    2  C6  UNL     1     -41.566  14.021   4.391  1.00 20.00     0.028 C 
HETATM    3  C8  UNL     1     -40.956  13.623   5.743  1.00 20.00     0.123 C 
HETATM    4  N10 UNL     1     -39.587  11.389   5.404  1.00 20.00    -0.197 NA
ENDROOT
BRANCH   3   5
HETATM    5  C9  UNL     1     -42.014  13.483   6.880  1.00 20.00     0.077 C 
HETATM    6  C7  UNL     1     -43.417  13.717   6.354  1.00 20.00     0.048 C 
BRANCH   5   7
HETATM    7  C4  UNL     1     -41.747  14.470   8.030  1.00 20.00    -0.012 A 
HETATM    8  C2  UNL     1     -40.696  15.535   7.821  1.00 20.00     0.013 A 
HETATM    9  C3  UNL     1     -40.417  14.384   8.744  1.00 20.00     0.013 A 
HETATM   10  C5  UNL     1     -42.961  14.828   8.843  1.00 20.00     0.018 C 
ENDBRANCH   5   7
BRANCH   5  11
HETATM   11  O11 UNL     1     -41.952  12.155   7.413  1.00 20.00    -0.388 OA
HETATM   12  H26 UNL     1     -42.555  11.621   6.876  1.00 20.00     0.210 HD
ENDBRANCH   5  11
ENDBRANCH   3   5
TORSDOF 3
ENDMDL
MODEL 9
REMARK VINA RESULT:      -3.3      1.762      3.170
REMARK  3 active torsions:
REMARK  status: ('A' for Active; 'I' for Inactive)
REMARK    1  A    between atoms: C4_4  and  C9_9 
REMARK    2  A    between atoms: C8_8  and  C9_9 
REMARK    3  A    between atoms: C9_9  and  O11_11 
ROOT
HETATM    1  C1  UNL     1     -34.371  17.865  -7.068  1.00 20.00     0.066 C 
HETATM    2  C6  UNL     1     -36.435  17.331  -5.877  1.00 20.00     0.028 C 
HETATM    3  C8  UNL     1     -34.933  17.028  -5.983  1.00 20.00     0.123 C 
HETATM    4  N10 UNL     1     -33.926  18.519  -7.918  1.00 20.00    -0.197 NA
ENDROOT
BRANCH   3   5
HETATM    5  C9  UNL     1     -34.622  15.515  -6.202  1.00 20.00     0.077 C 
HETATM    6  C7  UNL     1     -35.748  14.828  -6.951  1.00 20.00     0.048 C 
BRANCH   5   7
HETATM    7  C4  UNL     1     -34.398  14.782  -4.867  1.00 20.00    -0.012 A 
HETATM    8  C2  UNL     1     -33.710  15.535  -3.751  1.00 20.00     0.013 A 
HETATM    9  C3  UNL     1     -32.978  14.441  -4.476  1.00 20.00     0.013 A 
HETATM   10  C5  UNL     1     -35.483  13.811  -4.495  1.00 20.00     0.018 C 
ENDBRANCH   5   7
BRANCH   5  11
HETATM   11  O11 UNL     1     -33.427  15.393  -6.980  1.00 20.00    -0.388 OA
HETATM   12  H26 UNL     1     -33.697  15.489  -7.905  1.00 20.00     0.210 HD
ENDBRANCH   5  11
ENDBRANCH   3   5
TORSDOF 3
ENDMDL
