MODEL 1
REMARK VINA RESULT:      -4.5      0.000      0.000
REMARK  2 active torsions:
REMARK  status: ('A' for Active; 'I' for Inactive)
REMARK    1  A    between atoms: C1_1  and  C4_4 
REMARK    2  A    between atoms: C1_1  and  C6_6 
ROOT
HETATM    1  C2  UNL     1     -34.469   4.855   4.943  1.00 20.00     0.018 A 
HETATM    2  C3  UNL     1     -35.468   5.889   4.521  1.00 20.00     0.018 A 
HETATM    3  C4  UNL     1     -34.101   6.322   5.007  1.00 20.00     0.018 A 
HETATM    4  C5  UNL     1     -34.026   6.952   6.374  1.00 20.00     0.023 C 
ENDROOT
BRANCH   3   5
HETATM    5  C1  UNL     1     -33.152   6.822   3.982  1.00 20.00     0.148 C 
HETATM    6  O7  UNL     1     -32.786   6.095   3.059  1.00 20.00    -0.296 OA
BRANCH   5   7
HETATM    7  C6  UNL     1     -32.687   8.249   4.160  1.00 20.00     0.193 C 
HETATM    8 CL8  UNL     1     -32.642   9.091   2.603  1.00 20.00    -0.123 Cl
ENDBRANCH   5   7
ENDBRANCH   3   5
TORSDOF 2
ENDMDL
MODEL 2
REMARK VINA RESULT:      -4.5      1.258      1.366
REMARK  2 active torsions:
REMARK  status: ('A' for Active; 'I' for Inactive)
REMARK    1  A    between atoms: C1_1  and  C4_4 
REMARK    2  A    between atoms: C1_1  and  C6_6 
ROOT
HETATM    1  C2  UNL     1     -34.377   4.935   4.603  1.00 20.00     0.018 A 
HETATM    2  C3  UNL     1     -35.498   5.914   4.432  1.00 20.00     0.018 A 
HETATM    3  C4  UNL     1     -34.215   6.353   5.106  1.00 20.00     0.018 A 
HETATM    4  C5  UNL     1     -34.260   6.561   6.599  1.00 20.00     0.023 C 
ENDROOT
BRANCH   3   5
HETATM    5  C1  UNL     1     -33.319   7.245   4.329  1.00 20.00     0.148 C 
HETATM    6  O7  UNL     1     -33.212   8.435   4.621  1.00 20.00    -0.296 OA
BRANCH   5   7
HETATM    7  C6  UNL     1     -32.576   6.592   3.186  1.00 20.00     0.193 C 
HETATM    8 CL8  UNL     1     -32.198   7.778   1.927  1.00 20.00    -0.123 Cl
ENDBRANCH   5   7
ENDBRANCH   3   5
TORSDOF 2
ENDMDL
MODEL 3
REMARK VINA RESULT:      -4.3      1.476      1.981
REMARK  2 active torsions:
REMARK  status: ('A' for Active; 'I' for Inactive)
REMARK    1  A    between atoms: C1_1  and  C4_4 
REMARK    2  A    between atoms: C1_1  and  C6_6 
ROOT
HETATM    1  C2  UNL     1     -35.445   5.833   4.593  1.00 20.00     0.018 A 
HETATM    2  C3  UNL     1     -34.449   5.184   5.505  1.00 20.00     0.018 A 
HETATM    3  C4  UNL     1     -33.965   6.065   4.373  1.00 20.00     0.018 A 
HETATM    4  C5  UNL     1     -33.332   5.377   3.190  1.00 20.00     0.023 C 
ENDROOT
BRANCH   3   5
HETATM    5  C1  UNL     1     -33.432   7.399   4.741  1.00 20.00     0.148 C 
HETATM    6  O7  UNL     1     -33.964   8.063   5.629  1.00 20.00    -0.296 OA
BRANCH   5   7
HETATM    7  C6  UNL     1     -32.223   7.860   3.960  1.00 20.00     0.193 C 
HETATM    8 CL8  UNL     1     -32.701   8.967   2.663  1.00 20.00    -0.123 Cl
ENDBRANCH   5   7
ENDBRANCH   3   5
TORSDOF 2
ENDMDL
MODEL 4
REMARK VINA RESULT:      -4.2      0.625      1.588
REMARK  2 active torsions:
REMARK  status: ('A' for Active; 'I' for Inactive)
REMARK    1  A    between atoms: C1_1  and  C4_4 
REMARK    2  A    between atoms: C1_1  and  C6_6 
ROOT
HETATM    1  C2  UNL     1     -34.360   6.854   6.458  1.00 20.00     0.018 A 
HETATM    2  C3  UNL     1     -33.931   5.426   6.304  1.00 20.00     0.018 A 
HETATM    3  C4  UNL     1     -34.344   6.221   5.083  1.00 20.00     0.018 A 
HETATM    4  C5  UNL     1     -35.678   5.887   4.465  1.00 20.00     0.023 C 
ENDROOT
BRANCH   3   5
HETATM    5  C1  UNL     1     -33.261   6.644   4.161  1.00 20.00     0.148 C 
HETATM    6  O7  UNL     1     -32.937   5.936   3.209  1.00 20.00    -0.296 OA
BRANCH   5   7
HETATM    7  C6  UNL     1     -32.613   7.972   4.477  1.00 20.00     0.193 C 
HETATM    8 CL8  UNL     1     -32.603   9.019   3.049  1.00 20.00    -0.123 Cl
ENDBRANCH   5   7
ENDBRANCH   3   5
TORSDOF 2
ENDMDL
MODEL 5
REMARK VINA RESULT:      -4.1      1.366      2.064
REMARK  2 active torsions:
REMARK  status: ('A' for Active; 'I' for Inactive)
REMARK    1  A    between atoms: C1_1  and  C4_4 
REMARK    2  A    between atoms: C1_1  and  C6_6 
ROOT
HETATM    1  C2  UNL     1     -34.555   6.646   6.642  1.00 20.00     0.018 A 
HETATM    2  C3  UNL     1     -33.933   5.330   6.287  1.00 20.00     0.018 A 
HETATM    3  C4  UNL     1     -34.336   6.290   5.187  1.00 20.00     0.018 A 
HETATM    4  C5  UNL     1     -35.557   5.932   4.377  1.00 20.00     0.023 C 
ENDROOT
BRANCH   3   5
HETATM    5  C1  UNL     1     -33.242   6.998   4.479  1.00 20.00     0.148 C 
HETATM    6  O7  UNL     1     -32.746   8.018   4.954  1.00 20.00    -0.296 OA
BRANCH   5   7
HETATM    7  C6  UNL     1     -32.804   6.385   3.169  1.00 20.00     0.193 C 
HETATM    8 CL8  UNL     1     -32.147   7.623   2.087  1.00 20.00    -0.123 Cl
ENDBRANCH   5   7
ENDBRANCH   3   5
TORSDOF 2
ENDMDL
MODEL 6
REMARK VINA RESULT:      -4.0      2.556      3.734
REMARK  2 active torsions:
REMARK  status: ('A' for Active; 'I' for Inactive)
REMARK    1  A    between atoms: C1_1  and  C4_4 
REMARK    2  A    between atoms: C1_1  and  C6_6 
ROOT
HETATM    1  C2  UNL     1     -31.633   7.973   3.832  1.00 20.00     0.018 A 
HETATM    2  C3  UNL     1     -32.721   8.475   2.931  1.00 20.00     0.018 A 
HETATM    3  C4  UNL     1     -32.902   7.163   3.666  1.00 20.00     0.018 A 
HETATM    4  C5  UNL     1     -32.807   5.900   2.848  1.00 20.00     0.023 C 
ENDROOT
BRANCH   3   5
HETATM    5  C1  UNL     1     -33.850   7.158   4.807  1.00 20.00     0.148 C 
HETATM    6  O7  UNL     1     -33.799   8.035   5.668  1.00 20.00    -0.296 OA
BRANCH   5   7
HETATM    7  C6  UNL     1     -34.848   6.023   4.824  1.00 20.00     0.193 C 
HETATM    8 CL8  UNL     1     -34.603   4.996   6.245  1.00 20.00    -0.123 Cl
ENDBRANCH   5   7
ENDBRANCH   3   5
TORSDOF 2
ENDMDL
MODEL 7
REMARK VINA RESULT:      -3.9      2.233      3.329
REMARK  2 active torsions:
REMARK  status: ('A' for Active; 'I' for Inactive)
REMARK    1  A    between atoms: C1_1  and  C4_4 
REMARK    2  A    between atoms: C1_1  and  C6_6 
ROOT
HETATM    1  C2  UNL     1     -32.792   8.544   3.172  1.00 20.00     0.018 A 
HETATM    2  C3  UNL     1     -31.717   7.889   3.985  1.00 20.00     0.018 A 
HETATM    3  C4  UNL     1     -33.171   7.643   4.328  1.00 20.00     0.018 A 
HETATM    4  C5  UNL     1     -33.705   8.310   5.570  1.00 20.00     0.023 C 
ENDROOT
BRANCH   3   5
HETATM    5  C1  UNL     1     -33.725   6.309   3.988  1.00 20.00     0.148 C 
HETATM    6  O7  UNL     1     -33.188   5.608   3.133  1.00 20.00    -0.296 OA
BRANCH   5   7
HETATM    7  C6  UNL     1     -34.962   5.899   4.753  1.00 20.00     0.193 C 
HETATM    8 CL8  UNL     1     -34.523   5.077   6.258  1.00 20.00    -0.123 Cl
ENDBRANCH   5   7
ENDBRANCH   3   5
TORSDOF 2
ENDMDL
MODEL 8
REMARK VINA RESULT:      -3.8      1.749      2.174
REMARK  2 active torsions:
REMARK  status: ('A' for Active; 'I' for Inactive)
REMARK    1  A    between atoms: C1_1  and  C4_4 
REMARK    2  A    between atoms: C1_1  and  C6_6 
ROOT
HETATM    1  C2  UNL     1     -34.059   4.439   4.635  1.00 20.00     0.018 A 
HETATM    2  C3  UNL     1     -33.582   5.293   3.500  1.00 20.00     0.018 A 
HETATM    3  C4  UNL     1     -34.510   5.881   4.542  1.00 20.00     0.018 A 
HETATM    4  C5  UNL     1     -35.939   6.126   4.127  1.00 20.00     0.023 C 
ENDROOT
BRANCH   3   5
HETATM    5  C1  UNL     1     -33.916   6.836   5.509  1.00 20.00     0.148 C 
HETATM    6  O7  UNL     1     -33.669   6.486   6.662  1.00 20.00    -0.296 OA
BRANCH   5   7
HETATM    7  C6  UNL     1     -33.650   8.226   4.979  1.00 20.00     0.193 C 
HETATM    8 CL8  UNL     1     -32.001   8.348   4.345  1.00 20.00    -0.123 Cl
ENDBRANCH   5   7
ENDBRANCH   3   5
TORSDOF 2
ENDMDL
MODEL 9
REMARK VINA RESULT:      -3.8      2.047      2.929
REMARK  2 active torsions:
REMARK  status: ('A' for Active; 'I' for Inactive)
REMARK    1  A    between atoms: C1_1  and  C4_4 
REMARK    2  A    between atoms: C1_1  and  C6_6 
ROOT
HETATM    1  C2  UNL     1     -34.141   8.349   4.920  1.00 20.00     0.018 A 
HETATM    2  C3  UNL     1     -32.850   7.670   4.576  1.00 20.00     0.018 A 
HETATM    3  C4  UNL     1     -33.936   6.896   5.292  1.00 20.00     0.018 A 
HETATM    4  C5  UNL     1     -33.711   6.587   6.751  1.00 20.00     0.023 C 
ENDROOT
BRANCH   3   5
HETATM    5  C1  UNL     1     -34.678   5.887   4.497  1.00 20.00     0.148 C 
HETATM    6  O7  UNL     1     -35.861   6.062   4.210  1.00 20.00    -0.296 OA
BRANCH   5   7
HETATM    7  C6  UNL     1     -33.887   4.667   4.084  1.00 20.00     0.193 C 
HETATM    8 CL8  UNL     1     -32.974   4.987   2.601  1.00 20.00    -0.123 Cl
ENDBRANCH   5   7
ENDBRANCH   3   5
TORSDOF 2
ENDMDL
