MODEL 1
REMARK VINA RESULT:      -4.2      0.000      0.000
REMARK  0 active torsions:
REMARK  status: ('A' for Active; 'I' for Inactive)
ROOT
HETATM    1  C1  UNL     1     -32.731   8.582   2.566  1.00 20.00     0.128 C 
HETATM    2  C2  UNL     1     -32.118   7.361   3.270  1.00 20.00     0.088 C 
HETATM    3  C3  UNL     1     -33.752   8.794   3.695  1.00 20.00     0.088 C 
HETATM    4  C4  UNL     1     -34.360   4.784   5.888  1.00 20.00     0.000 C 
HETATM    5  C5  UNL     1     -34.998   5.973   6.605  1.00 20.00     0.000 C 
HETATM    6  C6  UNL     1     -34.177   4.931   4.369  1.00 20.00     0.001 C 
HETATM    7  C7  UNL     1     -34.164   7.261   6.637  1.00 20.00     0.001 C 
HETATM    8  C8  UNL     1     -34.433   6.320   3.789  1.00 20.00     0.010 C 
HETATM    9  C9  UNL     1     -32.972   7.321   5.686  1.00 20.00     0.010 C 
HETATM   10  C10 UNL     1     -33.377   7.357   4.208  1.00 20.00    -0.027 C 
HETATM   11  O11 UNL     1     -32.506   9.152   1.520  1.00 20.00    -0.298 OA
ENDROOT
TORSDOF 0
ENDMDL
MODEL 2
REMARK VINA RESULT:      -4.1     12.245     13.505
REMARK  0 active torsions:
REMARK  status: ('A' for Active; 'I' for Inactive)
ROOT
HETATM    1  C1  UNL     1     -35.764  15.109  -7.104  1.00 20.00     0.128 C 
HETATM    2  C2  UNL     1     -34.379  15.731  -6.865  1.00 20.00     0.088 C 
HETATM    3  C3  UNL     1     -36.369  15.850  -5.901  1.00 20.00     0.088 C 
HETATM    4  C4  UNL     1     -32.968  16.907  -2.973  1.00 20.00     0.000 C 
HETATM    5  C5  UNL     1     -34.297  17.581  -2.632  1.00 20.00     0.000 C 
HETATM    6  C6  UNL     1     -33.063  15.594  -3.766  1.00 20.00     0.001 C 
HETATM    7  C7  UNL     1     -35.090  18.135  -3.824  1.00 20.00     0.001 C 
HETATM    8  C8  UNL     1     -34.439  15.237  -4.322  1.00 20.00     0.010 C 
HETATM    9  C9  UNL     1     -34.649  17.667  -5.208  1.00 20.00     0.010 C 
HETATM   10  C10 UNL     1     -34.899  16.175  -5.452  1.00 20.00    -0.027 C 
HETATM   11  O11 UNL     1     -36.206  14.327  -7.918  1.00 20.00    -0.298 OA
ENDROOT
TORSDOF 0
ENDMDL
MODEL 3
REMARK VINA RESULT:      -4.0     11.740     13.153
REMARK  0 active torsions:
REMARK  status: ('A' for Active; 'I' for Inactive)
ROOT
HETATM    1  C1  UNL     1     -32.565  18.408  -1.948  1.00 20.00     0.128 C 
HETATM    2  C2  UNL     1     -33.721  17.406  -1.805  1.00 20.00     0.088 C 
HETATM    3  C3  UNL     1     -32.815  18.572  -3.456  1.00 20.00     0.088 C 
HETATM    4  C4  UNL     1     -34.990  14.808  -4.994  1.00 20.00     0.000 C 
HETATM    5  C5  UNL     1     -34.942  15.945  -6.015  1.00 20.00     0.000 C 
HETATM    6  C6  UNL     1     -33.871  14.803  -3.940  1.00 20.00     0.001 C 
HETATM    7  C7  UNL     1     -35.197  17.353  -5.460  1.00 20.00     0.001 C 
HETATM    8  C8  UNL     1     -32.987  16.046  -3.885  1.00 20.00     0.010 C 
HETATM    9  C9  UNL     1     -35.132  17.506  -3.943  1.00 20.00     0.010 C 
HETATM   10  C10 UNL     1     -33.725  17.294  -3.371  1.00 20.00    -0.027 C 
HETATM   11  O11 UNL     1     -31.759  18.879  -1.175  1.00 20.00    -0.298 OA
ENDROOT
TORSDOF 0
ENDMDL
MODEL 4
REMARK VINA RESULT:      -4.0     12.104     13.446
REMARK  0 active torsions:
REMARK  status: ('A' for Active; 'I' for Inactive)
ROOT
HETATM    1  C1  UNL     1     -35.567  14.771  -6.866  1.00 20.00     0.128 C 
HETATM    2  C2  UNL     1     -36.176  15.078  -5.488  1.00 20.00     0.088 C 
HETATM    3  C3  UNL     1     -34.159  15.174  -6.398  1.00 20.00     0.088 C 
HETATM    4  C4  UNL     1     -34.575  18.048  -2.816  1.00 20.00     0.000 C 
HETATM    5  C5  UNL     1     -33.143  17.567  -3.048  1.00 20.00     0.000 C 
HETATM    6  C6  UNL     1     -35.494  18.047  -4.049  1.00 20.00     0.001 C 
HETATM    7  C7  UNL     1     -32.986  16.081  -3.402  1.00 20.00     0.001 C 
HETATM    8  C8  UNL     1     -34.952  17.353  -5.296  1.00 20.00     0.010 C 
HETATM    9  C9  UNL     1     -34.258  15.343  -3.809  1.00 20.00     0.010 C 
HETATM   10  C10 UNL     1     -34.840  15.827  -5.142  1.00 20.00    -0.027 C 
HETATM   11  O11 UNL     1     -36.021  14.377  -7.918  1.00 20.00    -0.298 OA
ENDROOT
TORSDOF 0
ENDMDL
MODEL 5
REMARK VINA RESULT:      -3.8     11.780     13.125
REMARK  0 active torsions:
REMARK  status: ('A' for Active; 'I' for Inactive)
ROOT
HETATM    1  C1  UNL     1     -33.123  18.451  -1.435  1.00 20.00     0.128 C 
HETATM    2  C2  UNL     1     -32.655  18.410  -2.899  1.00 20.00     0.088 C 
HETATM    3  C3  UNL     1     -33.787  17.069  -1.548  1.00 20.00     0.088 C 
HETATM    4  C4  UNL     1     -34.761  16.270  -5.983  1.00 20.00     0.000 C 
HETATM    5  C5  UNL     1     -34.938  15.043  -5.090  1.00 20.00     0.000 C 
HETATM    6  C6  UNL     1     -34.900  17.635  -5.289  1.00 20.00     0.001 C 
HETATM    7  C7  UNL     1     -33.851  14.828  -4.026  1.00 20.00     0.001 C 
HETATM    8  C8  UNL     1     -34.964  17.614  -3.764  1.00 20.00     0.010 C 
HETATM    9  C9  UNL     1     -32.925  16.009  -3.755  1.00 20.00     0.010 C 
HETATM   10  C10 UNL     1     -33.636  17.202  -3.105  1.00 20.00    -0.027 C 
HETATM   11  O11 UNL     1     -33.020  19.263  -0.542  1.00 20.00    -0.298 OA
ENDROOT
TORSDOF 0
ENDMDL
MODEL 6
REMARK VINA RESULT:      -3.7     11.816     13.182
REMARK  0 active torsions:
REMARK  status: ('A' for Active; 'I' for Inactive)
ROOT
HETATM    1  C1  UNL     1     -32.679  18.535   0.400  1.00 20.00     0.128 C 
HETATM    2  C2  UNL     1     -33.904  17.764  -0.116  1.00 20.00     0.088 C 
HETATM    3  C3  UNL     1     -32.496  19.262  -0.942  1.00 20.00     0.088 C 
HETATM    4  C4  UNL     1     -34.453  16.723  -4.256  1.00 20.00     0.000 C 
HETATM    5  C5  UNL     1     -34.043  18.119  -4.721  1.00 20.00     0.000 C 
HETATM    6  C6  UNL     1     -33.668  16.151  -3.065  1.00 20.00     0.001 C 
HETATM    7  C7  UNL     1     -34.330  19.263  -3.737  1.00 20.00     0.001 C 
HETATM    8  C8  UNL     1     -32.739  17.121  -2.339  1.00 20.00     0.010 C 
HETATM    9  C9  UNL     1     -34.668  18.856  -2.306  1.00 20.00     0.010 C 
HETATM   10  C10 UNL     1     -33.491  18.216  -1.562  1.00 20.00    -0.027 C 
HETATM   11  O11 UNL     1     -32.080  18.555   1.454  1.00 20.00    -0.298 OA
ENDROOT
TORSDOF 0
ENDMDL
MODEL 7
REMARK VINA RESULT:      -3.7     12.656     14.045
REMARK  0 active torsions:
REMARK  status: ('A' for Active; 'I' for Inactive)
ROOT
HETATM    1  C1  UNL     1     -29.481  -2.615  11.151  1.00 20.00     0.128 C 
HETATM    2  C2  UNL     1     -28.496  -2.753  12.324  1.00 20.00     0.088 C 
HETATM    3  C3  UNL     1     -28.373  -2.862  10.115  1.00 20.00     0.088 C 
HETATM    4  C4  UNL     1     -24.319  -1.762  12.016  1.00 20.00     0.000 C 
HETATM    5  C5  UNL     1     -24.188  -2.487  10.677  1.00 20.00     0.000 C 
HETATM    6  C6  UNL     1     -25.628  -0.987  12.236  1.00 20.00     0.001 C 
HETATM    7  C7  UNL     1     -25.147  -3.666  10.457  1.00 20.00     0.001 C 
HETATM    8  C8  UNL     1     -26.732  -1.218  11.208  1.00 20.00     0.010 C 
HETATM    9  C9  UNL     1     -26.323  -3.771  11.423  1.00 20.00     0.010 C 
HETATM   10  C10 UNL     1     -27.337  -2.631  11.272  1.00 20.00    -0.027 C 
HETATM   11  O11 UNL     1     -30.668  -2.386  11.073  1.00 20.00    -0.298 OA
ENDROOT
TORSDOF 0
ENDMDL
MODEL 8
REMARK VINA RESULT:      -3.6      9.461     10.516
REMARK  0 active torsions:
REMARK  status: ('A' for Active; 'I' for Inactive)
ROOT
HETATM    1  C1  UNL     1     -39.782  12.242   4.764  1.00 20.00     0.128 C 
HETATM    2  C2  UNL     1     -40.888  13.303   4.641  1.00 20.00     0.088 C 
HETATM    3  C3  UNL     1     -40.246  11.836   6.172  1.00 20.00     0.088 C 
HETATM    4  C4  UNL     1     -42.544  15.374   8.032  1.00 20.00     0.000 C 
HETATM    5  C5  UNL     1     -42.663  14.080   8.836  1.00 20.00     0.000 C 
HETATM    6  C6  UNL     1     -41.288  15.510   7.156  1.00 20.00     0.001 C 
HETATM    7  C7  UNL     1     -42.863  12.798   8.014  1.00 20.00     0.001 C 
HETATM    8  C8  UNL     1     -40.429  14.257   7.007  1.00 20.00     0.010 C 
HETATM    9  C9  UNL     1     -42.588  12.903   6.517  1.00 20.00     0.010 C 
HETATM   10  C10 UNL     1     -41.111  13.147   6.188  1.00 20.00    -0.027 C 
HETATM   11  O11 UNL     1     -38.884  11.875   4.037  1.00 20.00    -0.298 OA
ENDROOT
TORSDOF 0
ENDMDL
MODEL 9
REMARK VINA RESULT:      -3.6     12.346     13.714
REMARK  0 active torsions:
REMARK  status: ('A' for Active; 'I' for Inactive)
ROOT
HETATM    1  C1  UNL     1     -36.994  16.463  -7.058  1.00 20.00     0.128 C 
HETATM    2  C2  UNL     1     -35.465  16.404  -7.205  1.00 20.00     0.088 C 
HETATM    3  C3  UNL     1     -36.896  16.847  -5.573  1.00 20.00     0.088 C 
HETATM    4  C4  UNL     1     -32.828  15.400  -3.955  1.00 20.00     0.000 C 
HETATM    5  C5  UNL     1     -33.576  16.318  -2.990  1.00 20.00     0.000 C 
HETATM    6  C6  UNL     1     -33.698  14.622  -4.956  1.00 20.00     0.001 C 
HETATM    7  C7  UNL     1     -34.269  17.533  -3.623  1.00 20.00     0.001 C 
HETATM    8  C8  UNL     1     -35.168  15.027  -5.030  1.00 20.00     0.010 C 
HETATM    9  C9  UNL     1     -34.423  17.510  -5.141  1.00 20.00     0.010 C 
HETATM   10  C10 UNL     1     -35.384  16.424  -5.637  1.00 20.00    -0.027 C 
HETATM   11  O11 UNL     1     -37.920  16.270  -7.816  1.00 20.00    -0.298 OA
ENDROOT
TORSDOF 0
ENDMDL
