MODEL 1
REMARK VINA RESULT:      -4.0      0.000      0.000
REMARK  3 active torsions:
REMARK  status: ('A' for Active; 'I' for Inactive)
REMARK    1  A    between atoms: C3_3  and  C6_6 
REMARK    2  A    between atoms: C5_5  and  C6_6 
REMARK    3  A    between atoms: C5_5  and  O7_7 
ROOT
HETATM    1  C6  UNL     1     -33.454   6.215   4.064  1.00 20.00     0.110 C 
HETATM    2 CL8  UNL     1     -32.850   5.469   2.539  1.00 20.00    -0.122 Cl
ENDROOT
BRANCH   1   3
HETATM    3  C3  UNL     1     -33.350   7.699   3.983  1.00 20.00     0.006 A 
HETATM    4  C1  UNL     1     -33.443   8.534   5.229  1.00 20.00     0.006 A 
HETATM    5  C2  UNL     1     -32.130   8.402   4.511  1.00 20.00     0.006 A 
ENDBRANCH   1   3
BRANCH   1   6
HETATM    6  C5  UNL     1     -34.893   5.735   4.314  1.00 20.00     0.187 C 
BRANCH   6   7
HETATM    7  O7  UNL     1     -34.924   4.739   5.330  1.00 20.00    -0.394 OA
HETATM    8  C4  UNL     1     -34.436   5.241   6.566  1.00 20.00     0.201 C 
ENDBRANCH   6   7
ENDBRANCH   1   6
TORSDOF 3
ENDMDL
MODEL 2
REMARK VINA RESULT:      -3.7      2.810      4.024
REMARK  3 active torsions:
REMARK  status: ('A' for Active; 'I' for Inactive)
REMARK    1  A    between atoms: C3_3  and  C6_6 
REMARK    2  A    between atoms: C5_5  and  C6_6 
REMARK    3  A    between atoms: C5_5  and  O7_7 
ROOT
HETATM    1  C6  UNL     1     -32.804   7.317   4.603  1.00 20.00     0.110 C 
HETATM    2 CL8  UNL     1     -32.485   9.028   5.072  1.00 20.00    -0.122 Cl
ENDROOT
BRANCH   1   3
HETATM    3  C3  UNL     1     -34.198   6.939   4.967  1.00 20.00     0.006 A 
HETATM    4  C1  UNL     1     -34.664   5.519   4.805  1.00 20.00     0.006 A 
HETATM    5  C2  UNL     1     -34.458   6.090   6.180  1.00 20.00     0.006 A 
ENDBRANCH   1   3
BRANCH   1   6
HETATM    6  C5  UNL     1     -32.520   7.155   3.100  1.00 20.00     0.187 C 
BRANCH   6   7
HETATM    7  O7  UNL     1     -32.440   8.424   2.461  1.00 20.00    -0.394 OA
HETATM    8  C4  UNL     1     -32.122   8.293   1.083  1.00 20.00     0.201 C 
ENDBRANCH   6   7
ENDBRANCH   1   6
TORSDOF 3
ENDMDL
MODEL 3
REMARK VINA RESULT:      -3.6      1.965      2.504
REMARK  3 active torsions:
REMARK  status: ('A' for Active; 'I' for Inactive)
REMARK    1  A    between atoms: C3_3  and  C6_6 
REMARK    2  A    between atoms: C5_5  and  C6_6 
REMARK    3  A    between atoms: C5_5  and  O7_7 
ROOT
HETATM    1  C6  UNL     1     -34.466   6.500   5.433  1.00 20.00     0.110 C 
HETATM    2 CL8  UNL     1     -34.327   5.183   6.656  1.00 20.00    -0.122 Cl
ENDROOT
BRANCH   1   3
HETATM    3  C3  UNL     1     -33.263   7.377   5.488  1.00 20.00     0.006 A 
HETATM    4  C1  UNL     1     -32.882   8.215   4.300  1.00 20.00     0.006 A 
HETATM    5  C2  UNL     1     -33.419   8.872   5.541  1.00 20.00     0.006 A 
ENDBRANCH   1   3
BRANCH   1   6
HETATM    6  C5  UNL     1     -34.675   5.868   4.047  1.00 20.00     0.187 C 
BRANCH   6   7
HETATM    7  O7  UNL     1     -33.736   4.823   3.821  1.00 20.00    -0.394 OA
HETATM    8  C4  UNL     1     -32.975   5.053   2.644  1.00 20.00     0.201 C 
ENDBRANCH   6   7
ENDBRANCH   1   6
TORSDOF 3
ENDMDL
MODEL 4
REMARK VINA RESULT:      -3.5      2.054      2.207
REMARK  3 active torsions:
REMARK  status: ('A' for Active; 'I' for Inactive)
REMARK    1  A    between atoms: C3_3  and  C6_6 
REMARK    2  A    between atoms: C5_5  and  C6_6 
REMARK    3  A    between atoms: C5_5  and  O7_7 
ROOT
HETATM    1  C6  UNL     1     -34.246   7.227   5.077  1.00 20.00     0.110 C 
HETATM    2 CL8  UNL     1     -34.419   6.733   6.801  1.00 20.00    -0.122 Cl
ENDROOT
BRANCH   1   3
HETATM    3  C3  UNL     1     -32.816   7.512   4.769  1.00 20.00     0.006 A 
HETATM    4  C1  UNL     1     -32.340   7.537   3.343  1.00 20.00     0.006 A 
HETATM    5  C2  UNL     1     -32.426   8.815   4.128  1.00 20.00     0.006 A 
ENDBRANCH   1   3
BRANCH   1   6
HETATM    6  C5  UNL     1     -34.835   6.122   4.184  1.00 20.00     0.187 C 
BRANCH   6   7
HETATM    7  O7  UNL     1     -34.838   4.872   4.863  1.00 20.00    -0.394 OA
HETATM    8  C4  UNL     1     -33.786   4.032   4.408  1.00 20.00     0.201 C 
ENDBRANCH   6   7
ENDBRANCH   1   6
TORSDOF 3
ENDMDL
MODEL 5
REMARK VINA RESULT:      -3.5      2.604      3.927
REMARK  3 active torsions:
REMARK  status: ('A' for Active; 'I' for Inactive)
REMARK    1  A    between atoms: C3_3  and  C6_6 
REMARK    2  A    between atoms: C5_5  and  C6_6 
REMARK    3  A    between atoms: C5_5  and  O7_7 
ROOT
HETATM    1  C6  UNL     1     -33.637   6.719   5.314  1.00 20.00     0.110 C 
HETATM    2 CL8  UNL     1     -34.625   6.592   6.816  1.00 20.00    -0.122 Cl
ENDROOT
BRANCH   1   3
HETATM    3  C3  UNL     1     -34.234   5.879   4.238  1.00 20.00     0.006 A 
HETATM    4  C1  UNL     1     -33.360   5.293   3.163  1.00 20.00     0.006 A 
HETATM    5  C2  UNL     1     -33.974   4.398   4.203  1.00 20.00     0.006 A 
ENDBRANCH   1   3
BRANCH   1   6
HETATM    6  C5  UNL     1     -33.527   8.201   4.916  1.00 20.00     0.187 C 
BRANCH   6   7
HETATM    7  O7  UNL     1     -32.258   8.475   4.335  1.00 20.00    -0.394 OA
HETATM    8  C4  UNL     1     -32.379   8.819   2.961  1.00 20.00     0.201 C 
ENDBRANCH   6   7
ENDBRANCH   1   6
TORSDOF 3
ENDMDL
MODEL 6
REMARK VINA RESULT:      -3.4      2.236      3.564
REMARK  3 active torsions:
REMARK  status: ('A' for Active; 'I' for Inactive)
REMARK    1  A    between atoms: C3_3  and  C6_6 
REMARK    2  A    between atoms: C5_5  and  C6_6 
REMARK    3  A    between atoms: C5_5  and  O7_7 
ROOT
HETATM    1  C6  UNL     1     -33.586   6.667   4.057  1.00 20.00     0.110 C 
HETATM    2 CL8  UNL     1     -33.269   5.226   3.021  1.00 20.00    -0.122 Cl
ENDROOT
BRANCH   1   3
HETATM    3  C3  UNL     1     -33.527   6.285   5.496  1.00 20.00     0.006 A 
HETATM    4  C1  UNL     1     -34.271   7.091   6.524  1.00 20.00     0.006 A 
HETATM    5  C2  UNL     1     -34.738   5.706   6.174  1.00 20.00     0.006 A 
ENDBRANCH   1   3
BRANCH   1   6
HETATM    6  C5  UNL     1     -32.575   7.768   3.695  1.00 20.00     0.187 C 
BRANCH   6   7
HETATM    7  O7  UNL     1     -31.967   7.502   2.437  1.00 20.00    -0.394 OA
HETATM    8  C4  UNL     1     -32.371   8.446   1.455  1.00 20.00     0.201 C 
ENDBRANCH   6   7
ENDBRANCH   1   6
TORSDOF 3
ENDMDL
MODEL 7
REMARK VINA RESULT:      -3.4      1.930      3.255
REMARK  3 active torsions:
REMARK  status: ('A' for Active; 'I' for Inactive)
REMARK    1  A    between atoms: C3_3  and  C6_6 
REMARK    2  A    between atoms: C5_5  and  C6_6 
REMARK    3  A    between atoms: C5_5  and  O7_7 
ROOT
HETATM    1  C6  UNL     1     -33.425   6.215   3.503  1.00 20.00     0.110 C 
HETATM    2 CL8  UNL     1     -32.980   4.881   2.375  1.00 20.00    -0.122 Cl
ENDROOT
BRANCH   1   3
HETATM    3  C3  UNL     1     -33.697   5.665   4.861  1.00 20.00     0.006 A 
HETATM    4  C1  UNL     1     -34.414   6.500   5.885  1.00 20.00     0.006 A 
HETATM    5  C2  UNL     1     -35.101   5.314   5.267  1.00 20.00     0.006 A 
ENDBRANCH   1   3
BRANCH   1   6
HETATM    6  C5  UNL     1     -32.299   7.261   3.501  1.00 20.00     0.187 C 
BRANCH   6   7
HETATM    7  O7  UNL     1     -32.823   8.567   3.713  1.00 20.00    -0.394 OA
HETATM    8  C4  UNL     1     -32.252   9.176   4.862  1.00 20.00     0.201 C 
ENDBRANCH   6   7
ENDBRANCH   1   6
TORSDOF 3
ENDMDL
MODEL 8
REMARK VINA RESULT:      -3.4      2.173      2.674
REMARK  3 active torsions:
REMARK  status: ('A' for Active; 'I' for Inactive)
REMARK    1  A    between atoms: C3_3  and  C6_6 
REMARK    2  A    between atoms: C5_5  and  C6_6 
REMARK    3  A    between atoms: C5_5  and  O7_7 
ROOT
HETATM    1  C6  UNL     1     -33.058   8.014   4.528  1.00 20.00     0.110 C 
HETATM    2 CL8  UNL     1     -32.189   9.495   5.076  1.00 20.00    -0.122 Cl
ENDROOT
BRANCH   1   3
HETATM    3  C3  UNL     1     -32.196   7.230   3.599  1.00 20.00     0.006 A 
HETATM    4  C1  UNL     1     -32.797   6.160   2.731  1.00 20.00     0.006 A 
HETATM    5  C2  UNL     1     -32.303   7.438   2.113  1.00 20.00     0.006 A 
ENDBRANCH   1   3
BRANCH   1   6
HETATM    6  C5  UNL     1     -33.485   7.205   5.764  1.00 20.00     0.187 C 
BRANCH   6   7
HETATM    7  O7  UNL     1     -34.697   6.503   5.514  1.00 20.00    -0.394 OA
HETATM    8  C4  UNL     1     -34.626   5.162   5.977  1.00 20.00     0.201 C 
ENDBRANCH   6   7
ENDBRANCH   1   6
TORSDOF 3
ENDMDL
MODEL 9
REMARK VINA RESULT:      -3.3     12.799     13.399
REMARK  3 active torsions:
REMARK  status: ('A' for Active; 'I' for Inactive)
REMARK    1  A    between atoms: C3_3  and  C6_6 
REMARK    2  A    between atoms: C5_5  and  C6_6 
REMARK    3  A    between atoms: C5_5  and  O7_7 
ROOT
HETATM    1  C6  UNL     1     -33.008  17.840  -0.834  1.00 20.00     0.110 C 
HETATM    2 CL8  UNL     1     -34.130  18.179   0.535  1.00 20.00    -0.122 Cl
ENDROOT
BRANCH   1   3
HETATM    3  C3  UNL     1     -33.786  17.510  -2.062  1.00 20.00     0.006 A 
HETATM    4  C1  UNL     1     -33.180  17.719  -3.421  1.00 20.00     0.006 A 
HETATM    5  C2  UNL     1     -33.402  16.326  -2.904  1.00 20.00     0.006 A 
ENDBRANCH   1   3
BRANCH   1   6
HETATM    6  C5  UNL     1     -32.082  19.052  -1.028  1.00 20.00     0.187 C 
BRANCH   6   7
HETATM    7  O7  UNL     1     -30.780  18.778  -0.526  1.00 20.00    -0.394 OA
HETATM    8  C4  UNL     1     -30.704  19.003   0.875  1.00 20.00     0.201 C 
ENDBRANCH   6   7
ENDBRANCH   1   6
TORSDOF 3
ENDMDL
