MODEL 1
REMARK VINA RESULT:      -3.6      0.000      0.000
REMARK  4 active torsions:
REMARK  status: ('A' for Active; 'I' for Inactive)
REMARK    1  A    between atoms: C2_2  and  C7_7 
REMARK    2  A    between atoms: C7_7  and  O11_11 
REMARK    3  A    between atoms: C8_8  and  C9_9 
REMARK    4  A    between atoms: C9_9  and  O11_11 
ROOT
HETATM    1  O11 UNL     1     -41.294  12.616   7.147  1.00 20.00    -0.383 OA
ENDROOT
BRANCH   1   2
HETATM    2  C7  UNL     1     -41.992  13.781   7.557  1.00 20.00     0.208 C 
BRANCH   2   3
HETATM    3  C2  UNL     1     -41.171  14.505   8.602  1.00 20.00     0.100 A 
HETATM    4  C1  UNL     1     -41.580  14.429  10.054  1.00 20.00     0.208 A 
HETATM    5  O10 UNL     1     -40.511  13.630   9.527  1.00 20.00    -0.373 OA
HETATM    6  C3  UNL     1     -40.320  15.642   8.138  1.00 20.00     0.050 C 
ENDBRANCH   2   3
ENDBRANCH   1   2
BRANCH   1   7
HETATM    7  C9  UNL     1     -41.079  12.612   5.734  1.00 20.00     0.120 C 
HETATM    8  C6  UNL     1     -41.749  13.853   5.154  1.00 20.00     0.040 C 
BRANCH   7   9
HETATM    9  C8  UNL     1     -39.560  12.552   5.467  1.00 20.00     0.006 C 
HETATM   10  C4  UNL     1     -39.213  11.692   4.250  1.00 20.00     0.012 C 
HETATM   11  C5  UNL     1     -38.811  12.020   6.696  1.00 20.00     0.012 C 
ENDBRANCH   7   9
ENDBRANCH   1   7
TORSDOF 4
ENDMDL
MODEL 2
REMARK VINA RESULT:      -3.6     12.387     14.365
REMARK  4 active torsions:
REMARK  status: ('A' for Active; 'I' for Inactive)
REMARK    1  A    between atoms: C2_2  and  C7_7 
REMARK    2  A    between atoms: C7_7  and  O11_11 
REMARK    3  A    between atoms: C8_8  and  C9_9 
REMARK    4  A    between atoms: C9_9  and  O11_11 
ROOT
HETATM    1  O11 UNL     1     -34.606  16.604  -4.697  1.00 20.00    -0.383 OA
ENDROOT
BRANCH   1   2
HETATM    2  C7  UNL     1     -34.497  15.889  -5.917  1.00 20.00     0.208 C 
BRANCH   2   3
HETATM    3  C2  UNL     1     -35.886  15.592  -6.440  1.00 20.00     0.100 A 
HETATM    4  C1  UNL     1     -36.088  15.346  -7.917  1.00 20.00     0.208 A 
HETATM    5  O10 UNL     1     -36.032  14.267  -6.972  1.00 20.00    -0.373 OA
HETATM    6  C3  UNL     1     -37.042  16.036  -5.605  1.00 20.00     0.050 C 
ENDBRANCH   2   3
ENDBRANCH   1   2
BRANCH   1   7
HETATM    7  C9  UNL     1     -33.851  15.976  -3.659  1.00 20.00     0.120 C 
HETATM    8  C6  UNL     1     -32.933  14.944  -4.307  1.00 20.00     0.040 C 
BRANCH   7   9
HETATM    9  C8  UNL     1     -33.092  17.065  -2.873  1.00 20.00     0.006 C 
HETATM   10  C4  UNL     1     -33.611  17.225  -1.443  1.00 20.00     0.012 C 
HETATM   11  C5  UNL     1     -33.173  18.416  -3.597  1.00 20.00     0.012 C 
ENDBRANCH   7   9
ENDBRANCH   1   7
TORSDOF 4
ENDMDL
MODEL 3
REMARK VINA RESULT:      -3.4     11.642     13.718
REMARK  4 active torsions:
REMARK  status: ('A' for Active; 'I' for Inactive)
REMARK    1  A    between atoms: C2_2  and  C7_7 
REMARK    2  A    between atoms: C7_7  and  O11_11 
REMARK    3  A    between atoms: C8_8  and  C9_9 
REMARK    4  A    between atoms: C9_9  and  O11_11 
ROOT
HETATM    1  O11 UNL     1     -33.311  16.910  -3.381  1.00 20.00    -0.383 OA
ENDROOT
BRANCH   1   2
HETATM    2  C7  UNL     1     -34.154  16.949  -4.521  1.00 20.00     0.208 C 
BRANCH   2   3
HETATM    3  C2  UNL     1     -34.387  15.536  -5.011  1.00 20.00     0.100 A 
HETATM    4  C1  UNL     1     -35.411  15.282  -6.092  1.00 20.00     0.208 A 
HETATM    5  O10 UNL     1     -34.005  15.328  -6.379  1.00 20.00    -0.373 OA
HETATM    6  C3  UNL     1     -33.989  14.421  -4.099  1.00 20.00     0.050 C 
ENDBRANCH   2   3
ENDBRANCH   1   2
BRANCH   1   7
HETATM    7  C9  UNL     1     -33.472  18.081  -2.578  1.00 20.00     0.120 C 
HETATM    8  C6  UNL     1     -34.951  18.453  -2.582  1.00 20.00     0.040 C 
BRANCH   7   9
HETATM    9  C8  UNL     1     -32.915  17.793  -1.168  1.00 20.00     0.006 C 
HETATM   10  C4  UNL     1     -33.959  18.006  -0.070  1.00 20.00     0.012 C 
HETATM   11  C5  UNL     1     -31.687  18.667  -0.878  1.00 20.00     0.012 C 
ENDBRANCH   7   9
ENDBRANCH   1   7
TORSDOF 4
ENDMDL
MODEL 4
REMARK VINA RESULT:      -3.3     12.976     14.434
REMARK  4 active torsions:
REMARK  status: ('A' for Active; 'I' for Inactive)
REMARK    1  A    between atoms: C2_2  and  C7_7 
REMARK    2  A    between atoms: C7_7  and  O11_11 
REMARK    3  A    between atoms: C8_8  and  C9_9 
REMARK    4  A    between atoms: C9_9  and  O11_11 
ROOT
HETATM    1  O11 UNL     1     -34.300  17.150  -5.527  1.00 20.00    -0.383 OA
ENDROOT
BRANCH   1   2
HETATM    2  C7  UNL     1     -35.636  16.875  -5.914  1.00 20.00     0.208 C 
BRANCH   2   3
HETATM    3  C2  UNL     1     -35.718  15.451  -6.423  1.00 20.00     0.100 A 
HETATM    4  C1  UNL     1     -35.949  15.199  -7.894  1.00 20.00     0.208 A 
HETATM    5  O10 UNL     1     -34.645  15.089  -7.303  1.00 20.00    -0.373 OA
HETATM    6  C3  UNL     1     -36.068  14.389  -5.431  1.00 20.00     0.050 C 
ENDBRANCH   2   3
ENDBRANCH   1   2
BRANCH   1   7
HETATM    7  C9  UNL     1     -34.243  17.683  -4.202  1.00 20.00     0.120 C 
HETATM    8  C6  UNL     1     -35.587  18.342  -3.905  1.00 20.00     0.040 C 
BRANCH   7   9
HETATM    9  C8  UNL     1     -33.890  16.541  -3.226  1.00 20.00     0.006 C 
HETATM   10  C4  UNL     1     -33.286  17.055  -1.918  1.00 20.00     0.012 C 
HETATM   11  C5  UNL     1     -32.919  15.548  -3.879  1.00 20.00     0.012 C 
ENDBRANCH   7   9
ENDBRANCH   1   7
TORSDOF 4
ENDMDL
MODEL 5
REMARK VINA RESULT:      -3.3      1.251      2.668
REMARK  4 active torsions:
REMARK  status: ('A' for Active; 'I' for Inactive)
REMARK    1  A    between atoms: C2_2  and  C7_7 
REMARK    2  A    between atoms: C7_7  and  O11_11 
REMARK    3  A    between atoms: C8_8  and  C9_9 
REMARK    4  A    between atoms: C9_9  and  O11_11 
ROOT
HETATM    1  O11 UNL     1     -40.049  13.446   8.167  1.00 20.00    -0.383 OA
ENDROOT
BRANCH   1   2
HETATM    2  C7  UNL     1     -40.330  14.705   8.756  1.00 20.00     0.208 C 
BRANCH   2   3
HETATM    3  C2  UNL     1     -41.027  14.485  10.081  1.00 20.00     0.100 A 
HETATM    4  C1  UNL     1     -42.536  14.502  10.140  1.00 20.00     0.208 A 
HETATM    5  O10 UNL     1     -41.794  13.274  10.137  1.00 20.00    -0.373 OA
HETATM    6  C3  UNL     1     -40.240  14.757  11.322  1.00 20.00     0.050 C 
ENDBRANCH   2   3
ENDBRANCH   1   2
BRANCH   1   7
HETATM    7  C9  UNL     1     -40.282  13.470   6.757  1.00 20.00     0.120 C 
HETATM    8  C6  UNL     1     -39.732  12.174   6.170  1.00 20.00     0.040 C 
BRANCH   7   9
HETATM    9  C8  UNL     1     -41.793  13.664   6.510  1.00 20.00     0.006 C 
HETATM   10  C4  UNL     1     -42.604  12.404   6.820  1.00 20.00     0.012 C 
HETATM   11  C5  UNL     1     -42.057  14.095   5.061  1.00 20.00     0.012 C 
ENDBRANCH   7   9
ENDBRANCH   1   7
TORSDOF 4
ENDMDL
MODEL 6
REMARK VINA RESULT:      -3.3      9.404     10.273
REMARK  4 active torsions:
REMARK  status: ('A' for Active; 'I' for Inactive)
REMARK    1  A    between atoms: C2_2  and  C7_7 
REMARK    2  A    between atoms: C7_7  and  O11_11 
REMARK    3  A    between atoms: C8_8  and  C9_9 
REMARK    4  A    between atoms: C9_9  and  O11_11 
ROOT
HETATM    1  O11 UNL     1     -33.958   7.913   4.063  1.00 20.00    -0.383 OA
ENDROOT
BRANCH   1   2
HETATM    2  C7  UNL     1     -33.900   7.518   5.424  1.00 20.00     0.208 C 
BRANCH   2   3
HETATM    3  C2  UNL     1     -34.581   6.174   5.577  1.00 20.00     0.100 A 
HETATM    4  C1  UNL     1     -33.967   5.126   6.474  1.00 20.00     0.208 A 
HETATM    5  O10 UNL     1     -35.080   5.926   6.899  1.00 20.00    -0.373 OA
HETATM    6  C3  UNL     1     -35.518   5.755   4.491  1.00 20.00     0.050 C 
ENDBRANCH   2   3
ENDBRANCH   1   2
BRANCH   1   7
HETATM    7  C9  UNL     1     -32.770   8.605   3.674  1.00 20.00     0.120 C 
HETATM    8  C6  UNL     1     -31.946   8.863   4.931  1.00 20.00     0.040 C 
BRANCH   7   9
HETATM    9  C8  UNL     1     -32.030   7.758   2.618  1.00 20.00     0.006 C 
HETATM   10  C4  UNL     1     -32.172   8.328   1.205  1.00 20.00     0.012 C 
HETATM   11  C5  UNL     1     -32.531   6.308   2.633  1.00 20.00     0.012 C 
ENDBRANCH   7   9
ENDBRANCH   1   7
TORSDOF 4
ENDMDL
MODEL 7
REMARK VINA RESULT:      -3.3     12.448     13.272
REMARK  4 active torsions:
REMARK  status: ('A' for Active; 'I' for Inactive)
REMARK    1  A    between atoms: C2_2  and  C7_7 
REMARK    2  A    between atoms: C7_7  and  O11_11 
REMARK    3  A    between atoms: C8_8  and  C9_9 
REMARK    4  A    between atoms: C9_9  and  O11_11 
ROOT
HETATM    1  O11 UNL     1     -33.026  17.095  -3.424  1.00 20.00    -0.383 OA
ENDROOT
BRANCH   1   2
HETATM    2  C7  UNL     1     -33.324  17.009  -2.040  1.00 20.00     0.208 C 
BRANCH   2   3
HETATM    3  C2  UNL     1     -33.069  18.355  -1.396  1.00 20.00     0.100 A 
HETATM    4  C1  UNL     1     -31.774  18.592  -0.655  1.00 20.00     0.208 A 
HETATM    5  O10 UNL     1     -31.982  19.082  -1.988  1.00 20.00    -0.373 OA
HETATM    6  C3  UNL     1     -34.259  19.203  -1.085  1.00 20.00     0.050 C 
ENDBRANCH   2   3
ENDBRANCH   1   2
BRANCH   1   7
HETATM    7  C9  UNL     1     -34.143  16.692  -4.220  1.00 20.00     0.120 C 
HETATM    8  C6  UNL     1     -34.460  17.825  -5.190  1.00 20.00     0.040 C 
BRANCH   7   9
HETATM    9  C8  UNL     1     -33.794  15.362  -4.922  1.00 20.00     0.006 C 
HETATM   10  C4  UNL     1     -34.261  15.328  -6.378  1.00 20.00     0.012 C 
HETATM   11  C5  UNL     1     -34.400  14.172  -4.166  1.00 20.00     0.012 C 
ENDBRANCH   7   9
ENDBRANCH   1   7
TORSDOF 4
ENDMDL
MODEL 8
REMARK VINA RESULT:      -3.2     12.386     13.224
REMARK  4 active torsions:
REMARK  status: ('A' for Active; 'I' for Inactive)
REMARK    1  A    between atoms: C2_2  and  C7_7 
REMARK    2  A    between atoms: C7_7  and  O11_11 
REMARK    3  A    between atoms: C8_8  and  C9_9 
REMARK    4  A    between atoms: C9_9  and  O11_11 
ROOT
HETATM    1  O11 UNL     1     -34.137  16.951  -3.834  1.00 20.00    -0.383 OA
ENDROOT
BRANCH   1   2
HETATM    2  C7  UNL     1     -33.245  16.764  -2.747  1.00 20.00     0.208 C 
BRANCH   2   3
HETATM    3  C2  UNL     1     -33.252  18.007  -1.884  1.00 20.00     0.100 A 
HETATM    4  C1  UNL     1     -32.093  18.273  -0.953  1.00 20.00     0.208 A 
HETATM    5  O10 UNL     1     -32.219  18.947  -2.214  1.00 20.00    -0.373 OA
HETATM    6  C3  UNL     1     -34.577  18.642  -1.608  1.00 20.00     0.050 C 
ENDBRANCH   2   3
ENDBRANCH   1   2
BRANCH   1   7
HETATM    7  C9  UNL     1     -34.031  15.885  -4.780  1.00 20.00     0.120 C 
HETATM    8  C6  UNL     1     -33.759  14.599  -4.007  1.00 20.00     0.040 C 
BRANCH   7   9
HETATM    9  C8  UNL     1     -35.328  15.837  -5.616  1.00 20.00     0.006 C 
HETATM   10  C4  UNL     1     -36.307  16.953  -5.244  1.00 20.00     0.012 C 
HETATM   11  C5  UNL     1     -36.024  14.478  -5.463  1.00 20.00     0.012 C 
ENDBRANCH   7   9
ENDBRANCH   1   7
TORSDOF 4
ENDMDL
MODEL 9
REMARK VINA RESULT:      -3.2      1.419      4.713
REMARK  4 active torsions:
REMARK  status: ('A' for Active; 'I' for Inactive)
REMARK    1  A    between atoms: C2_2  and  C7_7 
REMARK    2  A    between atoms: C7_7  and  O11_11 
REMARK    3  A    between atoms: C8_8  and  C9_9 
REMARK    4  A    between atoms: C9_9  and  O11_11 
ROOT
HETATM    1  O11 UNL     1     -40.093  13.727   8.546  1.00 20.00    -0.383 OA
ENDROOT
BRANCH   1   2
HETATM    2  C7  UNL     1     -40.419  14.112   7.220  1.00 20.00     0.208 C 
BRANCH   2   3
HETATM    3  C2  UNL     1     -40.927  12.902   6.466  1.00 20.00     0.100 A 
HETATM    4  C1  UNL     1     -40.280  12.515   5.157  1.00 20.00     0.208 A 
HETATM    5  O10 UNL     1     -39.975  11.831   6.382  1.00 20.00    -0.373 OA
HETATM    6  C3  UNL     1     -42.320  12.447   6.761  1.00 20.00     0.050 C 
ENDBRANCH   2   3
ENDBRANCH   1   2
BRANCH   1   7
HETATM    7  C9  UNL     1     -40.143  14.843   9.437  1.00 20.00     0.120 C 
HETATM    8  C6  UNL     1     -40.844  15.988   8.713  1.00 20.00     0.040 C 
BRANCH   7   9
HETATM    9  C8  UNL     1     -40.857  14.408  10.734  1.00 20.00     0.006 C 
HETATM   10  C4  UNL     1     -42.306  14.893  10.797  1.00 20.00     0.012 C 
HETATM   11  C5  UNL     1     -40.098  14.911  11.969  1.00 20.00     0.012 C 
ENDBRANCH   7   9
ENDBRANCH   1   7
TORSDOF 4
ENDMDL
