MODEL 1
REMARK VINA RESULT:      -4.0      0.000      0.000
REMARK  4 active torsions:
REMARK  status: ('A' for Active; 'I' for Inactive)
REMARK    1  A    between atoms: C2_2  and  C6_6 
REMARK    2  A    between atoms: C6_6  and  O10_10 
REMARK    3  A    between atoms: C7_7  and  C8_8 
REMARK    4  A    between atoms: C8_8  and  O10_10 
ROOT
HETATM    1  C5  UNL     1     -32.078   9.003   4.894  1.00 20.00     0.040 C 
HETATM    2  C8  UNL     1     -32.943   8.380   3.803  1.00 20.00     0.120 C 
ENDROOT
BRANCH   2   3
HETATM    3  C7  UNL     1     -32.154   7.471   2.836  1.00 20.00     0.006 C 
HETATM    4  C3  UNL     1     -32.061   8.057   1.426  1.00 20.00     0.012 C 
HETATM    5  C4  UNL     1     -32.782   6.073   2.768  1.00 20.00     0.012 C 
ENDBRANCH   2   3
BRANCH   2   6
HETATM    6  O10 UNL     1     -33.956   7.598   4.439  1.00 20.00    -0.383 OA
BRANCH   6   7
HETATM    7  C6  UNL     1     -33.671   7.408   5.815  1.00 20.00     0.202 C 
BRANCH   7   8
HETATM    8  C2  UNL     1     -34.578   6.326   6.362  1.00 20.00     0.169 A 
HETATM    9  C1  UNL     1     -34.286   4.871   6.121  1.00 20.00     0.202 A 
HETATM   10  O9  UNL     1     -35.280   5.579   5.363  1.00 20.00    -0.379 OA
ENDBRANCH   7   8
ENDBRANCH   6   7
ENDBRANCH   2   6
TORSDOF 4
ENDMDL
MODEL 2
REMARK VINA RESULT:      -3.8     15.160     16.412
REMARK  4 active torsions:
REMARK  status: ('A' for Active; 'I' for Inactive)
REMARK    1  A    between atoms: C2_2  and  C6_6 
REMARK    2  A    between atoms: C6_6  and  O10_10 
REMARK    3  A    between atoms: C7_7  and  C8_8 
REMARK    4  A    between atoms: C8_8  and  O10_10 
ROOT
HETATM    1  C5  UNL     1     -24.670  18.760   9.927  1.00 20.00     0.040 C 
HETATM    2  C8  UNL     1     -23.986  18.659  11.286  1.00 20.00     0.120 C 
ENDROOT
BRANCH   2   3
HETATM    3  C7  UNL     1     -24.594  17.576  12.202  1.00 20.00     0.006 C 
HETATM    4  C3  UNL     1     -24.295  16.158  11.710  1.00 20.00     0.012 C 
HETATM    5  C4  UNL     1     -26.112  17.761  12.332  1.00 20.00     0.012 C 
ENDBRANCH   2   3
BRANCH   2   6
HETATM    6  O10 UNL     1     -22.609  18.346  11.062  1.00 20.00    -0.383 OA
BRANCH   6   7
HETATM    7  C6  UNL     1     -22.168  18.839   9.808  1.00 20.00     0.202 C 
BRANCH   7   8
HETATM    8  C2  UNL     1     -21.298  17.792   9.145  1.00 20.00     0.169 A 
HETATM    9  C1  UNL     1     -21.316  17.598   7.654  1.00 20.00     0.202 A 
HETATM   10  O9  UNL     1     -22.023  16.715   8.539  1.00 20.00    -0.379 OA
ENDBRANCH   7   8
ENDBRANCH   6   7
ENDBRANCH   2   6
TORSDOF 4
ENDMDL
MODEL 3
REMARK VINA RESULT:      -3.7     11.644     12.596
REMARK  4 active torsions:
REMARK  status: ('A' for Active; 'I' for Inactive)
REMARK    1  A    between atoms: C2_2  and  C6_6 
REMARK    2  A    between atoms: C6_6  and  O10_10 
REMARK    3  A    between atoms: C7_7  and  C8_8 
REMARK    4  A    between atoms: C8_8  and  O10_10 
ROOT
HETATM    1  C5  UNL     1     -34.835  18.679  -2.344  1.00 20.00     0.040 C 
HETATM    2  C8  UNL     1     -33.327  18.447  -2.308  1.00 20.00     0.120 C 
ENDROOT
BRANCH   2   3
HETATM    3  C7  UNL     1     -32.819  17.915  -0.951  1.00 20.00     0.006 C 
HETATM    4  C3  UNL     1     -33.834  18.121   0.175  1.00 20.00     0.012 C 
HETATM    5  C4  UNL     1     -31.491  18.580  -0.568  1.00 20.00     0.012 C 
ENDBRANCH   2   3
BRANCH   2   6
HETATM    6  O10 UNL     1     -33.007  17.492  -3.321  1.00 20.00    -0.383 OA
BRANCH   6   7
HETATM    7  C6  UNL     1     -33.528  16.212  -3.004  1.00 20.00     0.202 C 
BRANCH   7   8
HETATM    8  C2  UNL     1     -33.262  15.271  -4.160  1.00 20.00     0.169 A 
HETATM    9  C1  UNL     1     -34.355  14.887  -5.117  1.00 20.00     0.202 A 
HETATM   10  O9  UNL     1     -33.930  14.008  -4.064  1.00 20.00    -0.379 OA
ENDBRANCH   7   8
ENDBRANCH   6   7
ENDBRANCH   2   6
TORSDOF 4
ENDMDL
MODEL 4
REMARK VINA RESULT:      -3.6      9.217      9.968
REMARK  4 active torsions:
REMARK  status: ('A' for Active; 'I' for Inactive)
REMARK    1  A    between atoms: C2_2  and  C6_6 
REMARK    2  A    between atoms: C6_6  and  O10_10 
REMARK    3  A    between atoms: C7_7  and  C8_8 
REMARK    4  A    between atoms: C8_8  and  O10_10 
ROOT
HETATM    1  C5  UNL     1     -41.208  13.514   5.067  1.00 20.00     0.040 C 
HETATM    2  C8  UNL     1     -40.830  12.347   5.973  1.00 20.00     0.120 C 
ENDROOT
BRANCH   2   3
HETATM    3  C7  UNL     1     -39.530  11.633   5.546  1.00 20.00     0.006 C 
HETATM    4  C3  UNL     1     -38.300  12.168   6.282  1.00 20.00     0.012 C 
HETATM    5  C4  UNL     1     -39.312  11.756   4.033  1.00 20.00     0.012 C 
ENDBRANCH   2   3
BRANCH   2   6
HETATM    6  O10 UNL     1     -40.657  12.857   7.296  1.00 20.00    -0.383 OA
BRANCH   6   7
HETATM    7  C6  UNL     1     -41.129  14.190   7.399  1.00 20.00     0.202 C 
BRANCH   7   8
HETATM    8  C2  UNL     1     -41.304  14.540   8.862  1.00 20.00     0.169 A 
HETATM    9  C1  UNL     1     -40.211  15.225   9.634  1.00 20.00     0.202 A 
HETATM   10  O9  UNL     1     -40.451  13.813   9.753  1.00 20.00    -0.379 OA
ENDBRANCH   7   8
ENDBRANCH   6   7
ENDBRANCH   2   6
TORSDOF 4
ENDMDL
MODEL 5
REMARK VINA RESULT:      -3.6     12.121     13.519
REMARK  4 active torsions:
REMARK  status: ('A' for Active; 'I' for Inactive)
REMARK    1  A    between atoms: C2_2  and  C6_6 
REMARK    2  A    between atoms: C6_6  and  O10_10 
REMARK    3  A    between atoms: C7_7  and  C8_8 
REMARK    4  A    between atoms: C8_8  and  O10_10 
ROOT
HETATM    1  C5  UNL     1     -32.842  14.909  -4.189  1.00 20.00     0.040 C 
HETATM    2  C8  UNL     1     -33.778  16.044  -3.785  1.00 20.00     0.120 C 
ENDROOT
BRANCH   2   3
HETATM    3  C7  UNL     1     -33.092  17.131  -2.930  1.00 20.00     0.006 C 
HETATM    4  C3  UNL     1     -33.659  17.204  -1.511  1.00 20.00     0.012 C 
HETATM    5  C4  UNL     1     -33.212  18.506  -3.598  1.00 20.00     0.012 C 
ENDBRANCH   2   3
BRANCH   2   6
HETATM    6  O10 UNL     1     -34.274  16.650  -4.980  1.00 20.00    -0.383 OA
BRANCH   6   7
HETATM    7  C6  UNL     1     -35.452  16.003  -5.433  1.00 20.00     0.202 C 
BRANCH   7   8
HETATM    8  C2  UNL     1     -35.176  15.362  -6.777  1.00 20.00     0.169 A 
HETATM    9  C1  UNL     1     -36.146  15.500  -7.918  1.00 20.00     0.202 A 
HETATM   10  O9  UNL     1     -36.075  14.303  -7.126  1.00 20.00    -0.379 OA
ENDBRANCH   7   8
ENDBRANCH   6   7
ENDBRANCH   2   6
TORSDOF 4
ENDMDL
MODEL 6
REMARK VINA RESULT:      -3.5      1.421      3.801
REMARK  4 active torsions:
REMARK  status: ('A' for Active; 'I' for Inactive)
REMARK    1  A    between atoms: C2_2  and  C6_6 
REMARK    2  A    between atoms: C6_6  and  O10_10 
REMARK    3  A    between atoms: C7_7  and  C8_8 
REMARK    4  A    between atoms: C8_8  and  O10_10 
ROOT
HETATM    1  C5  UNL     1     -34.109   7.314   6.860  1.00 20.00     0.040 C 
HETATM    2  C8  UNL     1     -33.790   6.667   5.515  1.00 20.00     0.120 C 
ENDROOT
BRANCH   2   3
HETATM    3  C7  UNL     1     -34.730   5.496   5.158  1.00 20.00     0.006 C 
HETATM    4  C3  UNL     1     -33.986   4.322   4.520  1.00 20.00     0.012 C 
HETATM    5  C4  UNL     1     -35.849   5.962   4.218  1.00 20.00     0.012 C 
ENDBRANCH   2   3
BRANCH   2   6
HETATM    6  O10 UNL     1     -33.911   7.672   4.507  1.00 20.00    -0.383 OA
BRANCH   6   7
HETATM    7  C6  UNL     1     -32.709   8.412   4.371  1.00 20.00     0.202 C 
BRANCH   7   8
HETATM    8  C2  UNL     1     -31.841   7.755   3.319  1.00 20.00     0.169 A 
HETATM    9  C1  UNL     1     -32.110   7.957   1.853  1.00 20.00     0.202 A 
HETATM   10  O9  UNL     1     -32.509   6.758   2.537  1.00 20.00    -0.379 OA
ENDBRANCH   7   8
ENDBRANCH   6   7
ENDBRANCH   2   6
TORSDOF 4
ENDMDL
MODEL 7
REMARK VINA RESULT:      -3.4      1.647      4.356
REMARK  4 active torsions:
REMARK  status: ('A' for Active; 'I' for Inactive)
REMARK    1  A    between atoms: C2_2  and  C6_6 
REMARK    2  A    between atoms: C6_6  and  O10_10 
REMARK    3  A    between atoms: C7_7  and  C8_8 
REMARK    4  A    between atoms: C8_8  and  O10_10 
ROOT
HETATM    1  C5  UNL     1     -32.960   5.468   3.077  1.00 20.00     0.040 C 
HETATM    2  C8  UNL     1     -33.476   6.739   3.745  1.00 20.00     0.120 C 
ENDROOT
BRANCH   2   3
HETATM    3  C7  UNL     1     -34.405   6.468   4.947  1.00 20.00     0.006 C 
HETATM    4  C3  UNL     1     -33.838   7.011   6.260  1.00 20.00     0.012 C 
HETATM    5  C4  UNL     1     -34.683   4.966   5.094  1.00 20.00     0.012 C 
ENDBRANCH   2   3
BRANCH   2   6
HETATM    6  O10 UNL     1     -32.345   7.483   4.202  1.00 20.00    -0.383 OA
BRANCH   6   7
HETATM    7  C6  UNL     1     -32.266   8.745   3.558  1.00 20.00     0.202 C 
BRANCH   7   8
HETATM    8  C2  UNL     1     -32.980   8.664   2.226  1.00 20.00     0.169 A 
HETATM    9  C1  UNL     1     -32.215   8.680   0.932  1.00 20.00     0.202 A 
HETATM   10  O9  UNL     1     -32.884   9.850   1.428  1.00 20.00    -0.379 OA
ENDBRANCH   7   8
ENDBRANCH   6   7
ENDBRANCH   2   6
TORSDOF 4
ENDMDL
MODEL 8
REMARK VINA RESULT:      -3.4      1.112      2.422
REMARK  4 active torsions:
REMARK  status: ('A' for Active; 'I' for Inactive)
REMARK    1  A    between atoms: C2_2  and  C6_6 
REMARK    2  A    between atoms: C6_6  and  O10_10 
REMARK    3  A    between atoms: C7_7  and  C8_8 
REMARK    4  A    between atoms: C8_8  and  O10_10 
ROOT
HETATM    1  C5  UNL     1     -32.915   5.197   2.241  1.00 20.00     0.040 C 
HETATM    2  C8  UNL     1     -32.783   6.087   3.472  1.00 20.00     0.120 C 
ENDROOT
BRANCH   2   3
HETATM    3  C7  UNL     1     -32.072   7.427   3.189  1.00 20.00     0.006 C 
HETATM    4  C3  UNL     1     -32.486   8.528   4.167  1.00 20.00     0.012 C 
HETATM    5  C4  UNL     1     -32.342   7.894   1.752  1.00 20.00     0.012 C 
ENDBRANCH   2   3
BRANCH   2   6
HETATM    6  O10 UNL     1     -34.099   6.362   3.956  1.00 20.00    -0.383 OA
BRANCH   6   7
HETATM    7  C6  UNL     1     -34.693   5.204   4.520  1.00 20.00     0.202 C 
BRANCH   7   8
HETATM    8  C2  UNL     1     -34.919   5.436   5.999  1.00 20.00     0.169 A 
HETATM    9  C1  UNL     1     -34.394   6.669   6.682  1.00 20.00     0.202 A 
HETATM   10  O9  UNL     1     -33.729   5.400   6.795  1.00 20.00    -0.379 OA
ENDBRANCH   7   8
ENDBRANCH   6   7
ENDBRANCH   2   6
TORSDOF 4
ENDMDL
MODEL 9
REMARK VINA RESULT:      -3.3     11.699     12.643
REMARK  4 active torsions:
REMARK  status: ('A' for Active; 'I' for Inactive)
REMARK    1  A    between atoms: C2_2  and  C6_6 
REMARK    2  A    between atoms: C6_6  and  O10_10 
REMARK    3  A    between atoms: C7_7  and  C8_8 
REMARK    4  A    between atoms: C8_8  and  O10_10 
ROOT
HETATM    1  C5  UNL     1     -33.402  14.521  -4.340  1.00 20.00     0.040 C 
HETATM    2  C8  UNL     1     -34.186  15.622  -5.047  1.00 20.00     0.120 C 
ENDROOT
BRANCH   2   3
HETATM    3  C7  UNL     1     -35.609  15.193  -5.463  1.00 20.00     0.006 C 
HETATM    4  C3  UNL     1     -36.034  13.872  -4.819  1.00 20.00     0.012 C 
HETATM    5  C4  UNL     1     -35.718  15.074  -6.989  1.00 20.00     0.012 C 
ENDBRANCH   2   3
BRANCH   2   6
HETATM    6  O10 UNL     1     -34.287  16.732  -4.152  1.00 20.00    -0.383 OA
BRANCH   6   7
HETATM    7  C6  UNL     1     -33.438  16.566  -3.029  1.00 20.00     0.202 C 
BRANCH   7   8
HETATM    8  C2  UNL     1     -33.573  17.774  -2.126  1.00 20.00     0.169 A 
HETATM    9  C1  UNL     1     -32.519  18.105  -1.107  1.00 20.00     0.202 A 
HETATM   10  O9  UNL     1     -33.749  17.461  -0.740  1.00 20.00    -0.379 OA
ENDBRANCH   7   8
ENDBRANCH   6   7
ENDBRANCH   2   6
TORSDOF 4
ENDMDL
