MODEL 1
REMARK VINA RESULT:      -3.9      0.000      0.000
REMARK  3 active torsions:
REMARK  status: ('A' for Active; 'I' for Inactive)
REMARK    1  A    between atoms: C4_4  and  C7_7 
REMARK    2  A    between atoms: C6_6  and  C7_7 
REMARK    3  A    between atoms: C6_6  and  O9_9 
ROOT
HETATM    1  C1  UNL     1     -42.133  12.359   6.685  1.00 20.00     0.066 C 
HETATM    2  C7  UNL     1     -40.958  12.975   6.049  1.00 20.00     0.120 C 
HETATM    3  N8  UNL     1     -43.064  11.879   7.185  1.00 20.00    -0.197 NA
ENDROOT
BRANCH   2   4
HETATM    4  C4  UNL     1     -40.014  11.835   5.786  1.00 20.00     0.005 A 
HETATM    5  C2  UNL     1     -39.401  11.657   4.424  1.00 20.00     0.006 A 
HETATM    6  C3  UNL     1     -38.548  12.099   5.581  1.00 20.00     0.006 A 
ENDBRANCH   2   4
BRANCH   2   7
HETATM    7  C6  UNL     1     -40.341  14.069   6.917  1.00 20.00     0.186 C 
BRANCH   7   8
HETATM    8  O9  UNL     1     -40.166  13.622   8.257  1.00 20.00    -0.395 OA
HETATM    9  C5  UNL     1     -40.292  14.693   9.182  1.00 20.00     0.201 C 
ENDBRANCH   7   8
ENDBRANCH   2   7
TORSDOF 3
ENDMDL
MODEL 2
REMARK VINA RESULT:      -3.4      9.521     10.351
REMARK  3 active torsions:
REMARK  status: ('A' for Active; 'I' for Inactive)
REMARK    1  A    between atoms: C4_4  and  C7_7 
REMARK    2  A    between atoms: C6_6  and  C7_7 
REMARK    3  A    between atoms: C6_6  and  O9_9 
ROOT
HETATM    1  C1  UNL     1     -32.926   5.902   3.161  1.00 20.00     0.066 C 
HETATM    2  C7  UNL     1     -32.876   7.024   4.112  1.00 20.00     0.120 C 
HETATM    3  N8  UNL     1     -32.959   5.017   2.411  1.00 20.00    -0.197 NA
ENDROOT
BRANCH   2   4
HETATM    4  C4  UNL     1     -34.167   6.943   4.880  1.00 20.00     0.005 A 
HETATM    5  C2  UNL     1     -34.452   5.757   5.760  1.00 20.00     0.006 A 
HETATM    6  C3  UNL     1     -34.169   7.099   6.375  1.00 20.00     0.006 A 
ENDBRANCH   2   4
BRANCH   2   7
HETATM    7  C6  UNL     1     -32.688   8.366   3.409  1.00 20.00     0.186 C 
BRANCH   7   8
HETATM    8  O9  UNL     1     -32.268   8.185   2.062  1.00 20.00    -0.395 OA
HETATM    9  C5  UNL     1     -32.701   9.254   1.233  1.00 20.00     0.201 C 
ENDBRANCH   7   8
ENDBRANCH   2   7
TORSDOF 3
ENDMDL
MODEL 3
REMARK VINA RESULT:      -3.4     12.248     13.037
REMARK  3 active torsions:
REMARK  status: ('A' for Active; 'I' for Inactive)
REMARK    1  A    between atoms: C4_4  and  C7_7 
REMARK    2  A    between atoms: C6_6  and  C7_7 
REMARK    3  A    between atoms: C6_6  and  O9_9 
ROOT
HETATM    1  C1  UNL     1     -33.693  15.166  -3.940  1.00 20.00     0.066 C 
HETATM    2  C7  UNL     1     -33.322  16.565  -3.669  1.00 20.00     0.120 C 
HETATM    3  N8  UNL     1     -33.981  14.064  -4.159  1.00 20.00    -0.197 NA
ENDROOT
BRANCH   2   4
HETATM    4  C4  UNL     1     -33.516  16.740  -2.188  1.00 20.00     0.005 A 
HETATM    5  C2  UNL     1     -32.685  17.737  -1.428  1.00 20.00     0.006 A 
HETATM    6  C3  UNL     1     -34.150  17.993  -1.650  1.00 20.00     0.006 A 
ENDBRANCH   2   4
BRANCH   2   7
HETATM    7  C6  UNL     1     -34.146  17.549  -4.495  1.00 20.00     0.186 C 
BRANCH   7   8
HETATM    8  O9  UNL     1     -35.379  16.968  -4.904  1.00 20.00    -0.395 OA
HETATM    9  C5  UNL     1     -36.475  17.834  -4.643  1.00 20.00     0.201 C 
ENDBRANCH   7   8
ENDBRANCH   2   7
TORSDOF 3
ENDMDL
MODEL 4
REMARK VINA RESULT:      -3.4      9.423     10.193
REMARK  3 active torsions:
REMARK  status: ('A' for Active; 'I' for Inactive)
REMARK    1  A    between atoms: C4_4  and  C7_7 
REMARK    2  A    between atoms: C6_6  and  C7_7 
REMARK    3  A    between atoms: C6_6  and  O9_9 
ROOT
HETATM    1  C1  UNL     1     -33.245   5.456   3.006  1.00 20.00     0.066 C 
HETATM    2  C7  UNL     1     -33.999   6.520   3.687  1.00 20.00     0.120 C 
HETATM    3  N8  UNL     1     -32.655   4.617   2.464  1.00 20.00    -0.197 NA
ENDROOT
BRANCH   2   4
HETATM    4  C4  UNL     1     -32.977   7.262   4.505  1.00 20.00     0.005 A 
HETATM    5  C2  UNL     1     -32.574   8.660   4.127  1.00 20.00     0.006 A 
HETATM    6  C3  UNL     1     -33.393   8.422   5.365  1.00 20.00     0.006 A 
ENDBRANCH   2   4
BRANCH   2   7
HETATM    7  C6  UNL     1     -35.144   5.966   4.531  1.00 20.00     0.186 C 
BRANCH   7   8
HETATM    8  O9  UNL     1     -34.743   4.793   5.231  1.00 20.00    -0.395 OA
HETATM    9  C5  UNL     1     -34.488   5.066   6.601  1.00 20.00     0.201 C 
ENDBRANCH   7   8
ENDBRANCH   2   7
TORSDOF 3
ENDMDL
MODEL 5
REMARK VINA RESULT:      -3.4      1.850      2.165
REMARK  3 active torsions:
REMARK  status: ('A' for Active; 'I' for Inactive)
REMARK    1  A    between atoms: C4_4  and  C7_7 
REMARK    2  A    between atoms: C6_6  and  C7_7 
REMARK    3  A    between atoms: C6_6  and  O9_9 
ROOT
HETATM    1  C1  UNL     1     -41.779  14.061   4.453  1.00 20.00     0.066 C 
HETATM    2  C7  UNL     1     -41.030  13.478   5.577  1.00 20.00     0.120 C 
HETATM    3  N8  UNL     1     -42.370  14.528   3.570  1.00 20.00    -0.197 NA
ENDROOT
BRANCH   2   4
HETATM    4  C4  UNL     1     -40.125  12.452   4.953  1.00 20.00     0.005 A 
HETATM    5  C2  UNL     1     -38.731  12.250   5.481  1.00 20.00     0.006 A 
HETATM    6  C3  UNL     1     -39.778  11.193   5.700  1.00 20.00     0.006 A 
ENDBRANCH   2   4
BRANCH   2   7
HETATM    7  C6  UNL     1     -41.954  12.886   6.639  1.00 20.00     0.186 C 
BRANCH   7   8
HETATM    8  O9  UNL     1     -41.466  13.153   7.949  1.00 20.00    -0.395 OA
HETATM    9  C5  UNL     1     -40.742  14.375   7.995  1.00 20.00     0.201 C 
ENDBRANCH   7   8
ENDBRANCH   2   7
TORSDOF 3
ENDMDL
MODEL 6
REMARK VINA RESULT:      -3.3      9.444     10.267
REMARK  3 active torsions:
REMARK  status: ('A' for Active; 'I' for Inactive)
REMARK    1  A    between atoms: C4_4  and  C7_7 
REMARK    2  A    between atoms: C6_6  and  C7_7 
REMARK    3  A    between atoms: C6_6  and  O9_9 
ROOT
HETATM    1  C1  UNL     1     -32.838   8.341   4.923  1.00 20.00     0.066 C 
HETATM    2  C7  UNL     1     -33.612   7.185   4.444  1.00 20.00     0.120 C 
HETATM    3  N8  UNL     1     -32.231   9.257   5.296  1.00 20.00    -0.197 NA
ENDROOT
BRANCH   2   4
HETATM    4  C4  UNL     1     -33.671   6.243   5.615  1.00 20.00     0.005 A 
HETATM    5  C2  UNL     1     -34.933   6.118   6.424  1.00 20.00     0.006 A 
HETATM    6  C3  UNL     1     -34.495   4.987   5.535  1.00 20.00     0.006 A 
ENDBRANCH   2   4
BRANCH   2   7
HETATM    7  C6  UNL     1     -32.990   6.550   3.203  1.00 20.00     0.186 C 
BRANCH   7   8
HETATM    8  O9  UNL     1     -31.913   7.338   2.709  1.00 20.00    -0.395 OA
HETATM    9  C5  UNL     1     -32.248   7.966   1.479  1.00 20.00     0.201 C 
ENDBRANCH   7   8
ENDBRANCH   2   7
TORSDOF 3
ENDMDL
MODEL 7
REMARK VINA RESULT:      -3.3      9.421     10.033
REMARK  3 active torsions:
REMARK  status: ('A' for Active; 'I' for Inactive)
REMARK    1  A    between atoms: C4_4  and  C7_7 
REMARK    2  A    between atoms: C6_6  and  C7_7 
REMARK    3  A    between atoms: C6_6  and  O9_9 
ROOT
HETATM    1  C1  UNL     1     -33.156   5.651   3.219  1.00 20.00     0.066 C 
HETATM    2  C7  UNL     1     -33.352   6.665   4.268  1.00 20.00     0.120 C 
HETATM    3  N8  UNL     1     -32.995   4.854   2.392  1.00 20.00    -0.197 NA
ENDROOT
BRANCH   2   4
HETATM    4  C4  UNL     1     -34.536   6.184   5.060  1.00 20.00     0.005 A 
HETATM    5  C2  UNL     1     -34.377   5.072   6.061  1.00 20.00     0.006 A 
HETATM    6  C3  UNL     1     -34.632   6.477   6.532  1.00 20.00     0.006 A 
ENDBRANCH   2   4
BRANCH   2   7
HETATM    7  C6  UNL     1     -33.555   8.062   3.687  1.00 20.00     0.186 C 
BRANCH   7   8
HETATM    8  O9  UNL     1     -32.359   8.829   3.768  1.00 20.00    -0.395 OA
HETATM    9  C5  UNL     1     -32.033   9.145   5.114  1.00 20.00     0.201 C 
ENDBRANCH   7   8
ENDBRANCH   2   7
TORSDOF 3
ENDMDL
MODEL 8
REMARK VINA RESULT:      -3.3     11.495     12.352
REMARK  3 active torsions:
REMARK  status: ('A' for Active; 'I' for Inactive)
REMARK    1  A    between atoms: C4_4  and  C7_7 
REMARK    2  A    between atoms: C6_6  and  C7_7 
REMARK    3  A    between atoms: C6_6  and  O9_9 
ROOT
HETATM    1  C1  UNL     1     -31.721  18.311  -0.747  1.00 20.00     0.066 C 
HETATM    2  C7  UNL     1     -33.078  18.027  -1.241  1.00 20.00     0.120 C 
HETATM    3  N8  UNL     1     -30.653  18.534  -0.352  1.00 20.00    -0.197 NA
ENDROOT
BRANCH   2   4
HETATM    4  C4  UNL     1     -32.883  17.488  -2.631  1.00 20.00     0.005 A 
HETATM    5  C2  UNL     1     -33.481  16.164  -3.021  1.00 20.00     0.006 A 
HETATM    6  C3  UNL     1     -34.038  17.439  -3.592  1.00 20.00     0.006 A 
ENDBRANCH   2   4
BRANCH   2   7
HETATM    7  C6  UNL     1     -33.974  19.263  -1.204  1.00 20.00     0.186 C 
BRANCH   7   8
HETATM    8  O9  UNL     1     -35.139  19.027  -0.422  1.00 20.00    -0.395 OA
HETATM    9  C5  UNL     1     -34.891  19.240   0.961  1.00 20.00     0.201 C 
ENDBRANCH   7   8
ENDBRANCH   2   7
TORSDOF 3
ENDMDL
MODEL 9
REMARK VINA RESULT:      -3.2     11.811     12.503
REMARK  3 active torsions:
REMARK  status: ('A' for Active; 'I' for Inactive)
REMARK    1  A    between atoms: C4_4  and  C7_7 
REMARK    2  A    between atoms: C6_6  and  C7_7 
REMARK    3  A    between atoms: C6_6  and  O9_9 
ROOT
HETATM    1  C1  UNL     1     -34.792  18.640  -1.626  1.00 20.00     0.066 C 
HETATM    2  C7  UNL     1     -33.628  17.848  -1.198  1.00 20.00     0.120 C 
HETATM    3  N8  UNL     1     -35.715  19.258  -1.964  1.00 20.00    -0.197 NA
ENDROOT
BRANCH   2   4
HETATM    4  C4  UNL     1     -32.713  18.833  -0.523  1.00 20.00     0.005 A 
HETATM    5  C2  UNL     1     -32.212  18.569   0.870  1.00 20.00     0.006 A 
HETATM    6  C3  UNL     1     -31.267  18.491  -0.297  1.00 20.00     0.006 A 
ENDBRANCH   2   4
BRANCH   2   7
HETATM    7  C6  UNL     1     -32.962  17.126  -2.366  1.00 20.00     0.186 C 
BRANCH   7   8
HETATM    8  O9  UNL     1     -33.648  15.918  -2.680  1.00 20.00    -0.395 OA
HETATM    9  C5  UNL     1     -33.390  15.505  -4.015  1.00 20.00     0.201 C 
ENDBRANCH   7   8
ENDBRANCH   2   7
TORSDOF 3
ENDMDL
