MODEL 1
REMARK VINA RESULT:      -4.1      0.000      0.000
REMARK  3 active torsions:
REMARK  status: ('A' for Active; 'I' for Inactive)
REMARK    1  A    between atoms: C4_4  and  O7_7 
REMARK    2  A    between atoms: C5_5  and  C6_6 
REMARK    3  A    between atoms: C6_6  and  O7_7 
ROOT
HETATM    1  C3  UNL     1     -32.506   8.687   5.147  1.00 20.00     0.040 C 
HETATM    2  C6  UNL     1     -33.252   7.971   4.026  1.00 20.00     0.122 C 
ENDROOT
BRANCH   2   3
HETATM    3  C5  UNL     1     -32.322   7.210   3.058  1.00 20.00     0.006 C 
HETATM    4  C1  UNL     1     -32.144   7.938   1.724  1.00 20.00     0.012 C 
HETATM    5  C2  UNL     1     -32.849   5.792   2.798  1.00 20.00     0.012 C 
ENDBRANCH   2   3
BRANCH   2   6
HETATM    6  O7  UNL     1     -34.150   7.036   4.626  1.00 20.00    -0.371 OA
BRANCH   6   7
HETATM    7  C4  UNL     1     -33.959   6.966   6.028  1.00 20.00     0.282 C 
HETATM    8 CL8  UNL     1     -34.353   5.325   6.572  1.00 20.00    -0.102 Cl
ENDBRANCH   6   7
ENDBRANCH   2   6
TORSDOF 3
ENDMDL
MODEL 2
REMARK VINA RESULT:      -4.1      1.384      2.204
REMARK  3 active torsions:
REMARK  status: ('A' for Active; 'I' for Inactive)
REMARK    1  A    between atoms: C4_4  and  O7_7 
REMARK    2  A    between atoms: C5_5  and  C6_6 
REMARK    3  A    between atoms: C6_6  and  O7_7 
ROOT
HETATM    1  C3  UNL     1     -34.108   6.957   6.502  1.00 20.00     0.040 C 
HETATM    2  C6  UNL     1     -34.008   7.538   5.095  1.00 20.00     0.122 C 
ENDROOT
BRANCH   2   3
HETATM    3  C5  UNL     1     -32.557   7.811   4.644  1.00 20.00     0.006 C 
HETATM    4  C1  UNL     1     -32.158   9.279   4.812  1.00 20.00     0.012 C 
HETATM    5  C2  UNL     1     -32.353   7.391   3.183  1.00 20.00     0.012 C 
ENDBRANCH   2   3
BRANCH   2   6
HETATM    6  O7  UNL     1     -34.598   6.602   4.192  1.00 20.00    -0.371 OA
BRANCH   6   7
HETATM    7  C4  UNL     1     -34.961   5.405   4.857  1.00 20.00     0.282 C 
HETATM    8 CL8  UNL     1     -33.912   4.098   4.279  1.00 20.00    -0.102 Cl
ENDBRANCH   6   7
ENDBRANCH   2   6
TORSDOF 3
ENDMDL
MODEL 3
REMARK VINA RESULT:      -4.0      2.652      3.690
REMARK  3 active torsions:
REMARK  status: ('A' for Active; 'I' for Inactive)
REMARK    1  A    between atoms: C4_4  and  O7_7 
REMARK    2  A    between atoms: C5_5  and  C6_6 
REMARK    3  A    between atoms: C6_6  and  O7_7 
ROOT
HETATM    1  C3  UNL     1     -33.665   8.449   5.160  1.00 20.00     0.040 C 
HETATM    2  C6  UNL     1     -33.289   6.992   4.912  1.00 20.00     0.122 C 
ENDROOT
BRANCH   2   3
HETATM    3  C5  UNL     1     -34.468   6.013   5.096  1.00 20.00     0.006 C 
HETATM    4  C1  UNL     1     -34.664   5.601   6.556  1.00 20.00     0.012 C 
HETATM    5  C2  UNL     1     -34.274   4.759   4.234  1.00 20.00     0.012 C 
ENDBRANCH   2   3
BRANCH   2   6
HETATM    6  O7  UNL     1     -32.813   6.886   3.569  1.00 20.00    -0.371 OA
BRANCH   6   7
HETATM    7  C4  UNL     1     -32.142   8.067   3.167  1.00 20.00     0.282 C 
HETATM    8 CL8  UNL     1     -32.133   8.136   1.395  1.00 20.00    -0.102 Cl
ENDBRANCH   6   7
ENDBRANCH   2   6
TORSDOF 3
ENDMDL
MODEL 4
REMARK VINA RESULT:      -4.0      0.974      2.255
REMARK  3 active torsions:
REMARK  status: ('A' for Active; 'I' for Inactive)
REMARK    1  A    between atoms: C4_4  and  O7_7 
REMARK    2  A    between atoms: C5_5  and  C6_6 
REMARK    3  A    between atoms: C6_6  and  O7_7 
ROOT
HETATM    1  C3  UNL     1     -33.040   5.402   2.681  1.00 20.00     0.040 C 
HETATM    2  C6  UNL     1     -33.006   6.341   3.883  1.00 20.00     0.122 C 
ENDROOT
BRANCH   2   3
HETATM    3  C5  UNL     1     -32.159   7.609   3.648  1.00 20.00     0.006 C 
HETATM    4  C1  UNL     1     -32.456   8.709   4.669  1.00 20.00     0.012 C 
HETATM    5  C2  UNL     1     -32.379   8.157   2.231  1.00 20.00     0.012 C 
ENDBRANCH   2   3
BRANCH   2   6
HETATM    6  O7  UNL     1     -34.349   6.735   4.168  1.00 20.00    -0.371 OA
BRANCH   6   7
HETATM    7  C4  UNL     1     -35.060   5.699   4.823  1.00 20.00     0.282 C 
HETATM    8 CL8  UNL     1     -34.544   5.644   6.518  1.00 20.00    -0.102 Cl
ENDBRANCH   6   7
ENDBRANCH   2   6
TORSDOF 3
ENDMDL
MODEL 5
REMARK VINA RESULT:      -3.9      2.544      3.352
REMARK  3 active torsions:
REMARK  status: ('A' for Active; 'I' for Inactive)
REMARK    1  A    between atoms: C4_4  and  O7_7 
REMARK    2  A    between atoms: C5_5  and  C6_6 
REMARK    3  A    between atoms: C6_6  and  O7_7 
ROOT
HETATM    1  C3  UNL     1     -34.028   7.002   6.403  1.00 20.00     0.040 C 
HETATM    2  C6  UNL     1     -33.454   6.985   4.990  1.00 20.00     0.122 C 
ENDROOT
BRANCH   2   3
HETATM    3  C5  UNL     1     -34.094   5.915   4.079  1.00 20.00     0.006 C 
HETATM    4  C1  UNL     1     -34.601   4.704   4.865  1.00 20.00     0.012 C 
HETATM    5  C2  UNL     1     -33.100   5.447   3.008  1.00 20.00     0.012 C 
ENDBRANCH   2   3
BRANCH   2   6
HETATM    6  O7  UNL     1     -33.680   8.271   4.410  1.00 20.00    -0.371 OA
BRANCH   6   7
HETATM    7  C4  UNL     1     -32.474   8.832   3.921  1.00 20.00     0.282 C 
HETATM    8 CL8  UNL     1     -32.672   9.174   2.192  1.00 20.00    -0.102 Cl
ENDBRANCH   6   7
ENDBRANCH   2   6
TORSDOF 3
ENDMDL
MODEL 6
REMARK VINA RESULT:      -3.9      1.086      2.231
REMARK  3 active torsions:
REMARK  status: ('A' for Active; 'I' for Inactive)
REMARK    1  A    between atoms: C4_4  and  O7_7 
REMARK    2  A    between atoms: C5_5  and  C6_6 
REMARK    3  A    between atoms: C6_6  and  O7_7 
ROOT
HETATM    1  C3  UNL     1     -32.857   5.260   2.647  1.00 20.00     0.040 C 
HETATM    2  C6  UNL     1     -33.223   6.183   3.804  1.00 20.00     0.122 C 
ENDROOT
BRANCH   2   3
HETATM    3  C5  UNL     1     -32.991   7.677   3.496  1.00 20.00     0.006 C 
HETATM    4  C1  UNL     1     -32.139   7.891   2.242  1.00 20.00     0.012 C 
HETATM    5  C2  UNL     1     -32.329   8.383   4.687  1.00 20.00     0.012 C 
ENDBRANCH   2   3
BRANCH   2   6
HETATM    6  O7  UNL     1     -34.608   5.988   4.098  1.00 20.00    -0.371 OA
BRANCH   6   7
HETATM    7  C4  UNL     1     -34.780   5.213   5.272  1.00 20.00     0.282 C 
HETATM    8 CL8  UNL     1     -34.477   6.246   6.680  1.00 20.00    -0.102 Cl
ENDBRANCH   6   7
ENDBRANCH   2   6
TORSDOF 3
ENDMDL
MODEL 7
REMARK VINA RESULT:      -3.8      2.493      3.809
REMARK  3 active torsions:
REMARK  status: ('A' for Active; 'I' for Inactive)
REMARK    1  A    between atoms: C4_4  and  O7_7 
REMARK    2  A    between atoms: C5_5  and  C6_6 
REMARK    3  A    between atoms: C6_6  and  O7_7 
ROOT
HETATM    1  C3  UNL     1     -33.294   5.245   3.272  1.00 20.00     0.040 C 
HETATM    2  C6  UNL     1     -33.732   6.568   3.891  1.00 20.00     0.122 C 
ENDROOT
BRANCH   2   3
HETATM    3  C5  UNL     1     -34.495   6.401   5.222  1.00 20.00     0.006 C 
HETATM    4  C1  UNL     1     -33.850   7.182   6.369  1.00 20.00     0.012 C 
HETATM    5  C2  UNL     1     -34.599   4.920   5.609  1.00 20.00     0.012 C 
ENDBRANCH   2   3
BRANCH   2   6
HETATM    6  O7  UNL     1     -32.559   7.347   4.133  1.00 20.00    -0.371 OA
BRANCH   6   7
HETATM    7  C4  UNL     1     -32.540   8.510   3.324  1.00 20.00     0.282 C 
HETATM    8 CL8  UNL     1     -32.116   8.040   1.667  1.00 20.00    -0.102 Cl
ENDBRANCH   6   7
ENDBRANCH   2   6
TORSDOF 3
ENDMDL
MODEL 8
REMARK VINA RESULT:      -3.7      1.567      2.318
REMARK  3 active torsions:
REMARK  status: ('A' for Active; 'I' for Inactive)
REMARK    1  A    between atoms: C4_4  and  O7_7 
REMARK    2  A    between atoms: C5_5  and  C6_6 
REMARK    3  A    between atoms: C6_6  and  O7_7 
ROOT
HETATM    1  C3  UNL     1     -33.628   7.305   6.318  1.00 20.00     0.040 C 
HETATM    2  C6  UNL     1     -33.857   7.200   4.814  1.00 20.00     0.122 C 
ENDROOT
BRANCH   2   3
HETATM    3  C5  UNL     1     -33.009   8.194   3.992  1.00 20.00     0.006 C 
HETATM    4  C1  UNL     1     -32.128   7.495   2.955  1.00 20.00     0.012 C 
HETATM    5  C2  UNL     1     -32.130   9.051   4.913  1.00 20.00     0.012 C 
ENDBRANCH   2   3
BRANCH   2   6
HETATM    6  O7  UNL     1     -33.519   5.871   4.412  1.00 20.00    -0.371 OA
BRANCH   6   7
HETATM    7  C4  UNL     1     -34.613   4.988   4.585  1.00 20.00     0.282 C 
HETATM    8 CL8  UNL     1     -36.108   5.859   4.199  1.00 20.00    -0.102 Cl
ENDBRANCH   6   7
ENDBRANCH   2   6
TORSDOF 3
ENDMDL
MODEL 9
REMARK VINA RESULT:      -3.6      2.268      3.599
REMARK  3 active torsions:
REMARK  status: ('A' for Active; 'I' for Inactive)
REMARK    1  A    between atoms: C4_4  and  O7_7 
REMARK    2  A    between atoms: C5_5  and  C6_6 
REMARK    3  A    between atoms: C6_6  and  O7_7 
ROOT
HETATM    1  C3  UNL     1     -33.244   5.285   3.002  1.00 20.00     0.040 C 
HETATM    2  C6  UNL     1     -33.668   6.539   3.761  1.00 20.00     0.122 C 
ENDROOT
BRANCH   2   3
HETATM    3  C5  UNL     1     -34.521   6.241   5.012  1.00 20.00     0.006 C 
HETATM    4  C1  UNL     1     -33.962   6.902   6.273  1.00 20.00     0.012 C 
HETATM    5  C2  UNL     1     -34.644   4.729   5.240  1.00 20.00     0.012 C 
ENDBRANCH   2   3
BRANCH   2   6
HETATM    6  O7  UNL     1     -32.483   7.225   4.169  1.00 20.00    -0.371 OA
BRANCH   6   7
HETATM    7  C4  UNL     1     -32.477   8.562   3.701  1.00 20.00     0.282 C 
HETATM    8 CL8  UNL     1     -31.988   9.625   5.034  1.00 20.00    -0.102 Cl
ENDBRANCH   6   7
ENDBRANCH   2   6
TORSDOF 3
ENDMDL
