MODEL 1
REMARK VINA RESULT:      -4.5      0.000      0.000
REMARK  3 active torsions:
REMARK  status: ('A' for Active; 'I' for Inactive)
REMARK    1  A    between atoms: C3_3  and  C6_6 
REMARK    2  A    between atoms: C4_4  and  O8_8 
REMARK    3  A    between atoms: C6_6  and  C7_7 
ROOT
HETATM    1  C1  UNL     1     -33.652   7.038   6.338  1.00 20.00     0.036 C 
HETATM    2  C2  UNL     1     -34.439   6.476   4.436  1.00 20.00     0.036 C 
HETATM    3  C3  UNL     1     -33.787   7.770   4.982  1.00 20.00    -0.010 C 
HETATM    4  C4  UNL     1     -34.821   6.128   5.895  1.00 20.00     0.118 C 
ENDROOT
BRANCH   3   5
HETATM    5  C6  UNL     1     -32.499   8.212   4.318  1.00 20.00     0.004 C 
BRANCH   5   6
HETATM    6  C7  UNL     1     -32.138   7.318   3.131  1.00 20.00    -0.004 C 
HETATM    7  C5  UNL     1     -32.213   8.075   1.815  1.00 20.00     0.005 C 
ENDBRANCH   5   6
ENDBRANCH   3   5
BRANCH   4   8
HETATM    8  O8  UNL     1     -34.713   4.744   6.263  1.00 20.00    -0.396 OA
HETATM    9  H22 UNL     1     -34.049   4.707   6.964  1.00 20.00     0.210 HD
ENDBRANCH   4   8
TORSDOF 3
ENDMDL
MODEL 2
REMARK VINA RESULT:      -4.3      1.225      1.448
REMARK  3 active torsions:
REMARK  status: ('A' for Active; 'I' for Inactive)
REMARK    1  A    between atoms: C3_3  and  C6_6 
REMARK    2  A    between atoms: C4_4  and  O8_8 
REMARK    3  A    between atoms: C6_6  and  C7_7 
ROOT
HETATM    1  C1  UNL     1     -33.702   5.830   6.249  1.00 20.00     0.036 C 
HETATM    2  C2  UNL     1     -34.865   6.310   4.526  1.00 20.00     0.036 C 
HETATM    3  C3  UNL     1     -34.442   7.107   5.784  1.00 20.00    -0.010 C 
HETATM    4  C4  UNL     1     -34.667   5.018   5.354  1.00 20.00     0.118 C 
ENDROOT
BRANCH   3   5
HETATM    5  C6  UNL     1     -33.590   8.339   5.552  1.00 20.00     0.004 C 
BRANCH   5   6
HETATM    6  C7  UNL     1     -32.426   8.050   4.603  1.00 20.00    -0.004 C 
HETATM    7  C5  UNL     1     -32.573   8.802   3.290  1.00 20.00     0.005 C 
ENDBRANCH   5   6
ENDBRANCH   3   5
BRANCH   4   8
HETATM    8  O8  UNL     1     -34.088   3.903   4.657  1.00 20.00    -0.396 OA
HETATM    9  H22 UNL     1     -33.159   3.880   4.920  1.00 20.00     0.210 HD
ENDBRANCH   4   8
TORSDOF 3
ENDMDL
MODEL 3
REMARK VINA RESULT:      -4.3      2.461      4.090
REMARK  3 active torsions:
REMARK  status: ('A' for Active; 'I' for Inactive)
REMARK    1  A    between atoms: C3_3  and  C6_6 
REMARK    2  A    between atoms: C4_4  and  O8_8 
REMARK    3  A    between atoms: C6_6  and  C7_7 
ROOT
HETATM    1  C1  UNL     1     -32.574   8.893   3.566  1.00 20.00     0.036 C 
HETATM    2  C2  UNL     1     -32.718   6.780   3.305  1.00 20.00     0.036 C 
HETATM    3  C3  UNL     1     -32.780   7.709   4.541  1.00 20.00    -0.010 C 
HETATM    4  C4  UNL     1     -31.917   7.893   2.587  1.00 20.00     0.118 C 
ENDROOT
BRANCH   3   5
HETATM    5  C6  UNL     1     -34.072   7.699   5.333  1.00 20.00     0.004 C 
BRANCH   5   6
HETATM    6  C7  UNL     1     -34.039   6.660   6.455  1.00 20.00    -0.004 C 
HETATM    7  C5  UNL     1     -34.722   5.366   6.043  1.00 20.00     0.005 C 
ENDBRANCH   5   6
ENDBRANCH   3   5
BRANCH   4   8
HETATM    8  O8  UNL     1     -32.215   8.090   1.195  1.00 20.00    -0.396 OA
HETATM    9  H22 UNL     1     -31.622   8.790   0.894  1.00 20.00     0.210 HD
ENDBRANCH   4   8
TORSDOF 3
ENDMDL
MODEL 4
REMARK VINA RESULT:      -4.1      2.272      3.866
REMARK  3 active torsions:
REMARK  status: ('A' for Active; 'I' for Inactive)
REMARK    1  A    between atoms: C3_3  and  C6_6 
REMARK    2  A    between atoms: C4_4  and  O8_8 
REMARK    3  A    between atoms: C6_6  and  C7_7 
ROOT
HETATM    1  C1  UNL     1     -32.160   7.648   3.710  1.00 20.00     0.036 C 
HETATM    2  C2  UNL     1     -33.676   8.080   5.148  1.00 20.00     0.036 C 
HETATM    3  C3  UNL     1     -33.643   7.230   3.855  1.00 20.00    -0.010 C 
HETATM    4  C4  UNL     1     -32.488   8.888   4.573  1.00 20.00     0.118 C 
ENDROOT
BRANCH   3   5
HETATM    5  C6  UNL     1     -33.919   5.749   4.010  1.00 20.00     0.004 C 
BRANCH   5   6
HETATM    6  C7  UNL     1     -35.057   5.486   4.998  1.00 20.00    -0.004 C 
HETATM    7  C5  UNL     1     -34.530   5.137   6.380  1.00 20.00     0.005 C 
ENDBRANCH   5   6
ENDBRANCH   3   5
BRANCH   4   8
HETATM    8  O8  UNL     1     -31.477   9.283   5.515  1.00 20.00    -0.396 OA
HETATM    9  H22 UNL     1     -31.634   8.756   6.309  1.00 20.00     0.210 HD
ENDBRANCH   4   8
TORSDOF 3
ENDMDL
MODEL 5
REMARK VINA RESULT:      -3.8     12.282     12.886
REMARK  3 active torsions:
REMARK  status: ('A' for Active; 'I' for Inactive)
REMARK    1  A    between atoms: C3_3  and  C6_6 
REMARK    2  A    between atoms: C4_4  and  O8_8 
REMARK    3  A    between atoms: C6_6  and  C7_7 
ROOT
HETATM    1  C1  UNL     1     -32.837  14.884  -4.244  1.00 20.00     0.036 C 
HETATM    2  C2  UNL     1     -34.344  16.257  -4.874  1.00 20.00     0.036 C 
HETATM    3  C3  UNL     1     -33.736  15.898  -3.497  1.00 20.00    -0.010 C 
HETATM    4  C4  UNL     1     -33.904  14.856  -5.364  1.00 20.00     0.118 C 
ENDROOT
BRANCH   3   5
HETATM    5  C6  UNL     1     -33.029  17.015  -2.757  1.00 20.00     0.004 C 
BRANCH   5   6
HETATM    6  C7  UNL     1     -33.673  17.288  -1.397  1.00 20.00    -0.004 C 
HETATM    7  C5  UNL     1     -32.827  18.229  -0.554  1.00 20.00     0.005 C 
ENDBRANCH   5   6
ENDBRANCH   3   5
BRANCH   4   8
HETATM    8  O8  UNL     1     -33.401  14.786  -6.708  1.00 20.00    -0.396 OA
HETATM    9  H22 UNL     1     -32.469  14.542  -6.630  1.00 20.00     0.210 HD
ENDBRANCH   4   8
TORSDOF 3
ENDMDL
MODEL 6
REMARK VINA RESULT:      -3.8      2.346      3.144
REMARK  3 active torsions:
REMARK  status: ('A' for Active; 'I' for Inactive)
REMARK    1  A    between atoms: C3_3  and  C6_6 
REMARK    2  A    between atoms: C4_4  and  O8_8 
REMARK    3  A    between atoms: C6_6  and  C7_7 
ROOT
HETATM    1  C1  UNL     1     -34.073   7.874   4.325  1.00 20.00     0.036 C 
HETATM    2  C2  UNL     1     -33.432   6.847   6.082  1.00 20.00     0.036 C 
HETATM    3  C3  UNL     1     -34.722   6.797   5.228  1.00 20.00    -0.010 C 
HETATM    4  C4  UNL     1     -33.200   8.276   5.536  1.00 20.00     0.118 C 
ENDROOT
BRANCH   3   5
HETATM    5  C6  UNL     1     -35.051   5.471   4.573  1.00 20.00     0.004 C 
BRANCH   5   6
HETATM    6  C7  UNL     1     -33.789   4.674   4.244  1.00 20.00    -0.004 C 
HETATM    7  C5  UNL     1     -33.258   5.007   2.860  1.00 20.00     0.005 C 
ENDBRANCH   5   6
ENDBRANCH   3   5
BRANCH   4   8
HETATM    8  O8  UNL     1     -31.838   8.626   5.239  1.00 20.00    -0.396 OA
HETATM    9  H22 UNL     1     -31.312   7.842   5.444  1.00 20.00     0.210 HD
ENDBRANCH   4   8
TORSDOF 3
ENDMDL
MODEL 7
REMARK VINA RESULT:      -3.8      1.134      1.680
REMARK  3 active torsions:
REMARK  status: ('A' for Active; 'I' for Inactive)
REMARK    1  A    between atoms: C3_3  and  C6_6 
REMARK    2  A    between atoms: C4_4  and  O8_8 
REMARK    3  A    between atoms: C6_6  and  C7_7 
ROOT
HETATM    1  C1  UNL     1     -33.433   6.173   3.633  1.00 20.00     0.036 C 
HETATM    2  C2  UNL     1     -34.024   7.609   5.096  1.00 20.00     0.036 C 
HETATM    3  C3  UNL     1     -32.775   7.456   4.196  1.00 20.00    -0.010 C 
HETATM    4  C4  UNL     1     -34.241   6.085   4.948  1.00 20.00     0.118 C 
ENDROOT
BRANCH   3   5
HETATM    5  C6  UNL     1     -32.510   8.573   3.207  1.00 20.00     0.004 C 
BRANCH   5   6
HETATM    6  C7  UNL     1     -32.232   8.031   1.804  1.00 20.00    -0.004 C 
HETATM    7  C5  UNL     1     -32.584   9.048   0.730  1.00 20.00     0.005 C 
ENDBRANCH   5   6
ENDBRANCH   3   5
BRANCH   4   8
HETATM    8  O8  UNL     1     -35.605   5.650   4.818  1.00 20.00    -0.396 OA
HETATM    9  H22 UNL     1     -35.627   4.744   5.153  1.00 20.00     0.210 HD
ENDBRANCH   4   8
TORSDOF 3
ENDMDL
MODEL 8
REMARK VINA RESULT:      -3.8      1.081      1.676
REMARK  3 active torsions:
REMARK  status: ('A' for Active; 'I' for Inactive)
REMARK    1  A    between atoms: C3_3  and  C6_6 
REMARK    2  A    between atoms: C4_4  and  O8_8 
REMARK    3  A    between atoms: C6_6  and  C7_7 
ROOT
HETATM    1  C1  UNL     1     -34.340   6.633   4.681  1.00 20.00     0.036 C 
HETATM    2  C2  UNL     1     -34.115   4.525   4.434  1.00 20.00     0.036 C 
HETATM    3  C3  UNL     1     -33.969   5.734   3.478  1.00 20.00    -0.010 C 
HETATM    4  C4  UNL     1     -35.045   5.405   5.303  1.00 20.00     0.118 C 
ENDROOT
BRANCH   3   5
HETATM    5  C6  UNL     1     -32.601   5.951   2.863  1.00 20.00     0.004 C 
BRANCH   5   6
HETATM    6  C7  UNL     1     -32.150   7.407   2.990  1.00 20.00    -0.004 C 
HETATM    7  C5  UNL     1     -32.168   8.119   1.648  1.00 20.00     0.005 C 
ENDBRANCH   5   6
ENDBRANCH   3   5
BRANCH   4   8
HETATM    8  O8  UNL     1     -34.908   5.257   6.726  1.00 20.00    -0.396 OA
HETATM    9  H22 UNL     1     -35.155   6.110   7.106  1.00 20.00     0.210 HD
ENDBRANCH   4   8
TORSDOF 3
ENDMDL
MODEL 9
REMARK VINA RESULT:      -3.7     12.032     12.811
REMARK  3 active torsions:
REMARK  status: ('A' for Active; 'I' for Inactive)
REMARK    1  A    between atoms: C3_3  and  C6_6 
REMARK    2  A    between atoms: C4_4  and  O8_8 
REMARK    3  A    between atoms: C6_6  and  C7_7 
ROOT
HETATM    1  C1  UNL     1     -34.475  16.372  -4.844  1.00 20.00     0.036 C 
HETATM    2  C2  UNL     1     -33.441  14.597  -4.271  1.00 20.00     0.036 C 
HETATM    3  C3  UNL     1     -33.339  16.078  -3.835  1.00 20.00    -0.010 C 
HETATM    4  C4  UNL     1     -34.049  15.094  -5.603  1.00 20.00     0.118 C 
ENDROOT
BRANCH   3   5
HETATM    5  C6  UNL     1     -33.630  16.379  -2.379  1.00 20.00     0.004 C 
BRANCH   5   6
HETATM    6  C7  UNL     1     -32.901  17.638  -1.906  1.00 20.00    -0.004 C 
HETATM    7  C5  UNL     1     -33.350  18.057  -0.515  1.00 20.00     0.005 C 
ENDBRANCH   5   6
ENDBRANCH   3   5
BRANCH   4   8
HETATM    8  O8  UNL     1     -35.117  14.301  -6.146  1.00 20.00    -0.396 OA
HETATM    9  H22 UNL     1     -34.697  13.649  -6.722  1.00 20.00     0.210 HD
ENDBRANCH   4   8
TORSDOF 3
ENDMDL
