MODEL 1
REMARK VINA RESULT:      -3.7      0.000      0.000
REMARK  4 active torsions:
REMARK  status: ('A' for Active; 'I' for Inactive)
REMARK    1  A    between atoms: C4_4  and  C7_7 
REMARK    2  A    between atoms: C4_4  and  C8_8 
REMARK    3  A    between atoms: C7_7  and  C9_9 
REMARK    4  A    between atoms: C8_8  and  C10_10 
ROOT
HETATM    1  C1  UNL     1     -32.425  18.458   0.403  1.00 20.00     0.128 C 
HETATM    2  C2  UNL     1     -33.916  18.334   0.040  1.00 20.00     0.088 C 
HETATM    3  C3  UNL     1     -32.020  18.626  -1.073  1.00 20.00     0.088 C 
HETATM    4  C4  UNL     1     -33.463  18.153  -1.445  1.00 20.00    -0.027 C 
HETATM    5  O11 UNL     1     -31.808  18.427   1.446  1.00 20.00    -0.298 OA
ENDROOT
BRANCH   4   6
HETATM    6  C7  UNL     1     -33.515  16.699  -1.915  1.00 20.00     0.010 C 
BRANCH   6   7
HETATM    7  C9  UNL     1     -33.212  16.590  -3.404  1.00 20.00    -0.004 C 
HETATM    8  C5  UNL     1     -33.649  15.243  -3.957  1.00 20.00     0.005 C 
ENDBRANCH   6   7
ENDBRANCH   4   6
BRANCH   4   9
HETATM    9  C8  UNL     1     -34.179  19.083  -2.420  1.00 20.00     0.010 C 
BRANCH   9  10
HETATM   10  C10 UNL     1     -35.688  18.863  -2.389  1.00 20.00    -0.004 C 
HETATM   11  C6  UNL     1     -36.235  18.587  -3.780  1.00 20.00     0.005 C 
ENDBRANCH   9  10
ENDBRANCH   4   9
TORSDOF 4
ENDMDL
MODEL 2
REMARK VINA RESULT:      -3.7      3.788      5.988
REMARK  4 active torsions:
REMARK  status: ('A' for Active; 'I' for Inactive)
REMARK    1  A    between atoms: C4_4  and  C7_7 
REMARK    2  A    between atoms: C4_4  and  C8_8 
REMARK    3  A    between atoms: C7_7  and  C9_9 
REMARK    4  A    between atoms: C8_8  and  C10_10 
ROOT
HETATM    1  C1  UNL     1     -35.599  14.764  -6.797  1.00 20.00     0.128 C 
HETATM    2  C2  UNL     1     -36.063  15.091  -5.366  1.00 20.00     0.088 C 
HETATM    3  C3  UNL     1     -34.154  15.197  -6.490  1.00 20.00     0.088 C 
HETATM    4  C4  UNL     1     -34.706  15.843  -5.177  1.00 20.00    -0.027 C 
HETATM    5  O11 UNL     1     -36.158  14.339  -7.785  1.00 20.00    -0.298 OA
ENDROOT
BRANCH   4   6
HETATM    6  C7  UNL     1     -34.845  17.363  -5.270  1.00 20.00     0.010 C 
BRANCH   6   7
HETATM    7  C9  UNL     1     -36.131  17.839  -4.607  1.00 20.00    -0.004 C 
HETATM    8  C5  UNL     1     -35.892  19.091  -3.778  1.00 20.00     0.005 C 
ENDBRANCH   6   7
ENDBRANCH   4   6
BRANCH   4   9
HETATM    9  C8  UNL     1     -33.944  15.425  -3.923  1.00 20.00     0.010 C 
BRANCH   9  10
HETATM   10  C10 UNL     1     -33.126  16.583  -3.360  1.00 20.00    -0.004 C 
HETATM   11  C6  UNL     1     -33.494  16.868  -1.913  1.00 20.00     0.005 C 
ENDBRANCH   9  10
ENDBRANCH   4   9
TORSDOF 4
ENDMDL
MODEL 3
REMARK VINA RESULT:      -3.6      0.385      2.804
REMARK  4 active torsions:
REMARK  status: ('A' for Active; 'I' for Inactive)
REMARK    1  A    between atoms: C4_4  and  C7_7 
REMARK    2  A    between atoms: C4_4  and  C8_8 
REMARK    3  A    between atoms: C7_7  and  C9_9 
REMARK    4  A    between atoms: C8_8  and  C10_10 
ROOT
HETATM    1  C1  UNL     1     -32.342  18.690   0.451  1.00 20.00     0.128 C 
HETATM    2  C2  UNL     1     -31.869  18.301  -0.961  1.00 20.00     0.088 C 
HETATM    3  C3  UNL     1     -33.739  18.089   0.213  1.00 20.00     0.088 C 
HETATM    4  C4  UNL     1     -33.368  18.019  -1.305  1.00 20.00    -0.027 C 
HETATM    5  O11 UNL     1     -31.819  19.259   1.386  1.00 20.00    -0.298 OA
ENDROOT
BRANCH   4   6
HETATM    6  C7  UNL     1     -34.013  19.133  -2.131  1.00 20.00     0.010 C 
BRANCH   6   7
HETATM    7  C9  UNL     1     -35.515  18.920  -2.264  1.00 20.00    -0.004 C 
HETATM    8  C5  UNL     1     -35.974  19.119  -3.699  1.00 20.00     0.005 C 
ENDBRANCH   6   7
ENDBRANCH   4   6
BRANCH   4   9
HETATM    9  C8  UNL     1     -33.604  16.648  -1.931  1.00 20.00     0.010 C 
BRANCH   9  10
HETATM   10  C10 UNL     1     -33.190  16.630  -3.398  1.00 20.00    -0.004 C 
HETATM   11  C6  UNL     1     -33.539  15.304  -4.055  1.00 20.00     0.005 C 
ENDBRANCH   9  10
ENDBRANCH   4   9
TORSDOF 4
ENDMDL
MODEL 4
REMARK VINA RESULT:      -3.3      3.809      5.546
REMARK  4 active torsions:
REMARK  status: ('A' for Active; 'I' for Inactive)
REMARK    1  A    between atoms: C4_4  and  C7_7 
REMARK    2  A    between atoms: C4_4  and  C8_8 
REMARK    3  A    between atoms: C7_7  and  C9_9 
REMARK    4  A    between atoms: C8_8  and  C10_10 
ROOT
HETATM    1  C1  UNL     1     -35.744  15.130  -6.826  1.00 20.00     0.128 C 
HETATM    2  C2  UNL     1     -34.616  16.176  -6.782  1.00 20.00     0.088 C 
HETATM    3  C3  UNL     1     -36.360  15.652  -5.516  1.00 20.00     0.088 C 
HETATM    4  C4  UNL     1     -35.037  16.460  -5.303  1.00 20.00    -0.027 C 
HETATM    5  O11 UNL     1     -36.030  14.234  -7.591  1.00 20.00    -0.298 OA
ENDROOT
BRANCH   4   6
HETATM    6  C7  UNL     1     -34.101  15.817  -4.280  1.00 20.00     0.010 C 
BRANCH   6   7
HETATM    7  C9  UNL     1     -33.276  16.870  -3.550  1.00 20.00    -0.004 C 
HETATM    8  C5  UNL     1     -33.469  16.774  -2.045  1.00 20.00     0.005 C 
ENDBRANCH   6   7
ENDBRANCH   4   6
BRANCH   4   9
HETATM    9  C8  UNL     1     -35.265  17.939  -5.005  1.00 20.00     0.010 C 
BRANCH   9  10
HETATM   10  C10 UNL     1     -36.578  18.158  -4.261  1.00 20.00    -0.004 C 
HETATM   11  C6  UNL     1     -36.351  18.874  -2.938  1.00 20.00     0.005 C 
ENDBRANCH   9  10
ENDBRANCH   4   9
TORSDOF 4
ENDMDL
MODEL 5
REMARK VINA RESULT:      -3.3     11.222     12.134
REMARK  4 active torsions:
REMARK  status: ('A' for Active; 'I' for Inactive)
REMARK    1  A    between atoms: C4_4  and  C7_7 
REMARK    2  A    between atoms: C4_4  and  C8_8 
REMARK    3  A    between atoms: C7_7  and  C9_9 
REMARK    4  A    between atoms: C8_8  and  C10_10 
ROOT
HETATM    1  C1  UNL     1     -41.362  13.950   9.081  1.00 20.00     0.128 C 
HETATM    2  C2  UNL     1     -42.542  13.726   8.118  1.00 20.00     0.088 C 
HETATM    3  C3  UNL     1     -40.455  14.457   7.946  1.00 20.00     0.088 C 
HETATM    4  C4  UNL     1     -41.521  13.902   6.946  1.00 20.00    -0.027 C 
HETATM    5  O11 UNL     1     -41.205  13.783  10.272  1.00 20.00    -0.298 OA
ENDROOT
BRANCH   4   6
HETATM    6  C7  UNL     1     -41.110  12.576   6.306  1.00 20.00     0.010 C 
BRANCH   6   7
HETATM    7  C9  UNL     1     -39.649  12.604   5.872  1.00 20.00    -0.004 C 
HETATM    8  C5  UNL     1     -39.445  11.830   4.580  1.00 20.00     0.005 C 
ENDBRANCH   6   7
ENDBRANCH   4   6
BRANCH   4   9
HETATM    9  C8  UNL     1     -41.964  14.917   5.897  1.00 20.00     0.010 C 
BRANCH   9  10
HETATM   10  C10 UNL     1     -42.609  14.230   4.698  1.00 20.00    -0.004 C 
HETATM   11  C6  UNL     1     -42.317  14.979   3.408  1.00 20.00     0.005 C 
ENDBRANCH   9  10
ENDBRANCH   4   9
TORSDOF 4
ENDMDL
MODEL 6
REMARK VINA RESULT:      -3.3     11.378     12.785
REMARK  4 active torsions:
REMARK  status: ('A' for Active; 'I' for Inactive)
REMARK    1  A    between atoms: C4_4  and  C7_7 
REMARK    2  A    between atoms: C4_4  and  C8_8 
REMARK    3  A    between atoms: C7_7  and  C9_9 
REMARK    4  A    between atoms: C8_8  and  C10_10 
ROOT
HETATM    1  C1  UNL     1     -39.730  12.133   4.896  1.00 20.00     0.128 C 
HETATM    2  C2  UNL     1     -39.657  12.278   6.426  1.00 20.00     0.088 C 
HETATM    3  C3  UNL     1     -40.808  13.226   4.784  1.00 20.00     0.088 C 
HETATM    4  C4  UNL     1     -40.974  13.115   6.335  1.00 20.00    -0.027 C 
HETATM    5  O11 UNL     1     -39.164  11.424   4.090  1.00 20.00    -0.298 OA
ENDROOT
BRANCH   4   6
HETATM    6  C7  UNL     1     -42.216  12.324   6.749  1.00 20.00     0.010 C 
BRANCH   6   7
HETATM    7  C9  UNL     1     -43.187  13.197   7.535  1.00 20.00    -0.004 C 
HETATM    8  C5  UNL     1     -43.417  12.644   8.932  1.00 20.00     0.005 C 
ENDBRANCH   6   7
ENDBRANCH   4   6
BRANCH   4   9
HETATM    9  C8  UNL     1     -40.898  14.457   7.056  1.00 20.00     0.010 C 
BRANCH   9  10
HETATM   10  C10 UNL     1     -40.150  14.333   8.380  1.00 20.00    -0.004 C 
HETATM   11  C6  UNL     1     -40.488  15.483   9.316  1.00 20.00     0.005 C 
ENDBRANCH   9  10
ENDBRANCH   4   9
TORSDOF 4
ENDMDL
MODEL 7
REMARK VINA RESULT:      -3.3     11.223     12.416
REMARK  4 active torsions:
REMARK  status: ('A' for Active; 'I' for Inactive)
REMARK    1  A    between atoms: C4_4  and  C7_7 
REMARK    2  A    between atoms: C4_4  and  C8_8 
REMARK    3  A    between atoms: C7_7  and  C9_9 
REMARK    4  A    between atoms: C8_8  and  C10_10 
ROOT
HETATM    1  C1  UNL     1     -41.657  14.268   8.958  1.00 20.00     0.128 C 
HETATM    2  C2  UNL     1     -40.460  14.182   7.993  1.00 20.00     0.088 C 
HETATM    3  C3  UNL     1     -42.559  13.463   8.005  1.00 20.00     0.088 C 
HETATM    4  C4  UNL     1     -41.468  13.686   6.906  1.00 20.00    -0.027 C 
HETATM    5  O11 UNL     1     -41.826  14.779  10.045  1.00 20.00    -0.298 OA
ENDROOT
BRANCH   4   6
HETATM    6  C7  UNL     1     -41.845  14.772   5.898  1.00 20.00     0.010 C 
BRANCH   6   7
HETATM    7  C9  UNL     1     -42.546  14.176   4.683  1.00 20.00    -0.004 C 
HETATM    8  C5  UNL     1     -42.293  15.010   3.438  1.00 20.00     0.005 C 
ENDBRANCH   6   7
ENDBRANCH   4   6
BRANCH   4   9
HETATM    9  C8  UNL     1     -41.031  12.401   6.209  1.00 20.00     0.010 C 
BRANCH   9  10
HETATM   10  C10 UNL     1     -39.567  12.470   5.788  1.00 20.00    -0.004 C 
HETATM   11  C6  UNL     1     -39.339  11.763   4.461  1.00 20.00     0.005 C 
ENDBRANCH   9  10
ENDBRANCH   4   9
TORSDOF 4
ENDMDL
MODEL 8
REMARK VINA RESULT:      -3.3      3.664      5.469
REMARK  4 active torsions:
REMARK  status: ('A' for Active; 'I' for Inactive)
REMARK    1  A    between atoms: C4_4  and  C7_7 
REMARK    2  A    between atoms: C4_4  and  C8_8 
REMARK    3  A    between atoms: C7_7  and  C9_9 
REMARK    4  A    between atoms: C8_8  and  C10_10 
ROOT
HETATM    1  C1  UNL     1     -35.524  14.064  -4.877  1.00 20.00     0.128 C 
HETATM    2  C2  UNL     1     -34.148  14.701  -5.138  1.00 20.00     0.088 C 
HETATM    3  C3  UNL     1     -36.261  15.240  -5.543  1.00 20.00     0.088 C 
HETATM    4  C4  UNL     1     -34.908  16.023  -5.485  1.00 20.00    -0.027 C 
HETATM    5  O11 UNL     1     -35.888  13.037  -4.345  1.00 20.00    -0.298 OA
ENDROOT
BRANCH   4   6
HETATM    6  C7  UNL     1     -34.862  17.055  -4.357  1.00 20.00     0.010 C 
BRANCH   6   7
HETATM    7  C9  UNL     1     -33.460  17.166  -3.770  1.00 20.00    -0.004 C 
HETATM    8  C5  UNL     1     -33.452  16.809  -2.293  1.00 20.00     0.005 C 
ENDBRANCH   6   7
ENDBRANCH   4   6
BRANCH   4   9
HETATM    9  C8  UNL     1     -34.496  16.633  -6.821  1.00 20.00     0.010 C 
BRANCH   9  10
HETATM   10  C10 UNL     1     -34.924  18.094  -6.918  1.00 20.00    -0.004 C 
HETATM   11  C6  UNL     1     -33.808  18.961  -7.479  1.00 20.00     0.005 C 
ENDBRANCH   9  10
ENDBRANCH   4   9
TORSDOF 4
ENDMDL
MODEL 9
REMARK VINA RESULT:      -3.1      1.049      2.920
REMARK  4 active torsions:
REMARK  status: ('A' for Active; 'I' for Inactive)
REMARK    1  A    between atoms: C4_4  and  C7_7 
REMARK    2  A    between atoms: C4_4  and  C8_8 
REMARK    3  A    between atoms: C7_7  and  C9_9 
REMARK    4  A    between atoms: C8_8  and  C10_10 
ROOT
HETATM    1  C1  UNL     1     -32.887  18.514  -0.732  1.00 20.00     0.128 C 
HETATM    2  C2  UNL     1     -32.674  18.983  -2.183  1.00 20.00     0.088 C 
HETATM    3  C3  UNL     1     -33.636  17.249  -1.188  1.00 20.00     0.088 C 
HETATM    4  C4  UNL     1     -33.721  17.902  -2.607  1.00 20.00    -0.027 C 
HETATM    5  O11 UNL     1     -32.589  18.970   0.351  1.00 20.00    -0.298 OA
ENDROOT
BRANCH   4   6
HETATM    6  C7  UNL     1     -35.098  18.490  -2.915  1.00 20.00     0.010 C 
BRANCH   6   7
HETATM    7  C9  UNL     1     -35.394  18.448  -4.409  1.00 20.00    -0.004 C 
HETATM    8  C5  UNL     1     -36.771  17.864  -4.681  1.00 20.00     0.005 C 
ENDBRANCH   6   7
ENDBRANCH   4   6
BRANCH   4   9
HETATM    9  C8  UNL     1     -33.237  16.990  -3.730  1.00 20.00     0.010 C 
BRANCH   9  10
HETATM   10  C10 UNL     1     -33.605  15.534  -3.459  1.00 20.00    -0.004 C 
HETATM   11  C6  UNL     1     -33.928  14.796  -4.749  1.00 20.00     0.005 C 
ENDBRANCH   9  10
ENDBRANCH   4   9
TORSDOF 4
ENDMDL
