MODEL 1
REMARK VINA RESULT:      -4.7      0.000      0.000
REMARK  1 active torsions:
REMARK  status: ('A' for Active; 'I' for Inactive)
REMARK    1  A    between atoms: C6_6  and  O8_8 
ROOT
HETATM    1  C1  UNL     1     -34.636   5.122   5.958  1.00 20.00     0.002 C 
HETATM    2  C2  UNL     1     -33.742   6.331   6.335  1.00 20.00     0.010 C 
HETATM    3  C3  UNL     1     -35.238   5.986   4.821  1.00 20.00     0.010 C 
HETATM    4  C4  UNL     1     -34.091   8.333   4.709  1.00 20.00     0.041 C 
HETATM    5  C5  UNL     1     -32.909   6.710   3.908  1.00 20.00     0.041 C 
HETATM    6  C6  UNL     1     -32.677   8.239   4.071  1.00 20.00     0.119 C 
HETATM    7  C7  UNL     1     -34.006   6.848   4.938  1.00 20.00    -0.036 C 
ENDROOT
BRANCH   6   8
HETATM    8  O8  UNL     1     -32.491   8.982   2.854  1.00 20.00    -0.396 OA
HETATM    9  H20 UNL     1     -31.541   9.150   2.791  1.00 20.00     0.210 HD
ENDBRANCH   6   8
TORSDOF 1
ENDMDL
MODEL 2
REMARK VINA RESULT:      -4.3      2.274      3.550
REMARK  1 active torsions:
REMARK  status: ('A' for Active; 'I' for Inactive)
REMARK    1  A    between atoms: C6_6  and  O8_8 
ROOT
HETATM    1  C1  UNL     1     -32.325   8.899   4.626  1.00 20.00     0.002 C 
HETATM    2  C2  UNL     1     -32.500   7.480   4.029  1.00 20.00     0.010 C 
HETATM    3  C3  UNL     1     -33.787   8.812   5.134  1.00 20.00     0.010 C 
HETATM    4  C4  UNL     1     -34.844   6.488   4.573  1.00 20.00     0.041 C 
HETATM    5  C5  UNL     1     -33.447   6.471   6.222  1.00 20.00     0.041 C 
HETATM    6  C6  UNL     1     -34.306   5.380   5.523  1.00 20.00     0.119 C 
HETATM    7  C7  UNL     1     -33.659   7.317   4.988  1.00 20.00    -0.036 C 
ENDROOT
BRANCH   6   8
HETATM    8  O8  UNL     1     -35.291   4.730   6.344  1.00 20.00    -0.396 OA
HETATM    9  H20 UNL     1     -34.798   4.300   7.055  1.00 20.00     0.210 HD
ENDBRANCH   6   8
TORSDOF 1
ENDMDL
MODEL 3
REMARK VINA RESULT:      -4.1      2.253      3.555
REMARK  1 active torsions:
REMARK  status: ('A' for Active; 'I' for Inactive)
REMARK    1  A    between atoms: C6_6  and  O8_8 
ROOT
HETATM    1  C1  UNL     1     -32.739   8.860   3.600  1.00 20.00     0.002 C 
HETATM    2  C2  UNL     1     -33.641   8.840   4.860  1.00 20.00     0.010 C 
HETATM    3  C3  UNL     1     -32.199   7.470   4.026  1.00 20.00     0.010 C 
HETATM    4  C4  UNL     1     -33.395   6.615   6.187  1.00 20.00     0.041 C 
HETATM    5  C5  UNL     1     -34.576   6.469   4.382  1.00 20.00     0.041 C 
HETATM    6  C6  UNL     1     -34.832   6.110   5.873  1.00 20.00     0.119 C 
HETATM    7  C7  UNL     1     -33.442   7.340   4.870  1.00 20.00    -0.036 C 
ENDROOT
BRANCH   6   8
HETATM    8  O8  UNL     1     -35.081   4.722   6.154  1.00 20.00    -0.396 OA
HETATM    9  H20 UNL     1     -34.845   4.244   5.348  1.00 20.00     0.210 HD
ENDBRANCH   6   8
TORSDOF 1
ENDMDL
MODEL 4
REMARK VINA RESULT:      -4.0     15.228     16.167
REMARK  1 active torsions:
REMARK  status: ('A' for Active; 'I' for Inactive)
REMARK    1  A    between atoms: C6_6  and  O8_8 
ROOT
HETATM    1  C1  UNL     1     -21.853  18.563   9.959  1.00 20.00     0.002 C 
HETATM    2  C2  UNL     1     -22.281  18.380  11.437  1.00 20.00     0.010 C 
HETATM    3  C3  UNL     1     -22.818  17.407   9.588  1.00 20.00     0.010 C 
HETATM    4  C4  UNL     1     -24.113  16.548  11.690  1.00 20.00     0.041 C 
HETATM    5  C5  UNL     1     -24.819  18.433  10.902  1.00 20.00     0.041 C 
HETATM    6  C6  UNL     1     -25.240  17.538  12.101  1.00 20.00     0.119 C 
HETATM    7  C7  UNL     1     -23.510  17.678  10.901  1.00 20.00    -0.036 C 
ENDROOT
BRANCH   6   8
HETATM    8  O8  UNL     1     -26.577  17.012  12.058  1.00 20.00    -0.396 OA
HETATM    9  H20 UNL     1     -27.119  17.629  12.569  1.00 20.00     0.210 HD
ENDBRANCH   6   8
TORSDOF 1
ENDMDL
MODEL 5
REMARK VINA RESULT:      -3.7      8.883     10.121
REMARK  1 active torsions:
REMARK  status: ('A' for Active; 'I' for Inactive)
REMARK    1  A    between atoms: C6_6  and  O8_8 
ROOT
HETATM    1  C1  UNL     1     -41.175   8.504  -0.245  1.00 20.00     0.002 C 
HETATM    2  C2  UNL     1     -42.627   7.962  -0.211  1.00 20.00     0.010 C 
HETATM    3  C3  UNL     1     -40.842   7.544   0.926  1.00 20.00     0.010 C 
HETATM    4  C4  UNL     1     -42.911   6.078   1.562  1.00 20.00     0.041 C 
HETATM    5  C5  UNL     1     -41.897   5.474  -0.249  1.00 20.00     0.041 C 
HETATM    6  C6  UNL     1     -43.140   4.946   0.521  1.00 20.00     0.119 C 
HETATM    7  C7  UNL     1     -42.067   6.763   0.522  1.00 20.00    -0.036 C 
ENDROOT
BRANCH   6   8
HETATM    8  O8  UNL     1     -43.044   3.604   1.029  1.00 20.00    -0.396 OA
HETATM    9  H20 UNL     1     -42.403   3.153   0.464  1.00 20.00     0.210 HD
ENDBRANCH   6   8
TORSDOF 1
ENDMDL
MODEL 6
REMARK VINA RESULT:      -3.7     15.227     16.315
REMARK  1 active torsions:
REMARK  status: ('A' for Active; 'I' for Inactive)
REMARK    1  A    between atoms: C6_6  and  O8_8 
ROOT
HETATM    1  C1  UNL     1     -23.125  19.148   7.936  1.00 20.00     0.002 C 
HETATM    2  C2  UNL     1     -24.207  19.121   9.044  1.00 20.00     0.010 C 
HETATM    3  C3  UNL     1     -22.086  18.732   9.009  1.00 20.00     0.010 C 
HETATM    4  C4  UNL     1     -23.227  18.352  11.329  1.00 20.00     0.041 C 
HETATM    5  C5  UNL     1     -23.541  16.764   9.896  1.00 20.00     0.041 C 
HETATM    6  C6  UNL     1     -24.001  17.004  11.363  1.00 20.00     0.119 C 
HETATM    7  C7  UNL     1     -23.254  18.246   9.829  1.00 20.00    -0.036 C 
ENDROOT
BRANCH   6   8
HETATM    8  O8  UNL     1     -23.543  16.045  12.332  1.00 20.00    -0.396 OA
HETATM    9  H20 UNL     1     -24.222  16.021  13.020  1.00 20.00     0.210 HD
ENDBRANCH   6   8
TORSDOF 1
ENDMDL
MODEL 7
REMARK VINA RESULT:      -3.7     12.071     13.344
REMARK  1 active torsions:
REMARK  status: ('A' for Active; 'I' for Inactive)
REMARK    1  A    between atoms: C6_6  and  O8_8 
ROOT
HETATM    1  C1  UNL     1     -33.061  15.732  -3.793  1.00 20.00     0.002 C 
HETATM    2  C2  UNL     1     -34.280  16.471  -4.400  1.00 20.00     0.010 C 
HETATM    3  C3  UNL     1     -33.746  14.393  -4.172  1.00 20.00     0.010 C 
HETATM    4  C4  UNL     1     -35.996  14.810  -5.435  1.00 20.00     0.041 C 
HETATM    5  C5  UNL     1     -34.219  15.136  -6.622  1.00 20.00     0.041 C 
HETATM    6  C6  UNL     1     -35.744  15.252  -6.905  1.00 20.00     0.119 C 
HETATM    7  C7  UNL     1     -34.568  15.190  -5.153  1.00 20.00    -0.036 C 
ENDROOT
BRANCH   6   8
HETATM    8  O8  UNL     1     -36.267  14.376  -7.918  1.00 20.00    -0.396 OA
HETATM    9  H20 UNL     1     -36.798  14.935  -8.501  1.00 20.00     0.210 HD
ENDBRANCH   6   8
TORSDOF 1
ENDMDL
MODEL 8
REMARK VINA RESULT:      -3.6      8.807      9.535
REMARK  1 active torsions:
REMARK  status: ('A' for Active; 'I' for Inactive)
REMARK    1  A    between atoms: C6_6  and  O8_8 
ROOT
HETATM    1  C1  UNL     1     -43.413   4.359   1.016  1.00 20.00     0.002 C 
HETATM    2  C2  UNL     1     -43.131   5.059  -0.338  1.00 20.00     0.010 C 
HETATM    3  C3  UNL     1     -42.013   4.828   1.492  1.00 20.00     0.010 C 
HETATM    4  C4  UNL     1     -40.834   6.282  -0.331  1.00 20.00     0.041 C 
HETATM    5  C5  UNL     1     -42.403   7.295   0.757  1.00 20.00     0.041 C 
HETATM    6  C6  UNL     1     -41.441   7.712  -0.391  1.00 20.00     0.119 C 
HETATM    7  C7  UNL     1     -42.081   5.863   0.398  1.00 20.00    -0.036 C 
ENDROOT
BRANCH   6   8
HETATM    8  O8  UNL     1     -40.534   8.788  -0.094  1.00 20.00    -0.396 OA
HETATM    9  H20 UNL     1     -40.375   9.238  -0.934  1.00 20.00     0.210 HD
ENDBRANCH   6   8
TORSDOF 1
ENDMDL
MODEL 9
REMARK VINA RESULT:      -3.6     11.755     13.151
REMARK  1 active torsions:
REMARK  status: ('A' for Active; 'I' for Inactive)
REMARK    1  A    between atoms: C6_6  and  O8_8 
ROOT
HETATM    1  C1  UNL     1     -35.448  15.215  -7.226  1.00 20.00     0.002 C 
HETATM    2  C2  UNL     1     -34.003  15.222  -6.666  1.00 20.00     0.010 C 
HETATM    3  C3  UNL     1     -35.933  14.750  -5.829  1.00 20.00     0.010 C 
HETATM    4  C4  UNL     1     -33.945  14.607  -4.138  1.00 20.00     0.041 C 
HETATM    5  C5  UNL     1     -34.624  16.614  -4.568  1.00 20.00     0.041 C 
HETATM    6  C6  UNL     1     -33.506  16.021  -3.664  1.00 20.00     0.119 C 
HETATM    7  C7  UNL     1     -34.631  15.287  -5.291  1.00 20.00    -0.036 C 
ENDROOT
BRANCH   6   8
HETATM    8  O8  UNL     1     -33.635  16.274  -2.254  1.00 20.00    -0.396 OA
HETATM    9  H20 UNL     1     -33.442  15.433  -1.817  1.00 20.00     0.210 HD
ENDBRANCH   6   8
TORSDOF 1
ENDMDL
