MODEL 1
REMARK VINA RESULT:      -3.7      0.000      0.000
REMARK  3 active torsions:
REMARK  status: ('A' for Active; 'I' for Inactive)
REMARK    1  A    between atoms: C5_5  and  C7_7 
REMARK    2  A    between atoms: C5_5  and  O9_9 
REMARK    3  A    between atoms: C6_6  and  C7_7 
ROOT
HETATM    1  C1  UNL     1     -41.488  13.678   4.833  1.00 20.00     0.088 C 
HETATM    2  C7  UNL     1     -41.016  13.010   6.067  1.00 20.00     0.149 C 
HETATM    3  N8  UNL     1     -41.855  14.205   3.866  1.00 20.00    -0.195 NA
HETATM    4 CL10 UNL     1     -42.467  12.241   6.812  1.00 20.00    -0.100 Cl
ENDROOT
BRANCH   2   5
HETATM    5  C5  UNL     1     -40.473  14.076   7.042  1.00 20.00     0.208 C 
BRANCH   5   6
HETATM    6  O9  UNL     1     -40.871  13.800   8.383  1.00 20.00    -0.393 OA
HETATM    7  C4  UNL     1     -40.301  14.729   9.294  1.00 20.00     0.201 C 
ENDBRANCH   5   6
ENDBRANCH   2   5
BRANCH   2   8
HETATM    8  C6  UNL     1     -39.929  11.940   5.717  1.00 20.00     0.017 C 
HETATM    9  C2  UNL     1     -39.500  11.950   4.243  1.00 20.00     0.012 C 
HETATM   10  C3  UNL     1     -38.666  12.030   6.593  1.00 20.00     0.012 C 
ENDBRANCH   2   8
TORSDOF 3
ENDMDL
MODEL 2
REMARK VINA RESULT:      -3.5      2.292      3.790
REMARK  3 active torsions:
REMARK  status: ('A' for Active; 'I' for Inactive)
REMARK    1  A    between atoms: C5_5  and  C7_7 
REMARK    2  A    between atoms: C5_5  and  O9_9 
REMARK    3  A    between atoms: C6_6  and  C7_7 
ROOT
HETATM    1  C1  UNL     1     -42.047  12.683   6.954  1.00 20.00     0.088 C 
HETATM    2  C7  UNL     1     -41.006  13.506   6.298  1.00 20.00     0.149 C 
HETATM    3  N8  UNL     1     -42.860  12.035   7.469  1.00 20.00    -0.195 NA
HETATM    4 CL10 UNL     1     -41.679  13.993   4.698  1.00 20.00    -0.100 Cl
ENDROOT
BRANCH   2   5
HETATM    5  C5  UNL     1     -39.752  12.638   6.058  1.00 20.00     0.208 C 
BRANCH   5   6
HETATM    6  O9  UNL     1     -39.986  11.664   5.043  1.00 20.00    -0.393 OA
HETATM    7  C4  UNL     1     -38.943  11.661   4.080  1.00 20.00     0.201 C 
ENDBRANCH   5   6
ENDBRANCH   2   5
BRANCH   2   8
HETATM    8  C6  UNL     1     -40.680  14.760   7.177  1.00 20.00     0.017 C 
HETATM    9  C2  UNL     1     -41.785  15.827   7.172  1.00 20.00     0.012 C 
HETATM   10  C3  UNL     1     -40.338  14.420   8.639  1.00 20.00     0.012 C 
ENDBRANCH   2   8
TORSDOF 3
ENDMDL
MODEL 3
REMARK VINA RESULT:      -3.5     12.507     13.309
REMARK  3 active torsions:
REMARK  status: ('A' for Active; 'I' for Inactive)
REMARK    1  A    between atoms: C5_5  and  C7_7 
REMARK    2  A    between atoms: C5_5  and  O9_9 
REMARK    3  A    between atoms: C6_6  and  C7_7 
ROOT
HETATM    1  C1  UNL     1     -34.220  15.317  -6.669  1.00 20.00     0.088 C 
HETATM    2  C7  UNL     1     -34.973  15.625  -5.432  1.00 20.00     0.149 C 
HETATM    3  N8  UNL     1     -33.633  15.078  -7.641  1.00 20.00    -0.195 NA
HETATM    4 CL10 UNL     1     -35.185  14.059  -4.565  1.00 20.00    -0.100 Cl
ENDROOT
BRANCH   2   5
HETATM    5  C5  UNL     1     -36.367  16.167  -5.811  1.00 20.00     0.208 C 
BRANCH   5   6
HETATM    6  O9  UNL     1     -37.401  15.304  -5.343  1.00 20.00    -0.393 OA
HETATM    7  C4  UNL     1     -38.527  16.042  -4.892  1.00 20.00     0.201 C 
ENDBRANCH   5   6
ENDBRANCH   2   5
BRANCH   2   8
HETATM    8  C6  UNL     1     -34.173  16.649  -4.558  1.00 20.00     0.017 C 
HETATM    9  C2  UNL     1     -35.019  17.825  -4.048  1.00 20.00     0.012 C 
HETATM   10  C3  UNL     1     -33.454  16.009  -3.356  1.00 20.00     0.012 C 
ENDBRANCH   2   8
TORSDOF 3
ENDMDL
MODEL 4
REMARK VINA RESULT:      -3.5     11.919     12.822
REMARK  3 active torsions:
REMARK  status: ('A' for Active; 'I' for Inactive)
REMARK    1  A    between atoms: C5_5  and  C7_7 
REMARK    2  A    between atoms: C5_5  and  O9_9 
REMARK    3  A    between atoms: C6_6  and  C7_7 
ROOT
HETATM    1  C1  UNL     1     -31.756  18.528  -0.975  1.00 20.00     0.088 C 
HETATM    2  C7  UNL     1     -33.067  18.517  -1.665  1.00 20.00     0.149 C 
HETATM    3  N8  UNL     1     -30.728  18.541  -0.437  1.00 20.00    -0.195 NA
HETATM    4 CL10 UNL     1     -33.503  16.782  -1.893  1.00 20.00    -0.100 Cl
ENDROOT
BRANCH   2   5
HETATM    5  C5  UNL     1     -32.912  19.169  -3.055  1.00 20.00     0.208 C 
BRANCH   5   6
HETATM    6  O9  UNL     1     -33.259  18.258  -4.095  1.00 20.00    -0.393 OA
HETATM    7  C4  UNL     1     -34.352  18.739  -4.862  1.00 20.00     0.201 C 
ENDBRANCH   5   6
ENDBRANCH   2   5
BRANCH   2   8
HETATM    8  C6  UNL     1     -34.138  19.257  -0.796  1.00 20.00     0.017 C 
HETATM    9  C2  UNL     1     -35.544  19.263  -1.414  1.00 20.00     0.012 C 
HETATM   10  C3  UNL     1     -34.242  18.725   0.645  1.00 20.00     0.012 C 
ENDBRANCH   2   8
TORSDOF 3
ENDMDL
MODEL 5
REMARK VINA RESULT:      -3.5     11.470     12.440
REMARK  3 active torsions:
REMARK  status: ('A' for Active; 'I' for Inactive)
REMARK    1  A    between atoms: C5_5  and  C7_7 
REMARK    2  A    between atoms: C5_5  and  O9_9 
REMARK    3  A    between atoms: C6_6  and  C7_7 
ROOT
HETATM    1  C1  UNL     1     -35.021  18.583  -2.274  1.00 20.00     0.088 C 
HETATM    2  C7  UNL     1     -33.588  18.238  -2.128  1.00 20.00     0.149 C 
HETATM    3  N8  UNL     1     -36.145  18.849  -2.386  1.00 20.00    -0.195 NA
HETATM    4 CL10 UNL     1     -32.730  19.060  -3.485  1.00 20.00    -0.100 Cl
ENDROOT
BRANCH   2   5
HETATM    5  C5  UNL     1     -33.417  16.713  -2.293  1.00 20.00     0.208 C 
BRANCH   5   6
HETATM    6  O9  UNL     1     -33.068  16.374  -3.633  1.00 20.00    -0.393 OA
HETATM    7  C4  UNL     1     -33.697  15.170  -4.043  1.00 20.00     0.201 C 
ENDBRANCH   5   6
ENDBRANCH   2   5
BRANCH   2   8
HETATM    8  C6  UNL     1     -33.055  18.733  -0.743  1.00 20.00     0.017 C 
HETATM    9  C2  UNL     1     -33.810  18.148   0.460  1.00 20.00     0.012 C 
HETATM   10  C3  UNL     1     -31.548  18.492  -0.536  1.00 20.00     0.012 C 
ENDBRANCH   2   8
TORSDOF 3
ENDMDL
MODEL 6
REMARK VINA RESULT:      -3.4     12.553     13.370
REMARK  3 active torsions:
REMARK  status: ('A' for Active; 'I' for Inactive)
REMARK    1  A    between atoms: C5_5  and  C7_7 
REMARK    2  A    between atoms: C5_5  and  O9_9 
REMARK    3  A    between atoms: C6_6  and  C7_7 
ROOT
HETATM    1  C1  UNL     1     -34.379  15.270  -6.599  1.00 20.00     0.088 C 
HETATM    2  C7  UNL     1     -35.275  15.515  -5.446  1.00 20.00     0.149 C 
HETATM    3  N8  UNL     1     -33.678  15.082  -7.504  1.00 20.00    -0.195 NA
HETATM    4 CL10 UNL     1     -35.759  13.891  -4.827  1.00 20.00    -0.100 Cl
ENDROOT
BRANCH   2   5
HETATM    5  C5  UNL     1     -36.542  16.248  -5.937  1.00 20.00     0.208 C 
BRANCH   5   6
HETATM    6  O9  UNL     1     -37.723  15.540  -5.569  1.00 20.00    -0.393 OA
HETATM    7  C4  UNL     1     -38.625  16.374  -4.856  1.00 20.00     0.201 C 
ENDBRANCH   5   6
ENDBRANCH   2   5
BRANCH   2   8
HETATM    8  C6  UNL     1     -34.523  16.335  -4.345  1.00 20.00     0.017 C 
HETATM    9  C2  UNL     1     -33.255  15.650  -3.817  1.00 20.00     0.012 C 
HETATM   10  C3  UNL     1     -34.158  17.766  -4.780  1.00 20.00     0.012 C 
ENDBRANCH   2   8
TORSDOF 3
ENDMDL
MODEL 7
REMARK VINA RESULT:      -3.3     12.510     13.287
REMARK  3 active torsions:
REMARK  status: ('A' for Active; 'I' for Inactive)
REMARK    1  A    between atoms: C5_5  and  C7_7 
REMARK    2  A    between atoms: C5_5  and  O9_9 
REMARK    3  A    between atoms: C6_6  and  C7_7 
ROOT
HETATM    1  C1  UNL     1     -35.514  14.196  -4.958  1.00 20.00     0.088 C 
HETATM    2  C7  UNL     1     -35.166  15.474  -5.621  1.00 20.00     0.149 C 
HETATM    3  N8  UNL     1     -35.787  13.197  -4.435  1.00 20.00    -0.195 NA
HETATM    4 CL10 UNL     1     -33.870  15.089  -6.814  1.00 20.00    -0.100 Cl
ENDROOT
BRANCH   2   5
HETATM    5  C5  UNL     1     -34.591  16.447  -4.570  1.00 20.00     0.208 C 
BRANCH   5   6
HETATM    6  O9  UNL     1     -33.649  15.794  -3.722  1.00 20.00    -0.393 OA
HETATM    7  C4  UNL     1     -33.345  16.584  -2.582  1.00 20.00     0.201 C 
ENDBRANCH   5   6
ENDBRANCH   2   5
BRANCH   2   8
HETATM    8  C6  UNL     1     -36.426  16.070  -6.332  1.00 20.00     0.017 C 
HETATM    9  C2  UNL     1     -37.628  16.278  -5.398  1.00 20.00     0.012 C 
HETATM   10  C3  UNL     1     -36.153  17.391  -7.074  1.00 20.00     0.012 C 
ENDBRANCH   2   8
TORSDOF 3
ENDMDL
MODEL 8
REMARK VINA RESULT:      -3.3      9.346     10.013
REMARK  3 active torsions:
REMARK  status: ('A' for Active; 'I' for Inactive)
REMARK    1  A    between atoms: C5_5  and  C7_7 
REMARK    2  A    between atoms: C5_5  and  O9_9 
REMARK    3  A    between atoms: C6_6  and  C7_7 
ROOT
HETATM    1  C1  UNL     1     -33.450   5.660   3.435  1.00 20.00     0.088 C 
HETATM    2  C7  UNL     1     -34.230   6.502   4.371  1.00 20.00     0.149 C 
HETATM    3  N8  UNL     1     -32.835   5.003   2.701  1.00 20.00    -0.195 NA
HETATM    4 CL10 UNL     1     -35.967   6.166   4.024  1.00 20.00    -0.100 Cl
ENDROOT
BRANCH   2   5
HETATM    5  C5  UNL     1     -33.949   7.989   4.067  1.00 20.00     0.208 C 
BRANCH   5   6
HETATM    6  O9  UNL     1     -32.560   8.215   3.837  1.00 20.00    -0.393 OA
HETATM    7  C4  UNL     1     -32.027   9.145   4.768  1.00 20.00     0.201 C 
ENDBRANCH   5   6
ENDBRANCH   2   5
BRANCH   2   8
HETATM    8  C6  UNL     1     -33.870   6.136   5.849  1.00 20.00     0.017 C 
HETATM    9  C2  UNL     1     -34.175   7.254   6.858  1.00 20.00     0.012 C 
HETATM   10  C3  UNL     1     -34.532   4.838   6.346  1.00 20.00     0.012 C 
ENDBRANCH   2   8
TORSDOF 3
ENDMDL
MODEL 9
REMARK VINA RESULT:      -3.3      2.081      3.485
REMARK  3 active torsions:
REMARK  status: ('A' for Active; 'I' for Inactive)
REMARK    1  A    between atoms: C5_5  and  C7_7 
REMARK    2  A    between atoms: C5_5  and  O9_9 
REMARK    3  A    between atoms: C6_6  and  C7_7 
ROOT
HETATM    1  C1  UNL     1     -41.817  14.027   4.827  1.00 20.00     0.088 C 
HETATM    2  C7  UNL     1     -41.509  13.544   6.193  1.00 20.00     0.149 C 
HETATM    3  N8  UNL     1     -42.058  14.402   3.756  1.00 20.00    -0.195 NA
HETATM    4 CL10 UNL     1     -40.466  14.803   6.952  1.00 20.00    -0.100 Cl
ENDROOT
BRANCH   2   5
HETATM    5  C5  UNL     1     -40.700  12.233   6.094  1.00 20.00     0.208 C 
BRANCH   5   6
HETATM    6  O9  UNL     1     -39.396  12.469   5.569  1.00 20.00    -0.393 OA
HETATM    7  C4  UNL     1     -39.162  11.700   4.398  1.00 20.00     0.201 C 
ENDBRANCH   5   6
ENDBRANCH   2   5
BRANCH   2   8
HETATM    8  C6  UNL     1     -42.833  13.346   7.004  1.00 20.00     0.017 C 
HETATM    9  C2  UNL     1     -43.222  11.874   7.210  1.00 20.00     0.012 C 
HETATM   10  C3  UNL     1     -42.831  14.045   8.375  1.00 20.00     0.012 C 
ENDBRANCH   2   8
TORSDOF 3
ENDMDL
