MODEL 1
REMARK VINA RESULT:      -6.0      0.000      0.000
REMARK  0 active torsions:
REMARK  status: ('A' for Active; 'I' for Inactive)
ROOT
HETATM    1  C1  UNL     1     -33.017   7.746   4.963  1.00 20.00     0.005 C 
HETATM    2  C2  UNL     1     -33.713   7.200   6.103  1.00 20.00     0.041 C 
HETATM    3  C3  UNL     1     -32.982   7.102   3.783  1.00 20.00    -0.081 C 
HETATM    4  C4  UNL     1     -34.537   6.153   5.972  1.00 20.00     0.128 C 
HETATM    5  C5  UNL     1     -33.695   5.781   3.593  1.00 20.00     0.078 C 
HETATM    6  C6  UNL     1     -34.770   5.482   4.654  1.00 20.00     0.235 C 
HETATM    7  C7  UNL     1     -32.222   7.632   2.605  1.00 20.00     0.043 C 
HETATM    8  F8  UNL     1     -35.177   5.685   7.065  1.00 20.00    -0.208 F 
HETATM    9  F9  UNL     1     -35.974   5.889   4.155  1.00 20.00    -0.242 F 
ENDROOT
TORSDOF 0
ENDMDL
MODEL 2
REMARK VINA RESULT:      -5.7      2.262      3.544
REMARK  0 active torsions:
REMARK  status: ('A' for Active; 'I' for Inactive)
ROOT
HETATM    1  C1  UNL     1     -33.161   7.550   5.205  1.00 20.00     0.005 C 
HETATM    2  C2  UNL     1     -32.531   7.972   3.978  1.00 20.00     0.041 C 
HETATM    3  C3  UNL     1     -33.972   6.478   5.249  1.00 20.00    -0.081 C 
HETATM    4  C4  UNL     1     -32.544   7.191   2.891  1.00 20.00     0.128 C 
HETATM    5  C5  UNL     1     -34.241   5.651   4.010  1.00 20.00     0.078 C 
HETATM    6  C6  UNL     1     -33.219   5.854   2.877  1.00 20.00     0.235 C 
HETATM    7  C7  UNL     1     -34.673   6.055   6.505  1.00 20.00     0.043 C 
HETATM    8  F8  UNL     1     -31.929   7.623   1.769  1.00 20.00    -0.208 F 
HETATM    9  F9  UNL     1     -32.272   4.877   2.988  1.00 20.00    -0.242 F 
ENDROOT
TORSDOF 0
ENDMDL
MODEL 3
REMARK VINA RESULT:      -5.7      0.975      2.182
REMARK  0 active torsions:
REMARK  status: ('A' for Active; 'I' for Inactive)
ROOT
HETATM    1  C1  UNL     1     -33.483   5.637   3.526  1.00 20.00     0.005 C 
HETATM    2  C2  UNL     1     -34.353   5.074   4.530  1.00 20.00     0.041 C 
HETATM    3  C3  UNL     1     -33.058   6.912   3.595  1.00 20.00    -0.081 C 
HETATM    4  C4  UNL     1     -34.589   5.719   5.679  1.00 20.00     0.128 C 
HETATM    5  C5  UNL     1     -33.460   7.807   4.748  1.00 20.00     0.078 C 
HETATM    6  C6  UNL     1     -33.984   7.054   5.983  1.00 20.00     0.235 C 
HETATM    7  C7  UNL     1     -32.194   7.526   2.536  1.00 20.00     0.043 C 
HETATM    8  F8  UNL     1     -35.400   5.146   6.594  1.00 20.00    -0.208 F 
HETATM    9  F9  UNL     1     -32.937   6.883   6.843  1.00 20.00    -0.242 F 
ENDROOT
TORSDOF 0
ENDMDL
MODEL 4
REMARK VINA RESULT:      -5.4      0.991      2.424
REMARK  0 active torsions:
REMARK  status: ('A' for Active; 'I' for Inactive)
ROOT
HETATM    1  C1  UNL     1     -32.862   7.011   3.744  1.00 20.00     0.005 C 
HETATM    2  C2  UNL     1     -33.694   5.835   3.676  1.00 20.00     0.041 C 
HETATM    3  C3  UNL     1     -32.961   7.887   4.760  1.00 20.00    -0.081 C 
HETATM    4  C4  UNL     1     -34.431   5.449   4.725  1.00 20.00     0.128 C 
HETATM    5  C5  UNL     1     -33.939   7.662   5.893  1.00 20.00     0.078 C 
HETATM    6  C6  UNL     1     -34.451   6.215   6.011  1.00 20.00     0.235 C 
HETATM    7  C7  UNL     1     -32.139   9.139   4.820  1.00 20.00     0.043 C 
HETATM    8  F8  UNL     1     -35.184   4.333   4.618  1.00 20.00    -0.208 F 
HETATM    9  F9  UNL     1     -33.669   5.569   6.925  1.00 20.00    -0.242 F 
ENDROOT
TORSDOF 0
ENDMDL
MODEL 5
REMARK VINA RESULT:      -5.3      2.224      3.873
REMARK  0 active torsions:
REMARK  status: ('A' for Active; 'I' for Inactive)
ROOT
HETATM    1  C1  UNL     1     -33.965   5.395   4.035  1.00 20.00     0.005 C 
HETATM    2  C2  UNL     1     -33.107   5.850   2.968  1.00 20.00     0.041 C 
HETATM    3  C3  UNL     1     -34.042   6.051   5.206  1.00 20.00    -0.081 C 
HETATM    4  C4  UNL     1     -32.531   7.057   3.012  1.00 20.00     0.128 C 
HETATM    5  C5  UNL     1     -33.244   7.315   5.447  1.00 20.00     0.078 C 
HETATM    6  C6  UNL     1     -32.726   7.992   4.166  1.00 20.00     0.235 C 
HETATM    7  C7  UNL     1     -34.891   5.564   6.342  1.00 20.00     0.043 C 
HETATM    8  F8  UNL     1     -31.747   7.444   1.983  1.00 20.00    -0.208 F 
HETATM    9  F9  UNL     1     -33.624   8.956   3.809  1.00 20.00    -0.242 F 
ENDROOT
TORSDOF 0
ENDMDL
MODEL 6
REMARK VINA RESULT:      -5.3      1.864      3.107
REMARK  0 active torsions:
REMARK  status: ('A' for Active; 'I' for Inactive)
ROOT
HETATM    1  C1  UNL     1     -32.669   7.439   4.000  1.00 20.00     0.005 C 
HETATM    2  C2  UNL     1     -32.479   6.476   2.943  1.00 20.00     0.041 C 
HETATM    3  C3  UNL     1     -33.700   7.349   4.859  1.00 20.00    -0.081 C 
HETATM    4  C4  UNL     1     -33.181   5.337   2.912  1.00 20.00     0.128 C 
HETATM    5  C5  UNL     1     -34.696   6.213   4.766  1.00 20.00     0.078 C 
HETATM    6  C6  UNL     1     -34.205   5.003   3.952  1.00 20.00     0.235 C 
HETATM    7  C7  UNL     1     -33.939   8.368   5.932  1.00 20.00     0.043 C 
HETATM    8  F8  UNL     1     -32.958   4.460   1.909  1.00 20.00    -0.208 F 
HETATM    9  F9  UNL     1     -33.673   4.099   4.825  1.00 20.00    -0.242 F 
ENDROOT
TORSDOF 0
ENDMDL
MODEL 7
REMARK VINA RESULT:      -5.2      1.085      1.503
REMARK  0 active torsions:
REMARK  status: ('A' for Active; 'I' for Inactive)
ROOT
HETATM    1  C1  UNL     1     -32.810   6.928   3.666  1.00 20.00     0.005 C 
HETATM    2  C2  UNL     1     -33.195   7.488   4.938  1.00 20.00     0.041 C 
HETATM    3  C3  UNL     1     -33.189   5.692   3.295  1.00 20.00    -0.081 C 
HETATM    4  C4  UNL     1     -34.124   6.898   5.700  1.00 20.00     0.128 C 
HETATM    5  C5  UNL     1     -34.060   4.841   4.194  1.00 20.00     0.078 C 
HETATM    6  C6  UNL     1     -34.802   5.627   5.289  1.00 20.00     0.235 C 
HETATM    7  C7  UNL     1     -32.758   5.077   1.998  1.00 20.00     0.043 C 
HETATM    8  F8  UNL     1     -34.461   7.467   6.877  1.00 20.00    -0.208 F 
HETATM    9  F9  UNL     1     -36.050   5.920   4.821  1.00 20.00    -0.242 F 
ENDROOT
TORSDOF 0
ENDMDL
MODEL 8
REMARK VINA RESULT:      -5.2      1.570      2.463
REMARK  0 active torsions:
REMARK  status: ('A' for Active; 'I' for Inactive)
ROOT
HETATM    1  C1  UNL     1     -34.083   4.805   4.716  1.00 20.00     0.005 C 
HETATM    2  C2  UNL     1     -34.581   5.396   5.934  1.00 20.00     0.041 C 
HETATM    3  C3  UNL     1     -33.588   5.558   3.718  1.00 20.00    -0.081 C 
HETATM    4  C4  UNL     1     -34.364   6.687   6.214  1.00 20.00     0.128 C 
HETATM    5  C5  UNL     1     -33.511   7.065   3.841  1.00 20.00     0.078 C 
HETATM    6  C6  UNL     1     -33.614   7.590   5.284  1.00 20.00     0.235 C 
HETATM    7  C7  UNL     1     -33.113   4.963   2.427  1.00 20.00     0.043 C 
HETATM    8  F8  UNL     1     -34.838   7.192   7.374  1.00 20.00    -0.208 F 
HETATM    9  F9  UNL     1     -32.346   7.762   5.758  1.00 20.00    -0.242 F 
ENDROOT
TORSDOF 0
ENDMDL
MODEL 9
REMARK VINA RESULT:      -5.0      2.527      3.527
REMARK  0 active torsions:
REMARK  status: ('A' for Active; 'I' for Inactive)
ROOT
HETATM    1  C1  UNL     1     -34.239   6.537   4.693  1.00 20.00     0.005 C 
HETATM    2  C2  UNL     1     -33.886   5.475   3.783  1.00 20.00     0.041 C 
HETATM    3  C3  UNL     1     -33.471   7.631   4.832  1.00 20.00    -0.081 C 
HETATM    4  C4  UNL     1     -32.909   5.634   2.882  1.00 20.00     0.128 C 
HETATM    5  C5  UNL     1     -32.206   7.806   4.019  1.00 20.00     0.078 C 
HETATM    6  C6  UNL     1     -32.122   6.904   2.775  1.00 20.00     0.235 C 
HETATM    7  C7  UNL     1     -33.799   8.721   5.808  1.00 20.00     0.043 C 
HETATM    8  F8  UNL     1     -32.622   4.615   2.042  1.00 20.00    -0.208 F 
HETATM    9  F9  UNL     1     -32.579   7.620   1.707  1.00 20.00    -0.242 F 
ENDROOT
TORSDOF 0
ENDMDL
