MODEL 1
REMARK VINA RESULT:      -3.6      0.000      0.000
REMARK  5 active torsions:
REMARK  status: ('A' for Active; 'I' for Inactive)
REMARK    1  A    between atoms: C4_4  and  C5_5 
REMARK    2  A    between atoms: C4_4  and  O8_8 
REMARK    3  A    between atoms: C5_5  and  S9_9 
REMARK    4  A    between atoms: C6_6  and  C7_7 
REMARK    5  A    between atoms: C7_7  and  O8_8 
ROOT
HETATM    1  C3  UNL     1     -33.505   7.797   5.822  1.00 20.00     0.040 C 
HETATM    2  C7  UNL     1     -34.024   7.031   4.609  1.00 20.00     0.120 C 
ENDROOT
BRANCH   2   3
HETATM    3  C6  UNL     1     -34.713   5.698   4.970  1.00 20.00     0.006 C 
HETATM    4  C1  UNL     1     -34.636   5.386   6.467  1.00 20.00     0.012 C 
HETATM    5  C2  UNL     1     -34.102   4.536   4.177  1.00 20.00     0.012 C 
ENDBRANCH   2   3
BRANCH   2   6
HETATM    6  O8  UNL     1     -32.911   6.751   3.759  1.00 20.00    -0.385 OA
BRANCH   6   7
HETATM    7  C4  UNL     1     -32.342   7.944   3.245  1.00 20.00     0.178 C 
BRANCH   7   8
HETATM    8  C5  UNL     1     -32.144   7.821   1.742  1.00 20.00     0.097 C 
BRANCH   8   9
HETATM    9  S9  UNL     1     -32.755   9.296   0.870  1.00 20.00    -0.180 SA
HETATM   10  H25 UNL     1     -31.701  10.072   1.156  1.00 20.00     0.101 HD
ENDBRANCH   8   9
ENDBRANCH   7   8
ENDBRANCH   6   7
ENDBRANCH   2   6
TORSDOF 5
ENDMDL
MODEL 2
REMARK VINA RESULT:      -3.3      2.474      4.052
REMARK  5 active torsions:
REMARK  status: ('A' for Active; 'I' for Inactive)
REMARK    1  A    between atoms: C4_4  and  C5_5 
REMARK    2  A    between atoms: C4_4  and  O8_8 
REMARK    3  A    between atoms: C5_5  and  S9_9 
REMARK    4  A    between atoms: C6_6  and  C7_7 
REMARK    5  A    between atoms: C7_7  and  O8_8 
ROOT
HETATM    1  C3  UNL     1     -32.224   9.312   4.833  1.00 20.00     0.040 C 
HETATM    2  C7  UNL     1     -32.379   7.842   4.460  1.00 20.00     0.120 C 
ENDROOT
BRANCH   2   3
HETATM    3  C6  UNL     1     -32.059   7.544   2.980  1.00 20.00     0.006 C 
HETATM    4  C1  UNL     1     -32.595   8.624   2.037  1.00 20.00     0.012 C 
HETATM    5  C2  UNL     1     -32.624   6.180   2.565  1.00 20.00     0.012 C 
ENDBRANCH   2   3
BRANCH   2   6
HETATM    6  O8  UNL     1     -33.733   7.465   4.717  1.00 20.00    -0.385 OA
BRANCH   6   7
HETATM    7  C4  UNL     1     -33.978   7.338   6.108  1.00 20.00     0.178 C 
BRANCH   7   8
HETATM    8  C5  UNL     1     -34.422   5.919   6.431  1.00 20.00     0.097 C 
BRANCH   8   9
HETATM    9  S9  UNL     1     -34.812   4.987   4.919  1.00 20.00    -0.180 SA
HETATM   10  H25 UNL     1     -35.171   3.857   5.542  1.00 20.00     0.101 HD
ENDBRANCH   8   9
ENDBRANCH   7   8
ENDBRANCH   6   7
ENDBRANCH   2   6
TORSDOF 5
ENDMDL
MODEL 3
REMARK VINA RESULT:      -3.2      2.479      4.359
REMARK  5 active torsions:
REMARK  status: ('A' for Active; 'I' for Inactive)
REMARK    1  A    between atoms: C4_4  and  C5_5 
REMARK    2  A    between atoms: C4_4  and  O8_8 
REMARK    3  A    between atoms: C5_5  and  S9_9 
REMARK    4  A    between atoms: C6_6  and  C7_7 
REMARK    5  A    between atoms: C7_7  and  O8_8 
ROOT
HETATM    1  C3  UNL     1     -32.777   4.858   2.652  1.00 20.00     0.040 C 
HETATM    2  C7  UNL     1     -33.267   6.292   2.815  1.00 20.00     0.120 C 
ENDROOT
BRANCH   2   3
HETATM    3  C6  UNL     1     -32.128   7.333   2.845  1.00 20.00     0.006 C 
HETATM    4  C1  UNL     1     -32.227   8.274   4.049  1.00 20.00     0.012 C 
HETATM    5  C2  UNL     1     -32.112   8.161   1.553  1.00 20.00     0.012 C 
ENDBRANCH   2   3
BRANCH   2   6
HETATM    6  O8  UNL     1     -33.987   6.373   4.046  1.00 20.00    -0.385 OA
BRANCH   6   7
HETATM    7  C4  UNL     1     -34.391   5.088   4.491  1.00 20.00     0.178 C 
BRANCH   7   8
HETATM    8  C5  UNL     1     -34.598   5.100   5.998  1.00 20.00     0.097 C 
BRANCH   8   9
HETATM    9  S9  UNL     1     -34.255   6.742   6.700  1.00 20.00    -0.180 SA
HETATM   10  H25 UNL     1     -34.833   6.509   7.887  1.00 20.00     0.101 HD
ENDBRANCH   8   9
ENDBRANCH   7   8
ENDBRANCH   6   7
ENDBRANCH   2   6
TORSDOF 5
ENDMDL
MODEL 4
REMARK VINA RESULT:      -3.1      1.295      1.627
REMARK  5 active torsions:
REMARK  status: ('A' for Active; 'I' for Inactive)
REMARK    1  A    between atoms: C4_4  and  C5_5 
REMARK    2  A    between atoms: C4_4  and  O8_8 
REMARK    3  A    between atoms: C5_5  and  S9_9 
REMARK    4  A    between atoms: C6_6  and  C7_7 
REMARK    5  A    between atoms: C7_7  and  O8_8 
ROOT
HETATM    1  C3  UNL     1     -32.900   6.056   2.920  1.00 20.00     0.040 C 
HETATM    2  C7  UNL     1     -33.061   6.834   4.221  1.00 20.00     0.120 C 
ENDROOT
BRANCH   2   3
HETATM    3  C6  UNL     1     -34.353   6.487   4.991  1.00 20.00     0.006 C 
HETATM    4  C1  UNL     1     -34.247   6.804   6.485  1.00 20.00     0.012 C 
HETATM    5  C2  UNL     1     -34.714   5.007   4.810  1.00 20.00     0.012 C 
ENDBRANCH   2   3
BRANCH   2   6
HETATM    6  O8  UNL     1     -33.085   8.226   3.900  1.00 20.00    -0.385 OA
BRANCH   6   7
HETATM    7  C4  UNL     1     -32.268   8.509   2.775  1.00 20.00     0.178 C 
BRANCH   7   8
HETATM    8  C5  UNL     1     -32.946   9.540   1.886  1.00 20.00     0.097 C 
BRANCH   8   9
HETATM    9  S9  UNL     1     -32.711   9.152   0.124  1.00 20.00    -0.180 SA
HETATM   10  H25 UNL     1     -32.098  10.301  -0.190  1.00 20.00     0.101 HD
ENDBRANCH   8   9
ENDBRANCH   7   8
ENDBRANCH   6   7
ENDBRANCH   2   6
TORSDOF 5
ENDMDL
MODEL 5
REMARK VINA RESULT:      -3.1     11.641     12.376
REMARK  5 active torsions:
REMARK  status: ('A' for Active; 'I' for Inactive)
REMARK    1  A    between atoms: C4_4  and  C5_5 
REMARK    2  A    between atoms: C4_4  and  O8_8 
REMARK    3  A    between atoms: C5_5  and  S9_9 
REMARK    4  A    between atoms: C6_6  and  C7_7 
REMARK    5  A    between atoms: C7_7  and  O8_8 
ROOT
HETATM    1  C3  UNL     1     -33.039  18.439  -3.077  1.00 20.00     0.040 C 
HETATM    2  C7  UNL     1     -33.729  17.642  -1.975  1.00 20.00     0.120 C 
ENDROOT
BRANCH   2   3
HETATM    3  C6  UNL     1     -33.139  17.892  -0.572  1.00 20.00     0.006 C 
HETATM    4  C1  UNL     1     -34.093  18.679   0.332  1.00 20.00     0.012 C 
HETATM    5  C2  UNL     1     -31.801  18.635  -0.667  1.00 20.00     0.012 C 
ENDBRANCH   2   3
BRANCH   2   6
HETATM    6  O8  UNL     1     -33.590  16.254  -2.285  1.00 20.00    -0.385 OA
BRANCH   6   7
HETATM    7  C4  UNL     1     -33.169  16.066  -3.627  1.00 20.00     0.178 C 
BRANCH   7   8
HETATM    8  C5  UNL     1     -33.749  14.772  -4.177  1.00 20.00     0.097 C 
BRANCH   8   9
HETATM    9  S9  UNL     1     -35.004  15.099  -5.453  1.00 20.00    -0.180 SA
HETATM   10  H25 UNL     1     -34.601  14.137  -6.293  1.00 20.00     0.101 HD
ENDBRANCH   8   9
ENDBRANCH   7   8
ENDBRANCH   6   7
ENDBRANCH   2   6
TORSDOF 5
ENDMDL
MODEL 6
REMARK VINA RESULT:      -3.1     15.667     16.768
REMARK  5 active torsions:
REMARK  status: ('A' for Active; 'I' for Inactive)
REMARK    1  A    between atoms: C4_4  and  C5_5 
REMARK    2  A    between atoms: C4_4  and  O8_8 
REMARK    3  A    between atoms: C5_5  and  S9_9 
REMARK    4  A    between atoms: C6_6  and  C7_7 
REMARK    5  A    between atoms: C7_7  and  O8_8 
ROOT
HETATM    1  C3  UNL     1     -21.872  18.354  12.331  1.00 20.00     0.040 C 
HETATM    2  C7  UNL     1     -23.198  18.681  11.652  1.00 20.00     0.120 C 
ENDROOT
BRANCH   2   3
HETATM    3  C6  UNL     1     -24.412  17.988  12.305  1.00 20.00     0.006 C 
HETATM    4  C1  UNL     1     -24.703  16.616  11.690  1.00 20.00     0.012 C 
HETATM    5  C2  UNL     1     -25.664  18.868  12.199  1.00 20.00     0.012 C 
ENDBRANCH   2   3
BRANCH   2   6
HETATM    6  O8  UNL     1     -23.110  18.257  10.291  1.00 20.00    -0.385 OA
BRANCH   6   7
HETATM    7  C4  UNL     1     -21.796  18.422   9.784  1.00 20.00     0.178 C 
BRANCH   7   8
HETATM    8  C5  UNL     1     -21.500  17.350   8.745  1.00 20.00     0.097 C 
BRANCH   8   9
HETATM    9  S9  UNL     1     -21.299  18.072   7.088  1.00 20.00    -0.180 SA
HETATM   10  H25 UNL     1     -21.880  17.061   6.426  1.00 20.00     0.101 HD
ENDBRANCH   8   9
ENDBRANCH   7   8
ENDBRANCH   6   7
ENDBRANCH   2   6
TORSDOF 5
ENDMDL
MODEL 7
REMARK VINA RESULT:      -3.1      9.653     10.456
REMARK  5 active torsions:
REMARK  status: ('A' for Active; 'I' for Inactive)
REMARK    1  A    between atoms: C4_4  and  C5_5 
REMARK    2  A    between atoms: C4_4  and  O8_8 
REMARK    3  A    between atoms: C5_5  and  S9_9 
REMARK    4  A    between atoms: C6_6  and  C7_7 
REMARK    5  A    between atoms: C7_7  and  O8_8 
ROOT
HETATM    1  C3  UNL     1     -42.078  12.537   6.653  1.00 20.00     0.040 C 
HETATM    2  C7  UNL     1     -40.883  12.959   5.805  1.00 20.00     0.120 C 
ENDROOT
BRANCH   2   3
HETATM    3  C6  UNL     1     -39.824  11.849   5.636  1.00 20.00     0.006 C 
HETATM    4  C1  UNL     1     -38.625  12.037   6.569  1.00 20.00     0.012 C 
HETATM    5  C2  UNL     1     -39.333  11.781   4.184  1.00 20.00     0.012 C 
ENDBRANCH   2   3
BRANCH   2   6
HETATM    6  O8  UNL     1     -40.267  14.080   6.441  1.00 20.00    -0.385 OA
BRANCH   6   7
HETATM    7  C4  UNL     1     -41.133  14.668   7.398  1.00 20.00     0.178 C 
BRANCH   7   8
HETATM    8  C5  UNL     1     -40.319  15.302   8.516  1.00 20.00     0.097 C 
BRANCH   8   9
HETATM    9  S9  UNL     1     -40.686  14.530  10.122  1.00 20.00    -0.180 SA
HETATM   10  H25 UNL     1     -39.708  15.147  10.799  1.00 20.00     0.101 HD
ENDBRANCH   8   9
ENDBRANCH   7   8
ENDBRANCH   6   7
ENDBRANCH   2   6
TORSDOF 5
ENDMDL
MODEL 8
REMARK VINA RESULT:      -3.0      2.062      2.758
REMARK  5 active torsions:
REMARK  status: ('A' for Active; 'I' for Inactive)
REMARK    1  A    between atoms: C4_4  and  C5_5 
REMARK    2  A    between atoms: C4_4  and  O8_8 
REMARK    3  A    between atoms: C5_5  and  S9_9 
REMARK    4  A    between atoms: C6_6  and  C7_7 
REMARK    5  A    between atoms: C7_7  and  O8_8 
ROOT
HETATM    1  C3  UNL     1     -33.043   4.977   2.555  1.00 20.00     0.040 C 
HETATM    2  C7  UNL     1     -33.302   5.644   3.901  1.00 20.00     0.120 C 
ENDROOT
BRANCH   2   3
HETATM    3  C6  UNL     1     -34.569   5.126   4.613  1.00 20.00     0.006 C 
HETATM    4  C1  UNL     1     -35.809   5.961   4.282  1.00 20.00     0.012 C 
HETATM    5  C2  UNL     1     -34.367   5.097   6.133  1.00 20.00     0.012 C 
ENDBRANCH   2   3
BRANCH   2   6
HETATM    6  O8  UNL     1     -33.451   7.047   3.673  1.00 20.00    -0.385 OA
BRANCH   6   7
HETATM    7  C4  UNL     1     -32.193   7.701   3.647  1.00 20.00     0.178 C 
BRANCH   7   8
HETATM    8  C5  UNL     1     -32.175   8.836   4.659  1.00 20.00     0.097 C 
BRANCH   8   9
HETATM    9  S9  UNL     1     -33.587   8.728   5.801  1.00 20.00    -0.180 SA
HETATM   10  H25 UNL     1     -33.124   7.678   6.493  1.00 20.00     0.101 HD
ENDBRANCH   8   9
ENDBRANCH   7   8
ENDBRANCH   6   7
ENDBRANCH   2   6
TORSDOF 5
ENDMDL
MODEL 9
REMARK VINA RESULT:      -3.0      9.797     10.314
REMARK  5 active torsions:
REMARK  status: ('A' for Active; 'I' for Inactive)
REMARK    1  A    between atoms: C4_4  and  C5_5 
REMARK    2  A    between atoms: C4_4  and  O8_8 
REMARK    3  A    between atoms: C5_5  and  S9_9 
REMARK    4  A    between atoms: C6_6  and  C7_7 
REMARK    5  A    between atoms: C7_7  and  O8_8 
ROOT
HETATM    1  C3  UNL     1     -40.658  13.993   6.575  1.00 20.00     0.040 C 
HETATM    2  C7  UNL     1     -40.966  12.899   5.558  1.00 20.00     0.120 C 
ENDROOT
BRANCH   2   3
HETATM    3  C6  UNL     1     -39.853  11.838   5.438  1.00 20.00     0.006 C 
HETATM    4  C1  UNL     1     -38.752  12.023   6.485  1.00 20.00     0.012 C 
HETATM    5  C2  UNL     1     -39.230  11.859   4.036  1.00 20.00     0.012 C 
ENDBRANCH   2   3
BRANCH   2   6
HETATM    6  O8  UNL     1     -41.140  13.522   4.284  1.00 20.00    -0.385 OA
BRANCH   6   7
HETATM    7  C4  UNL     1     -42.219  14.441   4.303  1.00 20.00     0.178 C 
BRANCH   7   8
HETATM    8  C5  UNL     1     -42.290  15.189   2.979  1.00 20.00     0.097 C 
BRANCH   8   9
HETATM    9  S9  UNL     1     -42.836  16.907   3.217  1.00 20.00    -0.180 SA
HETATM   10  H25 UNL     1     -41.842  17.255   4.045  1.00 20.00     0.101 HD
ENDBRANCH   8   9
ENDBRANCH   7   8
ENDBRANCH   6   7
ENDBRANCH   2   6
TORSDOF 5
ENDMDL
