MODEL 1
REMARK VINA RESULT:      -3.9      0.000      0.000
REMARK  3 active torsions:
REMARK  status: ('A' for Active; 'I' for Inactive)
REMARK    1  A    between atoms: C3_3  and  C6_6 
REMARK    2  A    between atoms: C5_5  and  C6_6 
REMARK    3  A    between atoms: C5_5  and  O7_7 
ROOT
HETATM    1  C6  UNL     1     -32.809   7.094   3.967  1.00 20.00     0.110 C 
HETATM    2 CL8  UNL     1     -32.954   5.677   2.861  1.00 20.00    -0.122 Cl
ENDROOT
BRANCH   1   3
HETATM    3  C3  UNL     1     -34.026   7.208   4.818  1.00 20.00     0.006 A 
HETATM    4  C1  UNL     1     -34.735   5.972   5.296  1.00 20.00     0.006 A 
HETATM    5  C2  UNL     1     -33.972   6.825   6.271  1.00 20.00     0.006 A 
ENDBRANCH   1   3
BRANCH   1   6
HETATM    6  C5  UNL     1     -32.560   8.350   3.115  1.00 20.00     0.187 C 
BRANCH   6   7
HETATM    7  O7  UNL     1     -32.185   7.996   1.790  1.00 20.00    -0.394 OA
HETATM    8  C4  UNL     1     -32.562   8.999   0.857  1.00 20.00     0.201 C 
ENDBRANCH   6   7
ENDBRANCH   1   6
TORSDOF 3
ENDMDL
MODEL 2
REMARK VINA RESULT:      -3.9      2.504      3.496
REMARK  3 active torsions:
REMARK  status: ('A' for Active; 'I' for Inactive)
REMARK    1  A    between atoms: C3_3  and  C6_6 
REMARK    2  A    between atoms: C5_5  and  C6_6 
REMARK    3  A    between atoms: C5_5  and  O7_7 
ROOT
HETATM    1  C6  UNL     1     -33.719   6.669   5.152  1.00 20.00     0.110 C 
HETATM    2 CL8  UNL     1     -34.445   6.740   6.801  1.00 20.00    -0.122 Cl
ENDROOT
BRANCH   1   3
HETATM    3  C3  UNL     1     -33.590   8.042   4.588  1.00 20.00     0.006 A 
HETATM    4  C1  UNL     1     -32.466   8.939   5.028  1.00 20.00     0.006 A 
HETATM    5  C2  UNL     1     -32.471   8.367   3.638  1.00 20.00     0.006 A 
ENDBRANCH   1   3
BRANCH   1   6
HETATM    6  C5  UNL     1     -34.588   5.749   4.278  1.00 20.00     0.187 C 
BRANCH   6   7
HETATM    7  O7  UNL     1     -33.834   4.638   3.808  1.00 20.00    -0.394 OA
HETATM    8  C4  UNL     1     -33.040   4.986   2.684  1.00 20.00     0.201 C 
ENDBRANCH   6   7
ENDBRANCH   1   6
TORSDOF 3
ENDMDL
MODEL 3
REMARK VINA RESULT:      -3.8      1.453      1.805
REMARK  3 active torsions:
REMARK  status: ('A' for Active; 'I' for Inactive)
REMARK    1  A    between atoms: C3_3  and  C6_6 
REMARK    2  A    between atoms: C5_5  and  C6_6 
REMARK    3  A    between atoms: C5_5  and  O7_7 
ROOT
HETATM    1  C6  UNL     1     -32.925   6.244   3.832  1.00 20.00     0.110 C 
HETATM    2 CL8  UNL     1     -33.020   4.971   2.558  1.00 20.00    -0.122 Cl
ENDROOT
BRANCH   1   3
HETATM    3  C3  UNL     1     -34.254   6.419   4.482  1.00 20.00     0.006 A 
HETATM    4  C1  UNL     1     -34.999   5.227   5.016  1.00 20.00     0.006 A 
HETATM    5  C2  UNL     1     -34.400   6.227   5.966  1.00 20.00     0.006 A 
ENDBRANCH   1   3
BRANCH   1   6
HETATM    6  C5  UNL     1     -32.405   7.539   3.186  1.00 20.00     0.187 C 
BRANCH   6   7
HETATM    7  O7  UNL     1     -32.954   8.681   3.831  1.00 20.00    -0.394 OA
HETATM    8  C4  UNL     1     -32.145   9.104   4.919  1.00 20.00     0.201 C 
ENDBRANCH   6   7
ENDBRANCH   1   6
TORSDOF 3
ENDMDL
MODEL 4
REMARK VINA RESULT:      -3.7      1.829      2.055
REMARK  3 active torsions:
REMARK  status: ('A' for Active; 'I' for Inactive)
REMARK    1  A    between atoms: C3_3  and  C6_6 
REMARK    2  A    between atoms: C5_5  and  C6_6 
REMARK    3  A    between atoms: C5_5  and  O7_7 
ROOT
HETATM    1  C6  UNL     1     -33.730   7.432   4.847  1.00 20.00     0.110 C 
HETATM    2 CL8  UNL     1     -33.381   7.373   6.615  1.00 20.00    -0.122 Cl
ENDROOT
BRANCH   1   3
HETATM    3  C3  UNL     1     -34.152   6.087   4.362  1.00 20.00     0.006 A 
HETATM    4  C1  UNL     1     -34.565   5.024   5.341  1.00 20.00     0.006 A 
HETATM    5  C2  UNL     1     -35.593   5.669   4.454  1.00 20.00     0.006 A 
ENDBRANCH   1   3
BRANCH   1   6
HETATM    6  C5  UNL     1     -32.479   7.957   4.123  1.00 20.00     0.187 C 
BRANCH   6   7
HETATM    7  O7  UNL     1     -32.208   7.188   2.958  1.00 20.00    -0.394 OA
HETATM    8  C4  UNL     1     -32.181   7.999   1.792  1.00 20.00     0.201 C 
ENDBRANCH   6   7
ENDBRANCH   1   6
TORSDOF 3
ENDMDL
MODEL 5
REMARK VINA RESULT:      -3.4      9.641     10.259
REMARK  3 active torsions:
REMARK  status: ('A' for Active; 'I' for Inactive)
REMARK    1  A    between atoms: C3_3  and  C6_6 
REMARK    2  A    between atoms: C5_5  and  C6_6 
REMARK    3  A    between atoms: C5_5  and  O7_7 
ROOT
HETATM    1  C6  UNL     1     -40.690  13.365   5.984  1.00 20.00     0.110 C 
HETATM    2 CL8  UNL     1     -41.563  13.883   4.493  1.00 20.00    -0.122 Cl
ENDROOT
BRANCH   1   3
HETATM    3  C3  UNL     1     -39.980  12.077   5.742  1.00 20.00     0.006 A 
HETATM    4  C1  UNL     1     -39.372  11.788   4.398  1.00 20.00     0.006 A 
HETATM    5  C2  UNL     1     -38.485  12.056   5.582  1.00 20.00     0.006 A 
ENDBRANCH   1   3
BRANCH   1   6
HETATM    6  C5  UNL     1     -41.706  13.276   7.134  1.00 20.00     0.187 C 
BRANCH   6   7
HETATM    7  O7  UNL     1     -41.069  13.488   8.389  1.00 20.00    -0.394 OA
HETATM    8  C4  UNL     1     -40.386  14.732   8.422  1.00 20.00     0.201 C 
ENDBRANCH   6   7
ENDBRANCH   1   6
TORSDOF 3
ENDMDL
MODEL 6
REMARK VINA RESULT:      -3.4      2.058      2.437
REMARK  3 active torsions:
REMARK  status: ('A' for Active; 'I' for Inactive)
REMARK    1  A    between atoms: C3_3  and  C6_6 
REMARK    2  A    between atoms: C5_5  and  C6_6 
REMARK    3  A    between atoms: C5_5  and  O7_7 
ROOT
HETATM    1  C6  UNL     1     -33.165   7.670   4.393  1.00 20.00     0.110 C 
HETATM    2 CL8  UNL     1     -32.459   9.163   5.116  1.00 20.00    -0.122 Cl
ENDROOT
BRANCH   1   3
HETATM    3  C3  UNL     1     -33.423   6.657   5.455  1.00 20.00     0.006 A 
HETATM    4  C1  UNL     1     -34.324   6.985   6.613  1.00 20.00     0.006 A 
HETATM    5  C2  UNL     1     -34.772   6.004   5.566  1.00 20.00     0.006 A 
ENDBRANCH   1   3
BRANCH   1   6
HETATM    6  C5  UNL     1     -32.207   7.158   3.305  1.00 20.00     0.187 C 
BRANCH   6   7
HETATM    7  O7  UNL     1     -32.914   6.427   2.311  1.00 20.00    -0.394 OA
HETATM    8  C4  UNL     1     -32.863   5.029   2.558  1.00 20.00     0.201 C 
ENDBRANCH   6   7
ENDBRANCH   1   6
TORSDOF 3
ENDMDL
MODEL 7
REMARK VINA RESULT:      -3.4      2.687      4.143
REMARK  3 active torsions:
REMARK  status: ('A' for Active; 'I' for Inactive)
REMARK    1  A    between atoms: C3_3  and  C6_6 
REMARK    2  A    between atoms: C5_5  and  C6_6 
REMARK    3  A    between atoms: C5_5  and  O7_7 
ROOT
HETATM    1  C6  UNL     1     -32.830   7.565   4.888  1.00 20.00     0.110 C 
HETATM    2 CL8  UNL     1     -32.159   9.237   4.969  1.00 20.00    -0.122 Cl
ENDROOT
BRANCH   1   3
HETATM    3  C3  UNL     1     -33.191   7.224   3.483  1.00 20.00     0.006 A 
HETATM    4  C1  UNL     1     -32.149   7.269   2.400  1.00 20.00     0.006 A 
HETATM    5  C2  UNL     1     -32.695   5.947   2.863  1.00 20.00     0.006 A 
ENDBRANCH   1   3
BRANCH   1   6
HETATM    6  C5  UNL     1     -34.029   7.477   5.847  1.00 20.00     0.187 C 
BRANCH   6   7
HETATM    7  O7  UNL     1     -33.970   6.285   6.621  1.00 20.00    -0.394 OA
HETATM    8  C4  UNL     1     -34.711   5.235   6.017  1.00 20.00     0.201 C 
ENDBRANCH   6   7
ENDBRANCH   1   6
TORSDOF 3
ENDMDL
MODEL 8
REMARK VINA RESULT:      -3.3      2.423      3.809
REMARK  3 active torsions:
REMARK  status: ('A' for Active; 'I' for Inactive)
REMARK    1  A    between atoms: C3_3  and  C6_6 
REMARK    2  A    between atoms: C5_5  and  C6_6 
REMARK    3  A    between atoms: C5_5  and  O7_7 
ROOT
HETATM    1  C6  UNL     1     -33.919   6.457   3.686  1.00 20.00     0.110 C 
HETATM    2 CL8  UNL     1     -32.966   5.248   2.748  1.00 20.00    -0.122 Cl
ENDROOT
BRANCH   1   3
HETATM    3  C3  UNL     1     -33.029   7.196   4.625  1.00 20.00     0.006 A 
HETATM    4  C1  UNL     1     -32.287   8.419   4.161  1.00 20.00     0.006 A 
HETATM    5  C2  UNL     1     -33.426   8.555   5.132  1.00 20.00     0.006 A 
ENDBRANCH   1   3
BRANCH   1   6
HETATM    6  C5  UNL     1     -35.061   5.722   4.407  1.00 20.00     0.187 C 
BRANCH   6   7
HETATM    7  O7  UNL     1     -34.550   4.701   5.254  1.00 20.00    -0.394 OA
HETATM    8  C4  UNL     1     -34.514   5.119   6.611  1.00 20.00     0.201 C 
ENDBRANCH   6   7
ENDBRANCH   1   6
TORSDOF 3
ENDMDL
MODEL 9
REMARK VINA RESULT:      -3.2     11.421     11.793
REMARK  3 active torsions:
REMARK  status: ('A' for Active; 'I' for Inactive)
REMARK    1  A    between atoms: C3_3  and  C6_6 
REMARK    2  A    between atoms: C5_5  and  C6_6 
REMARK    3  A    between atoms: C5_5  and  O7_7 
ROOT
HETATM    1  C6  UNL     1     -34.069  16.206  -3.757  1.00 20.00     0.110 C 
HETATM    2 CL8  UNL     1     -34.229  17.471  -5.032  1.00 20.00    -0.122 Cl
ENDROOT
BRANCH   1   3
HETATM    3  C3  UNL     1     -33.133  16.665  -2.693  1.00 20.00     0.006 A 
HETATM    4  C1  UNL     1     -32.950  18.134  -2.427  1.00 20.00     0.006 A 
HETATM    5  C2  UNL     1     -33.669  17.273  -1.426  1.00 20.00     0.006 A 
ENDBRANCH   1   3
BRANCH   1   6
HETATM    6  C5  UNL     1     -33.611  14.899  -4.425  1.00 20.00     0.187 C 
BRANCH   6   7
HETATM    7  O7  UNL     1     -34.464  13.820  -4.062  1.00 20.00    -0.394 OA
HETATM    8  C4  UNL     1     -35.702  13.879  -4.756  1.00 20.00     0.201 C 
ENDBRANCH   6   7
ENDBRANCH   1   6
TORSDOF 3
ENDMDL
