MODEL 1
REMARK VINA RESULT:      -3.4      0.000      0.000
REMARK  4 active torsions:
REMARK  status: ('A' for Active; 'I' for Inactive)
REMARK    1  A    between atoms: C3_3  and  C6_6 
REMARK    2  A    between atoms: C5_5  and  C6_6 
REMARK    3  A    between atoms: C5_5  and  O7_7 
REMARK    4  A    between atoms: C6_6  and  S8_8 
ROOT
HETATM    1  C6  UNL     1     -41.009  13.057   6.106  1.00 20.00     0.072 C 
ENDROOT
BRANCH   1   2
HETATM    2  C3  UNL     1     -40.068  11.886   5.842  1.00 20.00     0.001 A 
HETATM    3  C1  UNL     1     -39.438  11.711   4.488  1.00 20.00     0.006 A 
HETATM    4  C2  UNL     1     -38.595  12.124   5.663  1.00 20.00     0.006 A 
ENDBRANCH   1   2
BRANCH   1   5
HETATM    5  C5  UNL     1     -40.372  14.138   6.980  1.00 20.00     0.182 C 
BRANCH   5   6
HETATM    6  O7  UNL     1     -40.238  13.702   8.328  1.00 20.00    -0.395 OA
HETATM    7  C4  UNL     1     -40.262  14.795   9.235  1.00 20.00     0.201 C 
ENDBRANCH   5   6
ENDBRANCH   1   5
BRANCH   1   8
HETATM    8  S8  UNL     1     -42.543  12.436   6.885  1.00 20.00    -0.175 SA
HETATM    9  H20 UNL     1     -43.288  13.502   6.572  1.00 20.00     0.102 HD
ENDBRANCH   1   8
TORSDOF 4
ENDMDL
MODEL 2
REMARK VINA RESULT:      -3.4      9.635     10.301
REMARK  4 active torsions:
REMARK  status: ('A' for Active; 'I' for Inactive)
REMARK    1  A    between atoms: C3_3  and  C6_6 
REMARK    2  A    between atoms: C5_5  and  C6_6 
REMARK    3  A    between atoms: C5_5  and  O7_7 
REMARK    4  A    between atoms: C6_6  and  S8_8 
ROOT
HETATM    1  C6  UNL     1     -32.798   7.023   3.936  1.00 20.00     0.072 C 
ENDROOT
BRANCH   1   2
HETATM    2  C3  UNL     1     -34.024   7.184   4.829  1.00 20.00     0.001 A 
HETATM    3  C1  UNL     1     -34.740   5.973   5.359  1.00 20.00     0.006 A 
HETATM    4  C2  UNL     1     -33.944   6.844   6.291  1.00 20.00     0.006 A 
ENDBRANCH   1   2
BRANCH   1   5
HETATM    5  C5  UNL     1     -32.540   8.252   3.063  1.00 20.00     0.182 C 
BRANCH   5   6
HETATM    6  O7  UNL     1     -32.150   7.880   1.747  1.00 20.00    -0.395 OA
HETATM    7  C4  UNL     1     -32.496   8.879   0.799  1.00 20.00     0.201 C 
ENDBRANCH   5   6
ENDBRANCH   1   5
BRANCH   1   8
HETATM    8  S8  UNL     1     -33.004   5.536   2.890  1.00 20.00    -0.175 SA
HETATM    9  H20 UNL     1     -32.324   6.019   1.844  1.00 20.00     0.102 HD
ENDBRANCH   1   8
TORSDOF 4
ENDMDL
MODEL 3
REMARK VINA RESULT:      -3.3      9.423     10.131
REMARK  4 active torsions:
REMARK  status: ('A' for Active; 'I' for Inactive)
REMARK    1  A    between atoms: C3_3  and  C6_6 
REMARK    2  A    between atoms: C5_5  and  C6_6 
REMARK    3  A    between atoms: C5_5  and  O7_7 
REMARK    4  A    between atoms: C6_6  and  S8_8 
ROOT
HETATM    1  C6  UNL     1     -34.005   7.128   4.205  1.00 20.00     0.072 C 
ENDROOT
BRANCH   1   2
HETATM    2  C3  UNL     1     -34.915   6.090   4.854  1.00 20.00     0.001 A 
HETATM    3  C1  UNL     1     -34.465   4.662   4.982  1.00 20.00     0.006 A 
HETATM    4  C2  UNL     1     -34.578   5.527   6.207  1.00 20.00     0.006 A 
ENDBRANCH   1   2
BRANCH   1   5
HETATM    5  C5  UNL     1     -32.899   6.494   3.361  1.00 20.00     0.182 C 
BRANCH   5   6
HETATM    6  O7  UNL     1     -31.915   7.452   2.992  1.00 20.00    -0.395 OA
HETATM    7  C4  UNL     1     -32.190   8.020   1.719  1.00 20.00     0.201 C 
ENDBRANCH   5   6
ENDBRANCH   1   5
BRANCH   1   8
HETATM    8  S8  UNL     1     -33.278   8.191   5.504  1.00 20.00    -0.175 SA
HETATM    9  H20 UNL     1     -32.005   7.939   5.180  1.00 20.00     0.102 HD
ENDBRANCH   1   8
TORSDOF 4
ENDMDL
MODEL 4
REMARK VINA RESULT:      -3.3      9.564      9.966
REMARK  4 active torsions:
REMARK  status: ('A' for Active; 'I' for Inactive)
REMARK    1  A    between atoms: C3_3  and  C6_6 
REMARK    2  A    between atoms: C5_5  and  C6_6 
REMARK    3  A    between atoms: C5_5  and  O7_7 
REMARK    4  A    between atoms: C6_6  and  S8_8 
ROOT
HETATM    1  C6  UNL     1     -33.113   6.293   4.074  1.00 20.00     0.072 C 
ENDROOT
BRANCH   1   2
HETATM    2  C3  UNL     1     -34.407   6.262   4.880  1.00 20.00     0.001 A 
HETATM    3  C1  UNL     1     -34.648   5.170   5.885  1.00 20.00     0.006 A 
HETATM    4  C2  UNL     1     -34.391   6.578   6.350  1.00 20.00     0.006 A 
ENDBRANCH   1   2
BRANCH   1   5
HETATM    5  C5  UNL     1     -32.812   7.677   3.497  1.00 20.00     0.182 C 
BRANCH   5   6
HETATM    6  O7  UNL     1     -31.733   8.300   4.183  1.00 20.00    -0.395 OA
HETATM    7  C4  UNL     1     -32.195   9.279   5.103  1.00 20.00     0.201 C 
ENDBRANCH   5   6
ENDBRANCH   1   5
BRANCH   1   8
HETATM    8  S8  UNL     1     -33.207   5.055   2.732  1.00 20.00    -0.175 SA
HETATM    9  H20 UNL     1     -33.940   4.173   3.421  1.00 20.00     0.102 HD
ENDBRANCH   1   8
TORSDOF 4
ENDMDL
MODEL 5
REMARK VINA RESULT:      -3.2      9.216     10.129
REMARK  4 active torsions:
REMARK  status: ('A' for Active; 'I' for Inactive)
REMARK    1  A    between atoms: C3_3  and  C6_6 
REMARK    2  A    between atoms: C5_5  and  C6_6 
REMARK    3  A    between atoms: C5_5  and  O7_7 
REMARK    4  A    between atoms: C6_6  and  S8_8 
ROOT
HETATM    1  C6  UNL     1     -33.652   6.661   5.032  1.00 20.00     0.072 C 
ENDROOT
BRANCH   1   2
HETATM    2  C3  UNL     1     -33.546   8.099   4.534  1.00 20.00     0.001 A 
HETATM    3  C1  UNL     1     -32.352   8.939   4.894  1.00 20.00     0.006 A 
HETATM    4  C2  UNL     1     -32.538   8.463   3.480  1.00 20.00     0.006 A 
ENDBRANCH   1   2
BRANCH   1   5
HETATM    5  C5  UNL     1     -34.501   5.782   4.112  1.00 20.00     0.182 C 
BRANCH   5   6
HETATM    6  O7  UNL     1     -33.763   4.661   3.642  1.00 20.00    -0.395 OA
HETATM    7  C4  UNL     1     -32.912   5.013   2.560  1.00 20.00     0.201 C 
ENDBRANCH   5   6
ENDBRANCH   1   5
BRANCH   1   8
HETATM    8  S8  UNL     1     -34.342   6.657   6.725  1.00 20.00    -0.175 SA
HETATM    9  H20 UNL     1     -35.555   7.095   6.371  1.00 20.00     0.102 HD
ENDBRANCH   1   8
TORSDOF 4
ENDMDL
MODEL 6
REMARK VINA RESULT:      -3.0     12.019     12.944
REMARK  4 active torsions:
REMARK  status: ('A' for Active; 'I' for Inactive)
REMARK    1  A    between atoms: C3_3  and  C6_6 
REMARK    2  A    between atoms: C5_5  and  C6_6 
REMARK    3  A    between atoms: C5_5  and  O7_7 
REMARK    4  A    between atoms: C6_6  and  S8_8 
ROOT
HETATM    1  C6  UNL     1     -34.101  16.219  -3.692  1.00 20.00     0.072 C 
ENDROOT
BRANCH   1   2
HETATM    2  C3  UNL     1     -33.141  16.690  -2.605  1.00 20.00     0.001 A 
HETATM    3  C1  UNL     1     -32.933  18.159  -2.363  1.00 20.00     0.006 A 
HETATM    4  C2  UNL     1     -33.671  17.327  -1.351  1.00 20.00     0.006 A 
ENDBRANCH   1   2
BRANCH   1   5
HETATM    5  C5  UNL     1     -33.612  14.956  -4.403  1.00 20.00     0.182 C 
BRANCH   5   6
HETATM    6  O7  UNL     1     -34.411  13.829  -4.066  1.00 20.00    -0.395 OA
HETATM    7  C4  UNL     1     -35.665  13.861  -4.734  1.00 20.00     0.201 C 
ENDBRANCH   5   6
ENDBRANCH   1   5
BRANCH   1   8
HETATM    8  S8  UNL     1     -34.355  17.567  -4.901  1.00 20.00    -0.175 SA
HETATM    9  H20 UNL     1     -34.184  16.803  -5.985  1.00 20.00     0.102 HD
ENDBRANCH   1   8
TORSDOF 4
ENDMDL
MODEL 7
REMARK VINA RESULT:      -3.0      9.270      9.941
REMARK  4 active torsions:
REMARK  status: ('A' for Active; 'I' for Inactive)
REMARK    1  A    between atoms: C3_3  and  C6_6 
REMARK    2  A    between atoms: C5_5  and  C6_6 
REMARK    3  A    between atoms: C5_5  and  O7_7 
REMARK    4  A    between atoms: C6_6  and  S8_8 
ROOT
HETATM    1  C6  UNL     1     -33.889   6.495   3.687  1.00 20.00     0.072 C 
ENDROOT
BRANCH   1   2
HETATM    2  C3  UNL     1     -32.948   7.275   4.599  1.00 20.00     0.001 A 
HETATM    3  C1  UNL     1     -32.467   8.643   4.200  1.00 20.00     0.006 A 
HETATM    4  C2  UNL     1     -33.441   8.489   5.336  1.00 20.00     0.006 A 
ENDBRANCH   1   2
BRANCH   1   5
HETATM    5  C5  UNL     1     -35.074   5.891   4.443  1.00 20.00     0.182 C 
BRANCH   5   6
HETATM    6  O7  UNL     1     -34.681   4.749   5.194  1.00 20.00    -0.395 OA
HETATM    7  C4  UNL     1     -34.492   5.066   6.566  1.00 20.00     0.201 C 
ENDBRANCH   5   6
ENDBRANCH   1   5
BRANCH   1   8
HETATM    8  S8  UNL     1     -32.949   5.181   2.830  1.00 20.00    -0.175 SA
HETATM    9  H20 UNL     1     -33.148   4.247   3.767  1.00 20.00     0.102 HD
ENDBRANCH   1   8
TORSDOF 4
ENDMDL
MODEL 8
REMARK VINA RESULT:      -3.0     11.970     13.020
REMARK  4 active torsions:
REMARK  status: ('A' for Active; 'I' for Inactive)
REMARK    1  A    between atoms: C3_3  and  C6_6 
REMARK    2  A    between atoms: C5_5  and  C6_6 
REMARK    3  A    between atoms: C5_5  and  O7_7 
REMARK    4  A    between atoms: C6_6  and  S8_8 
ROOT
HETATM    1  C6  UNL     1     -33.985  17.813  -3.170  1.00 20.00     0.072 C 
ENDROOT
BRANCH   1   2
HETATM    2  C3  UNL     1     -33.343  17.259  -1.902  1.00 20.00     0.001 A 
HETATM    3  C1  UNL     1     -32.388  18.103  -1.105  1.00 20.00     0.006 A 
HETATM    4  C2  UNL     1     -33.750  17.785  -0.554  1.00 20.00     0.006 A 
ENDBRANCH   1   2
BRANCH   1   5
HETATM    5  C5  UNL     1     -34.087  16.770  -4.283  1.00 20.00     0.182 C 
BRANCH   5   6
HETATM    6  O7  UNL     1     -33.317  15.613  -3.980  1.00 20.00    -0.395 OA
HETATM    7  C4  UNL     1     -34.029  14.420  -4.277  1.00 20.00     0.201 C 
ENDBRANCH   5   6
ENDBRANCH   1   5
BRANCH   1   8
HETATM    8  S8  UNL     1     -33.031  19.263  -3.746  1.00 20.00    -0.175 SA
HETATM    9  H20 UNL     1     -32.600  19.625  -2.532  1.00 20.00     0.102 HD
ENDBRANCH   1   8
TORSDOF 4
ENDMDL
MODEL 9
REMARK VINA RESULT:      -2.9      9.266     10.221
REMARK  4 active torsions:
REMARK  status: ('A' for Active; 'I' for Inactive)
REMARK    1  A    between atoms: C3_3  and  C6_6 
REMARK    2  A    between atoms: C5_5  and  C6_6 
REMARK    3  A    between atoms: C5_5  and  O7_7 
REMARK    4  A    between atoms: C6_6  and  S8_8 
ROOT
HETATM    1  C6  UNL     1     -33.964   7.543   4.915  1.00 20.00     0.072 C 
ENDROOT
BRANCH   1   2
HETATM    2  C3  UNL     1     -34.058   6.925   6.307  1.00 20.00     0.001 A 
HETATM    3  C1  UNL     1     -35.003   5.785   6.568  1.00 20.00     0.006 A 
HETATM    4  C2  UNL     1     -33.518   5.545   6.560  1.00 20.00     0.006 A 
ENDBRANCH   1   2
BRANCH   1   5
HETATM    5  C5  UNL     1     -34.086   6.503   3.800  1.00 20.00     0.182 C 
BRANCH   5   6
HETATM    6  O7  UNL     1     -32.837   6.287   3.156  1.00 20.00    -0.395 OA
HETATM    7  C4  UNL     1     -32.802   5.030   2.495  1.00 20.00     0.201 C 
ENDBRANCH   5   6
ENDBRANCH   1   5
BRANCH   1   8
HETATM    8  S8  UNL     1     -32.385   8.453   4.763  1.00 20.00    -0.175 SA
HETATM    9  H20 UNL     1     -32.779   9.514   5.475  1.00 20.00     0.102 HD
ENDBRANCH   1   8
TORSDOF 4
ENDMDL
