MODEL 1
REMARK VINA RESULT:      -4.4      0.000      0.000
REMARK  3 active torsions:
REMARK  status: ('A' for Active; 'I' for Inactive)
REMARK    1  A    between atoms: C3_3  and  C7_7 
REMARK    2  A    between atoms: C6_6  and  C7_7 
REMARK    3  A    between atoms: C7_7  and  O8_8 
ROOT
HETATM    1  C7  UNL     1     -33.778   7.311   4.336  1.00 20.00     0.126 C 
ENDROOT
BRANCH   1   2
HETATM    2  C3  UNL     1     -34.374   6.159   5.099  1.00 20.00    -0.018 A 
HETATM    3  C1  UNL     1     -34.297   4.784   4.478  1.00 20.00     0.012 A 
HETATM    4  C2  UNL     1     -35.614   5.503   4.536  1.00 20.00     0.012 A 
HETATM    5  C4  UNL     1     -34.250   6.268   6.593  1.00 20.00     0.018 C 
ENDBRANCH   1   2
BRANCH   1   6
HETATM    6  C6  UNL     1     -33.299   8.431   5.271  1.00 20.00     0.028 C 
HETATM    7  C5  UNL     1     -32.047   9.134   4.762  1.00 20.00     0.007 C 
ENDBRANCH   1   6
BRANCH   1   8
HETATM    8  O8  UNL     1     -32.660   6.851   3.570  1.00 20.00    -0.395 OA
HETATM    9  H22 UNL     1     -32.557   7.478   2.839  1.00 20.00     0.210 HD
ENDBRANCH   1   8
TORSDOF 3
ENDMDL
MODEL 2
REMARK VINA RESULT:      -4.3      1.598      3.507
REMARK  3 active torsions:
REMARK  status: ('A' for Active; 'I' for Inactive)
REMARK    1  A    between atoms: C3_3  and  C7_7 
REMARK    2  A    between atoms: C6_6  and  C7_7 
REMARK    3  A    between atoms: C7_7  and  O8_8 
ROOT
HETATM    1  C7  UNL     1     -33.860   7.252   4.937  1.00 20.00     0.126 C 
ENDROOT
BRANCH   1   2
HETATM    2  C3  UNL     1     -32.909   7.272   3.772  1.00 20.00    -0.018 A 
HETATM    3  C1  UNL     1     -31.629   8.061   3.916  1.00 20.00     0.012 A 
HETATM    4  C2  UNL     1     -32.726   8.575   3.028  1.00 20.00     0.012 A 
HETATM    5  C4  UNL     1     -32.865   5.995   2.978  1.00 20.00     0.018 C 
ENDBRANCH   1   2
BRANCH   1   6
HETATM    6  C6  UNL     1     -34.742   5.994   4.936  1.00 20.00     0.028 C 
HETATM    7  C5  UNL     1     -34.616   5.182   6.219  1.00 20.00     0.007 C 
ENDBRANCH   1   6
BRANCH   1   8
HETATM    8  O8  UNL     1     -33.119   7.286   6.161  1.00 20.00    -0.395 OA
HETATM    9  H22 UNL     1     -32.222   6.995   5.942  1.00 20.00     0.210 HD
ENDBRANCH   1   8
TORSDOF 3
ENDMDL
MODEL 3
REMARK VINA RESULT:      -4.1      1.512      2.084
REMARK  3 active torsions:
REMARK  status: ('A' for Active; 'I' for Inactive)
REMARK    1  A    between atoms: C3_3  and  C7_7 
REMARK    2  A    between atoms: C6_6  and  C7_7 
REMARK    3  A    between atoms: C7_7  and  O8_8 
ROOT
HETATM    1  C7  UNL     1     -33.193   7.172   4.650  1.00 20.00     0.126 C 
ENDROOT
BRANCH   1   2
HETATM    2  C3  UNL     1     -33.931   5.906   4.307  1.00 20.00    -0.018 A 
HETATM    3  C1  UNL     1     -35.420   5.865   4.560  1.00 20.00     0.012 A 
HETATM    4  C2  UNL     1     -34.491   5.082   5.443  1.00 20.00     0.012 A 
HETATM    5  C4  UNL     1     -33.398   5.179   3.104  1.00 20.00     0.018 C 
ENDBRANCH   1   2
BRANCH   1   6
HETATM    6  C6  UNL     1     -32.203   7.575   3.547  1.00 20.00     0.028 C 
HETATM    7  C5  UNL     1     -32.588   8.873   2.850  1.00 20.00     0.007 C 
ENDBRANCH   1   6
BRANCH   1   8
HETATM    8  O8  UNL     1     -34.130   8.239   4.831  1.00 20.00    -0.395 OA
HETATM    9  H22 UNL     1     -34.434   8.483   3.944  1.00 20.00     0.210 HD
ENDBRANCH   1   8
TORSDOF 3
ENDMDL
MODEL 4
REMARK VINA RESULT:      -4.1      1.669      3.151
REMARK  3 active torsions:
REMARK  status: ('A' for Active; 'I' for Inactive)
REMARK    1  A    between atoms: C3_3  and  C7_7 
REMARK    2  A    between atoms: C6_6  and  C7_7 
REMARK    3  A    between atoms: C7_7  and  O8_8 
ROOT
HETATM    1  C7  UNL     1     -34.570   6.170   4.183  1.00 20.00     0.126 C 
ENDROOT
BRANCH   1   2
HETATM    2  C3  UNL     1     -33.954   6.931   5.325  1.00 20.00    -0.018 A 
HETATM    3  C1  UNL     1     -34.124   8.432   5.348  1.00 20.00     0.012 A 
HETATM    4  C2  UNL     1     -32.784   7.838   5.022  1.00 20.00     0.012 A 
HETATM    5  C4  UNL     1     -33.959   6.199   6.639  1.00 20.00     0.018 C 
ENDBRANCH   1   2
BRANCH   1   6
HETATM    6  C6  UNL     1     -33.745   4.929   3.810  1.00 20.00     0.028 C 
HETATM    7  C5  UNL     1     -32.896   5.134   2.562  1.00 20.00     0.007 C 
ENDBRANCH   1   6
BRANCH   1   8
HETATM    8  O8  UNL     1     -35.889   5.745   4.545  1.00 20.00    -0.395 OA
HETATM    9  H22 UNL     1     -35.896   5.683   5.511  1.00 20.00     0.210 HD
ENDBRANCH   1   8
TORSDOF 3
ENDMDL
MODEL 5
REMARK VINA RESULT:      -3.9      1.423      2.309
REMARK  3 active torsions:
REMARK  status: ('A' for Active; 'I' for Inactive)
REMARK    1  A    between atoms: C3_3  and  C7_7 
REMARK    2  A    between atoms: C6_6  and  C7_7 
REMARK    3  A    between atoms: C7_7  and  O8_8 
ROOT
HETATM    1  C7  UNL     1     -33.191   6.990   4.610  1.00 20.00     0.126 C 
ENDROOT
BRANCH   1   2
HETATM    2  C3  UNL     1     -34.330   6.260   5.266  1.00 20.00    -0.018 A 
HETATM    3  C1  UNL     1     -34.643   6.587   6.708  1.00 20.00     0.012 A 
HETATM    4  C2  UNL     1     -34.002   5.273   6.363  1.00 20.00     0.012 A 
HETATM    5  C4  UNL     1     -35.479   5.940   4.350  1.00 20.00     0.018 C 
ENDBRANCH   1   2
BRANCH   1   6
HETATM    6  C6  UNL     1     -32.893   6.444   3.205  1.00 20.00     0.028 C 
HETATM    7  C5  UNL     1     -32.158   7.444   2.323  1.00 20.00     0.007 C 
ENDBRANCH   1   6
BRANCH   1   8
HETATM    8  O8  UNL     1     -33.514   8.380   4.496  1.00 20.00    -0.395 OA
HETATM    9  H22 UNL     1     -34.458   8.421   4.286  1.00 20.00     0.210 HD
ENDBRANCH   1   8
TORSDOF 3
ENDMDL
MODEL 6
REMARK VINA RESULT:      -3.7      1.710      2.819
REMARK  3 active torsions:
REMARK  status: ('A' for Active; 'I' for Inactive)
REMARK    1  A    between atoms: C3_3  and  C7_7 
REMARK    2  A    between atoms: C6_6  and  C7_7 
REMARK    3  A    between atoms: C7_7  and  O8_8 
ROOT
HETATM    1  C7  UNL     1     -34.311   5.676   4.174  1.00 20.00     0.126 C 
ENDROOT
BRANCH   1   2
HETATM    2  C3  UNL     1     -34.073   6.393   5.475  1.00 20.00    -0.018 A 
HETATM    3  C1  UNL     1     -33.634   5.571   6.665  1.00 20.00     0.012 A 
HETATM    4  C2  UNL     1     -35.029   6.126   6.616  1.00 20.00     0.012 A 
HETATM    5  C4  UNL     1     -33.516   7.782   5.332  1.00 20.00     0.018 C 
ENDBRANCH   1   2
BRANCH   1   6
HETATM    6  C6  UNL     1     -33.267   6.055   3.112  1.00 20.00     0.028 C 
HETATM    7  C5  UNL     1     -32.767   4.856   2.317  1.00 20.00     0.007 C 
ENDBRANCH   1   6
BRANCH   1   8
HETATM    8  O8  UNL     1     -34.249   4.262   4.386  1.00 20.00    -0.395 OA
HETATM    9  H22 UNL     1     -34.861   4.071   5.112  1.00 20.00     0.210 HD
ENDBRANCH   1   8
TORSDOF 3
ENDMDL
MODEL 7
REMARK VINA RESULT:      -3.7      1.258      3.317
REMARK  3 active torsions:
REMARK  status: ('A' for Active; 'I' for Inactive)
REMARK    1  A    between atoms: C3_3  and  C7_7 
REMARK    2  A    between atoms: C6_6  and  C7_7 
REMARK    3  A    between atoms: C7_7  and  O8_8 
ROOT
HETATM    1  C7  UNL     1     -33.423   6.166   4.228  1.00 20.00     0.126 C 
ENDROOT
BRANCH   1   2
HETATM    2  C3  UNL     1     -33.057   7.625   4.249  1.00 20.00    -0.018 A 
HETATM    3  C1  UNL     1     -32.686   8.280   2.939  1.00 20.00     0.012 A 
HETATM    4  C2  UNL     1     -31.621   7.999   3.960  1.00 20.00     0.012 A 
HETATM    5  C4  UNL     1     -33.809   8.445   5.260  1.00 20.00     0.018 C 
ENDBRANCH   1   2
BRANCH   1   6
HETATM    6  C6  UNL     1     -34.809   5.914   4.842  1.00 20.00     0.028 C 
HETATM    7  C5  UNL     1     -34.740   5.261   6.216  1.00 20.00     0.007 C 
ENDBRANCH   1   6
BRANCH   1   8
HETATM    8  O8  UNL     1     -33.433   5.693   2.877  1.00 20.00    -0.395 OA
HETATM    9  H22 UNL     1     -33.906   6.363   2.361  1.00 20.00     0.210 HD
ENDBRANCH   1   8
TORSDOF 3
ENDMDL
MODEL 8
REMARK VINA RESULT:      -3.6     12.364     13.371
REMARK  3 active torsions:
REMARK  status: ('A' for Active; 'I' for Inactive)
REMARK    1  A    between atoms: C3_3  and  C7_7 
REMARK    2  A    between atoms: C6_6  and  C7_7 
REMARK    3  A    between atoms: C7_7  and  O8_8 
ROOT
HETATM    1  C7  UNL     1     -34.022  15.342  -5.577  1.00 20.00     0.126 C 
ENDROOT
BRANCH   1   2
HETATM    2  C3  UNL     1     -35.472  14.976  -5.740  1.00 20.00    -0.018 A 
HETATM    3  C1  UNL     1     -36.078  15.082  -7.120  1.00 20.00     0.012 A 
HETATM    4  C2  UNL     1     -36.450  16.082  -6.063  1.00 20.00     0.012 A 
HETATM    5  C4  UNL     1     -35.939  13.860  -4.847  1.00 20.00     0.018 C 
ENDBRANCH   1   2
BRANCH   1   6
HETATM    6  C6  UNL     1     -33.477  14.929  -4.201  1.00 20.00     0.028 C 
HETATM    7  C5  UNL     1     -33.381  16.096  -3.227  1.00 20.00     0.007 C 
ENDBRANCH   1   6
BRANCH   1   8
HETATM    8  O8  UNL     1     -33.246  14.687  -6.587  1.00 20.00    -0.395 OA
HETATM    9  H22 UNL     1     -33.700  13.853  -6.777  1.00 20.00     0.210 HD
ENDBRANCH   1   8
TORSDOF 3
ENDMDL
MODEL 9
REMARK VINA RESULT:      -3.4      9.378      9.878
REMARK  3 active torsions:
REMARK  status: ('A' for Active; 'I' for Inactive)
REMARK    1  A    between atoms: C3_3  and  C7_7 
REMARK    2  A    between atoms: C6_6  and  C7_7 
REMARK    3  A    between atoms: C7_7  and  O8_8 
ROOT
HETATM    1  C7  UNL     1     -40.618  12.352   6.268  1.00 20.00     0.126 C 
ENDROOT
BRANCH   1   2
HETATM    2  C3  UNL     1     -41.935  13.054   6.460  1.00 20.00    -0.018 A 
HETATM    3  C1  UNL     1     -42.385  13.339   7.873  1.00 20.00     0.012 A 
HETATM    4  C2  UNL     1     -43.073  12.271   7.072  1.00 20.00     0.012 A 
HETATM    5  C4  UNL     1     -42.265  14.064   5.396  1.00 20.00     0.018 C 
ENDBRANCH   1   2
BRANCH   1   6
HETATM    6  C6  UNL     1     -40.087  12.511   4.835  1.00 20.00     0.028 C 
HETATM    7  C5  UNL     1     -38.801  11.733   4.590  1.00 20.00     0.007 C 
ENDBRANCH   1   6
BRANCH   1   8
HETATM    8  O8  UNL     1     -39.650  12.893   7.173  1.00 20.00    -0.395 OA
HETATM    9  H22 UNL     1     -39.905  12.586   8.056  1.00 20.00     0.210 HD
ENDBRANCH   1   8
TORSDOF 3
ENDMDL
