MODEL 1
REMARK VINA RESULT:      -4.9      0.000      0.000
REMARK  3 active torsions:
REMARK  status: ('A' for Active; 'I' for Inactive)
REMARK    1  A    between atoms: C3_3  and  C7_7 
REMARK    2  A    between atoms: C3_3  and  C8_8 
REMARK    3  A    between atoms: C6_6  and  C8_8 
ROOT
HETATM    1  C1  UNL     1     -32.940   5.149   2.609  1.00 20.00     0.012 C 
HETATM    2  C2  UNL     1     -32.586   6.272   2.845  1.00 20.00    -0.110 C 
HETATM    3  C7  UNL     1     -32.150   7.644   3.126  1.00 20.00     0.171 C 
ENDROOT
BRANCH   3   4
HETATM    4  C3  UNL     1     -32.749   8.196   4.407  1.00 20.00     0.138 C 
HETATM    5  O9  UNL     1     -32.149   8.994   5.127  1.00 20.00    -0.297 OA
BRANCH   4   6
HETATM    6  C8  UNL     1     -34.143   7.697   4.744  1.00 20.00     0.083 C 
BRANCH   6   7
HETATM    7  C6  UNL     1     -34.249   7.075   6.101  1.00 20.00    -0.007 A 
HETATM    8  C4  UNL     1     -34.873   5.716   6.265  1.00 20.00     0.005 A 
HETATM    9  C5  UNL     1     -33.392   5.893   6.462  1.00 20.00     0.005 A 
ENDBRANCH   6   7
ENDBRANCH   4   6
ENDBRANCH   3   4
TORSDOF 3
ENDMDL
MODEL 2
REMARK VINA RESULT:      -4.8      1.213      1.793
REMARK  3 active torsions:
REMARK  status: ('A' for Active; 'I' for Inactive)
REMARK    1  A    between atoms: C3_3  and  C7_7 
REMARK    2  A    between atoms: C3_3  and  C8_8 
REMARK    3  A    between atoms: C6_6  and  C8_8 
ROOT
HETATM    1  C1  UNL     1     -32.259   8.564   0.838  1.00 20.00     0.012 C 
HETATM    2  C2  UNL     1     -32.250   8.015   1.905  1.00 20.00    -0.110 C 
HETATM    3  C7  UNL     1     -32.236   7.336   3.206  1.00 20.00     0.171 C 
ENDROOT
BRANCH   3   4
HETATM    4  C3  UNL     1     -32.639   8.252   4.347  1.00 20.00     0.138 C 
HETATM    5  O9  UNL     1     -32.168   9.380   4.486  1.00 20.00    -0.297 OA
BRANCH   4   6
HETATM    6  C8  UNL     1     -33.664   7.682   5.311  1.00 20.00     0.083 C 
BRANCH   6   7
HETATM    7  C6  UNL     1     -33.922   6.220   5.124  1.00 20.00    -0.007 A 
HETATM    8  C4  UNL     1     -34.722   5.455   6.142  1.00 20.00     0.005 A 
HETATM    9  C5  UNL     1     -35.303   5.733   4.783  1.00 20.00     0.005 A 
ENDBRANCH   6   7
ENDBRANCH   4   6
ENDBRANCH   3   4
TORSDOF 3
ENDMDL
MODEL 3
REMARK VINA RESULT:      -4.5      1.769      3.083
REMARK  3 active torsions:
REMARK  status: ('A' for Active; 'I' for Inactive)
REMARK    1  A    between atoms: C3_3  and  C7_7 
REMARK    2  A    between atoms: C3_3  and  C8_8 
REMARK    3  A    between atoms: C6_6  and  C8_8 
ROOT
HETATM    1  C1  UNL     1     -32.961   5.014   2.644  1.00 20.00     0.012 C 
HETATM    2  C2  UNL     1     -33.810   5.160   3.481  1.00 20.00    -0.110 C 
HETATM    3  C7  UNL     1     -34.852   5.333   4.499  1.00 20.00     0.171 C 
ENDROOT
BRANCH   3   4
HETATM    4  C3  UNL     1     -34.345   6.051   5.737  1.00 20.00     0.138 C 
HETATM    5  O9  UNL     1     -34.160   5.473   6.807  1.00 20.00    -0.297 OA
BRANCH   4   6
HETATM    6  C8  UNL     1     -34.082   7.537   5.568  1.00 20.00     0.083 C 
BRANCH   6   7
HETATM    7  C6  UNL     1     -32.727   7.852   5.017  1.00 20.00    -0.007 A 
HETATM    8  C4  UNL     1     -32.590   8.558   3.696  1.00 20.00     0.005 A 
HETATM    9  C5  UNL     1     -32.240   9.274   4.971  1.00 20.00     0.005 A 
ENDBRANCH   6   7
ENDBRANCH   4   6
ENDBRANCH   3   4
TORSDOF 3
ENDMDL
MODEL 4
REMARK VINA RESULT:      -4.4      1.199      1.664
REMARK  3 active torsions:
REMARK  status: ('A' for Active; 'I' for Inactive)
REMARK    1  A    between atoms: C3_3  and  C7_7 
REMARK    2  A    between atoms: C3_3  and  C8_8 
REMARK    3  A    between atoms: C6_6  and  C8_8 
ROOT
HETATM    1  C1  UNL     1     -32.268   6.797   2.516  1.00 20.00     0.012 C 
HETATM    2  C2  UNL     1     -32.275   7.600   3.409  1.00 20.00    -0.110 C 
HETATM    3  C7  UNL     1     -32.277   8.586   4.495  1.00 20.00     0.171 C 
ENDROOT
BRANCH   3   4
HETATM    4  C3  UNL     1     -33.368   8.324   5.518  1.00 20.00     0.138 C 
HETATM    5  O9  UNL     1     -34.225   9.161   5.799  1.00 20.00    -0.297 OA
BRANCH   4   6
HETATM    6  C8  UNL     1     -33.331   6.957   6.177  1.00 20.00     0.083 C 
BRANCH   6   7
HETATM    7  C6  UNL     1     -34.611   6.192   6.052  1.00 20.00    -0.007 A 
HETATM    8  C4  UNL     1     -35.196   5.909   4.696  1.00 20.00     0.005 A 
HETATM    9  C5  UNL     1     -34.605   4.790   5.508  1.00 20.00     0.005 A 
ENDBRANCH   6   7
ENDBRANCH   4   6
ENDBRANCH   3   4
TORSDOF 3
ENDMDL
MODEL 5
REMARK VINA RESULT:      -4.4      1.879      2.701
REMARK  3 active torsions:
REMARK  status: ('A' for Active; 'I' for Inactive)
REMARK    1  A    between atoms: C3_3  and  C7_7 
REMARK    2  A    between atoms: C3_3  and  C8_8 
REMARK    3  A    between atoms: C6_6  and  C8_8 
ROOT
HETATM    1  C1  UNL     1     -32.296   8.926   4.777  1.00 20.00     0.012 C 
HETATM    2  C2  UNL     1     -32.286   8.153   3.857  1.00 20.00    -0.110 C 
HETATM    3  C7  UNL     1     -32.268   7.216   2.729  1.00 20.00     0.171 C 
ENDROOT
BRANCH   3   4
HETATM    4  C3  UNL     1     -33.026   5.934   3.024  1.00 20.00     0.138 C 
HETATM    5  O9  UNL     1     -32.713   4.853   2.528  1.00 20.00    -0.297 OA
BRANCH   4   6
HETATM    6  C8  UNL     1     -34.202   6.075   3.974  1.00 20.00     0.083 C 
BRANCH   6   7
HETATM    7  C6  UNL     1     -33.893   5.670   5.381  1.00 20.00    -0.007 A 
HETATM    8  C4  UNL     1     -34.334   6.532   6.532  1.00 20.00     0.005 A 
HETATM    9  C5  UNL     1     -34.993   5.202   6.293  1.00 20.00     0.005 A 
ENDBRANCH   6   7
ENDBRANCH   4   6
ENDBRANCH   3   4
TORSDOF 3
ENDMDL
MODEL 6
REMARK VINA RESULT:      -4.4      2.089      2.792
REMARK  3 active torsions:
REMARK  status: ('A' for Active; 'I' for Inactive)
REMARK    1  A    between atoms: C3_3  and  C7_7 
REMARK    2  A    between atoms: C3_3  and  C8_8 
REMARK    3  A    between atoms: C6_6  and  C8_8 
ROOT
HETATM    1  C1  UNL     1     -32.203   7.927   3.503  1.00 20.00     0.012 C 
HETATM    2  C2  UNL     1     -32.578   6.827   3.202  1.00 20.00    -0.110 C 
HETATM    3  C7  UNL     1     -33.032   5.483   2.826  1.00 20.00     0.171 C 
ENDROOT
BRANCH   3   4
HETATM    4  C3  UNL     1     -33.960   4.870   3.859  1.00 20.00     0.138 C 
HETATM    5  O9  UNL     1     -33.886   3.689   4.196  1.00 20.00    -0.297 OA
BRANCH   4   6
HETATM    6  C8  UNL     1     -34.991   5.814   4.452  1.00 20.00     0.083 C 
BRANCH   6   7
HETATM    7  C6  UNL     1     -34.903   5.947   5.940  1.00 20.00    -0.007 A 
HETATM    8  C4  UNL     1     -33.577   5.816   6.636  1.00 20.00     0.005 A 
HETATM    9  C5  UNL     1     -34.255   7.156   6.556  1.00 20.00     0.005 A 
ENDBRANCH   6   7
ENDBRANCH   4   6
ENDBRANCH   3   4
TORSDOF 3
ENDMDL
MODEL 7
REMARK VINA RESULT:      -4.2      2.145      4.200
REMARK  3 active torsions:
REMARK  status: ('A' for Active; 'I' for Inactive)
REMARK    1  A    between atoms: C3_3  and  C7_7 
REMARK    2  A    between atoms: C3_3  and  C8_8 
REMARK    3  A    between atoms: C6_6  and  C8_8 
ROOT
HETATM    1  C1  UNL     1     -33.945   7.691   6.687  1.00 20.00     0.012 C 
HETATM    2  C2  UNL     1     -34.286   6.594   6.339  1.00 20.00    -0.110 C 
HETATM    3  C7  UNL     1     -34.708   5.252   5.921  1.00 20.00     0.171 C 
ENDROOT
BRANCH   3   4
HETATM    4  C3  UNL     1     -34.201   4.885   4.539  1.00 20.00     0.138 C 
HETATM    5  O9  UNL     1     -33.921   3.729   4.223  1.00 20.00    -0.297 OA
BRANCH   4   6
HETATM    6  C8  UNL     1     -34.059   6.042   3.566  1.00 20.00     0.083 C 
BRANCH   6   7
HETATM    7  C6  UNL     1     -32.640   6.382   3.234  1.00 20.00    -0.007 A 
HETATM    8  C4  UNL     1     -32.334   7.406   2.175  1.00 20.00     0.005 A 
HETATM    9  C5  UNL     1     -32.070   7.718   3.623  1.00 20.00     0.005 A 
ENDBRANCH   6   7
ENDBRANCH   4   6
ENDBRANCH   3   4
TORSDOF 3
ENDMDL
MODEL 8
REMARK VINA RESULT:      -4.2      1.879      3.754
REMARK  3 active torsions:
REMARK  status: ('A' for Active; 'I' for Inactive)
REMARK    1  A    between atoms: C3_3  and  C7_7 
REMARK    2  A    between atoms: C3_3  and  C8_8 
REMARK    3  A    between atoms: C6_6  and  C8_8 
ROOT
HETATM    1  C1  UNL     1     -32.465   8.743   4.829  1.00 20.00     0.012 C 
HETATM    2  C2  UNL     1     -33.248   8.106   5.479  1.00 20.00    -0.110 C 
HETATM    3  C7  UNL     1     -34.207   7.336   6.278  1.00 20.00     0.171 C 
ENDROOT
BRANCH   3   4
HETATM    4  C3  UNL     1     -34.361   5.908   5.787  1.00 20.00     0.138 C 
HETATM    5  O9  UNL     1     -34.368   4.943   6.551  1.00 20.00    -0.297 OA
BRANCH   4   6
HETATM    6  C8  UNL     1     -34.506   5.746   4.284  1.00 20.00     0.083 C 
BRANCH   6   7
HETATM    7  C6  UNL     1     -33.280   5.210   3.614  1.00 20.00    -0.007 A 
HETATM    8  C4  UNL     1     -33.335   4.766   2.178  1.00 20.00     0.005 A 
HETATM    9  C5  UNL     1     -32.586   6.016   2.551  1.00 20.00     0.005 A 
ENDBRANCH   6   7
ENDBRANCH   4   6
ENDBRANCH   3   4
TORSDOF 3
ENDMDL
MODEL 9
REMARK VINA RESULT:      -4.2      1.521      2.128
REMARK  3 active torsions:
REMARK  status: ('A' for Active; 'I' for Inactive)
REMARK    1  A    between atoms: C3_3  and  C7_7 
REMARK    2  A    between atoms: C3_3  and  C8_8 
REMARK    3  A    between atoms: C6_6  and  C8_8 
ROOT
HETATM    1  C1  UNL     1     -32.812   9.555   0.564  1.00 20.00     0.012 C 
HETATM    2  C2  UNL     1     -32.426   8.664   1.271  1.00 20.00    -0.110 C 
HETATM    3  C7  UNL     1     -31.949   7.573   2.128  1.00 20.00     0.171 C 
ENDROOT
BRANCH   3   4
HETATM    4  C3  UNL     1     -32.539   7.628   3.525  1.00 20.00     0.138 C 
HETATM    5  O9  UNL     1     -32.396   8.600   4.265  1.00 20.00    -0.297 OA
BRANCH   4   6
HETATM    6  C8  UNL     1     -33.319   6.397   3.953  1.00 20.00     0.083 C 
BRANCH   6   7
HETATM    7  C6  UNL     1     -34.378   6.679   4.973  1.00 20.00    -0.007 A 
HETATM    8  C4  UNL     1     -34.806   5.606   5.937  1.00 20.00     0.005 A 
HETATM    9  C5  UNL     1     -34.017   6.788   6.429  1.00 20.00     0.005 A 
ENDBRANCH   6   7
ENDBRANCH   4   6
ENDBRANCH   3   4
TORSDOF 3
ENDMDL
