MODEL 1
REMARK VINA RESULT:      -4.6      0.000      0.000
REMARK  1 active torsions:
REMARK  status: ('A' for Active; 'I' for Inactive)
REMARK    1  A    between atoms: C8_8  and  C9_9 
ROOT
HETATM    1  C1  UNL     1     -34.398   6.222   6.356  1.00 20.00     0.074 C 
HETATM    2  C2  UNL     1     -33.599   7.288   6.468  1.00 20.00     0.139 C 
HETATM    3  C3  UNL     1     -34.495   5.570   5.031  1.00 20.00     0.153 C 
HETATM    4  C4  UNL     1     -33.583   6.096   3.953  1.00 20.00     0.116 C 
HETATM    5  C9  UNL     1     -33.402   7.598   4.148  1.00 20.00     0.139 C 
HETATM    6  O10 UNL     1     -35.233   4.605   4.862  1.00 20.00    -0.293 OA
HETATM    7  O11 UNL     1     -32.911   7.911   5.460  1.00 20.00    -0.357 OA
ENDROOT
BRANCH   5   8
HETATM    8  C8  UNL     1     -32.405   8.133   3.143  1.00 20.00     0.015 C 
HETATM    9  C6  UNL     1     -32.919   9.221   2.165  1.00 20.00     0.007 C 
HETATM   10  C5  UNL     1     -32.030   8.566   1.086  1.00 20.00     0.001 C 
HETATM   11  C7  UNL     1     -32.143   7.255   1.892  1.00 20.00     0.007 C 
ENDBRANCH   5   8
TORSDOF 1
ENDMDL
MODEL 2
REMARK VINA RESULT:      -4.4      1.302      1.941
REMARK  1 active torsions:
REMARK  status: ('A' for Active; 'I' for Inactive)
REMARK    1  A    between atoms: C8_8  and  C9_9 
ROOT
HETATM    1  C1  UNL     1     -34.448   5.518   5.171  1.00 20.00     0.074 C 
HETATM    2  C2  UNL     1     -34.058   5.253   3.920  1.00 20.00     0.139 C 
HETATM    3  C3  UNL     1     -34.147   6.859   5.718  1.00 20.00     0.153 C 
HETATM    4  C4  UNL     1     -33.532   7.853   4.766  1.00 20.00     0.116 C 
HETATM    5  C9  UNL     1     -32.622   7.108   3.794  1.00 20.00     0.139 C 
HETATM    6  O10 UNL     1     -34.455   7.149   6.869  1.00 20.00    -0.293 OA
HETATM    7  O11 UNL     1     -33.322   6.066   3.098  1.00 20.00    -0.357 OA
ENDROOT
BRANCH   5   8
HETATM    8  C8  UNL     1     -32.076   8.068   2.759  1.00 20.00     0.015 C 
HETATM    9  C6  UNL     1     -32.956   9.300   2.421  1.00 20.00     0.007 C 
HETATM   10  C5  UNL     1     -32.483   9.144   0.960  1.00 20.00     0.001 C 
HETATM   11  C7  UNL     1     -32.238   7.653   1.274  1.00 20.00     0.007 C 
ENDBRANCH   5   8
TORSDOF 1
ENDMDL
MODEL 3
REMARK VINA RESULT:      -4.3     11.709     12.850
REMARK  1 active torsions:
REMARK  status: ('A' for Active; 'I' for Inactive)
REMARK    1  A    between atoms: C8_8  and  C9_9 
ROOT
HETATM    1  C1  UNL     1     -34.372  17.058  -4.592  1.00 20.00     0.074 C 
HETATM    2  C2  UNL     1     -34.590  18.322  -4.212  1.00 20.00     0.139 C 
HETATM    3  C3  UNL     1     -33.610  16.185  -3.673  1.00 20.00     0.153 C 
HETATM    4  C4  UNL     1     -33.252  16.768  -2.330  1.00 20.00     0.116 C 
HETATM    5  C9  UNL     1     -32.990  18.262  -2.494  1.00 20.00     0.139 C 
HETATM    6  O10 UNL     1     -33.355  15.025  -3.980  1.00 20.00    -0.293 OA
HETATM    7  O11 UNL     1     -34.108  18.938  -3.087  1.00 20.00    -0.357 OA
ENDROOT
BRANCH   5   8
HETATM    8  C8  UNL     1     -32.735  18.892  -1.141  1.00 20.00     0.015 C 
HETATM    9  C6  UNL     1     -31.411  18.505  -0.432  1.00 20.00     0.007 C 
HETATM   10  C5  UNL     1     -32.197  18.545   0.896  1.00 20.00     0.001 C 
HETATM   11  C7  UNL     1     -33.468  18.258   0.070  1.00 20.00     0.007 C 
ENDBRANCH   5   8
TORSDOF 1
ENDMDL
MODEL 4
REMARK VINA RESULT:      -4.2     11.845     12.410
REMARK  1 active torsions:
REMARK  status: ('A' for Active; 'I' for Inactive)
REMARK    1  A    between atoms: C8_8  and  C9_9 
ROOT
HETATM    1  C1  UNL     1     -30.470  19.195   4.051  1.00 20.00     0.074 C 
HETATM    2  C2  UNL     1     -31.793  19.263   3.862  1.00 20.00     0.139 C 
HETATM    3  C3  UNL     1     -29.607  19.119   2.852  1.00 20.00     0.153 C 
HETATM    4  C4  UNL     1     -30.294  19.248   1.517  1.00 20.00     0.116 C 
HETATM    5  C9  UNL     1     -31.677  18.611   1.609  1.00 20.00     0.139 C 
HETATM    6  O10 UNL     1     -28.389  19.026   2.964  1.00 20.00    -0.293 OA
HETATM    7  O11 UNL     1     -32.459  19.182   2.667  1.00 20.00    -0.357 OA
ENDROOT
BRANCH   5   8
HETATM    8  C8  UNL     1     -32.430  18.824   0.313  1.00 20.00     0.015 C 
HETATM    9  C6  UNL     1     -33.659  17.912   0.064  1.00 20.00     0.007 C 
HETATM   10  C5  UNL     1     -33.252  17.896  -1.425  1.00 20.00     0.001 C 
HETATM   11  C7  UNL     1     -31.811  18.192  -0.961  1.00 20.00     0.007 C 
ENDBRANCH   5   8
TORSDOF 1
ENDMDL
MODEL 5
REMARK VINA RESULT:      -4.2     11.791     12.514
REMARK  1 active torsions:
REMARK  status: ('A' for Active; 'I' for Inactive)
REMARK    1  A    between atoms: C8_8  and  C9_9 
ROOT
HETATM    1  C1  UNL     1     -32.496  19.263   1.456  1.00 20.00     0.074 C 
HETATM    2  C2  UNL     1     -33.788  19.111   1.146  1.00 20.00     0.139 C 
HETATM    3  C3  UNL     1     -31.494  18.895   0.433  1.00 20.00     0.153 C 
HETATM    4  C4  UNL     1     -32.026  18.494  -0.919  1.00 20.00     0.116 C 
HETATM    5  C9  UNL     1     -33.355  17.768  -0.731  1.00 20.00     0.139 C 
HETATM    6  O10 UNL     1     -30.294  18.986   0.671  1.00 20.00    -0.293 OA
HETATM    7  O11 UNL     1     -34.300  18.563  -0.000  1.00 20.00    -0.357 OA
ENDROOT
BRANCH   5   8
HETATM    8  C8  UNL     1     -33.964  17.450  -2.080  1.00 20.00     0.015 C 
HETATM    9  C6  UNL     1     -33.307  16.301  -2.887  1.00 20.00     0.007 C 
HETATM   10  C5  UNL     1     -33.587  17.132  -4.157  1.00 20.00     0.001 C 
HETATM   11  C7  UNL     1     -33.572  18.383  -3.255  1.00 20.00     0.007 C 
ENDBRANCH   5   8
TORSDOF 1
ENDMDL
MODEL 6
REMARK VINA RESULT:      -4.2     12.048     13.356
REMARK  1 active torsions:
REMARK  status: ('A' for Active; 'I' for Inactive)
REMARK    1  A    between atoms: C8_8  and  C9_9 
ROOT
HETATM    1  C1  UNL     1     -37.125  16.228  -6.184  1.00 20.00     0.074 C 
HETATM    2  C2  UNL     1     -37.070  17.295  -5.381  1.00 20.00     0.139 C 
HETATM    3  C3  UNL     1     -35.982  15.290  -6.163  1.00 20.00     0.153 C 
HETATM    4  C4  UNL     1     -34.907  15.560  -5.142  1.00 20.00     0.116 C 
HETATM    5  C9  UNL     1     -34.772  17.068  -4.954  1.00 20.00     0.139 C 
HETATM    6  O10 UNL     1     -35.964  14.308  -6.899  1.00 20.00    -0.293 OA
HETATM    7  O11 UNL     1     -36.019  17.675  -4.588  1.00 20.00    -0.357 OA
ENDROOT
BRANCH   5   8
HETATM    8  C8  UNL     1     -33.774  17.363  -3.854  1.00 20.00     0.015 C 
HETATM    9  C6  UNL     1     -33.359  16.171  -2.953  1.00 20.00     0.007 C 
HETATM   10  C5  UNL     1     -33.328  17.168  -1.775  1.00 20.00     0.001 C 
HETATM   11  C7  UNL     1     -34.334  18.027  -2.569  1.00 20.00     0.007 C 
ENDBRANCH   5   8
TORSDOF 1
ENDMDL
MODEL 7
REMARK VINA RESULT:      -4.1     11.713     12.390
REMARK  1 active torsions:
REMARK  status: ('A' for Active; 'I' for Inactive)
REMARK    1  A    between atoms: C8_8  and  C9_9 
ROOT
HETATM    1  C1  UNL     1     -32.494  18.922   0.913  1.00 20.00     0.074 C 
HETATM    2  C2  UNL     1     -31.527  18.865  -0.008  1.00 20.00     0.139 C 
HETATM    3  C3  UNL     1     -33.833  18.417   0.538  1.00 20.00     0.153 C 
HETATM    4  C4  UNL     1     -33.954  17.768  -0.816  1.00 20.00     0.116 C 
HETATM    5  C9  UNL     1     -33.009  18.469  -1.787  1.00 20.00     0.139 C 
HETATM    6  O10 UNL     1     -34.766  18.470   1.333  1.00 20.00    -0.293 OA
HETATM    7  O11 UNL     1     -31.655  18.464  -1.312  1.00 20.00    -0.357 OA
ENDROOT
BRANCH   5   8
HETATM    8  C8  UNL     1     -33.031  17.766  -3.127  1.00 20.00     0.015 C 
HETATM    9  C6  UNL     1     -34.323  17.919  -3.971  1.00 20.00     0.007 C 
HETATM   10  C5  UNL     1     -34.117  16.456  -4.416  1.00 20.00     0.001 C 
HETATM   11  C7  UNL     1     -33.328  16.244  -3.107  1.00 20.00     0.007 C 
ENDBRANCH   5   8
TORSDOF 1
ENDMDL
MODEL 8
REMARK VINA RESULT:      -4.1     10.082     10.873
REMARK  1 active torsions:
REMARK  status: ('A' for Active; 'I' for Inactive)
REMARK    1  A    between atoms: C8_8  and  C9_9 
ROOT
HETATM    1  C1  UNL     1     -41.156  15.680   9.121  1.00 20.00     0.074 C 
HETATM    2  C2  UNL     1     -40.391  14.605   9.338  1.00 20.00     0.139 C 
HETATM    3  C3  UNL     1     -41.886  15.759   7.837  1.00 20.00     0.153 C 
HETATM    4  C4  UNL     1     -41.798  14.554   6.936  1.00 20.00     0.116 C 
HETATM    5  C9  UNL     1     -40.418  13.922   7.090  1.00 20.00     0.139 C 
HETATM    6  O10 UNL     1     -42.581  16.735   7.572  1.00 20.00    -0.293 OA
HETATM    7  O11 UNL     1     -40.133  13.588   8.456  1.00 20.00    -0.357 OA
ENDROOT
BRANCH   5   8
HETATM    8  C8  UNL     1     -40.341  12.648   6.277  1.00 20.00     0.015 C 
HETATM    9  C6  UNL     1     -38.930  12.035   6.077  1.00 20.00     0.007 C 
HETATM   10  C5  UNL     1     -39.384  11.644   4.654  1.00 20.00     0.001 C 
HETATM   11  C7  UNL     1     -40.397  12.804   4.735  1.00 20.00     0.007 C 
ENDBRANCH   5   8
TORSDOF 1
ENDMDL
MODEL 9
REMARK VINA RESULT:      -4.0     11.695     13.189
REMARK  1 active torsions:
REMARK  status: ('A' for Active; 'I' for Inactive)
REMARK    1  A    between atoms: C8_8  and  C9_9 
ROOT
HETATM    1  C1  UNL     1     -33.814  16.908  -4.071  1.00 20.00     0.074 C 
HETATM    2  C2  UNL     1     -33.501  16.345  -2.899  1.00 20.00     0.139 C 
HETATM    3  C3  UNL     1     -33.590  18.363  -4.219  1.00 20.00     0.153 C 
HETATM    4  C4  UNL     1     -32.910  19.060  -3.069  1.00 20.00     0.116 C 
HETATM    5  C9  UNL     1     -33.339  18.395  -1.764  1.00 20.00     0.139 C 
HETATM    6  O10 UNL     1     -33.884  18.938  -5.261  1.00 20.00    -0.293 OA
HETATM    7  O11 UNL     1     -33.068  16.987  -1.768  1.00 20.00    -0.357 OA
ENDROOT
BRANCH   5   8
HETATM    8  C8  UNL     1     -32.587  19.007  -0.602  1.00 20.00     0.015 C 
HETATM    9  C6  UNL     1     -31.169  18.447  -0.319  1.00 20.00     0.007 C 
HETATM   10  C5  UNL     1     -31.479  18.624   1.183  1.00 20.00     0.001 C 
HETATM   11  C7  UNL     1     -32.973  18.508   0.814  1.00 20.00     0.007 C 
ENDBRANCH   5   8
TORSDOF 1
ENDMDL
