MODEL 1
REMARK VINA RESULT:      -4.7      0.000      0.000
REMARK  2 active torsions:
REMARK  status: ('A' for Active; 'I' for Inactive)
REMARK    1  A    between atoms: C7_7  and  C9_9 
REMARK    2  A    between atoms: C9_9  and  O11_11 
ROOT
HETATM    1  C1  UNL     1     -34.969   5.328   6.771  1.00 20.00     0.010 A 
HETATM    2  C2  UNL     1     -33.744   7.527   6.033  1.00 20.00     0.012 C 
HETATM    3  C3  UNL     1     -34.885   6.232   4.310  1.00 20.00     0.012 C 
HETATM    4  C5  UNL     1     -33.712   6.079   6.434  1.00 20.00    -0.010 A 
HETATM    5  C6  UNL     1     -34.412   5.284   5.375  1.00 20.00    -0.010 A 
HETATM    6  C7  UNL     1     -34.036   7.503   4.519  1.00 20.00     0.021 C 
ENDROOT
BRANCH   6   7
HETATM    7  C9  UNL     1     -32.765   7.458   3.711  1.00 20.00     0.065 A 
HETATM    8  C4  UNL     1     -32.451   6.235   2.901  1.00 20.00     0.045 A 
HETATM    9  C8  UNL     1     -32.840   7.518   2.212  1.00 20.00     0.019 A 
HETATM   10  C10 UNL     1     -31.830   8.277   1.421  1.00 20.00     0.013 C 
BRANCH   7  11
HETATM   11  O11 UNL     1     -31.662   8.100   4.361  1.00 20.00    -0.389 OA
HETATM   12  H27 UNL     1     -31.644   7.756   5.265  1.00 20.00     0.210 HD
ENDBRANCH   7  11
ENDBRANCH   6   7
TORSDOF 2
ENDMDL
MODEL 2
REMARK VINA RESULT:      -4.1     11.839     13.430
REMARK  2 active torsions:
REMARK  status: ('A' for Active; 'I' for Inactive)
REMARK    1  A    between atoms: C7_7  and  C9_9 
REMARK    2  A    between atoms: C9_9  and  O11_11 
ROOT
HETATM    1  C1  UNL     1     -36.994  16.801  -6.939  1.00 20.00     0.010 A 
HETATM    2  C2  UNL     1     -34.438  16.480  -6.443  1.00 20.00     0.012 C 
HETATM    3  C3  UNL     1     -35.918  14.584  -6.040  1.00 20.00     0.012 C 
HETATM    4  C5  UNL     1     -35.791  17.012  -6.063  1.00 20.00    -0.010 A 
HETATM    5  C6  UNL     1     -36.700  15.847  -5.814  1.00 20.00    -0.010 A 
HETATM    6  C7  UNL     1     -34.442  15.020  -5.944  1.00 20.00     0.021 C 
ENDROOT
BRANCH   6   7
HETATM    7  C9  UNL     1     -33.925  14.918  -4.532  1.00 20.00     0.065 A 
HETATM    8  C4  UNL     1     -32.447  14.984  -4.284  1.00 20.00     0.045 A 
HETATM    9  C8  UNL     1     -33.333  16.131  -3.874  1.00 20.00     0.019 A 
HETATM   10  C10 UNL     1     -33.569  16.414  -2.429  1.00 20.00     0.013 C 
BRANCH   7  11
HETATM   11  O11 UNL     1     -34.673  14.004  -3.723  1.00 20.00    -0.389 OA
HETATM   12  H27 UNL     1     -35.477  14.473  -3.460  1.00 20.00     0.210 HD
ENDBRANCH   7  11
ENDBRANCH   6   7
TORSDOF 2
ENDMDL
MODEL 3
REMARK VINA RESULT:      -4.1     12.010     13.577
REMARK  2 active torsions:
REMARK  status: ('A' for Active; 'I' for Inactive)
REMARK    1  A    between atoms: C7_7  and  C9_9 
REMARK    2  A    between atoms: C9_9  and  O11_11 
ROOT
HETATM    1  C1  UNL     1     -33.325  16.638  -2.288  1.00 20.00     0.010 A 
HETATM    2  C2  UNL     1     -35.148  16.727  -4.173  1.00 20.00     0.012 C 
HETATM    3  C3  UNL     1     -33.667  14.789  -4.117  1.00 20.00     0.012 C 
HETATM    4  C5  UNL     1     -33.826  17.161  -3.606  1.00 20.00    -0.010 A 
HETATM    5  C6  UNL     1     -32.916  15.971  -3.572  1.00 20.00    -0.010 A 
HETATM    6  C7  UNL     1     -34.838  15.406  -4.908  1.00 20.00     0.021 C 
ENDROOT
BRANCH   6   7
HETATM    7  C9  UNL     1     -34.465  15.651  -6.348  1.00 20.00     0.065 A 
HETATM    8  C4  UNL     1     -35.549  15.805  -7.373  1.00 20.00     0.045 A 
HETATM    9  C8  UNL     1     -34.727  16.998  -6.959  1.00 20.00     0.019 A 
HETATM   10  C10 UNL     1     -33.762  17.608  -7.918  1.00 20.00     0.013 C 
BRANCH   7  11
HETATM   11  O11 UNL     1     -33.292  14.938  -6.754  1.00 20.00    -0.389 OA
HETATM   12  H27 UNL     1     -32.565  15.577  -6.728  1.00 20.00     0.210 HD
ENDBRANCH   7  11
ENDBRANCH   6   7
TORSDOF 2
ENDMDL
MODEL 4
REMARK VINA RESULT:      -4.1     10.156     11.125
REMARK  2 active torsions:
REMARK  status: ('A' for Active; 'I' for Inactive)
REMARK    1  A    between atoms: C7_7  and  C9_9 
REMARK    2  A    between atoms: C9_9  and  O11_11 
ROOT
HETATM    1  C1  UNL     1     -40.748  15.501  10.305  1.00 20.00     0.010 A 
HETATM    2  C2  UNL     1     -40.589  15.437   7.687  1.00 20.00     0.012 C 
HETATM    3  C3  UNL     1     -42.423  14.224   8.742  1.00 20.00     0.012 C 
HETATM    4  C5  UNL     1     -40.130  14.973   9.041  1.00 20.00    -0.010 A 
HETATM    5  C6  UNL     1     -41.257  14.228   9.688  1.00 20.00    -0.010 A 
HETATM    6  C7  UNL     1     -41.806  14.546   7.366  1.00 20.00     0.021 C 
ENDROOT
BRANCH   6   7
HETATM    7  C9  UNL     1     -41.396  13.293   6.636  1.00 20.00     0.065 A 
HETATM    8  C4  UNL     1     -41.159  13.347   5.157  1.00 20.00     0.045 A 
HETATM    9  C8  UNL     1     -39.998  13.175   6.101  1.00 20.00     0.019 A 
HETATM   10  C10 UNL     1     -39.261  11.880   6.151  1.00 20.00     0.013 C 
BRANCH   7  11
HETATM   11  O11 UNL     1     -42.029  12.113   7.144  1.00 20.00    -0.389 OA
HETATM   12  H27 UNL     1     -42.714  12.417   7.756  1.00 20.00     0.210 HD
ENDBRANCH   7  11
ENDBRANCH   6   7
TORSDOF 2
ENDMDL
MODEL 5
REMARK VINA RESULT:      -4.1      9.915     10.811
REMARK  2 active torsions:
REMARK  status: ('A' for Active; 'I' for Inactive)
REMARK    1  A    between atoms: C7_7  and  C9_9 
REMARK    2  A    between atoms: C9_9  and  O11_11 
ROOT
HETATM    1  C1  UNL     1     -42.612  15.573   9.358  1.00 20.00     0.010 A 
HETATM    2  C2  UNL     1     -40.220  14.786   8.624  1.00 20.00     0.012 C 
HETATM    3  C3  UNL     1     -41.934  14.967   6.898  1.00 20.00     0.012 C 
HETATM    4  C5  UNL     1     -41.555  14.509   9.255  1.00 20.00    -0.010 A 
HETATM    5  C6  UNL     1     -42.607  14.620   8.195  1.00 20.00    -0.010 A 
HETATM    6  C7  UNL     1     -40.457  14.580   7.113  1.00 20.00     0.021 C 
ENDROOT
BRANCH   6   7
HETATM    7  C9  UNL     1     -40.193  13.154   6.703  1.00 20.00     0.065 A 
HETATM    8  C4  UNL     1     -41.331  12.305   6.221  1.00 20.00     0.045 A 
HETATM    9  C8  UNL     1     -40.279  12.776   5.251  1.00 20.00     0.019 A 
HETATM   10  C10 UNL     1     -39.324  11.801   4.652  1.00 20.00     0.013 C 
BRANCH   7  11
HETATM   11  O11 UNL     1     -39.205  12.508   7.514  1.00 20.00    -0.389 OA
HETATM   12  H27 UNL     1     -39.382  11.558   7.449  1.00 20.00     0.210 HD
ENDBRANCH   7  11
ENDBRANCH   6   7
TORSDOF 2
ENDMDL
MODEL 6
REMARK VINA RESULT:      -4.0     12.244     13.268
REMARK  2 active torsions:
REMARK  status: ('A' for Active; 'I' for Inactive)
REMARK    1  A    between atoms: C7_7  and  C9_9 
REMARK    2  A    between atoms: C9_9  and  O11_11 
ROOT
HETATM    1  C1  UNL     1     -32.471  19.261  -0.436  1.00 20.00     0.010 A 
HETATM    2  C2  UNL     1     -33.838  19.263  -2.676  1.00 20.00     0.012 C 
HETATM    3  C3  UNL     1     -33.692  17.166  -1.438  1.00 20.00     0.012 C 
HETATM    4  C5  UNL     1     -32.529  19.242  -1.938  1.00 20.00    -0.010 A 
HETATM    5  C6  UNL     1     -32.439  17.954  -1.178  1.00 20.00    -0.010 A 
HETATM    6  C7  UNL     1     -34.279  17.785  -2.723  1.00 20.00     0.021 C 
ENDROOT
BRANCH   6   7
HETATM    7  C9  UNL     1     -33.760  17.093  -3.957  1.00 20.00     0.065 A 
HETATM    8  C4  UNL     1     -33.053  15.778  -3.820  1.00 20.00     0.045 A 
HETATM    9  C8  UNL     1     -34.428  15.834  -4.432  1.00 20.00     0.019 A 
HETATM   10  C10 UNL     1     -34.611  15.562  -5.887  1.00 20.00     0.013 C 
BRANCH   7  11
HETATM   11  O11 UNL     1     -33.247  18.000  -4.938  1.00 20.00    -0.389 OA
HETATM   12  H27 UNL     1     -33.678  17.767  -5.773  1.00 20.00     0.210 HD
ENDBRANCH   7  11
ENDBRANCH   6   7
TORSDOF 2
ENDMDL
MODEL 7
REMARK VINA RESULT:      -3.9     12.155     13.199
REMARK  2 active torsions:
REMARK  status: ('A' for Active; 'I' for Inactive)
REMARK    1  A    between atoms: C7_7  and  C9_9 
REMARK    2  A    between atoms: C9_9  and  O11_11 
ROOT
HETATM    1  C1  UNL     1     -33.224  17.870  -1.175  1.00 20.00     0.010 A 
HETATM    2  C2  UNL     1     -32.972  16.455  -3.370  1.00 20.00     0.012 C 
HETATM    3  C3  UNL     1     -34.272  18.515  -3.492  1.00 20.00     0.012 C 
HETATM    4  C5  UNL     1     -33.606  16.692  -2.028  1.00 20.00    -0.010 A 
HETATM    5  C6  UNL     1     -34.404  17.958  -2.103  1.00 20.00    -0.010 A 
HETATM    6  C7  UNL     1     -33.796  17.322  -4.345  1.00 20.00     0.021 C 
ENDROOT
BRANCH   6   7
HETATM    7  C9  UNL     1     -34.959  16.554  -4.919  1.00 20.00     0.065 A 
HETATM    8  C4  UNL     1     -34.887  16.062  -6.334  1.00 20.00     0.045 A 
HETATM    9  C8  UNL     1     -34.811  15.084  -5.190  1.00 20.00     0.019 A 
HETATM   10  C10 UNL     1     -35.935  14.138  -4.939  1.00 20.00     0.013 C 
BRANCH   7  11
HETATM   11  O11 UNL     1     -36.230  17.036  -4.469  1.00 20.00    -0.389 OA
HETATM   12  H27 UNL     1     -36.312  16.756  -3.546  1.00 20.00     0.210 HD
ENDBRANCH   7  11
ENDBRANCH   6   7
TORSDOF 2
ENDMDL
MODEL 8
REMARK VINA RESULT:      -3.7     12.037     13.557
REMARK  2 active torsions:
REMARK  status: ('A' for Active; 'I' for Inactive)
REMARK    1  A    between atoms: C7_7  and  C9_9 
REMARK    2  A    between atoms: C9_9  and  O11_11 
ROOT
HETATM    1  C1  UNL     1     -32.908  17.775  -1.370  1.00 20.00     0.010 A 
HETATM    2  C2  UNL     1     -33.119  16.174  -3.438  1.00 20.00     0.012 C 
HETATM    3  C3  UNL     1     -33.927  18.462  -3.688  1.00 20.00     0.012 C 
HETATM    4  C5  UNL     1     -33.597  16.654  -2.097  1.00 20.00    -0.010 A 
HETATM    5  C6  UNL     1     -34.093  18.059  -2.250  1.00 20.00    -0.010 A 
HETATM    6  C7  UNL     1     -33.786  17.129  -4.450  1.00 20.00     0.021 C 
ENDROOT
BRANCH   6   7
HETATM    7  C9  UNL     1     -35.125  16.606  -4.902  1.00 20.00     0.065 A 
HETATM    8  C4  UNL     1     -36.323  17.506  -4.846  1.00 20.00     0.045 A 
HETATM    9  C8  UNL     1     -35.728  17.126  -6.176  1.00 20.00     0.019 A 
HETATM   10  C10 UNL     1     -36.475  16.224  -7.099  1.00 20.00     0.013 C 
BRANCH   7  11
HETATM   11  O11 UNL     1     -35.337  15.231  -4.564  1.00 20.00    -0.389 OA
HETATM   12  H27 UNL     1     -35.603  15.220  -3.634  1.00 20.00     0.210 HD
ENDBRANCH   7  11
ENDBRANCH   6   7
TORSDOF 2
ENDMDL
MODEL 9
REMARK VINA RESULT:      -3.6      9.406     10.650
REMARK  2 active torsions:
REMARK  status: ('A' for Active; 'I' for Inactive)
REMARK    1  A    between atoms: C7_7  and  C9_9 
REMARK    2  A    between atoms: C9_9  and  O11_11 
ROOT
HETATM    1  C1  UNL     1     -38.552  11.799   4.964  1.00 20.00     0.010 A 
HETATM    2  C2  UNL     1     -40.806  13.142   4.938  1.00 20.00     0.012 C 
HETATM    3  C3  UNL     1     -39.337  13.428   6.864  1.00 20.00     0.012 C 
HETATM    4  C5  UNL     1     -40.043  11.864   5.143  1.00 20.00    -0.010 A 
HETATM    5  C6  UNL     1     -39.141  12.039   6.326  1.00 20.00    -0.010 A 
HETATM    6  C7  UNL     1     -40.695  13.878   6.289  1.00 20.00     0.021 C 
ENDROOT
BRANCH   6   7
HETATM    7  C9  UNL     1     -41.833  13.517   7.210  1.00 20.00     0.065 A 
HETATM    8  C4  UNL     1     -43.225  13.956   6.866  1.00 20.00     0.045 A 
HETATM    9  C8  UNL     1     -42.847  12.502   6.766  1.00 20.00     0.019 A 
HETATM   10  C10 UNL     1     -43.417  11.513   7.725  1.00 20.00     0.013 C 
BRANCH   7  11
HETATM   11  O11 UNL     1     -41.470  13.552   8.594  1.00 20.00    -0.389 OA
HETATM   12  H27 UNL     1     -41.841  12.752   8.991  1.00 20.00     0.210 HD
ENDBRANCH   7  11
ENDBRANCH   6   7
TORSDOF 2
ENDMDL
