MODEL 1
REMARK VINA RESULT:      -4.1      0.000      0.000
REMARK  5 active torsions:
REMARK  status: ('A' for Active; 'I' for Inactive)
REMARK    1  A    between atoms: C3_3  and  C9_9 
REMARK    2  A    between atoms: C7_7  and  C10_10 
REMARK    3  A    between atoms: C8_8  and  C10_10 
REMARK    4  A    between atoms: C9_9  and  C10_10 
REMARK    5  A    between atoms: C9_9  and  O11_11 
ROOT
HETATM    1  C9  UNL     1     -33.397   7.207   4.957  1.00 20.00     0.130 C 
ENDROOT
BRANCH   1   2
HETATM    2  C3  UNL     1     -34.519   6.222   5.266  1.00 20.00    -0.018 A 
HETATM    3  C1  UNL     1     -34.859   5.969   6.717  1.00 20.00     0.012 A 
HETATM    4  C2  UNL     1     -34.150   4.911   5.922  1.00 20.00     0.012 A 
HETATM    5  C4  UNL     1     -35.642   6.218   4.267  1.00 20.00     0.018 C 
ENDBRANCH   1   2
BRANCH   1   6
HETATM    6  C10 UNL     1     -33.144   7.416   3.440  1.00 20.00     0.014 C 
BRANCH   6   7
HETATM    7  C7  UNL     1     -32.218   6.346   2.820  1.00 20.00     0.002 C 
HETATM    8  C5  UNL     1     -32.916   5.063   2.391  1.00 20.00     0.005 C 
ENDBRANCH   6   7
BRANCH   6   9
HETATM    9  C8  UNL     1     -32.655   8.865   3.184  1.00 20.00     0.002 C 
HETATM   10  C6  UNL     1     -32.818   9.332   1.743  1.00 20.00     0.005 C 
ENDBRANCH   6   9
ENDBRANCH   1   6
BRANCH   1  11
HETATM   11  O11 UNL     1     -33.755   8.465   5.536  1.00 20.00    -0.394 OA
HETATM   12  H31 UNL     1     -34.560   8.307   6.051  1.00 20.00     0.210 HD
ENDBRANCH   1  11
TORSDOF 5
ENDMDL
MODEL 2
REMARK VINA RESULT:      -3.6     11.616     13.725
REMARK  5 active torsions:
REMARK  status: ('A' for Active; 'I' for Inactive)
REMARK    1  A    between atoms: C3_3  and  C9_9 
REMARK    2  A    between atoms: C7_7  and  C10_10 
REMARK    3  A    between atoms: C8_8  and  C10_10 
REMARK    4  A    between atoms: C9_9  and  C10_10 
REMARK    5  A    between atoms: C9_9  and  O11_11 
ROOT
HETATM    1  C9  UNL     1     -34.777  17.163  -4.105  1.00 20.00     0.130 C 
ENDROOT
BRANCH   1   2
HETATM    2  C3  UNL     1     -34.641  18.050  -5.338  1.00 20.00    -0.018 A 
HETATM    3  C1  UNL     1     -35.871  18.277  -6.186  1.00 20.00     0.012 A 
HETATM    4  C2  UNL     1     -34.766  17.398  -6.696  1.00 20.00     0.012 A 
HETATM    5  C4  UNL     1     -33.667  19.186  -5.188  1.00 20.00     0.018 C 
ENDBRANCH   1   2
BRANCH   1   6
HETATM    6  C10 UNL     1     -33.422  16.792  -3.444  1.00 20.00     0.014 C 
BRANCH   6   7
HETATM    7  C7  UNL     1     -32.938  15.368  -3.798  1.00 20.00     0.002 C 
HETATM    8  C5  UNL     1     -34.042  14.388  -4.168  1.00 20.00     0.005 C 
ENDBRANCH   6   7
BRANCH   6   9
HETATM    9  C8  UNL     1     -33.495  17.047  -1.917  1.00 20.00     0.002 C 
HETATM   10  C6  UNL     1     -32.542  18.126  -1.419  1.00 20.00     0.005 C 
ENDBRANCH   6   9
ENDBRANCH   1   6
BRANCH   1  11
HETATM   11  O11 UNL     1     -35.570  17.872  -3.148  1.00 20.00    -0.394 OA
HETATM   12  H31 UNL     1     -36.457  17.484  -3.192  1.00 20.00     0.210 HD
ENDBRANCH   1  11
TORSDOF 5
ENDMDL
MODEL 3
REMARK VINA RESULT:      -3.6      9.942     10.988
REMARK  5 active torsions:
REMARK  status: ('A' for Active; 'I' for Inactive)
REMARK    1  A    between atoms: C3_3  and  C9_9 
REMARK    2  A    between atoms: C7_7  and  C10_10 
REMARK    3  A    between atoms: C8_8  and  C10_10 
REMARK    4  A    between atoms: C9_9  and  C10_10 
REMARK    5  A    between atoms: C9_9  and  O11_11 
ROOT
HETATM    1  C9  UNL     1     -42.162  13.222   6.876  1.00 20.00     0.130 C 
ENDROOT
BRANCH   1   2
HETATM    2  C3  UNL     1     -41.878  13.995   8.161  1.00 20.00    -0.018 A 
HETATM    3  C1  UNL     1     -42.718  13.680   9.377  1.00 20.00     0.012 A 
HETATM    4  C2  UNL     1     -42.923  14.974   8.644  1.00 20.00     0.012 A 
HETATM    5  C4  UNL     1     -40.431  14.345   8.373  1.00 20.00     0.018 C 
ENDBRANCH   1   2
BRANCH   1   6
HETATM    6  C10 UNL     1     -41.058  13.370   5.796  1.00 20.00     0.014 C 
BRANCH   6   7
HETATM    7  C7  UNL     1     -41.578  13.961   4.466  1.00 20.00     0.002 C 
HETATM    8  C5  UNL     1     -42.937  14.640   4.553  1.00 20.00     0.005 C 
ENDBRANCH   6   7
BRANCH   6   9
HETATM    9  C8  UNL     1     -40.318  12.021   5.613  1.00 20.00     0.002 C 
HETATM   10  C6  UNL     1     -38.800  12.141   5.574  1.00 20.00     0.005 C 
ENDBRANCH   6   9
ENDBRANCH   1   6
BRANCH   1  11
HETATM   11  O11 UNL     1     -42.278  11.838   7.222  1.00 20.00    -0.394 OA
HETATM   12  H31 UNL     1     -42.610  11.389   6.430  1.00 20.00     0.210 HD
ENDBRANCH   1  11
TORSDOF 5
ENDMDL
MODEL 4
REMARK VINA RESULT:      -3.5     12.099     13.809
REMARK  5 active torsions:
REMARK  status: ('A' for Active; 'I' for Inactive)
REMARK    1  A    between atoms: C3_3  and  C9_9 
REMARK    2  A    between atoms: C7_7  and  C10_10 
REMARK    3  A    between atoms: C8_8  and  C10_10 
REMARK    4  A    between atoms: C9_9  and  C10_10 
REMARK    5  A    between atoms: C9_9  and  O11_11 
ROOT
HETATM    1  C9  UNL     1     -34.284  16.047  -5.686  1.00 20.00     0.130 C 
ENDROOT
BRANCH   1   2
HETATM    2  C3  UNL     1     -35.553  15.354  -6.170  1.00 20.00    -0.018 A 
HETATM    3  C1  UNL     1     -35.749  15.194  -7.660  1.00 20.00     0.012 A 
HETATM    4  C2  UNL     1     -36.580  16.187  -6.902  1.00 20.00     0.012 A 
HETATM    5  C4  UNL     1     -36.047  14.254  -5.271  1.00 20.00     0.018 C 
ENDBRANCH   1   2
BRANCH   1   6
HETATM    6  C10 UNL     1     -34.437  16.751  -4.311  1.00 20.00     0.014 C 
BRANCH   6   7
HETATM    7  C7  UNL     1     -34.511  18.291  -4.416  1.00 20.00     0.002 C 
HETATM    8  C5  UNL     1     -34.137  18.860  -5.777  1.00 20.00     0.005 C 
ENDBRANCH   6   7
BRANCH   6   9
HETATM    9  C8  UNL     1     -33.329  16.261  -3.344  1.00 20.00     0.002 C 
HETATM   10  C6  UNL     1     -33.364  16.918  -1.971  1.00 20.00     0.005 C 
ENDBRANCH   6   9
ENDBRANCH   1   6
BRANCH   1  11
HETATM   11  O11 UNL     1     -33.263  15.051  -5.576  1.00 20.00    -0.394 OA
HETATM   12  H31 UNL     1     -32.552  15.449  -5.052  1.00 20.00     0.210 HD
ENDBRANCH   1  11
TORSDOF 5
ENDMDL
MODEL 5
REMARK VINA RESULT:      -3.4     11.987     13.428
REMARK  5 active torsions:
REMARK  status: ('A' for Active; 'I' for Inactive)
REMARK    1  A    between atoms: C3_3  and  C9_9 
REMARK    2  A    between atoms: C7_7  and  C10_10 
REMARK    3  A    between atoms: C8_8  and  C10_10 
REMARK    4  A    between atoms: C9_9  and  C10_10 
REMARK    5  A    between atoms: C9_9  and  O11_11 
ROOT
HETATM    1  C9  UNL     1     -33.568  17.425  -4.025  1.00 20.00     0.130 C 
ENDROOT
BRANCH   1   2
HETATM    2  C3  UNL     1     -33.981  17.937  -2.649  1.00 20.00    -0.018 A 
HETATM    3  C1  UNL     1     -32.895  18.435  -1.724  1.00 20.00     0.012 A 
HETATM    4  C2  UNL     1     -33.574  17.126  -1.440  1.00 20.00     0.012 A 
HETATM    5  C4  UNL     1     -35.313  18.634  -2.614  1.00 20.00     0.018 C 
ENDBRANCH   1   2
BRANCH   1   6
HETATM    6  C10 UNL     1     -34.742  16.848  -4.859  1.00 20.00     0.014 C 
BRANCH   6   7
HETATM    7  C7  UNL     1     -34.705  15.308  -4.987  1.00 20.00     0.002 C 
HETATM    8  C5  UNL     1     -33.504  14.639  -4.333  1.00 20.00     0.005 C 
ENDBRANCH   6   7
BRANCH   6   9
HETATM    9  C8  UNL     1     -34.817  17.568  -6.229  1.00 20.00     0.002 C 
HETATM   10  C6  UNL     1     -34.471  16.684  -7.420  1.00 20.00     0.005 C 
ENDBRANCH   6   9
ENDBRANCH   1   6
BRANCH   1  11
HETATM   11  O11 UNL     1     -32.998  18.524  -4.742  1.00 20.00    -0.394 OA
HETATM   12  H31 UNL     1     -32.558  19.079  -4.081  1.00 20.00     0.210 HD
ENDBRANCH   1  11
TORSDOF 5
ENDMDL
MODEL 6
REMARK VINA RESULT:      -3.4     10.244     11.472
REMARK  5 active torsions:
REMARK  status: ('A' for Active; 'I' for Inactive)
REMARK    1  A    between atoms: C3_3  and  C9_9 
REMARK    2  A    between atoms: C7_7  and  C10_10 
REMARK    3  A    between atoms: C8_8  and  C10_10 
REMARK    4  A    between atoms: C9_9  and  C10_10 
REMARK    5  A    between atoms: C9_9  and  O11_11 
ROOT
HETATM    1  C9  UNL     1     -40.508  14.068   7.235  1.00 20.00     0.130 C 
ENDROOT
BRANCH   1   2
HETATM    2  C3  UNL     1     -40.955  12.870   6.404  1.00 20.00    -0.018 A 
HETATM    3  C1  UNL     1     -39.905  11.868   5.983  1.00 20.00     0.012 A 
HETATM    4  C2  UNL     1     -40.499  12.797   4.964  1.00 20.00     0.012 A 
HETATM    5  C4  UNL     1     -42.329  12.356   6.735  1.00 20.00     0.018 C 
ENDBRANCH   1   2
BRANCH   1   6
HETATM    6  C10 UNL     1     -41.676  14.964   7.726  1.00 20.00     0.014 C 
BRANCH   6   7
HETATM    7  C7  UNL     1     -41.766  16.315   6.981  1.00 20.00     0.002 C 
HETATM    8  C5  UNL     1     -42.514  16.269   5.656  1.00 20.00     0.005 C 
ENDBRANCH   6   7
BRANCH   6   9
HETATM    9  C8  UNL     1     -41.604  15.123   9.266  1.00 20.00     0.002 C 
HETATM   10  C6  UNL     1     -42.771  14.490  10.014  1.00 20.00     0.005 C 
ENDBRANCH   6   9
ENDBRANCH   1   6
BRANCH   1  11
HETATM   11  O11 UNL     1     -39.810  13.563   8.378  1.00 20.00    -0.394 OA
HETATM   12  H31 UNL     1     -39.981  12.610   8.401  1.00 20.00     0.210 HD
ENDBRANCH   1  11
TORSDOF 5
ENDMDL
MODEL 7
REMARK VINA RESULT:      -3.4     11.924     13.351
REMARK  5 active torsions:
REMARK  status: ('A' for Active; 'I' for Inactive)
REMARK    1  A    between atoms: C3_3  and  C9_9 
REMARK    2  A    between atoms: C7_7  and  C10_10 
REMARK    3  A    between atoms: C8_8  and  C10_10 
REMARK    4  A    between atoms: C9_9  and  C10_10 
REMARK    5  A    between atoms: C9_9  and  O11_11 
ROOT
HETATM    1  C9  UNL     1     -33.095  17.701  -2.045  1.00 20.00     0.130 C 
ENDROOT
BRANCH   1   2
HETATM    2  C3  UNL     1     -33.894  18.431  -3.119  1.00 20.00    -0.018 A 
HETATM    3  C1  UNL     1     -33.955  17.816  -4.498  1.00 20.00     0.012 A 
HETATM    4  C2  UNL     1     -33.134  19.052  -4.268  1.00 20.00     0.012 A 
HETATM    5  C4  UNL     1     -35.115  19.148  -2.612  1.00 20.00     0.018 C 
ENDBRANCH   1   2
BRANCH   1   6
HETATM    6  C10 UNL     1     -32.839  18.544  -0.768  1.00 20.00     0.014 C 
BRANCH   6   7
HETATM    7  C7  UNL     1     -31.340  18.708  -0.432  1.00 20.00     0.002 C 
HETATM    8  C5  UNL     1     -30.969  18.410   1.014  1.00 20.00     0.005 C 
ENDBRANCH   6   7
BRANCH   6   9
HETATM    9  C8  UNL     1     -33.667  17.976   0.412  1.00 20.00     0.002 C 
HETATM   10  C6  UNL     1     -34.600  18.987   1.065  1.00 20.00     0.005 C 
ENDBRANCH   6   9
ENDBRANCH   1   6
BRANCH   1  11
HETATM   11  O11 UNL     1     -33.833  16.531  -1.677  1.00 20.00    -0.394 OA
HETATM   12  H31 UNL     1     -33.419  16.193  -0.869  1.00 20.00     0.210 HD
ENDBRANCH   1  11
TORSDOF 5
ENDMDL
MODEL 8
REMARK VINA RESULT:      -3.3     12.444     13.605
REMARK  5 active torsions:
REMARK  status: ('A' for Active; 'I' for Inactive)
REMARK    1  A    between atoms: C3_3  and  C9_9 
REMARK    2  A    between atoms: C7_7  and  C10_10 
REMARK    3  A    between atoms: C8_8  and  C10_10 
REMARK    4  A    between atoms: C9_9  and  C10_10 
REMARK    5  A    between atoms: C9_9  and  O11_11 
ROOT
HETATM    1  C9  UNL     1     -33.850  16.216  -3.986  1.00 20.00     0.130 C 
ENDROOT
BRANCH   1   2
HETATM    2  C3  UNL     1     -33.537  17.529  -3.275  1.00 20.00    -0.018 A 
HETATM    3  C1  UNL     1     -32.858  17.460  -1.926  1.00 20.00     0.012 A 
HETATM    4  C2  UNL     1     -34.305  17.852  -2.013  1.00 20.00     0.012 A 
HETATM    5  C4  UNL     1     -33.175  18.666  -4.190  1.00 20.00     0.018 C 
ENDBRANCH   1   2
BRANCH   1   6
HETATM    6  C10 UNL     1     -34.526  16.397  -5.371  1.00 20.00     0.014 C 
BRANCH   6   7
HETATM    7  C7  UNL     1     -36.060  16.566  -5.286  1.00 20.00     0.002 C 
HETATM    8  C5  UNL     1     -36.568  17.969  -5.584  1.00 20.00     0.005 C 
ENDBRANCH   6   7
BRANCH   6   9
HETATM    9  C8  UNL     1     -34.093  15.251  -6.320  1.00 20.00     0.002 C 
HETATM   10  C6  UNL     1     -33.972  15.663  -7.781  1.00 20.00     0.005 C 
ENDBRANCH   6   9
ENDBRANCH   1   6
BRANCH   1  11
HETATM   11  O11 UNL     1     -32.614  15.520  -4.170  1.00 20.00    -0.394 OA
HETATM   12  H31 UNL     1     -32.832  14.701  -4.639  1.00 20.00     0.210 HD
ENDBRANCH   1  11
TORSDOF 5
ENDMDL
MODEL 9
REMARK VINA RESULT:      -3.3     12.064     13.723
REMARK  5 active torsions:
REMARK  status: ('A' for Active; 'I' for Inactive)
REMARK    1  A    between atoms: C3_3  and  C9_9 
REMARK    2  A    between atoms: C7_7  and  C10_10 
REMARK    3  A    between atoms: C8_8  and  C10_10 
REMARK    4  A    between atoms: C9_9  and  C10_10 
REMARK    5  A    between atoms: C9_9  and  O11_11 
ROOT
HETATM    1  C9  UNL     1     -34.632  18.067  -3.622  1.00 20.00     0.130 C 
ENDROOT
BRANCH   1   2
HETATM    2  C3  UNL     1     -33.646  17.253  -2.791  1.00 20.00    -0.018 A 
HETATM    3  C1  UNL     1     -33.763  17.320  -1.286  1.00 20.00     0.012 A 
HETATM    4  C2  UNL     1     -32.618  18.004  -1.976  1.00 20.00     0.012 A 
HETATM    5  C4  UNL     1     -33.237  15.945  -3.409  1.00 20.00     0.018 C 
ENDBRANCH   1   2
BRANCH   1   6
HETATM    6  C10 UNL     1     -34.836  17.527  -5.063  1.00 20.00     0.014 C 
BRANCH   6   7
HETATM    7  C7  UNL     1     -34.415  18.532  -6.158  1.00 20.00     0.002 C 
HETATM    8  C5  UNL     1     -34.262  17.937  -7.551  1.00 20.00     0.005 C 
ENDBRANCH   6   7
BRANCH   6   9
HETATM    9  C8  UNL     1     -36.290  17.018  -5.232  1.00 20.00     0.002 C 
HETATM   10  C6  UNL     1     -36.397  15.541  -5.589  1.00 20.00     0.005 C 
ENDBRANCH   6   9
ENDBRANCH   1   6
BRANCH   1  11
HETATM   11  O11 UNL     1     -35.892  18.041  -2.944  1.00 20.00    -0.394 OA
HETATM   12  H31 UNL     1     -36.535  18.434  -3.553  1.00 20.00     0.210 HD
ENDBRANCH   1  11
TORSDOF 5
ENDMDL
