MODEL 1
REMARK VINA RESULT:      -4.2      0.000      0.000
REMARK  2 active torsions:
REMARK  status: ('A' for Active; 'I' for Inactive)
REMARK    1  A    between atoms: C6_6  and  C8_8 
REMARK    2  A    between atoms: C7_7  and  C9_9 
ROOT
HETATM    1  C4  UNL     1     -31.651   8.662   4.465  1.00 20.00     0.034 C 
HETATM    2  C5  UNL     1     -32.457   9.364   5.539  1.00 20.00     0.168 C 
HETATM    3  C7  UNL     1     -32.728   8.296   3.465  1.00 20.00     0.031 C 
HETATM    4  C8  UNL     1     -33.902   7.936   4.374  1.00 20.00     0.130 C 
HETATM    5  O10 UNL     1     -33.760   8.764   5.546  1.00 20.00    -0.385 OA
ENDROOT
BRANCH   4   6
HETATM    6  C6  UNL     1     -33.919   6.483   4.835  1.00 20.00     0.015 C 
HETATM    7  C2  UNL     1     -35.253   5.712   4.654  1.00 20.00     0.007 C 
HETATM    8  C1  UNL     1     -34.943   5.010   5.992  1.00 20.00     0.001 C 
HETATM    9  C3  UNL     1     -34.086   6.239   6.358  1.00 20.00     0.007 C 
ENDBRANCH   4   6
BRANCH   3  10
HETATM   10  C9  UNL     1     -32.301   7.253   2.448  1.00 20.00     0.121 C 
HETATM   11 CL11 UNL     1     -31.976   8.016   0.878  1.00 20.00    -0.130 Cl
ENDBRANCH   3  10
TORSDOF 2
ENDMDL
MODEL 2
REMARK VINA RESULT:      -3.8      9.668     10.384
REMARK  2 active torsions:
REMARK  status: ('A' for Active; 'I' for Inactive)
REMARK    1  A    between atoms: C6_6  and  C8_8 
REMARK    2  A    between atoms: C7_7  and  C9_9 
ROOT
HETATM    1  C4  UNL     1     -42.286  14.887   6.883  1.00 20.00     0.034 C 
HETATM    2  C5  UNL     1     -42.182  13.954   8.071  1.00 20.00     0.168 C 
HETATM    3  C7  UNL     1     -42.474  13.909   5.742  1.00 20.00     0.031 C 
HETATM    4  C8  UNL     1     -41.568  12.751   6.158  1.00 20.00     0.130 C 
HETATM    5  O10 UNL     1     -41.586  12.737   7.600  1.00 20.00    -0.385 OA
ENDROOT
BRANCH   4   6
HETATM    6  C6  UNL     1     -40.117  12.896   5.716  1.00 20.00     0.015 C 
HETATM    7  C2  UNL     1     -39.667  12.025   4.513  1.00 20.00     0.007 C 
HETATM    8  C1  UNL     1     -38.309  11.871   5.229  1.00 20.00     0.001 C 
HETATM    9  C3  UNL     1     -39.055  12.136   6.552  1.00 20.00     0.007 C 
ENDBRANCH   4   6
BRANCH   3  10
HETATM   10  C9  UNL     1     -42.238  14.508   4.367  1.00 20.00     0.121 C 
HETATM   11 CL11 UNL     1     -42.751  16.207   4.335  1.00 20.00    -0.130 Cl
ENDBRANCH   3  10
TORSDOF 2
ENDMDL
MODEL 3
REMARK VINA RESULT:      -3.8      2.362      4.164
REMARK  2 active torsions:
REMARK  status: ('A' for Active; 'I' for Inactive)
REMARK    1  A    between atoms: C6_6  and  C8_8 
REMARK    2  A    between atoms: C7_7  and  C9_9 
ROOT
HETATM    1  C4  UNL     1     -33.911   7.527   4.918  1.00 20.00     0.034 C 
HETATM    2  C5  UNL     1     -33.088   8.749   5.267  1.00 20.00     0.168 C 
HETATM    3  C7  UNL     1     -32.918   6.709   4.118  1.00 20.00     0.031 C 
HETATM    4  C8  UNL     1     -32.164   7.787   3.342  1.00 20.00     0.130 C 
HETATM    5  O10 UNL     1     -32.159   8.952   4.192  1.00 20.00    -0.385 OA
ENDROOT
BRANCH   4   6
HETATM    6  C6  UNL     1     -32.812   8.183   2.021  1.00 20.00     0.015 C 
HETATM    7  C2  UNL     1     -31.911   8.125   0.760  1.00 20.00     0.007 C 
HETATM    8  C1  UNL     1     -32.650   9.386   0.265  1.00 20.00     0.001 C 
HETATM    9  C3  UNL     1     -32.955   9.702   1.743  1.00 20.00     0.007 C 
ENDBRANCH   4   6
BRANCH   3  10
HETATM   10  C9  UNL     1     -33.548   5.591   3.306  1.00 20.00     0.121 C 
HETATM   11 CL11 UNL     1     -34.144   4.307   4.378  1.00 20.00    -0.130 Cl
ENDBRANCH   3  10
TORSDOF 2
ENDMDL
MODEL 4
REMARK VINA RESULT:      -3.7      9.835     10.546
REMARK  2 active torsions:
REMARK  status: ('A' for Active; 'I' for Inactive)
REMARK    1  A    between atoms: C6_6  and  C8_8 
REMARK    2  A    between atoms: C7_7  and  C9_9 
ROOT
HETATM    1  C4  UNL     1     -40.582  15.898   8.113  1.00 20.00     0.034 C 
HETATM    2  C5  UNL     1     -40.145  14.918   9.181  1.00 20.00     0.168 C 
HETATM    3  C7  UNL     1     -41.619  15.090   7.362  1.00 20.00     0.031 C 
HETATM    4  C8  UNL     1     -41.016  13.687   7.390  1.00 20.00     0.130 C 
HETATM    5  O10 UNL     1     -40.274  13.603   8.623  1.00 20.00    -0.385 OA
ENDROOT
BRANCH   4   6
HETATM    6  C6  UNL     1     -40.048  13.395   6.248  1.00 20.00     0.015 C 
HETATM    7  C2  UNL     1     -40.624  12.626   5.029  1.00 20.00     0.007 C 
HETATM    8  C1  UNL     1     -39.263  11.904   4.937  1.00 20.00     0.001 C 
HETATM    9  C3  UNL     1     -39.087  12.193   6.442  1.00 20.00     0.007 C 
ENDBRANCH   4   6
BRANCH   3  10
HETATM   10  C9  UNL     1     -41.981  15.657   6.001  1.00 20.00     0.121 C 
HETATM   11 CL11 UNL     1     -43.417  14.841   5.351  1.00 20.00    -0.130 Cl
ENDBRANCH   3  10
TORSDOF 2
ENDMDL
MODEL 5
REMARK VINA RESULT:      -3.7      9.743     10.618
REMARK  2 active torsions:
REMARK  status: ('A' for Active; 'I' for Inactive)
REMARK    1  A    between atoms: C6_6  and  C8_8 
REMARK    2  A    between atoms: C7_7  and  C9_9 
ROOT
HETATM    1  C4  UNL     1     -41.274  13.597   4.849  1.00 20.00     0.034 C 
HETATM    2  C5  UNL     1     -42.590  14.221   5.263  1.00 20.00     0.168 C 
HETATM    3  C7  UNL     1     -41.045  12.598   5.964  1.00 20.00     0.031 C 
HETATM    4  C8  UNL     1     -41.571  13.352   7.184  1.00 20.00     0.130 C 
HETATM    5  O10 UNL     1     -42.635  14.194   6.697  1.00 20.00    -0.385 OA
ENDROOT
BRANCH   4   6
HETATM    6  C6  UNL     1     -40.543  14.252   7.860  1.00 20.00     0.015 C 
HETATM    7  C2  UNL     1     -40.562  14.286   9.411  1.00 20.00     0.007 C 
HETATM    8  C1  UNL     1     -40.222  15.787   9.308  1.00 20.00     0.001 C 
HETATM    9  C3  UNL     1     -40.872  15.767   7.909  1.00 20.00     0.007 C 
ENDBRANCH   4   6
BRANCH   3  10
HETATM   10  C9  UNL     1     -39.623  12.071   6.041  1.00 20.00     0.121 C 
HETATM   11 CL11 UNL     1     -39.003  11.722   4.415  1.00 20.00    -0.130 Cl
ENDBRANCH   3  10
TORSDOF 2
ENDMDL
MODEL 6
REMARK VINA RESULT:      -3.6      1.925      3.064
REMARK  2 active torsions:
REMARK  status: ('A' for Active; 'I' for Inactive)
REMARK    1  A    between atoms: C6_6  and  C8_8 
REMARK    2  A    between atoms: C7_7  and  C9_9 
ROOT
HETATM    1  C4  UNL     1     -33.614   7.077   6.588  1.00 20.00     0.034 C 
HETATM    2  C5  UNL     1     -34.847   6.198   6.565  1.00 20.00     0.168 C 
HETATM    3  C7  UNL     1     -33.717   7.784   5.252  1.00 20.00     0.031 C 
HETATM    4  C8  UNL     1     -34.269   6.683   4.348  1.00 20.00     0.130 C 
HETATM    5  O10 UNL     1     -35.094   5.857   5.194  1.00 20.00    -0.385 OA
ENDROOT
BRANCH   4   6
HETATM    6  C6  UNL     1     -33.205   5.787   3.724  1.00 20.00     0.015 C 
HETATM    7  C2  UNL     1     -33.043   5.870   2.184  1.00 20.00     0.007 C 
HETATM    8  C1  UNL     1     -32.776   4.351   2.205  1.00 20.00     0.001 C 
HETATM    9  C3  UNL     1     -33.584   4.297   3.517  1.00 20.00     0.007 C 
ENDBRANCH   4   6
BRANCH   3  10
HETATM   10  C9  UNL     1     -32.433   8.460   4.808  1.00 20.00     0.121 C 
HETATM   11 CL11 UNL     1     -32.643   9.198   3.207  1.00 20.00    -0.130 Cl
ENDBRANCH   3  10
TORSDOF 2
ENDMDL
MODEL 7
REMARK VINA RESULT:      -3.6     11.695     12.574
REMARK  2 active torsions:
REMARK  status: ('A' for Active; 'I' for Inactive)
REMARK    1  A    between atoms: C6_6  and  C8_8 
REMARK    2  A    between atoms: C7_7  and  C9_9 
ROOT
HETATM    1  C4  UNL     1     -33.513  18.521   0.672  1.00 20.00     0.034 C 
HETATM    2  C5  UNL     1     -34.755  19.049  -0.014  1.00 20.00     0.168 C 
HETATM    3  C7  UNL     1     -32.414  19.189  -0.129  1.00 20.00     0.031 C 
HETATM    4  C8  UNL     1     -32.987  19.162  -1.545  1.00 20.00     0.130 C 
HETATM    5  O10 UNL     1     -34.417  19.260  -1.392  1.00 20.00    -0.385 OA
ENDROOT
BRANCH   4   6
HETATM    6  C6  UNL     1     -32.692  17.883  -2.320  1.00 20.00     0.015 C 
HETATM    7  C2  UNL     1     -33.263  17.796  -3.760  1.00 20.00     0.007 C 
HETATM    8  C1  UNL     1     -33.514  16.298  -3.488  1.00 20.00     0.001 C 
HETATM    9  C3  UNL     1     -33.573  16.651  -1.988  1.00 20.00     0.007 C 
ENDBRANCH   4   6
BRANCH   3  10
HETATM   10  C9  UNL     1     -31.041  18.574   0.070  1.00 20.00     0.121 C 
HETATM   11 CL11 UNL     1     -30.781  18.178   1.781  1.00 20.00    -0.130 Cl
ENDBRANCH   3  10
TORSDOF 2
ENDMDL
MODEL 8
REMARK VINA RESULT:      -3.5      2.766      4.367
REMARK  2 active torsions:
REMARK  status: ('A' for Active; 'I' for Inactive)
REMARK    1  A    between atoms: C6_6  and  C8_8 
REMARK    2  A    between atoms: C7_7  and  C9_9 
ROOT
HETATM    1  C4  UNL     1     -33.626   4.274   4.084  1.00 20.00     0.034 C 
HETATM    2  C5  UNL     1     -32.947   4.544   2.757  1.00 20.00     0.168 C 
HETATM    3  C7  UNL     1     -34.617   5.417   4.157  1.00 20.00     0.031 C 
HETATM    4  C8  UNL     1     -33.828   6.569   3.539  1.00 20.00     0.130 C 
HETATM    5  O10 UNL     1     -32.953   5.966   2.564  1.00 20.00    -0.385 OA
ENDROOT
BRANCH   4   6
HETATM    6  C6  UNL     1     -32.958   7.338   4.526  1.00 20.00     0.015 C 
HETATM    7  C2  UNL     1     -33.563   8.637   5.120  1.00 20.00     0.007 C 
HETATM    8  C1  UNL     1     -32.145   9.240   5.053  1.00 20.00     0.001 C 
HETATM    9  C3  UNL     1     -31.847   8.236   3.922  1.00 20.00     0.007 C 
ENDBRANCH   4   6
BRANCH   3  10
HETATM   10  C9  UNL     1     -35.197   5.646   5.542  1.00 20.00     0.121 C 
HETATM   11 CL11 UNL     1     -34.041   5.138   6.790  1.00 20.00    -0.130 Cl
ENDBRANCH   3  10
TORSDOF 2
ENDMDL
MODEL 9
REMARK VINA RESULT:      -3.4     11.916     13.325
REMARK  2 active torsions:
REMARK  status: ('A' for Active; 'I' for Inactive)
REMARK    1  A    between atoms: C6_6  and  C8_8 
REMARK    2  A    between atoms: C7_7  and  C9_9 
ROOT
HETATM    1  C4  UNL     1     -34.414  16.814  -6.468  1.00 20.00     0.034 C 
HETATM    2  C5  UNL     1     -34.881  18.246  -6.317  1.00 20.00     0.168 C 
HETATM    3  C7  UNL     1     -35.019  16.164  -5.240  1.00 20.00     0.031 C 
HETATM    4  C8  UNL     1     -34.876  17.265  -4.190  1.00 20.00     0.130 C 
HETATM    5  O10 UNL     1     -34.981  18.510  -4.910  1.00 20.00    -0.385 OA
ENDROOT
BRANCH   4   6
HETATM    6  C6  UNL     1     -33.539  17.266  -3.458  1.00 20.00     0.015 C 
HETATM    7  C2  UNL     1     -33.572  16.900  -1.951  1.00 20.00     0.007 C 
HETATM    8  C1  UNL     1     -32.465  17.955  -1.747  1.00 20.00     0.001 C 
HETATM    9  C3  UNL     1     -32.987  18.649  -3.021  1.00 20.00     0.007 C 
ENDBRANCH   4   6
BRANCH   3  10
HETATM   10  C9  UNL     1     -34.427  14.808  -4.901  1.00 20.00     0.121 C 
HETATM   11 CL11 UNL     1     -35.715  13.640  -4.548  1.00 20.00    -0.130 Cl
ENDBRANCH   3  10
TORSDOF 2
ENDMDL
