MODEL 1
REMARK VINA RESULT:      -4.1      0.000      0.000
REMARK  1 active torsions:
REMARK  status: ('A' for Active; 'I' for Inactive)
REMARK    1  A    between atoms: C3_3  and  C7_7 
ROOT
HETATM    1  C1  UNL     1     -33.533  15.283  -3.757  1.00 20.00     0.087 C 
HETATM    2  C2  UNL     1     -33.241  16.537  -3.158  1.00 20.00     0.090 C 
HETATM    3  C3  UNL     1     -33.585  16.808  -1.891  1.00 20.00    -0.011 C 
HETATM    4  N8  UNL     1     -33.770  14.259  -4.250  1.00 20.00    -0.192 NA
ENDROOT
BRANCH   3   5
HETATM    5  C7  UNL     1     -33.304  18.091  -1.227  1.00 20.00     0.009 C 
HETATM    6  C5  UNL     1     -33.612  18.145   0.291  1.00 20.00     0.008 C 
HETATM    7  C4  UNL     1     -32.347  19.015   0.443  1.00 20.00     0.001 C 
HETATM    8  C6  UNL     1     -31.823  18.341  -0.843  1.00 20.00     0.008 C 
ENDBRANCH   3   5
TORSDOF 1
ENDMDL
MODEL 2
REMARK VINA RESULT:      -4.1     11.220     11.696
REMARK  1 active torsions:
REMARK  status: ('A' for Active; 'I' for Inactive)
REMARK    1  A    between atoms: C3_3  and  C7_7 
ROOT
HETATM    1  C1  UNL     1     -32.590   8.720   1.849  1.00 20.00     0.087 C 
HETATM    2  C2  UNL     1     -32.554   7.735   2.871  1.00 20.00     0.090 C 
HETATM    3  C3  UNL     1     -33.333   7.823   3.958  1.00 20.00    -0.011 C 
HETATM    4  N8  UNL     1     -32.616   9.523   1.011  1.00 20.00    -0.192 NA
ENDROOT
BRANCH   3   5
HETATM    5  C7  UNL     1     -33.333   6.828   5.044  1.00 20.00     0.009 C 
HETATM    6  C5  UNL     1     -34.106   7.230   6.325  1.00 20.00     0.008 C 
HETATM    7  C4  UNL     1     -34.558   5.758   6.426  1.00 20.00     0.001 C 
HETATM    8  C6  UNL     1     -34.354   5.672   4.898  1.00 20.00     0.008 C 
ENDBRANCH   3   5
TORSDOF 1
ENDMDL
MODEL 3
REMARK VINA RESULT:      -3.9      0.885      1.162
REMARK  1 active torsions:
REMARK  status: ('A' for Active; 'I' for Inactive)
REMARK    1  A    between atoms: C3_3  and  C7_7 
ROOT
HETATM    1  C1  UNL     1     -33.451  16.157  -3.213  1.00 20.00     0.087 C 
HETATM    2  C2  UNL     1     -33.343  16.901  -2.008  1.00 20.00     0.090 C 
HETATM    3  C3  UNL     1     -32.610  18.021  -1.938  1.00 20.00    -0.011 C 
HETATM    4  N8  UNL     1     -33.543  15.546  -4.196  1.00 20.00    -0.192 NA
ENDROOT
BRANCH   3   5
HETATM    5  C7  UNL     1     -32.467  18.826  -0.714  1.00 20.00     0.009 C 
HETATM    6  C5  UNL     1     -33.247  18.314   0.523  1.00 20.00     0.008 C 
HETATM    7  C4  UNL     1     -32.039  18.757   1.376  1.00 20.00     0.001 C 
HETATM    8  C6  UNL     1     -31.177  18.578   0.109  1.00 20.00     0.008 C 
ENDBRANCH   3   5
TORSDOF 1
ENDMDL
MODEL 4
REMARK VINA RESULT:      -3.8      2.531      4.796
REMARK  1 active torsions:
REMARK  status: ('A' for Active; 'I' for Inactive)
REMARK    1  A    between atoms: C3_3  and  C7_7 
ROOT
HETATM    1  C1  UNL     1     -32.007  18.224  -1.117  1.00 20.00     0.087 C 
HETATM    2  C2  UNL     1     -33.035  17.420  -1.680  1.00 20.00     0.090 C 
HETATM    3  C3  UNL     1     -32.875  16.797  -2.855  1.00 20.00    -0.011 C 
HETATM    4  N8  UNL     1     -31.170  18.881  -0.654  1.00 20.00    -0.192 NA
ENDROOT
BRANCH   3   5
HETATM    5  C7  UNL     1     -33.909  15.955  -3.478  1.00 20.00     0.009 C 
HETATM    6  C5  UNL     1     -34.485  16.478  -4.819  1.00 20.00     0.008 C 
HETATM    7  C4  UNL     1     -34.526  15.009  -5.290  1.00 20.00     0.001 C 
HETATM    8  C6  UNL     1     -33.390  14.734  -4.281  1.00 20.00     0.008 C 
ENDBRANCH   3   5
TORSDOF 1
ENDMDL
MODEL 5
REMARK VINA RESULT:      -3.8      4.724      6.417
REMARK  1 active torsions:
REMARK  status: ('A' for Active; 'I' for Inactive)
REMARK    1  A    between atoms: C3_3  and  C7_7 
ROOT
HETATM    1  C1  UNL     1     -28.461  18.682   3.653  1.00 20.00     0.087 C 
HETATM    2  C2  UNL     1     -29.316  19.263   2.678  1.00 20.00     0.090 C 
HETATM    3  C3  UNL     1     -30.303  18.561   2.104  1.00 20.00    -0.011 C 
HETATM    4  N8  UNL     1     -27.760  18.213   4.450  1.00 20.00    -0.192 NA
ENDROOT
BRANCH   3   5
HETATM    5  C7  UNL     1     -31.215  19.117   1.090  1.00 20.00     0.009 C 
HETATM    6  C5  UNL     1     -31.157  18.447  -0.306  1.00 20.00     0.008 C 
HETATM    7  C4  UNL     1     -32.687  18.636  -0.379  1.00 20.00     0.001 C 
HETATM    8  C6  UNL     1     -32.684  18.628   1.165  1.00 20.00     0.008 C 
ENDBRANCH   3   5
TORSDOF 1
ENDMDL
MODEL 6
REMARK VINA RESULT:      -3.8      2.468      4.780
REMARK  1 active torsions:
REMARK  status: ('A' for Active; 'I' for Inactive)
REMARK    1  A    between atoms: C3_3  and  C7_7 
ROOT
HETATM    1  C1  UNL     1     -33.488  17.918  -0.499  1.00 20.00     0.087 C 
HETATM    2  C2  UNL     1     -33.138  17.557  -1.828  1.00 20.00     0.090 C 
HETATM    3  C3  UNL     1     -33.616  16.445  -2.402  1.00 20.00    -0.011 C 
HETATM    4  N8  UNL     1     -33.771  18.217   0.586  1.00 20.00    -0.192 NA
ENDROOT
BRANCH   3   5
HETATM    5  C7  UNL     1     -33.283  16.028  -3.775  1.00 20.00     0.009 C 
HETATM    6  C5  UNL     1     -33.665  14.573  -4.147  1.00 20.00     0.008 C 
HETATM    7  C4  UNL     1     -34.037  15.107  -5.546  1.00 20.00     0.001 C 
HETATM    8  C6  UNL     1     -34.279  16.476  -4.875  1.00 20.00     0.008 C 
ENDBRANCH   3   5
TORSDOF 1
ENDMDL
MODEL 7
REMARK VINA RESULT:      -3.7      3.928      5.439
REMARK  1 active torsions:
REMARK  status: ('A' for Active; 'I' for Inactive)
REMARK    1  A    between atoms: C3_3  and  C7_7 
ROOT
HETATM    1  C1  UNL     1     -29.847  18.578   2.695  1.00 20.00     0.087 C 
HETATM    2  C2  UNL     1     -31.037  18.504   1.921  1.00 20.00     0.090 C 
HETATM    3  C3  UNL     1     -31.119  19.062   0.706  1.00 20.00    -0.011 C 
HETATM    4  N8  UNL     1     -28.878  18.636   3.330  1.00 20.00    -0.192 NA
ENDROOT
BRANCH   3   5
HETATM    5  C7  UNL     1     -32.328  19.013  -0.134  1.00 20.00     0.009 C 
HETATM    6  C5  UNL     1     -32.296  17.993  -1.300  1.00 20.00     0.008 C 
HETATM    7  C4  UNL     1     -33.788  17.726  -1.010  1.00 20.00     0.001 C 
HETATM    8  C6  UNL     1     -33.510  18.189   0.436  1.00 20.00     0.008 C 
ENDBRANCH   3   5
TORSDOF 1
ENDMDL
MODEL 8
REMARK VINA RESULT:      -3.7      3.035      4.513
REMARK  1 active torsions:
REMARK  status: ('A' for Active; 'I' for Inactive)
REMARK    1  A    between atoms: C3_3  and  C7_7 
ROOT
HETATM    1  C1  UNL     1     -30.992  18.900   0.235  1.00 20.00     0.087 C 
HETATM    2  C2  UNL     1     -31.790  18.539  -0.884  1.00 20.00     0.090 C 
HETATM    3  C3  UNL     1     -33.000  17.984  -0.732  1.00 20.00    -0.011 C 
HETATM    4  N8  UNL     1     -30.336  19.196   1.145  1.00 20.00    -0.192 NA
ENDROOT
BRANCH   3   5
HETATM    5  C7  UNL     1     -33.864  17.593  -1.859  1.00 20.00     0.009 C 
HETATM    6  C5  UNL     1     -33.702  18.429  -3.153  1.00 20.00     0.008 C 
HETATM    7  C4  UNL     1     -33.905  17.117  -3.939  1.00 20.00     0.001 C 
HETATM    8  C6  UNL     1     -33.379  16.378  -2.690  1.00 20.00     0.008 C 
ENDBRANCH   3   5
TORSDOF 1
ENDMDL
MODEL 9
REMARK VINA RESULT:      -3.6      1.913      2.989
REMARK  1 active torsions:
REMARK  status: ('A' for Active; 'I' for Inactive)
REMARK    1  A    between atoms: C3_3  and  C7_7 
ROOT
HETATM    1  C1  UNL     1     -35.355  15.093  -6.050  1.00 20.00     0.087 C 
HETATM    2  C2  UNL     1     -34.606  15.976  -5.227  1.00 20.00     0.090 C 
HETATM    3  C3  UNL     1     -33.829  15.521  -4.235  1.00 20.00    -0.011 C 
HETATM    4  N8  UNL     1     -35.969  14.375  -6.725  1.00 20.00    -0.192 NA
ENDROOT
BRANCH   3   5
HETATM    5  C7  UNL     1     -33.034  16.395  -3.356  1.00 20.00     0.009 C 
HETATM    6  C5  UNL     1     -33.166  17.916  -3.623  1.00 20.00     0.008 C 
HETATM    7  C4  UNL     1     -33.096  18.116  -2.094  1.00 20.00     0.001 C 
HETATM    8  C6  UNL     1     -33.643  16.679  -1.960  1.00 20.00     0.008 C 
ENDBRANCH   3   5
TORSDOF 1
ENDMDL
