MODEL 1
REMARK VINA RESULT:      -4.7      0.000      0.000
REMARK  3 active torsions:
REMARK  status: ('A' for Active; 'I' for Inactive)
REMARK    1  A    between atoms: C5_5  and  C8_8 
REMARK    2  A    between atoms: C6_6  and  C8_8 
REMARK    3  A    between atoms: C8_8  and  O9_9 
ROOT
HETATM    1  C8  UNL     1     -33.673   6.773   5.406  1.00 20.00     0.130 C 
ENDROOT
BRANCH   1   2
HETATM    2  C5  UNL     1     -33.536   8.150   4.761  1.00 20.00     0.015 A 
HETATM    3  C1  UNL     1     -32.277   8.952   4.947  1.00 20.00     0.007 A 
HETATM    4  C2  UNL     1     -32.596   8.354   3.605  1.00 20.00     0.007 A 
ENDBRANCH   1   2
BRANCH   1   5
HETATM    5  C6  UNL     1     -34.366   5.783   4.510  1.00 20.00    -0.018 A 
HETATM    6  C3  UNL     1     -33.942   4.335   4.592  1.00 20.00     0.012 A 
HETATM    7  C4  UNL     1     -33.564   5.157   3.393  1.00 20.00     0.012 A 
HETATM    8  C7  UNL     1     -35.818   6.080   4.255  1.00 20.00     0.018 C 
ENDBRANCH   1   5
BRANCH   1   9
HETATM    9  O9  UNL     1     -34.403   6.912   6.628  1.00 20.00    -0.394 OA
HETATM   10  H23 UNL     1     -34.236   6.106   7.139  1.00 20.00     0.210 HD
ENDBRANCH   1   9
TORSDOF 3
ENDMDL
MODEL 2
REMARK VINA RESULT:      -4.4      1.738      3.697
REMARK  3 active torsions:
REMARK  status: ('A' for Active; 'I' for Inactive)
REMARK    1  A    between atoms: C5_5  and  C8_8 
REMARK    2  A    between atoms: C6_6  and  C8_8 
REMARK    3  A    between atoms: C8_8  and  O9_9 
ROOT
HETATM    1  C8  UNL     1     -33.108   6.250   4.079  1.00 20.00     0.130 C 
ENDROOT
BRANCH   1   2
HETATM    2  C5  UNL     1     -34.423   6.237   4.857  1.00 20.00     0.015 A 
HETATM    3  C1  UNL     1     -34.796   5.044   5.693  1.00 20.00     0.007 A 
HETATM    4  C2  UNL     1     -34.415   6.338   6.357  1.00 20.00     0.007 A 
ENDBRANCH   1   2
BRANCH   1   5
HETATM    5  C6  UNL     1     -32.704   7.635   3.656  1.00 20.00    -0.018 A 
HETATM    6  C3  UNL     1     -32.041   8.525   4.683  1.00 20.00     0.012 A 
HETATM    7  C4  UNL     1     -33.453   8.804   4.251  1.00 20.00     0.012 A 
HETATM    8  C7  UNL     1     -32.246   7.745   2.228  1.00 20.00     0.018 C 
ENDBRANCH   1   5
BRANCH   1   9
HETATM    9  O9  UNL     1     -33.252   5.414   2.927  1.00 20.00    -0.394 OA
HETATM   10  H23 UNL     1     -32.972   4.527   3.197  1.00 20.00     0.210 HD
ENDBRANCH   1   9
TORSDOF 3
ENDMDL
MODEL 3
REMARK VINA RESULT:      -4.2      1.035      1.360
REMARK  3 active torsions:
REMARK  status: ('A' for Active; 'I' for Inactive)
REMARK    1  A    between atoms: C5_5  and  C8_8 
REMARK    2  A    between atoms: C6_6  and  C8_8 
REMARK    3  A    between atoms: C8_8  and  O9_9 
ROOT
HETATM    1  C8  UNL     1     -33.539   7.006   5.704  1.00 20.00     0.130 C 
ENDROOT
BRANCH   1   2
HETATM    2  C5  UNL     1     -33.425   7.886   4.462  1.00 20.00     0.015 A 
HETATM    3  C1  UNL     1     -32.343   8.926   4.368  1.00 20.00     0.007 A 
HETATM    4  C2  UNL     1     -32.282   7.697   3.504  1.00 20.00     0.007 A 
ENDBRANCH   1   2
BRANCH   1   5
HETATM    5  C6  UNL     1     -34.435   5.818   5.487  1.00 20.00    -0.018 A 
HETATM    6  C3  UNL     1     -34.213   4.980   4.249  1.00 20.00     0.012 A 
HETATM    7  C4  UNL     1     -35.419   5.872   4.342  1.00 20.00     0.012 A 
HETATM    8  C7  UNL     1     -34.859   5.114   6.747  1.00 20.00     0.018 C 
ENDBRANCH   1   5
BRANCH   1   9
HETATM    9  O9  UNL     1     -34.043   7.801   6.782  1.00 20.00    -0.394 OA
HETATM   10  H23 UNL     1     -34.969   7.994   6.568  1.00 20.00     0.210 HD
ENDBRANCH   1   9
TORSDOF 3
ENDMDL
MODEL 4
REMARK VINA RESULT:      -4.1      1.110      3.439
REMARK  3 active torsions:
REMARK  status: ('A' for Active; 'I' for Inactive)
REMARK    1  A    between atoms: C5_5  and  C8_8 
REMARK    2  A    between atoms: C6_6  and  C8_8 
REMARK    3  A    between atoms: C8_8  and  O9_9 
ROOT
HETATM    1  C8  UNL     1     -33.960   7.655   4.834  1.00 20.00     0.130 C 
ENDROOT
BRANCH   1   2
HETATM    2  C5  UNL     1     -33.782   6.190   5.227  1.00 20.00     0.015 A 
HETATM    3  C1  UNL     1     -34.773   5.526   6.143  1.00 20.00     0.007 A 
HETATM    4  C2  UNL     1     -34.720   5.144   4.690  1.00 20.00     0.007 A 
ENDBRANCH   1   2
BRANCH   1   5
HETATM    5  C6  UNL     1     -32.759   8.209   4.119  1.00 20.00    -0.018 A 
HETATM    6  C3  UNL     1     -32.892   8.516   2.645  1.00 20.00     0.012 A 
HETATM    7  C4  UNL     1     -32.080   7.333   3.092  1.00 20.00     0.012 A 
HETATM    8  C7  UNL     1     -31.896   9.116   4.953  1.00 20.00     0.018 C 
ENDBRANCH   1   5
BRANCH   1   9
HETATM    9  O9  UNL     1     -34.212   8.417   6.019  1.00 20.00    -0.394 OA
HETATM   10  H23 UNL     1     -33.348   8.720   6.336  1.00 20.00     0.210 HD
ENDBRANCH   1   9
TORSDOF 3
ENDMDL
MODEL 5
REMARK VINA RESULT:      -4.0      1.440      3.137
REMARK  3 active torsions:
REMARK  status: ('A' for Active; 'I' for Inactive)
REMARK    1  A    between atoms: C5_5  and  C8_8 
REMARK    2  A    between atoms: C6_6  and  C8_8 
REMARK    3  A    between atoms: C8_8  and  O9_9 
ROOT
HETATM    1  C8  UNL     1     -34.385   5.882   4.289  1.00 20.00     0.130 C 
ENDROOT
BRANCH   1   2
HETATM    2  C5  UNL     1     -33.126   5.360   3.600  1.00 20.00     0.015 A 
HETATM    3  C1  UNL     1     -33.189   4.866   2.180  1.00 20.00     0.007 A 
HETATM    4  C2  UNL     1     -32.482   6.155   2.498  1.00 20.00     0.007 A 
ENDBRANCH   1   2
BRANCH   1   5
HETATM    5  C6  UNL     1     -34.079   6.898   5.355  1.00 20.00    -0.018 A 
HETATM    6  C3  UNL     1     -34.240   8.360   5.007  1.00 20.00     0.012 A 
HETATM    7  C4  UNL     1     -32.865   7.777   5.167  1.00 20.00     0.012 A 
HETATM    8  C7  UNL     1     -34.425   6.463   6.752  1.00 20.00     0.018 C 
ENDBRANCH   1   5
BRANCH   1   9
HETATM    9  O9  UNL     1     -35.083   4.773   4.863  1.00 20.00    -0.394 OA
HETATM   10  H23 UNL     1     -34.419   4.086   5.021  1.00 20.00     0.210 HD
ENDBRANCH   1   9
TORSDOF 3
ENDMDL
MODEL 6
REMARK VINA RESULT:      -4.0      1.673      2.287
REMARK  3 active torsions:
REMARK  status: ('A' for Active; 'I' for Inactive)
REMARK    1  A    between atoms: C5_5  and  C8_8 
REMARK    2  A    between atoms: C6_6  and  C8_8 
REMARK    3  A    between atoms: C8_8  and  O9_9 
ROOT
HETATM    1  C8  UNL     1     -33.464   6.747   3.794  1.00 20.00     0.130 C 
ENDROOT
BRANCH   1   2
HETATM    2  C5  UNL     1     -32.751   7.581   4.856  1.00 20.00     0.015 A 
HETATM    3  C1  UNL     1     -32.317   8.988   4.548  1.00 20.00     0.007 A 
HETATM    4  C2  UNL     1     -33.452   8.743   5.502  1.00 20.00     0.007 A 
ENDBRANCH   1   2
BRANCH   1   5
HETATM    5  C6  UNL     1     -34.208   5.580   4.383  1.00 20.00    -0.018 A 
HETATM    6  C3  UNL     1     -35.691   5.737   4.628  1.00 20.00     0.012 A 
HETATM    7  C4  UNL     1     -34.739   5.717   5.790  1.00 20.00     0.012 A 
HETATM    8  C7  UNL     1     -33.704   4.232   3.946  1.00 20.00     0.018 C 
ENDBRANCH   1   5
BRANCH   1   9
HETATM    9  O9  UNL     1     -32.492   6.278   2.854  1.00 20.00    -0.394 OA
HETATM   10  H23 UNL     1     -31.630   6.366   3.288  1.00 20.00     0.210 HD
ENDBRANCH   1   9
TORSDOF 3
ENDMDL
MODEL 7
REMARK VINA RESULT:      -3.7      1.531      2.256
REMARK  3 active torsions:
REMARK  status: ('A' for Active; 'I' for Inactive)
REMARK    1  A    between atoms: C5_5  and  C8_8 
REMARK    2  A    between atoms: C6_6  and  C8_8 
REMARK    3  A    between atoms: C8_8  and  O9_9 
ROOT
HETATM    1  C8  UNL     1     -32.952   6.886   4.850  1.00 20.00     0.130 C 
ENDROOT
BRANCH   1   2
HETATM    2  C5  UNL     1     -33.178   6.979   3.342  1.00 20.00     0.015 A 
HETATM    3  C1  UNL     1     -32.022   7.242   2.418  1.00 20.00     0.007 A 
HETATM    4  C2  UNL     1     -32.678   5.890   2.434  1.00 20.00     0.007 A 
ENDBRANCH   1   2
BRANCH   1   5
HETATM    5  C6  UNL     1     -34.160   6.371   5.582  1.00 20.00    -0.018 A 
HETATM    6  C3  UNL     1     -34.458   4.891   5.504  1.00 20.00     0.012 A 
HETATM    7  C4  UNL     1     -35.324   5.868   4.762  1.00 20.00     0.012 A 
HETATM    8  C7  UNL     1     -34.461   7.083   6.872  1.00 20.00     0.018 C 
ENDBRANCH   1   5
BRANCH   1   9
HETATM    9  O9  UNL     1     -32.607   8.185   5.340  1.00 20.00    -0.394 OA
HETATM   10  H23 UNL     1     -31.780   8.431   4.898  1.00 20.00     0.210 HD
ENDBRANCH   1   9
TORSDOF 3
ENDMDL
MODEL 8
REMARK VINA RESULT:      -3.7     12.346     13.314
REMARK  3 active torsions:
REMARK  status: ('A' for Active; 'I' for Inactive)
REMARK    1  A    between atoms: C5_5  and  C8_8 
REMARK    2  A    between atoms: C6_6  and  C8_8 
REMARK    3  A    between atoms: C8_8  and  O9_9 
ROOT
HETATM    1  C8  UNL     1     -33.469  15.163  -4.830  1.00 20.00     0.130 C 
ENDROOT
BRANCH   1   2
HETATM    2  C5  UNL     1     -33.965  15.795  -3.532  1.00 20.00     0.015 A 
HETATM    3  C1  UNL     1     -33.041  16.644  -2.702  1.00 20.00     0.007 A 
HETATM    4  C2  UNL     1     -34.182  17.280  -3.447  1.00 20.00     0.007 A 
ENDBRANCH   1   2
BRANCH   1   5
HETATM    5  C6  UNL     1     -34.472  15.278  -5.945  1.00 20.00    -0.018 A 
HETATM    6  C3  UNL     1     -33.950  15.350  -7.362  1.00 20.00     0.012 A 
HETATM    7  C4  UNL     1     -34.529  16.576  -6.715  1.00 20.00     0.012 A 
HETATM    8  C7  UNL     1     -35.762  14.543  -5.705  1.00 20.00     0.018 C 
ENDBRANCH   1   5
BRANCH   1   9
HETATM    9  O9  UNL     1     -33.175  13.785  -4.584  1.00 20.00    -0.394 OA
HETATM   10  H23 UNL     1     -33.496  13.594  -3.690  1.00 20.00     0.210 HD
ENDBRANCH   1   9
TORSDOF 3
ENDMDL
MODEL 9
REMARK VINA RESULT:      -3.6      8.951      9.998
REMARK  3 active torsions:
REMARK  status: ('A' for Active; 'I' for Inactive)
REMARK    1  A    between atoms: C5_5  and  C8_8 
REMARK    2  A    between atoms: C6_6  and  C8_8 
REMARK    3  A    between atoms: C8_8  and  O9_9 
ROOT
HETATM    1  C8  UNL     1     -40.687  13.450   5.388  1.00 20.00     0.130 C 
ENDROOT
BRANCH   1   2
HETATM    2  C5  UNL     1     -40.006  12.089   5.264  1.00 20.00     0.015 A 
HETATM    3  C1  UNL     1     -39.058  11.817   4.128  1.00 20.00     0.007 A 
HETATM    4  C2  UNL     1     -38.532  11.953   5.530  1.00 20.00     0.007 A 
ENDBRANCH   1   2
BRANCH   1   5
HETATM    5  C6  UNL     1     -41.403  13.617   6.700  1.00 20.00    -0.018 A 
HETATM    6  C3  UNL     1     -41.575  15.019   7.239  1.00 20.00     0.012 A 
HETATM    7  C4  UNL     1     -40.598  14.082   7.892  1.00 20.00     0.012 A 
HETATM    8  C7  UNL     1     -42.511  12.628   6.940  1.00 20.00     0.018 C 
ENDBRANCH   1   5
BRANCH   1   9
HETATM    9  O9  UNL     1     -41.615  13.595   4.309  1.00 20.00    -0.394 OA
HETATM   10  H23 UNL     1     -41.455  14.472   3.929  1.00 20.00     0.210 HD
ENDBRANCH   1   9
TORSDOF 3
ENDMDL
