MODEL 1
REMARK VINA RESULT:      -4.2      0.000      0.000
REMARK  3 active torsions:
REMARK  status: ('A' for Active; 'I' for Inactive)
REMARK    1  A    between atoms: C1_1  and  C7_7 
REMARK    2  A    between atoms: C2_2  and  C3_3 
REMARK    3  A    between atoms: C3_3  and  C10_10 
ROOT
HETATM    1  C1  UNL     1     -33.270  16.589  -2.533  1.00 20.00    -0.012 C 
HETATM    2  C3  UNL     1     -33.897  16.425  -3.712  1.00 20.00    -0.020 C 
ENDROOT
BRANCH   2   3
HETATM    3  C2  UNL     1     -33.638  15.104  -4.354  1.00 20.00     0.265 C 
HETATM    4  O11 UNL     1     -34.126  14.049  -3.969  1.00 20.00    -0.302 OA
ENDBRANCH   2   3
BRANCH   2   5
HETATM    5  C10 UNL     1     -34.800  17.436  -4.394  1.00 20.00     0.013 C 
HETATM    6  C8  UNL     1     -35.885  16.764  -5.240  1.00 20.00     0.015 C 
HETATM    7  C9  UNL     1     -34.009  18.456  -5.217  1.00 20.00     0.015 C 
ENDBRANCH   2   5
BRANCH   1   8
HETATM    8  C7  UNL     1     -33.395  17.824  -1.737  1.00 20.00     0.009 C 
HETATM    9  C5  UNL     1     -33.834  17.632  -0.263  1.00 20.00     0.008 C 
HETATM   10  C4  UNL     1     -32.859  18.772   0.097  1.00 20.00     0.001 C 
HETATM   11  C6  UNL     1     -32.069  18.397  -1.174  1.00 20.00     0.008 C 
ENDBRANCH   1   8
TORSDOF 3
ENDMDL
MODEL 2
REMARK VINA RESULT:      -3.9     11.394     13.285
REMARK  3 active torsions:
REMARK  status: ('A' for Active; 'I' for Inactive)
REMARK    1  A    between atoms: C1_1  and  C7_7 
REMARK    2  A    between atoms: C2_2  and  C3_3 
REMARK    3  A    between atoms: C3_3  and  C10_10 
ROOT
HETATM    1  C1  UNL     1     -41.206  12.595   6.351  1.00 20.00    -0.012 C 
HETATM    2  C3  UNL     1     -41.650  13.467   7.274  1.00 20.00    -0.020 C 
ENDROOT
BRANCH   2   3
HETATM    3  C2  UNL     1     -42.974  13.106   7.860  1.00 20.00     0.265 C 
HETATM    4  O11 UNL     1     -43.152  12.157   8.614  1.00 20.00    -0.302 OA
ENDBRANCH   2   3
BRANCH   2   5
HETATM    5  C10 UNL     1     -40.935  14.723   7.735  1.00 20.00     0.013 C 
HETATM    6  C8  UNL     1     -40.325  14.564   9.130  1.00 20.00     0.015 C 
HETATM    7  C9  UNL     1     -41.833  15.960   7.662  1.00 20.00     0.015 C 
ENDBRANCH   2   5
BRANCH   1   8
HETATM    8  C7  UNL     1     -39.920  12.769   5.653  1.00 20.00     0.009 C 
HETATM    9  C5  UNL     1     -38.697  12.087   6.316  1.00 20.00     0.008 C 
HETATM   10  C4  UNL     1     -38.203  11.757   4.893  1.00 20.00     0.001 C 
HETATM   11  C6  UNL     1     -39.678  11.827   4.446  1.00 20.00     0.008 C 
ENDBRANCH   1   8
TORSDOF 3
ENDMDL
MODEL 3
REMARK VINA RESULT:      -3.9     11.575     13.597
REMARK  3 active torsions:
REMARK  status: ('A' for Active; 'I' for Inactive)
REMARK    1  A    between atoms: C1_1  and  C7_7 
REMARK    2  A    between atoms: C2_2  and  C3_3 
REMARK    3  A    between atoms: C3_3  and  C10_10 
ROOT
HETATM    1  C1  UNL     1     -41.237  13.118   7.094  1.00 20.00    -0.012 C 
HETATM    2  C3  UNL     1     -41.331  13.989   8.114  1.00 20.00    -0.020 C 
ENDROOT
BRANCH   2   3
HETATM    3  C2  UNL     1     -42.575  13.839   8.924  1.00 20.00     0.265 C 
HETATM    4  O11 UNL     1     -42.841  12.846   9.590  1.00 20.00    -0.302 OA
ENDBRANCH   2   3
BRANCH   2   5
HETATM    5  C10 UNL     1     -40.314  15.056   8.477  1.00 20.00     0.013 C 
HETATM    6  C8  UNL     1     -40.256  15.311   9.986  1.00 20.00     0.015 C 
HETATM    7  C9  UNL     1     -40.539  16.357   7.705  1.00 20.00     0.015 C 
ENDBRANCH   2   5
BRANCH   1   8
HETATM    8  C7  UNL     1     -40.086  13.100   6.173  1.00 20.00     0.009 C 
HETATM    9  C5  UNL     1     -39.210  11.822   6.217  1.00 20.00     0.008 C 
HETATM   10  C4  UNL     1     -39.065  11.960   4.688  1.00 20.00     0.001 C 
HETATM   11  C6  UNL     1     -40.406  12.722   4.705  1.00 20.00     0.008 C 
ENDBRANCH   1   8
TORSDOF 3
ENDMDL
MODEL 4
REMARK VINA RESULT:      -3.8     11.520     13.272
REMARK  3 active torsions:
REMARK  status: ('A' for Active; 'I' for Inactive)
REMARK    1  A    between atoms: C1_1  and  C7_7 
REMARK    2  A    between atoms: C2_2  and  C3_3 
REMARK    3  A    between atoms: C3_3  and  C10_10 
ROOT
HETATM    1  C1  UNL     1     -40.058  13.002   6.882  1.00 20.00    -0.012 C 
HETATM    2  C3  UNL     1     -41.291  13.274   7.345  1.00 20.00    -0.020 C 
ENDROOT
BRANCH   2   3
HETATM    3  C2  UNL     1     -41.315  14.279   8.448  1.00 20.00     0.265 C 
HETATM    4  O11 UNL     1     -40.942  14.048   9.591  1.00 20.00    -0.302 OA
ENDBRANCH   2   3
BRANCH   2   5
HETATM    5  C10 UNL     1     -42.588  12.662   6.850  1.00 20.00     0.013 C 
HETATM    6  C8  UNL     1     -43.417  13.651   6.026  1.00 20.00     0.015 C 
HETATM    7  C9  UNL     1     -43.416  12.059   7.987  1.00 20.00     0.015 C 
ENDBRANCH   2   5
BRANCH   1   8
HETATM    8  C7  UNL     1     -39.817  12.036   5.795  1.00 20.00     0.009 C 
HETATM    9  C5  UNL     1     -40.106  12.552   4.362  1.00 20.00     0.008 C 
HETATM   10  C4  UNL     1     -38.873  11.747   3.904  1.00 20.00     0.001 C 
HETATM   11  C6  UNL     1     -38.342  11.884   5.346  1.00 20.00     0.008 C 
ENDBRANCH   1   8
TORSDOF 3
ENDMDL
MODEL 5
REMARK VINA RESULT:      -3.8      1.608      2.685
REMARK  3 active torsions:
REMARK  status: ('A' for Active; 'I' for Inactive)
REMARK    1  A    between atoms: C1_1  and  C7_7 
REMARK    2  A    between atoms: C2_2  and  C3_3 
REMARK    3  A    between atoms: C3_3  and  C10_10 
ROOT
HETATM    1  C1  UNL     1     -34.462  17.666  -3.822  1.00 20.00    -0.012 C 
HETATM    2  C3  UNL     1     -34.761  16.743  -4.754  1.00 20.00    -0.020 C 
ENDROOT
BRANCH   2   3
HETATM    3  C2  UNL     1     -36.019  17.027  -5.504  1.00 20.00     0.265 C 
HETATM    4  O11 UNL     1     -37.084  16.459  -5.291  1.00 20.00    -0.302 OA
ENDBRANCH   2   3
BRANCH   2   5
HETATM    5  C10 UNL     1     -33.949  15.503  -5.078  1.00 20.00     0.013 C 
HETATM    6  C8  UNL     1     -34.020  15.136  -6.563  1.00 20.00     0.015 C 
HETATM    7  C9  UNL     1     -34.332  14.313  -4.195  1.00 20.00     0.015 C 
ENDBRANCH   2   5
BRANCH   1   8
HETATM    8  C7  UNL     1     -33.261  17.571  -2.973  1.00 20.00     0.009 C 
HETATM    9  C5  UNL     1     -32.699  18.919  -2.452  1.00 20.00     0.008 C 
HETATM   10  C4  UNL     1     -32.382  18.190  -1.130  1.00 20.00     0.001 C 
HETATM   11  C6  UNL     1     -33.516  17.207  -1.488  1.00 20.00     0.008 C 
ENDBRANCH   1   8
TORSDOF 3
ENDMDL
MODEL 6
REMARK VINA RESULT:      -3.6     24.792     25.911
REMARK  3 active torsions:
REMARK  status: ('A' for Active; 'I' for Inactive)
REMARK    1  A    between atoms: C1_1  and  C7_7 
REMARK    2  A    between atoms: C2_2  and  C3_3 
REMARK    3  A    between atoms: C3_3  and  C10_10 
ROOT
HETATM    1  C1  UNL     1     -23.837  -2.846  10.331  1.00 20.00    -0.012 C 
HETATM    2  C3  UNL     1     -25.042  -2.481  10.803  1.00 20.00    -0.020 C 
ENDROOT
BRANCH   2   3
HETATM    3  C2  UNL     1     -24.977  -1.553  11.970  1.00 20.00     0.265 C 
HETATM    4  O11 UNL     1     -23.961  -0.966  12.321  1.00 20.00    -0.302 OA
ENDBRANCH   2   3
BRANCH   2   5
HETATM    5  C10 UNL     1     -26.388  -2.923  10.261  1.00 20.00     0.013 C 
HETATM    6  C8  UNL     1     -27.382  -1.763  10.162  1.00 20.00     0.015 C 
HETATM    7  C9  UNL     1     -26.978  -4.091  11.055  1.00 20.00     0.015 C 
ENDBRANCH   2   5
BRANCH   1   8
HETATM    8  C7  UNL     1     -23.682  -3.758   9.183  1.00 20.00     0.009 C 
HETATM    9  C5  UNL     1     -23.215  -3.100   7.860  1.00 20.00     0.008 C 
HETATM   10  C4  UNL     1     -22.374  -4.369   7.612  1.00 20.00     0.001 C 
HETATM   11  C6  UNL     1     -22.360  -4.567   9.141  1.00 20.00     0.008 C 
ENDBRANCH   1   8
TORSDOF 3
ENDMDL
MODEL 7
REMARK VINA RESULT:      -3.5     11.753     13.267
REMARK  3 active torsions:
REMARK  status: ('A' for Active; 'I' for Inactive)
REMARK    1  A    between atoms: C1_1  and  C7_7 
REMARK    2  A    between atoms: C2_2  and  C3_3 
REMARK    3  A    between atoms: C3_3  and  C10_10 
ROOT
HETATM    1  C1  UNL     1     -40.167  13.493   7.682  1.00 20.00    -0.012 C 
HETATM    2  C3  UNL     1     -40.703  14.643   8.127  1.00 20.00    -0.020 C 
ENDROOT
BRANCH   2   3
HETATM    3  C2  UNL     1     -41.035  14.631   9.582  1.00 20.00     0.265 C 
HETATM    4  O11 UNL     1     -41.082  13.615  10.264  1.00 20.00    -0.302 OA
ENDBRANCH   2   3
BRANCH   2   5
HETATM    5  C10 UNL     1     -40.980  15.882   7.297  1.00 20.00     0.013 C 
HETATM    6  C8  UNL     1     -40.744  17.172   8.087  1.00 20.00     0.015 C 
HETATM    7  C9  UNL     1     -42.377  15.863   6.674  1.00 20.00     0.015 C 
ENDBRANCH   2   5
BRANCH   1   8
HETATM    8  C7  UNL     1     -39.770  13.299   6.275  1.00 20.00     0.009 C 
HETATM    9  C5  UNL     1     -38.852  12.080   5.998  1.00 20.00     0.008 C 
HETATM   10  C4  UNL     1     -39.638  11.882   4.686  1.00 20.00     0.001 C 
HETATM   11  C6  UNL     1     -40.818  12.601   5.372  1.00 20.00     0.008 C 
ENDBRANCH   1   8
TORSDOF 3
ENDMDL
MODEL 8
REMARK VINA RESULT:      -3.4      1.656      2.236
REMARK  3 active torsions:
REMARK  status: ('A' for Active; 'I' for Inactive)
REMARK    1  A    between atoms: C1_1  and  C7_7 
REMARK    2  A    between atoms: C2_2  and  C3_3 
REMARK    3  A    between atoms: C3_3  and  C10_10 
ROOT
HETATM    1  C1  UNL     1     -34.025  16.178  -4.385  1.00 20.00    -0.012 C 
HETATM    2  C3  UNL     1     -34.879  16.169  -5.424  1.00 20.00    -0.020 C 
ENDROOT
BRANCH   2   3
HETATM    3  C2  UNL     1     -34.653  15.048  -6.382  1.00 20.00     0.265 C 
HETATM    4  O11 UNL     1     -33.701  14.986  -7.150  1.00 20.00    -0.302 OA
ENDBRANCH   2   3
BRANCH   2   5
HETATM    5  C10 UNL     1     -35.995  17.166  -5.675  1.00 20.00     0.013 C 
HETATM    6  C8  UNL     1     -37.376  16.578  -5.374  1.00 20.00     0.015 C 
HETATM    7  C9  UNL     1     -35.940  17.754  -7.086  1.00 20.00     0.015 C 
ENDBRANCH   2   5
BRANCH   1   8
HETATM    8  C7  UNL     1     -34.079  17.203  -3.327  1.00 20.00     0.009 C 
HETATM    9  C5  UNL     1     -33.405  16.820  -1.985  1.00 20.00     0.008 C 
HETATM   10  C4  UNL     1     -32.927  18.283  -1.892  1.00 20.00     0.001 C 
HETATM   11  C6  UNL     1     -33.022  18.332  -3.431  1.00 20.00     0.008 C 
ENDBRANCH   1   8
TORSDOF 3
ENDMDL
MODEL 9
REMARK VINA RESULT:      -3.3     11.806     13.635
REMARK  3 active torsions:
REMARK  status: ('A' for Active; 'I' for Inactive)
REMARK    1  A    between atoms: C1_1  and  C7_7 
REMARK    2  A    between atoms: C2_2  and  C3_3 
REMARK    3  A    between atoms: C3_3  and  C10_10 
ROOT
HETATM    1  C1  UNL     1     -40.489  14.560   6.888  1.00 20.00    -0.012 C 
HETATM    2  C3  UNL     1     -40.719  15.011   8.133  1.00 20.00    -0.020 C 
ENDROOT
BRANCH   2   3
HETATM    3  C2  UNL     1     -40.652  16.496   8.260  1.00 20.00     0.265 C 
HETATM    4  O11 UNL     1     -40.510  17.257   7.311  1.00 20.00    -0.302 OA
ENDBRANCH   2   3
BRANCH   2   5
HETATM    5  C10 UNL     1     -41.026  14.160   9.352  1.00 20.00     0.013 C 
HETATM    6  C8  UNL     1     -42.527  13.914   9.523  1.00 20.00     0.015 C 
HETATM    7  C9  UNL     1     -40.410  14.735  10.629  1.00 20.00     0.015 C 
ENDBRANCH   2   5
BRANCH   1   8
HETATM    8  C7  UNL     1     -40.509  13.125   6.551  1.00 20.00     0.009 C 
HETATM    9  C5  UNL     1     -40.606  12.790   5.041  1.00 20.00     0.008 C 
HETATM   10  C4  UNL     1     -39.643  11.617   5.315  1.00 20.00     0.001 C 
HETATM   11  C6  UNL     1     -39.128  12.422   6.525  1.00 20.00     0.008 C 
ENDBRANCH   1   8
TORSDOF 3
ENDMDL
