MODEL 1
REMARK VINA RESULT:      -5.2      0.000      0.000
REMARK  2 active torsions:
REMARK  status: ('A' for Active; 'I' for Inactive)
REMARK    1  A    between atoms: C1_1  and  C5_5 
REMARK    2  A    between atoms: C1_1  and  C8_8 
ROOT
HETATM    1  C2  UNL     1     -33.608   7.495   5.879  1.00 20.00     0.017 C 
HETATM    2  C3  UNL     1     -34.058   6.118   3.911  1.00 20.00     0.017 C 
HETATM    3  C4  UNL     1     -34.382   5.014   6.276  1.00 20.00     0.010 A 
HETATM    4  C5  UNL     1     -32.967   6.969   4.583  1.00 20.00     0.057 C 
HETATM    5  C6  UNL     1     -34.668   6.492   6.231  1.00 20.00    -0.009 A 
HETATM    6  C7  UNL     1     -34.941   5.652   5.031  1.00 20.00    -0.009 A 
ENDROOT
BRANCH   4   7
HETATM    7  C1  UNL     1     -32.505   8.083   3.699  1.00 20.00     0.144 C 
HETATM    8  O9  UNL     1     -32.336   9.214   4.152  1.00 20.00    -0.296 OA
BRANCH   7   9
HETATM    9  C8  UNL     1     -32.270   7.718   2.251  1.00 20.00     0.193 C 
HETATM   10 CL10 UNL     1     -32.622   9.093   1.195  1.00 20.00    -0.123 Cl
ENDBRANCH   7   9
ENDBRANCH   4   7
TORSDOF 2
ENDMDL
MODEL 2
REMARK VINA RESULT:      -4.9      1.124      1.204
REMARK  2 active torsions:
REMARK  status: ('A' for Active; 'I' for Inactive)
REMARK    1  A    between atoms: C1_1  and  C5_5 
REMARK    2  A    between atoms: C1_1  and  C8_8 
ROOT
HETATM    1  C2  UNL     1     -33.406   7.591   5.467  1.00 20.00     0.017 C 
HETATM    2  C3  UNL     1     -34.167   5.837   3.946  1.00 20.00     0.017 C 
HETATM    3  C4  UNL     1     -34.294   5.356   6.528  1.00 20.00     0.010 A 
HETATM    4  C5  UNL     1     -32.953   6.718   4.284  1.00 20.00     0.057 C 
HETATM    5  C6  UNL     1     -34.484   6.802   6.151  1.00 20.00    -0.009 A 
HETATM    6  C7  UNL     1     -34.946   5.731   5.223  1.00 20.00    -0.009 A 
ENDROOT
BRANCH   4   7
HETATM    7  C1  UNL     1     -32.520   7.545   3.116  1.00 20.00     0.144 C 
HETATM    8  O9  UNL     1     -32.090   7.011   2.095  1.00 20.00    -0.296 OA
BRANCH   7   9
HETATM    9  C8  UNL     1     -32.652   9.041   3.286  1.00 20.00     0.193 C 
HETATM   10 CL10 UNL     1     -32.941   9.824   1.725  1.00 20.00    -0.123 Cl
ENDBRANCH   7   9
ENDBRANCH   4   7
TORSDOF 2
ENDMDL
MODEL 3
REMARK VINA RESULT:      -4.9      0.734      1.505
REMARK  2 active torsions:
REMARK  status: ('A' for Active; 'I' for Inactive)
REMARK    1  A    between atoms: C1_1  and  C5_5 
REMARK    2  A    between atoms: C1_1  and  C8_8 
ROOT
HETATM    1  C2  UNL     1     -33.551   6.011   3.842  1.00 20.00     0.017 C 
HETATM    2  C3  UNL     1     -33.761   7.088   6.025  1.00 20.00     0.017 C 
HETATM    3  C4  UNL     1     -35.480   5.190   5.429  1.00 20.00     0.010 A 
HETATM    4  C5  UNL     1     -33.733   7.382   4.516  1.00 20.00     0.057 C 
HETATM    5  C6  UNL     1     -34.117   5.016   4.813  1.00 20.00    -0.009 A 
HETATM    6  C7  UNL     1     -34.246   5.674   6.144  1.00 20.00    -0.009 A 
ENDROOT
BRANCH   4   7
HETATM    7  C1  UNL     1     -32.636   8.331   4.152  1.00 20.00     0.144 C 
HETATM    8  O9  UNL     1     -32.219   9.150   4.969  1.00 20.00    -0.296 OA
BRANCH   7   9
HETATM    9  C8  UNL     1     -32.099   8.205   2.745  1.00 20.00     0.193 C 
HETATM   10 CL10 UNL     1     -32.825   9.425   1.688  1.00 20.00    -0.123 Cl
ENDBRANCH   7   9
ENDBRANCH   4   7
TORSDOF 2
ENDMDL
MODEL 4
REMARK VINA RESULT:      -4.3      2.576      3.992
REMARK  2 active torsions:
REMARK  status: ('A' for Active; 'I' for Inactive)
REMARK    1  A    between atoms: C1_1  and  C5_5 
REMARK    2  A    between atoms: C1_1  and  C8_8 
ROOT
HETATM    1  C2  UNL     1     -33.178   8.402   5.261  1.00 20.00     0.017 C 
HETATM    2  C3  UNL     1     -33.097   6.645   3.565  1.00 20.00     0.017 C 
HETATM    3  C4  UNL     1     -32.552   9.103   2.805  1.00 20.00     0.010 A 
HETATM    4  C5  UNL     1     -34.022   7.293   4.609  1.00 20.00     0.057 C 
HETATM    5  C6  UNL     1     -32.161   8.785   4.225  1.00 20.00    -0.009 A 
HETATM    6  C7  UNL     1     -32.114   7.714   3.190  1.00 20.00    -0.009 A 
ENDROOT
BRANCH   4   7
HETATM    7  C1  UNL     1     -34.509   6.301   5.616  1.00 20.00     0.144 C 
HETATM    8  O9  UNL     1     -34.414   6.531   6.820  1.00 20.00    -0.296 OA
BRANCH   7   9
HETATM    9  C8  UNL     1     -35.108   5.033   5.051  1.00 20.00     0.193 C 
HETATM   10 CL10 UNL     1     -33.836   3.914   4.541  1.00 20.00    -0.123 Cl
ENDBRANCH   7   9
ENDBRANCH   4   7
TORSDOF 2
ENDMDL
MODEL 5
REMARK VINA RESULT:      -4.2      1.221      1.821
REMARK  2 active torsions:
REMARK  status: ('A' for Active; 'I' for Inactive)
REMARK    1  A    between atoms: C1_1  and  C5_5 
REMARK    2  A    between atoms: C1_1  and  C8_8 
ROOT
HETATM    1  C2  UNL     1     -33.911   5.559   4.161  1.00 20.00     0.017 C 
HETATM    2  C3  UNL     1     -33.207   7.358   5.658  1.00 20.00     0.017 C 
HETATM    3  C4  UNL     1     -35.198   5.828   6.438  1.00 20.00     0.010 A 
HETATM    4  C5  UNL     1     -33.703   7.082   4.228  1.00 20.00     0.057 C 
HETATM    5  C6  UNL     1     -34.176   5.134   5.576  1.00 20.00    -0.009 A 
HETATM    6  C7  UNL     1     -33.748   6.232   6.488  1.00 20.00    -0.009 A 
ENDROOT
BRANCH   4   7
HETATM    7  C1  UNL     1     -32.729   7.556   3.198  1.00 20.00     0.144 C 
HETATM    8  O9  UNL     1     -32.149   6.755   2.468  1.00 20.00    -0.296 OA
BRANCH   7   9
HETATM    9  C8  UNL     1     -32.522   9.052   3.129  1.00 20.00     0.193 C 
HETATM   10 CL10 UNL     1     -32.904   9.662   1.512  1.00 20.00    -0.123 Cl
ENDBRANCH   7   9
ENDBRANCH   4   7
TORSDOF 2
ENDMDL
MODEL 6
REMARK VINA RESULT:      -4.1      2.992      4.314
REMARK  2 active torsions:
REMARK  status: ('A' for Active; 'I' for Inactive)
REMARK    1  A    between atoms: C1_1  and  C5_5 
REMARK    2  A    between atoms: C1_1  and  C8_8 
ROOT
HETATM    1  C2  UNL     1     -33.595   7.571   4.768  1.00 20.00     0.017 C 
HETATM    2  C3  UNL     1     -32.658   6.225   2.957  1.00 20.00     0.017 C 
HETATM    3  C4  UNL     1     -32.685   8.837   2.651  1.00 20.00     0.010 A 
HETATM    4  C5  UNL     1     -33.930   6.423   3.799  1.00 20.00     0.057 C 
HETATM    5  C6  UNL     1     -32.533   8.375   4.077  1.00 20.00    -0.009 A 
HETATM    6  C7  UNL     1     -31.963   7.554   2.971  1.00 20.00    -0.009 A 
ENDROOT
BRANCH   4   7
HETATM    7  C1  UNL     1     -34.317   5.176   4.527  1.00 20.00     0.144 C 
HETATM    8  O9  UNL     1     -34.150   4.072   4.011  1.00 20.00    -0.296 OA
BRANCH   7   9
HETATM    9  C8  UNL     1     -34.912   5.376   5.902  1.00 20.00     0.193 C 
HETATM   10 CL10 UNL     1     -33.679   5.160   7.153  1.00 20.00    -0.123 Cl
ENDBRANCH   7   9
ENDBRANCH   4   7
TORSDOF 2
ENDMDL
MODEL 7
REMARK VINA RESULT:      -4.0     11.954     13.037
REMARK  2 active torsions:
REMARK  status: ('A' for Active; 'I' for Inactive)
REMARK    1  A    between atoms: C1_1  and  C5_5 
REMARK    2  A    between atoms: C1_1  and  C8_8 
ROOT
HETATM    1  C2  UNL     1     -32.644  19.218  -2.692  1.00 20.00     0.017 C 
HETATM    2  C3  UNL     1     -33.264  17.030  -1.799  1.00 20.00     0.017 C 
HETATM    3  C4  UNL     1     -34.736  18.020  -3.740  1.00 20.00     0.010 A 
HETATM    4  C5  UNL     1     -33.021  18.492  -1.389  1.00 20.00     0.057 C 
HETATM    5  C6  UNL     1     -33.285  18.420  -3.789  1.00 20.00    -0.009 A 
HETATM    6  C7  UNL     1     -33.664  17.086  -3.244  1.00 20.00    -0.009 A 
ENDROOT
BRANCH   4   7
HETATM    7  C1  UNL     1     -31.947  18.611  -0.355  1.00 20.00     0.144 C 
HETATM    8  O9  UNL     1     -30.766  18.695  -0.684  1.00 20.00    -0.296 OA
BRANCH   7   9
HETATM    9  C8  UNL     1     -32.418  18.619   1.082  1.00 20.00     0.193 C 
HETATM   10 CL10 UNL     1     -31.065  18.328   2.184  1.00 20.00    -0.123 Cl
ENDBRANCH   7   9
ENDBRANCH   4   7
TORSDOF 2
ENDMDL
MODEL 8
REMARK VINA RESULT:      -4.0     11.863     12.536
REMARK  2 active torsions:
REMARK  status: ('A' for Active; 'I' for Inactive)
REMARK    1  A    between atoms: C1_1  and  C5_5 
REMARK    2  A    between atoms: C1_1  and  C8_8 
ROOT
HETATM    1  C2  UNL     1     -31.651  18.517  -0.770  1.00 20.00     0.017 C 
HETATM    2  C3  UNL     1     -33.441  18.959   0.834  1.00 20.00     0.017 C 
HETATM    3  C4  UNL     1     -31.112  18.188   1.783  1.00 20.00     0.010 A 
HETATM    4  C5  UNL     1     -33.090  18.115  -0.402  1.00 20.00     0.057 C 
HETATM    5  C6  UNL     1     -31.035  18.995   0.513  1.00 20.00    -0.009 A 
HETATM    6  C7  UNL     1     -32.127  19.263   1.491  1.00 20.00    -0.009 A 
ENDROOT
BRANCH   4   7
HETATM    7  C1  UNL     1     -34.041  18.356  -1.531  1.00 20.00     0.144 C 
HETATM    8  O9  UNL     1     -35.127  18.896  -1.331  1.00 20.00    -0.296 OA
BRANCH   7   9
HETATM    9  C8  UNL     1     -33.573  17.897  -2.893  1.00 20.00     0.193 C 
HETATM   10 CL10 UNL     1     -33.407  16.135  -2.935  1.00 20.00    -0.123 Cl
ENDBRANCH   7   9
ENDBRANCH   4   7
TORSDOF 2
ENDMDL
MODEL 9
REMARK VINA RESULT:      -3.8      9.242      9.948
REMARK  2 active torsions:
REMARK  status: ('A' for Active; 'I' for Inactive)
REMARK    1  A    between atoms: C1_1  and  C5_5 
REMARK    2  A    between atoms: C1_1  and  C8_8 
ROOT
HETATM    1  C2  UNL     1     -40.837  13.095   4.899  1.00 20.00     0.017 C 
HETATM    2  C3  UNL     1     -39.315  12.218   6.598  1.00 20.00     0.017 C 
HETATM    3  C4  UNL     1     -39.259  11.106   4.216  1.00 20.00     0.010 A 
HETATM    4  C5  UNL     1     -40.802  12.489   6.313  1.00 20.00     0.057 C 
HETATM    5  C6  UNL     1     -39.608  12.571   4.215  1.00 20.00    -0.009 A 
HETATM    6  C7  UNL     1     -38.681  12.035   5.251  1.00 20.00    -0.009 A 
ENDROOT
BRANCH   4   7
HETATM    7  C1  UNL     1     -41.407  13.406   7.327  1.00 20.00     0.144 C 
HETATM    8  O9  UNL     1     -42.254  12.995   8.118  1.00 20.00    -0.296 OA
BRANCH   7   9
HETATM    9  C8  UNL     1     -40.909  14.833   7.301  1.00 20.00     0.193 C 
HETATM   10 CL10 UNL     1     -40.138  15.254   8.837  1.00 20.00    -0.123 Cl
ENDBRANCH   7   9
ENDBRANCH   4   7
TORSDOF 2
ENDMDL
