MODEL 1
REMARK VINA RESULT:      -3.8      0.000      0.000
REMARK  5 active torsions:
REMARK  status: ('A' for Active; 'I' for Inactive)
REMARK    1  A    between atoms: C1_1  and  C7_7 
REMARK    2  A    between atoms: C1_1  and  C9_9 
REMARK    3  A    between atoms: C4_4  and  C9_9 
REMARK    4  A    between atoms: C8_8  and  C9_9 
REMARK    5  A    between atoms: C8_8  and  O11_11 
ROOT
HETATM    1  C9  UNL     1     -40.910  13.228   6.032  1.00 20.00     0.083 C 
ENDROOT
BRANCH   1   2
HETATM    2  C1  UNL     1     -42.324  12.878   6.508  1.00 20.00     0.133 C 
HETATM    3  O10 UNL     1     -42.568  11.818   7.087  1.00 20.00    -0.297 OA
BRANCH   2   4
HETATM    4  C7  UNL     1     -43.417  13.891   6.199  1.00 20.00     0.074 C 
HETATM    5  C5  UNL     1     -43.299  14.462   4.797  1.00 20.00     0.013 C 
ENDBRANCH   2   4
ENDBRANCH   1   2
BRANCH   1   6
HETATM    6  C4  UNL     1     -40.054  11.996   5.885  1.00 20.00    -0.001 A 
HETATM    7  C2  UNL     1     -39.449  11.648   4.553  1.00 20.00     0.006 A 
HETATM    8  C3  UNL     1     -38.571  12.125   5.675  1.00 20.00     0.006 A 
ENDBRANCH   1   6
BRANCH   1   9
HETATM    9  C8  UNL     1     -40.264  14.221   7.001  1.00 20.00     0.179 C 
BRANCH   9  10
HETATM   10  O11 UNL     1     -40.203  13.647   8.302  1.00 20.00    -0.395 OA
HETATM   11  C6  UNL     1     -40.289  14.641   9.313  1.00 20.00     0.201 C 
ENDBRANCH   9  10
ENDBRANCH   1   9
TORSDOF 5
ENDMDL
MODEL 2
REMARK VINA RESULT:      -3.7      1.447      3.452
REMARK  5 active torsions:
REMARK  status: ('A' for Active; 'I' for Inactive)
REMARK    1  A    between atoms: C1_1  and  C7_7 
REMARK    2  A    between atoms: C1_1  and  C9_9 
REMARK    3  A    between atoms: C4_4  and  C9_9 
REMARK    4  A    between atoms: C8_8  and  C9_9 
REMARK    5  A    between atoms: C8_8  and  O11_11 
ROOT
HETATM    1  C9  UNL     1     -41.187  12.931   6.588  1.00 20.00     0.083 C 
ENDROOT
BRANCH   1   2
HETATM    2  C1  UNL     1     -40.709  12.846   5.135  1.00 20.00     0.133 C 
HETATM    3  O10 UNL     1     -41.183  13.567   4.255  1.00 20.00    -0.297 OA
BRANCH   2   4
HETATM    4  C7  UNL     1     -39.645  11.803   4.827  1.00 20.00     0.074 C 
HETATM    5  C5  UNL     1     -38.345  12.065   5.568  1.00 20.00     0.013 C 
ENDBRANCH   2   4
ENDBRANCH   1   2
BRANCH   1   6
HETATM    6  C4  UNL     1     -42.692  12.909   6.679  1.00 20.00    -0.001 A 
HETATM    7  C2  UNL     1     -43.394  11.768   7.362  1.00 20.00     0.006 A 
HETATM    8  C3  UNL     1     -43.373  13.128   8.002  1.00 20.00     0.006 A 
ENDBRANCH   1   6
BRANCH   1   9
HETATM    9  C8  UNL     1     -40.624  14.191   7.251  1.00 20.00     0.179 C 
BRANCH   9  10
HETATM   10  O11 UNL     1     -40.080  13.857   8.523  1.00 20.00    -0.395 OA
HETATM   11  C6  UNL     1     -40.229  14.925   9.449  1.00 20.00     0.201 C 
ENDBRANCH   9  10
ENDBRANCH   1   9
TORSDOF 5
ENDMDL
MODEL 3
REMARK VINA RESULT:      -3.7      9.985     10.988
REMARK  5 active torsions:
REMARK  status: ('A' for Active; 'I' for Inactive)
REMARK    1  A    between atoms: C1_1  and  C7_7 
REMARK    2  A    between atoms: C1_1  and  C9_9 
REMARK    3  A    between atoms: C4_4  and  C9_9 
REMARK    4  A    between atoms: C8_8  and  C9_9 
REMARK    5  A    between atoms: C8_8  and  O11_11 
ROOT
HETATM    1  C9  UNL     1     -32.439   7.078   3.375  1.00 20.00     0.083 C 
ENDROOT
BRANCH   1   2
HETATM    2  C1  UNL     1     -33.278   5.802   3.252  1.00 20.00     0.133 C 
HETATM    3  O10 UNL     1     -32.926   4.861   2.538  1.00 20.00    -0.297 OA
BRANCH   2   4
HETATM    4  C7  UNL     1     -34.586   5.769   4.029  1.00 20.00     0.074 C 
HETATM    5  C5  UNL     1     -34.523   4.841   5.230  1.00 20.00     0.013 C 
ENDBRANCH   2   4
ENDBRANCH   1   2
BRANCH   1   6
HETATM    6  C4  UNL     1     -33.145   8.128   4.195  1.00 20.00    -0.001 A 
HETATM    7  C2  UNL     1     -33.110   8.068   5.697  1.00 20.00     0.006 A 
HETATM    8  C3  UNL     1     -32.351   9.143   4.971  1.00 20.00     0.006 A 
ENDBRANCH   1   6
BRANCH   1   9
HETATM    9  C8  UNL     1     -32.101   7.618   1.983  1.00 20.00     0.179 C 
BRANCH   9  10
HETATM   10  O11 UNL     1     -32.650   8.922   1.832  1.00 20.00    -0.395 OA
HETATM   11  C6  UNL     1     -32.739   9.294   0.464  1.00 20.00     0.201 C 
ENDBRANCH   9  10
ENDBRANCH   1   9
TORSDOF 5
ENDMDL
MODEL 4
REMARK VINA RESULT:      -3.6      1.463      3.388
REMARK  5 active torsions:
REMARK  status: ('A' for Active; 'I' for Inactive)
REMARK    1  A    between atoms: C1_1  and  C7_7 
REMARK    2  A    between atoms: C1_1  and  C9_9 
REMARK    3  A    between atoms: C4_4  and  C9_9 
REMARK    4  A    between atoms: C8_8  and  C9_9 
REMARK    5  A    between atoms: C8_8  and  O11_11 
ROOT
HETATM    1  C9  UNL     1     -41.043  13.425   6.877  1.00 20.00     0.083 C 
ENDROOT
BRANCH   1   2
HETATM    2  C1  UNL     1     -39.968  12.530   6.252  1.00 20.00     0.133 C 
HETATM    3  O10 UNL     1     -39.112  11.969   6.940  1.00 20.00    -0.297 OA
BRANCH   2   4
HETATM    4  C7  UNL     1     -39.990  12.395   4.737  1.00 20.00     0.074 C 
HETATM    5  C5  UNL     1     -38.791  11.628   4.206  1.00 20.00     0.013 C 
ENDBRANCH   2   4
ENDBRANCH   1   2
BRANCH   1   6
HETATM    6  C4  UNL     1     -41.766  14.235   5.830  1.00 20.00    -0.001 A 
HETATM    7  C2  UNL     1     -43.257  14.120   5.678  1.00 20.00     0.006 A 
HETATM    8  C3  UNL     1     -42.654  15.378   6.238  1.00 20.00     0.006 A 
ENDBRANCH   1   6
BRANCH   1   9
HETATM    9  C8  UNL     1     -40.414  14.342   7.929  1.00 20.00     0.179 C 
BRANCH   9  10
HETATM   10  O11 UNL     1     -40.684  13.830   9.229  1.00 20.00    -0.395 OA
HETATM   11  C6  UNL     1     -42.040  14.037   9.598  1.00 20.00     0.201 C 
ENDBRANCH   9  10
ENDBRANCH   1   9
TORSDOF 5
ENDMDL
MODEL 5
REMARK VINA RESULT:      -3.6      1.872      4.212
REMARK  5 active torsions:
REMARK  status: ('A' for Active; 'I' for Inactive)
REMARK    1  A    between atoms: C1_1  and  C7_7 
REMARK    2  A    between atoms: C1_1  and  C9_9 
REMARK    3  A    between atoms: C4_4  and  C9_9 
REMARK    4  A    between atoms: C8_8  and  C9_9 
REMARK    5  A    between atoms: C8_8  and  O11_11 
ROOT
HETATM    1  C9  UNL     1     -41.171  14.145   6.008  1.00 20.00     0.083 C 
ENDROOT
BRANCH   1   2
HETATM    2  C1  UNL     1     -40.981  12.651   6.291  1.00 20.00     0.133 C 
HETATM    3  O10 UNL     1     -41.901  11.952   6.719  1.00 20.00    -0.297 OA
BRANCH   2   4
HETATM    4  C7  UNL     1     -39.591  12.083   6.050  1.00 20.00     0.074 C 
HETATM    5  C5  UNL     1     -39.346  11.753   4.587  1.00 20.00     0.013 C 
ENDBRANCH   2   4
ENDBRANCH   1   2
BRANCH   1   6
HETATM    6  C4  UNL     1     -41.416  14.923   7.276  1.00 20.00    -0.001 A 
HETATM    7  C2  UNL     1     -40.384  15.891   7.784  1.00 20.00     0.006 A 
HETATM    8  C3  UNL     1     -41.679  16.402   7.218  1.00 20.00     0.006 A 
ENDBRANCH   1   6
BRANCH   1   9
HETATM    9  C8  UNL     1     -42.322  14.348   5.019  1.00 20.00     0.179 C 
BRANCH   9  10
HETATM   10  O11 UNL     1     -41.834  14.228   3.688  1.00 20.00    -0.395 OA
HETATM   11  C6  UNL     1     -42.343  15.257   2.852  1.00 20.00     0.201 C 
ENDBRANCH   9  10
ENDBRANCH   1   9
TORSDOF 5
ENDMDL
MODEL 6
REMARK VINA RESULT:      -3.5     11.458     12.466
REMARK  5 active torsions:
REMARK  status: ('A' for Active; 'I' for Inactive)
REMARK    1  A    between atoms: C1_1  and  C7_7 
REMARK    2  A    between atoms: C1_1  and  C9_9 
REMARK    3  A    between atoms: C4_4  and  C9_9 
REMARK    4  A    between atoms: C8_8  and  C9_9 
REMARK    5  A    between atoms: C8_8  and  O11_11 
ROOT
HETATM    1  C9  UNL     1     -34.020  17.815  -1.617  1.00 20.00     0.083 C 
ENDROOT
BRANCH   1   2
HETATM    2  C1  UNL     1     -33.200  18.159  -0.370  1.00 20.00     0.133 C 
HETATM    3  O10 UNL     1     -33.715  18.225   0.747  1.00 20.00    -0.297 OA
BRANCH   2   4
HETATM    4  C7  UNL     1     -31.721  18.446  -0.586  1.00 20.00     0.074 C 
HETATM    5  C5  UNL     1     -30.947  18.515   0.719  1.00 20.00     0.013 C 
ENDBRANCH   2   4
ENDBRANCH   1   2
BRANCH   1   6
HETATM    6  C4  UNL     1     -33.169  17.166  -2.679  1.00 20.00    -0.001 A 
HETATM    7  C2  UNL     1     -33.559  15.832  -3.254  1.00 20.00     0.006 A 
HETATM    8  C3  UNL     1     -33.666  17.073  -4.095  1.00 20.00     0.006 A 
ENDBRANCH   1   6
BRANCH   1   9
HETATM    9  C8  UNL     1     -34.695  19.076  -2.163  1.00 20.00     0.179 C 
BRANCH   9  10
HETATM   10  O11 UNL     1     -36.088  19.033  -1.877  1.00 20.00    -0.395 OA
HETATM   11  C6  UNL     1     -36.856  18.830  -3.055  1.00 20.00     0.201 C 
ENDBRANCH   9  10
ENDBRANCH   1   9
TORSDOF 5
ENDMDL
MODEL 7
REMARK VINA RESULT:      -3.5      1.705      3.323
REMARK  5 active torsions:
REMARK  status: ('A' for Active; 'I' for Inactive)
REMARK    1  A    between atoms: C1_1  and  C7_7 
REMARK    2  A    between atoms: C1_1  and  C9_9 
REMARK    3  A    between atoms: C4_4  and  C9_9 
REMARK    4  A    between atoms: C8_8  and  C9_9 
REMARK    5  A    between atoms: C8_8  and  O11_11 
ROOT
HETATM    1  C9  UNL     1     -41.513  13.242   5.863  1.00 20.00     0.083 C 
ENDROOT
BRANCH   1   2
HETATM    2  C1  UNL     1     -41.821  13.447   7.350  1.00 20.00     0.133 C 
HETATM    3  O10 UNL     1     -42.435  12.604   8.006  1.00 20.00    -0.297 OA
BRANCH   2   4
HETATM    4  C7  UNL     1     -41.359  14.759   7.966  1.00 20.00     0.074 C 
HETATM    5  C5  UNL     1     -40.290  14.557   9.026  1.00 20.00     0.013 C 
ENDBRANCH   2   4
ENDBRANCH   1   2
BRANCH   1   6
HETATM    6  C4  UNL     1     -40.040  13.019   5.628  1.00 20.00    -0.001 A 
HETATM    7  C2  UNL     1     -39.368  11.777   6.146  1.00 20.00     0.006 A 
HETATM    8  C3  UNL     1     -39.578  11.956   4.669  1.00 20.00     0.006 A 
ENDBRANCH   1   6
BRANCH   1   9
HETATM    9  C8  UNL     1     -42.012  14.442   5.055  1.00 20.00     0.179 C 
BRANCH   9  10
HETATM   10  O11 UNL     1     -41.913  14.154   3.664  1.00 20.00    -0.395 OA
HETATM   11  C6  UNL     1     -42.314  15.264   2.874  1.00 20.00     0.201 C 
ENDBRANCH   9  10
ENDBRANCH   1   9
TORSDOF 5
ENDMDL
MODEL 8
REMARK VINA RESULT:      -3.5      9.331     10.870
REMARK  5 active torsions:
REMARK  status: ('A' for Active; 'I' for Inactive)
REMARK    1  A    between atoms: C1_1  and  C7_7 
REMARK    2  A    between atoms: C1_1  and  C9_9 
REMARK    3  A    between atoms: C4_4  and  C9_9 
REMARK    4  A    between atoms: C8_8  and  C9_9 
REMARK    5  A    between atoms: C8_8  and  O11_11 
ROOT
HETATM    1  C9  UNL     1     -33.002   7.405   3.237  1.00 20.00     0.083 C 
ENDROOT
BRANCH   1   2
HETATM    2  C1  UNL     1     -32.834   8.141   4.571  1.00 20.00     0.133 C 
HETATM    3  O10 UNL     1     -31.776   8.693   4.877  1.00 20.00    -0.297 OA
BRANCH   2   4
HETATM    4  C7  UNL     1     -34.030   8.126   5.512  1.00 20.00     0.074 C 
HETATM    5  C5  UNL     1     -34.011   6.936   6.455  1.00 20.00     0.013 C 
ENDBRANCH   2   4
ENDBRANCH   1   2
BRANCH   1   6
HETATM    6  C4  UNL     1     -32.675   5.939   3.369  1.00 20.00    -0.001 A 
HETATM    7  C2  UNL     1     -33.777   4.924   3.492  1.00 20.00     0.006 A 
HETATM    8  C3  UNL     1     -32.960   4.995   2.233  1.00 20.00     0.006 A 
ENDBRANCH   1   6
BRANCH   1   9
HETATM    9  C8  UNL     1     -32.127   8.059   2.165  1.00 20.00     0.179 C 
BRANCH   9  10
HETATM   10  O11 UNL     1     -32.720   9.284   1.748  1.00 20.00    -0.395 OA
HETATM   11  C6  UNL     1     -32.768   9.383   0.332  1.00 20.00     0.201 C 
ENDBRANCH   9  10
ENDBRANCH   1   9
TORSDOF 5
ENDMDL
MODEL 9
REMARK VINA RESULT:      -3.4      1.646      1.737
REMARK  5 active torsions:
REMARK  status: ('A' for Active; 'I' for Inactive)
REMARK    1  A    between atoms: C1_1  and  C7_7 
REMARK    2  A    between atoms: C1_1  and  C9_9 
REMARK    3  A    between atoms: C4_4  and  C9_9 
REMARK    4  A    between atoms: C8_8  and  C9_9 
REMARK    5  A    between atoms: C8_8  and  O11_11 
ROOT
HETATM    1  C9  UNL     1     -40.885  13.636   5.908  1.00 20.00     0.083 C 
ENDROOT
BRANCH   1   2
HETATM    2  C1  UNL     1     -41.906  14.233   4.935  1.00 20.00     0.133 C 
HETATM    3  O10 UNL     1     -41.782  14.118   3.714  1.00 20.00    -0.297 OA
BRANCH   2   4
HETATM    4  C7  UNL     1     -43.064  15.004   5.551  1.00 20.00     0.074 C 
HETATM    5  C5  UNL     1     -42.861  16.508   5.482  1.00 20.00     0.013 C 
ENDBRANCH   2   4
ENDBRANCH   1   2
BRANCH   1   6
HETATM    6  C4  UNL     1     -40.454  12.255   5.481  1.00 20.00    -0.001 A 
HETATM    7  C2  UNL     1     -39.199  12.067   4.675  1.00 20.00     0.006 A 
HETATM    8  C3  UNL     1     -39.248  11.611   6.107  1.00 20.00     0.006 A 
ENDBRANCH   1   6
BRANCH   1   9
HETATM    9  C8  UNL     1     -41.466  13.606   7.324  1.00 20.00     0.179 C 
BRANCH   9  10
HETATM   10  O11 UNL     1     -40.436  13.876   8.268  1.00 20.00    -0.395 OA
HETATM   11  C6  UNL     1     -40.308  15.270   8.512  1.00 20.00     0.201 C 
ENDBRANCH   9  10
ENDBRANCH   1   9
TORSDOF 5
ENDMDL
