MODEL 1
REMARK VINA RESULT:      -4.5      0.000      0.000
REMARK  2 active torsions:
REMARK  status: ('A' for Active; 'I' for Inactive)
REMARK    1  A    between atoms: C6_6  and  C8_8 
REMARK    2  A    between atoms: C7_7  and  C9_9 
ROOT
HETATM    1  C4  UNL     1     -31.771   8.488   3.971  1.00 20.00     0.034 C 
HETATM    2  C5  UNL     1     -32.321   9.058   5.259  1.00 20.00     0.168 C 
HETATM    3  C7  UNL     1     -32.596   7.227   3.818  1.00 20.00     0.031 C 
HETATM    4  C8  UNL     1     -33.963   7.694   4.313  1.00 20.00     0.130 C 
HETATM    5  O10 UNL     1     -33.716   8.727   5.286  1.00 20.00    -0.385 OA
ENDROOT
BRANCH   4   6
HETATM    6  C6  UNL     1     -34.740   6.570   4.978  1.00 20.00     0.015 C 
HETATM    7  C2  UNL     1     -34.379   6.252   6.452  1.00 20.00     0.007 C 
HETATM    8  C1  UNL     1     -34.613   4.766   6.112  1.00 20.00     0.001 C 
HETATM    9  C3  UNL     1     -34.290   5.124   4.647  1.00 20.00     0.007 C 
ENDBRANCH   4   6
BRANCH   3  10
HETATM   10  C9  UNL     1     -32.609   6.676   2.403  1.00 20.00     0.121 C 
HETATM   11 CL11 UNL     1     -32.120   7.931   1.246  1.00 20.00    -0.130 Cl
ENDBRANCH   3  10
TORSDOF 2
ENDMDL
MODEL 2
REMARK VINA RESULT:      -4.5      1.139      1.139
REMARK  2 active torsions:
REMARK  status: ('A' for Active; 'I' for Inactive)
REMARK    1  A    between atoms: C6_6  and  C8_8 
REMARK    2  A    between atoms: C7_7  and  C9_9 
ROOT
HETATM    1  C4  UNL     1     -31.762   8.157   3.599  1.00 20.00     0.034 C 
HETATM    2  C5  UNL     1     -32.097   8.897   4.875  1.00 20.00     0.168 C 
HETATM    3  C7  UNL     1     -32.720   6.986   3.666  1.00 20.00     0.031 C 
HETATM    4  C8  UNL     1     -33.966   7.645   4.255  1.00 20.00     0.130 C 
HETATM    5  O10 UNL     1     -33.505   8.728   5.085  1.00 20.00    -0.385 OA
ENDROOT
BRANCH   4   6
HETATM    6  C6  UNL     1     -34.768   6.678   5.111  1.00 20.00     0.015 C 
HETATM    7  C2  UNL     1     -34.277   6.467   6.567  1.00 20.00     0.007 C 
HETATM    8  C1  UNL     1     -34.689   4.988   6.412  1.00 20.00     0.001 C 
HETATM    9  C3  UNL     1     -34.498   5.168   4.893  1.00 20.00     0.007 C 
ENDBRANCH   4   6
BRANCH   3  10
HETATM   10  C9  UNL     1     -32.956   6.315   2.324  1.00 20.00     0.121 C 
HETATM   11 CL11 UNL     1     -32.648   4.571   2.443  1.00 20.00    -0.130 Cl
ENDBRANCH   3  10
TORSDOF 2
ENDMDL
MODEL 3
REMARK VINA RESULT:      -4.3      9.671     10.452
REMARK  2 active torsions:
REMARK  status: ('A' for Active; 'I' for Inactive)
REMARK    1  A    between atoms: C6_6  and  C8_8 
REMARK    2  A    between atoms: C7_7  and  C9_9 
ROOT
HETATM    1  C4  UNL     1     -41.661  15.465   7.170  1.00 20.00     0.034 C 
HETATM    2  C5  UNL     1     -40.409  15.053   7.910  1.00 20.00     0.168 C 
HETATM    3  C7  UNL     1     -41.755  14.390   6.107  1.00 20.00     0.031 C 
HETATM    4  C8  UNL     1     -41.295  13.156   6.880  1.00 20.00     0.130 C 
HETATM    5  O10 UNL     1     -40.375  13.620   7.887  1.00 20.00    -0.385 OA
ENDROOT
BRANCH   4   6
HETATM    6  C6  UNL     1     -40.577  12.159   5.984  1.00 20.00     0.015 C 
HETATM    7  C2  UNL     1     -39.078  11.905   6.288  1.00 20.00     0.007 C 
HETATM    8  C1  UNL     1     -38.864  11.796   4.764  1.00 20.00     0.001 C 
HETATM    9  C3  UNL     1     -40.120  12.676   4.597  1.00 20.00     0.007 C 
ENDBRANCH   4   6
BRANCH   3  10
HETATM   10  C9  UNL     1     -43.139  14.254   5.498  1.00 20.00     0.121 C 
HETATM   11 CL11 UNL     1     -43.098  14.665   3.772  1.00 20.00    -0.130 Cl
ENDBRANCH   3  10
TORSDOF 2
ENDMDL
MODEL 4
REMARK VINA RESULT:      -4.1     11.922     12.772
REMARK  2 active torsions:
REMARK  status: ('A' for Active; 'I' for Inactive)
REMARK    1  A    between atoms: C6_6  and  C8_8 
REMARK    2  A    between atoms: C7_7  and  C9_9 
ROOT
HETATM    1  C4  UNL     1     -33.096  19.263   1.756  1.00 20.00     0.034 C 
HETATM    2  C5  UNL     1     -34.431  19.103   1.064  1.00 20.00     0.168 C 
HETATM    3  C7  UNL     1     -32.157  18.617   0.758  1.00 20.00     0.031 C 
HETATM    4  C8  UNL     1     -32.764  19.068  -0.568  1.00 20.00     0.130 C 
HETATM    5  O10 UNL     1     -34.178  19.224  -0.342  1.00 20.00    -0.385 OA
ENDROOT
BRANCH   4   6
HETATM    6  C6  UNL     1     -32.555  18.039  -1.668  1.00 20.00     0.015 C 
HETATM    7  C2  UNL     1     -33.053  18.424  -3.084  1.00 20.00     0.007 C 
HETATM    8  C1  UNL     1     -33.464  16.948  -3.261  1.00 20.00     0.001 C 
HETATM    9  C3  UNL     1     -33.568  16.867  -1.724  1.00 20.00     0.007 C 
ENDBRANCH   4   6
BRANCH   3  10
HETATM   10  C9  UNL     1     -30.704  19.022   0.940  1.00 20.00     0.121 C 
HETATM   11 CL11 UNL     1     -30.097  18.460   2.510  1.00 20.00    -0.130 Cl
ENDBRANCH   3  10
TORSDOF 2
ENDMDL
MODEL 5
REMARK VINA RESULT:      -4.0     10.097     10.883
REMARK  2 active torsions:
REMARK  status: ('A' for Active; 'I' for Inactive)
REMARK    1  A    between atoms: C6_6  and  C8_8 
REMARK    2  A    between atoms: C7_7  and  C9_9 
ROOT
HETATM    1  C4  UNL     1     -40.935  15.814   8.879  1.00 20.00     0.034 C 
HETATM    2  C5  UNL     1     -40.063  14.737   9.484  1.00 20.00     0.168 C 
HETATM    3  C7  UNL     1     -40.798  15.523   7.399  1.00 20.00     0.031 C 
HETATM    4  C8  UNL     1     -40.777  13.996   7.389  1.00 20.00     0.130 C 
HETATM    5  O10 UNL     1     -40.199  13.584   8.642  1.00 20.00    -0.385 OA
ENDROOT
BRANCH   4   6
HETATM    6  C6  UNL     1     -39.929  13.446   6.253  1.00 20.00     0.015 C 
HETATM    7  C2  UNL     1     -40.691  12.910   5.014  1.00 20.00     0.007 C 
HETATM    8  C1  UNL     1     -39.612  11.811   4.918  1.00 20.00     0.001 C 
HETATM    9  C3  UNL     1     -39.380  12.008   6.430  1.00 20.00     0.007 C 
ENDBRANCH   4   6
BRANCH   3  10
HETATM   10  C9  UNL     1     -41.904  16.129   6.554  1.00 20.00     0.121 C 
HETATM   11 CL11 UNL     1     -43.287  15.022   6.460  1.00 20.00    -0.130 Cl
ENDBRANCH   3  10
TORSDOF 2
ENDMDL
MODEL 6
REMARK VINA RESULT:      -4.0     10.408     11.402
REMARK  2 active torsions:
REMARK  status: ('A' for Active; 'I' for Inactive)
REMARK    1  A    between atoms: C6_6  and  C8_8 
REMARK    2  A    between atoms: C7_7  and  C9_9 
ROOT
HETATM    1  C4  UNL     1     -42.510  12.368   6.830  1.00 20.00     0.034 C 
HETATM    2  C5  UNL     1     -42.968  12.961   8.143  1.00 20.00     0.168 C 
HETATM    3  C7  UNL     1     -41.503  13.399   6.364  1.00 20.00     0.031 C 
HETATM    4  C8  UNL     1     -40.836  13.790   7.681  1.00 20.00     0.130 C 
HETATM    5  O10 UNL     1     -41.828  13.619   8.711  1.00 20.00    -0.385 OA
ENDROOT
BRANCH   4   6
HETATM    6  C6  UNL     1     -40.378  15.240   7.677  1.00 20.00     0.015 C 
HETATM    7  C2  UNL     1     -40.494  16.009   9.019  1.00 20.00     0.007 C 
HETATM    8  C1  UNL     1     -40.880  17.251   8.189  1.00 20.00     0.001 C 
HETATM    9  C3  UNL     1     -41.370  16.279   7.095  1.00 20.00     0.007 C 
ENDBRANCH   4   6
BRANCH   3  10
HETATM   10  C9  UNL     1     -40.536  12.877   5.316  1.00 20.00     0.121 C 
HETATM   11 CL11 UNL     1     -39.326  11.816   6.065  1.00 20.00    -0.130 Cl
ENDBRANCH   3  10
TORSDOF 2
ENDMDL
MODEL 7
REMARK VINA RESULT:      -3.9     11.760     13.159
REMARK  2 active torsions:
REMARK  status: ('A' for Active; 'I' for Inactive)
REMARK    1  A    between atoms: C6_6  and  C8_8 
REMARK    2  A    between atoms: C7_7  and  C9_9 
ROOT
HETATM    1  C4  UNL     1     -34.731  15.853  -6.136  1.00 20.00     0.034 C 
HETATM    2  C5  UNL     1     -34.581  17.352  -6.269  1.00 20.00     0.168 C 
HETATM    3  C7  UNL     1     -33.954  15.580  -4.865  1.00 20.00     0.031 C 
HETATM    4  C8  UNL     1     -34.319  16.796  -4.017  1.00 20.00     0.130 C 
HETATM    5  O10 UNL     1     -34.568  17.878  -4.936  1.00 20.00    -0.385 OA
ENDROOT
BRANCH   4   6
HETATM    6  C6  UNL     1     -33.190  17.197  -3.082  1.00 20.00     0.015 C 
HETATM    7  C2  UNL     1     -33.508  17.189  -1.564  1.00 20.00     0.007 C 
HETATM    8  C1  UNL     1     -32.610  18.438  -1.444  1.00 20.00     0.001 C 
HETATM    9  C3  UNL     1     -32.921  18.716  -2.929  1.00 20.00     0.007 C 
ENDBRANCH   4   6
BRANCH   3  10
HETATM   10  C9  UNL     1     -34.296  14.251  -4.215  1.00 20.00     0.121 C 
HETATM   11 CL11 UNL     1     -35.935  13.745  -4.670  1.00 20.00    -0.130 Cl
ENDBRANCH   3  10
TORSDOF 2
ENDMDL
MODEL 8
REMARK VINA RESULT:      -3.9     11.927     12.758
REMARK  2 active torsions:
REMARK  status: ('A' for Active; 'I' for Inactive)
REMARK    1  A    between atoms: C6_6  and  C8_8 
REMARK    2  A    between atoms: C7_7  and  C9_9 
ROOT
HETATM    1  C4  UNL     1     -34.380  17.406  -4.721  1.00 20.00     0.034 C 
HETATM    2  C5  UNL     1     -34.961  18.588  -3.978  1.00 20.00     0.168 C 
HETATM    3  C7  UNL     1     -33.334  16.915  -3.742  1.00 20.00     0.031 C 
HETATM    4  C8  UNL     1     -34.042  17.128  -2.406  1.00 20.00     0.130 C 
HETATM    5  O10 UNL     1     -34.930  18.248  -2.586  1.00 20.00    -0.385 OA
ENDROOT
BRANCH   4   6
HETATM    6  C6  UNL     1     -33.063  17.454  -1.290  1.00 20.00     0.015 C 
HETATM    7  C2  UNL     1     -33.657  18.092  -0.008  1.00 20.00     0.007 C 
HETATM    8  C1  UNL     1     -32.373  18.943   0.076  1.00 20.00     0.001 C 
HETATM    9  C3  UNL     1     -32.236  18.755  -1.449  1.00 20.00     0.007 C 
ENDBRANCH   4   6
BRANCH   3  10
HETATM   10  C9  UNL     1     -32.898  15.480  -3.985  1.00 20.00     0.121 C 
HETATM   11 CL11 UNL     1     -34.310  14.406  -4.037  1.00 20.00    -0.130 Cl
ENDBRANCH   3  10
TORSDOF 2
ENDMDL
MODEL 9
REMARK VINA RESULT:      -3.9      2.492      4.244
REMARK  2 active torsions:
REMARK  status: ('A' for Active; 'I' for Inactive)
REMARK    1  A    between atoms: C6_6  and  C8_8 
REMARK    2  A    between atoms: C7_7  and  C9_9 
ROOT
HETATM    1  C4  UNL     1     -33.257   7.543   5.607  1.00 20.00     0.034 C 
HETATM    2  C5  UNL     1     -32.606   8.885   5.358  1.00 20.00     0.168 C 
HETATM    3  C7  UNL     1     -33.677   7.143   4.208  1.00 20.00     0.031 C 
HETATM    4  C8  UNL     1     -32.501   7.653   3.379  1.00 20.00     0.130 C 
HETATM    5  O10 UNL     1     -31.971   8.796   4.076  1.00 20.00    -0.385 OA
ENDROOT
BRANCH   4   6
HETATM    6  C6  UNL     1     -32.932   8.084   1.986  1.00 20.00     0.015 C 
HETATM    7  C2  UNL     1     -31.838   8.079   0.887  1.00 20.00     0.007 C 
HETATM    8  C1  UNL     1     -32.507   9.348   0.319  1.00 20.00     0.001 C 
HETATM    9  C3  UNL     1     -33.051   9.610   1.738  1.00 20.00     0.007 C 
ENDBRANCH   4   6
BRANCH   3  10
HETATM   10  C9  UNL     1     -33.942   5.656   4.053  1.00 20.00     0.121 C 
HETATM   11 CL11 UNL     1     -34.623   4.990   5.550  1.00 20.00    -0.130 Cl
ENDBRANCH   3  10
TORSDOF 2
ENDMDL
