MODEL 1
REMARK VINA RESULT:      -4.1      0.000      0.000
REMARK  3 active torsions:
REMARK  status: ('A' for Active; 'I' for Inactive)
REMARK    1  A    between atoms: C1_1  and  C4_4 
REMARK    2  A    between atoms: C1_1  and  C7_7 
REMARK    3  A    between atoms: C7_7  and  O9_9 
ROOT
HETATM    1  C1  UNL     1     -33.506   7.502   4.782  1.00 20.00     0.158 C 
HETATM    2  O8  UNL     1     -33.673   8.569   5.370  1.00 20.00    -0.295 OA
ENDROOT
BRANCH   1   3
HETATM    3  C4  UNL     1     -34.267   6.286   5.159  1.00 20.00     0.019 A 
HETATM    4  C2  UNL     1     -34.253   5.136   4.174  1.00 20.00     0.018 A 
HETATM    5  C3  UNL     1     -35.493   5.960   4.332  1.00 20.00     0.018 A 
HETATM    6  C5  UNL     1     -34.314   5.934   6.624  1.00 20.00     0.023 C 
ENDBRANCH   1   3
BRANCH   1   7
HETATM    7  C7  UNL     1     -32.522   7.350   3.641  1.00 20.00     0.246 C 
BRANCH   7   8
HETATM    8  O9  UNL     1     -32.528   8.500   2.820  1.00 20.00    -0.389 OA
HETATM    9  C6  UNL     1     -32.165   8.195   1.477  1.00 20.00     0.202 C 
ENDBRANCH   7   8
ENDBRANCH   1   7
TORSDOF 3
ENDMDL
MODEL 2
REMARK VINA RESULT:      -4.1      1.645      1.774
REMARK  3 active torsions:
REMARK  status: ('A' for Active; 'I' for Inactive)
REMARK    1  A    between atoms: C1_1  and  C4_4 
REMARK    2  A    between atoms: C1_1  and  C7_7 
REMARK    3  A    between atoms: C7_7  and  O9_9 
ROOT
HETATM    1  C1  UNL     1     -33.133   6.322   3.504  1.00 20.00     0.158 C 
HETATM    2  O8  UNL     1     -33.004   5.307   2.821  1.00 20.00    -0.295 OA
ENDROOT
BRANCH   1   3
HETATM    3  C4  UNL     1     -33.997   6.335   4.710  1.00 20.00     0.019 A 
HETATM    4  C2  UNL     1     -34.513   4.998   5.198  1.00 20.00     0.018 A 
HETATM    5  C3  UNL     1     -35.449   5.949   4.517  1.00 20.00     0.018 A 
HETATM    6  C5  UNL     1     -33.697   7.378   5.756  1.00 20.00     0.023 C 
ENDBRANCH   1   3
BRANCH   1   7
HETATM    7  C7  UNL     1     -32.428   7.620   3.170  1.00 20.00     0.246 C 
BRANCH   7   8
HETATM    8  O9  UNL     1     -32.096   7.669   1.799  1.00 20.00    -0.389 OA
HETATM    9  C6  UNL     1     -32.508   8.893   1.197  1.00 20.00     0.202 C 
ENDBRANCH   7   8
ENDBRANCH   1   7
TORSDOF 3
ENDMDL
MODEL 3
REMARK VINA RESULT:      -4.1      0.716      1.478
REMARK  3 active torsions:
REMARK  status: ('A' for Active; 'I' for Inactive)
REMARK    1  A    between atoms: C1_1  and  C4_4 
REMARK    2  A    between atoms: C1_1  and  C7_7 
REMARK    3  A    between atoms: C7_7  and  O9_9 
ROOT
HETATM    1  C1  UNL     1     -33.402   7.367   4.619  1.00 20.00     0.158 C 
HETATM    2  O8  UNL     1     -33.866   8.096   5.493  1.00 20.00    -0.295 OA
ENDROOT
BRANCH   1   3
HETATM    3  C4  UNL     1     -33.971   6.023   4.353  1.00 20.00     0.019 A 
HETATM    4  C2  UNL     1     -35.455   5.847   4.595  1.00 20.00     0.018 A 
HETATM    5  C3  UNL     1     -34.472   5.242   5.550  1.00 20.00     0.018 A 
HETATM    6  C5  UNL     1     -33.361   5.231   3.224  1.00 20.00     0.023 C 
ENDBRANCH   1   3
BRANCH   1   7
HETATM    7  C7  UNL     1     -32.228   7.780   3.756  1.00 20.00     0.246 C 
BRANCH   7   8
HETATM    8  O9  UNL     1     -32.622   8.749   2.807  1.00 20.00    -0.389 OA
HETATM    9  C6  UNL     1     -32.257   8.374   1.482  1.00 20.00     0.202 C 
ENDBRANCH   7   8
ENDBRANCH   1   7
TORSDOF 3
ENDMDL
MODEL 4
REMARK VINA RESULT:      -3.8      1.158      1.732
REMARK  3 active torsions:
REMARK  status: ('A' for Active; 'I' for Inactive)
REMARK    1  A    between atoms: C1_1  and  C4_4 
REMARK    2  A    between atoms: C1_1  and  C7_7 
REMARK    3  A    between atoms: C7_7  and  O9_9 
ROOT
HETATM    1  C1  UNL     1     -33.711   7.128   5.478  1.00 20.00     0.158 C 
HETATM    2  O8  UNL     1     -33.273   7.249   6.620  1.00 20.00    -0.295 OA
ENDROOT
BRANCH   1   3
HETATM    3  C4  UNL     1     -34.605   6.002   5.111  1.00 20.00     0.019 A 
HETATM    4  C2  UNL     1     -34.818   4.927   6.156  1.00 20.00     0.018 A 
HETATM    5  C3  UNL     1     -33.963   4.638   4.960  1.00 20.00     0.018 A 
HETATM    6  C5  UNL     1     -35.767   6.317   4.204  1.00 20.00     0.023 C 
ENDBRANCH   1   3
BRANCH   1   7
HETATM    7  C7  UNL     1     -33.377   8.106   4.372  1.00 20.00     0.246 C 
BRANCH   7   8
HETATM    8  O9  UNL     1     -32.091   7.849   3.850  1.00 20.00    -0.389 OA
HETATM    9  C6  UNL     1     -32.152   7.185   2.590  1.00 20.00     0.202 C 
ENDBRANCH   7   8
ENDBRANCH   1   7
TORSDOF 3
ENDMDL
MODEL 5
REMARK VINA RESULT:      -3.8      1.666      2.255
REMARK  3 active torsions:
REMARK  status: ('A' for Active; 'I' for Inactive)
REMARK    1  A    between atoms: C1_1  and  C4_4 
REMARK    2  A    between atoms: C1_1  and  C7_7 
REMARK    3  A    between atoms: C7_7  and  O9_9 
ROOT
HETATM    1  C1  UNL     1     -33.082   6.487   3.550  1.00 20.00     0.158 C 
HETATM    2  O8  UNL     1     -32.992   5.402   2.977  1.00 20.00    -0.295 OA
ENDROOT
BRANCH   1   3
HETATM    3  C4  UNL     1     -34.005   6.679   4.695  1.00 20.00     0.019 A 
HETATM    4  C2  UNL     1     -33.998   8.039   5.361  1.00 20.00     0.018 A 
HETATM    5  C3  UNL     1     -33.375   6.870   6.059  1.00 20.00     0.018 A 
HETATM    6  C5  UNL     1     -35.322   5.947   4.644  1.00 20.00     0.023 C 
ENDBRANCH   1   3
BRANCH   1   7
HETATM    7  C7  UNL     1     -32.267   7.694   3.136  1.00 20.00     0.246 C 
BRANCH   7   8
HETATM    8  O9  UNL     1     -32.145   7.755   1.730  1.00 20.00    -0.389 OA
HETATM    9  C6  UNL     1     -32.579   9.009   1.213  1.00 20.00     0.202 C 
ENDBRANCH   7   8
ENDBRANCH   1   7
TORSDOF 3
ENDMDL
MODEL 6
REMARK VINA RESULT:      -3.7      1.900      3.905
REMARK  3 active torsions:
REMARK  status: ('A' for Active; 'I' for Inactive)
REMARK    1  A    between atoms: C1_1  and  C4_4 
REMARK    2  A    between atoms: C1_1  and  C7_7 
REMARK    3  A    between atoms: C7_7  and  O9_9 
ROOT
HETATM    1  C1  UNL     1     -33.627   6.289   3.753  1.00 20.00     0.158 C 
HETATM    2  O8  UNL     1     -33.012   5.564   2.973  1.00 20.00    -0.295 OA
ENDROOT
BRANCH   1   3
HETATM    3  C4  UNL     1     -33.105   7.622   4.142  1.00 20.00     0.019 A 
HETATM    4  C2  UNL     1     -32.710   8.557   3.018  1.00 20.00     0.018 A 
HETATM    5  C3  UNL     1     -31.646   7.900   3.844  1.00 20.00     0.018 A 
HETATM    6  C5  UNL     1     -33.683   8.249   5.385  1.00 20.00     0.023 C 
ENDBRANCH   1   3
BRANCH   1   7
HETATM    7  C7  UNL     1     -34.948   5.881   4.370  1.00 20.00     0.246 C 
BRANCH   7   8
HETATM    8  O9  UNL     1     -34.792   4.723   5.164  1.00 20.00    -0.389 OA
HETATM    9  C6  UNL     1     -34.434   5.044   6.505  1.00 20.00     0.202 C 
ENDBRANCH   7   8
ENDBRANCH   1   7
TORSDOF 3
ENDMDL
MODEL 7
REMARK VINA RESULT:      -3.6      1.878      3.652
REMARK  3 active torsions:
REMARK  status: ('A' for Active; 'I' for Inactive)
REMARK    1  A    between atoms: C1_1  and  C4_4 
REMARK    2  A    between atoms: C1_1  and  C7_7 
REMARK    3  A    between atoms: C7_7  and  O9_9 
ROOT
HETATM    1  C1  UNL     1     -33.911   6.875   5.226  1.00 20.00     0.158 C 
HETATM    2  O8  UNL     1     -33.748   6.949   6.442  1.00 20.00    -0.295 OA
ENDROOT
BRANCH   1   3
HETATM    3  C4  UNL     1     -33.026   7.602   4.284  1.00 20.00     0.019 A 
HETATM    4  C2  UNL     1     -32.122   8.664   4.874  1.00 20.00     0.018 A 
HETATM    5  C3  UNL     1     -33.316   9.073   4.067  1.00 20.00     0.018 A 
HETATM    6  C5  UNL     1     -32.495   6.827   3.105  1.00 20.00     0.023 C 
ENDBRANCH   1   3
BRANCH   1   7
HETATM    7  C7  UNL     1     -35.015   6.045   4.604  1.00 20.00     0.246 C 
BRANCH   7   8
HETATM    8  O9  UNL     1     -34.936   4.704   5.037  1.00 20.00    -0.389 OA
HETATM    9  C6  UNL     1     -33.837   4.018   4.444  1.00 20.00     0.202 C 
ENDBRANCH   7   8
ENDBRANCH   1   7
TORSDOF 3
ENDMDL
MODEL 8
REMARK VINA RESULT:      -3.5     11.830     12.547
REMARK  3 active torsions:
REMARK  status: ('A' for Active; 'I' for Inactive)
REMARK    1  A    between atoms: C1_1  and  C4_4 
REMARK    2  A    between atoms: C1_1  and  C7_7 
REMARK    3  A    between atoms: C7_7  and  O9_9 
ROOT
HETATM    1  C1  UNL     1     -31.515  18.557   0.082  1.00 20.00     0.158 C 
HETATM    2  O8  UNL     1     -30.520  18.566  -0.640  1.00 20.00    -0.295 OA
ENDROOT
BRANCH   1   3
HETATM    3  C4  UNL     1     -32.868  18.311  -0.474  1.00 20.00     0.019 A 
HETATM    4  C2  UNL     1     -32.946  17.526  -1.767  1.00 20.00     0.018 A 
HETATM    5  C3  UNL     1     -33.210  19.001  -1.778  1.00 20.00     0.018 A 
HETATM    6  C5  UNL     1     -33.990  18.117   0.515  1.00 20.00     0.023 C 
ENDBRANCH   1   3
BRANCH   1   7
HETATM    7  C7  UNL     1     -31.437  18.795   1.575  1.00 20.00     0.246 C 
BRANCH   7   8
HETATM    8  O9  UNL     1     -30.366  18.068   2.140  1.00 20.00    -0.389 OA
HETATM    9  C6  UNL     1     -29.660  18.834   3.112  1.00 20.00     0.202 C 
ENDBRANCH   7   8
ENDBRANCH   1   7
TORSDOF 3
ENDMDL
MODEL 9
REMARK VINA RESULT:      -3.4     11.789     12.715
REMARK  3 active torsions:
REMARK  status: ('A' for Active; 'I' for Inactive)
REMARK    1  A    between atoms: C1_1  and  C4_4 
REMARK    2  A    between atoms: C1_1  and  C7_7 
REMARK    3  A    between atoms: C7_7  and  O9_9 
ROOT
HETATM    1  C1  UNL     1     -34.022  15.163  -4.265  1.00 20.00     0.158 C 
HETATM    2  O8  UNL     1     -34.114  13.971  -3.974  1.00 20.00    -0.295 OA
ENDROOT
BRANCH   1   3
HETATM    3  C4  UNL     1     -34.792  15.742  -5.392  1.00 20.00     0.019 A 
HETATM    4  C2  UNL     1     -35.605  14.781  -6.234  1.00 20.00     0.018 A 
HETATM    5  C3  UNL     1     -34.345  15.370  -6.791  1.00 20.00     0.018 A 
HETATM    6  C5  UNL     1     -35.354  17.128  -5.197  1.00 20.00     0.023 C 
ENDBRANCH   1   3
BRANCH   1   7
HETATM    7  C7  UNL     1     -33.127  16.117  -3.503  1.00 20.00     0.246 C 
BRANCH   7   8
HETATM    8  O9  UNL     1     -33.602  16.305  -2.187  1.00 20.00    -0.389 OA
HETATM    9  C6  UNL     1     -33.184  17.554  -1.645  1.00 20.00     0.202 C 
ENDBRANCH   7   8
ENDBRANCH   1   7
TORSDOF 3
ENDMDL
