MODEL 1
REMARK VINA RESULT:      -4.9      0.000      0.000
REMARK  4 active torsions:
REMARK  status: ('A' for Active; 'I' for Inactive)
REMARK    1  A    between atoms: C2_2  and  C8_8 
REMARK    2  A    between atoms: C3_3  and  C8_8 
REMARK    3  A    between atoms: C3_3  and  C9_9 
REMARK    4  A    between atoms: C6_6  and  C9_9 
ROOT
HETATM    1  C1  UNL     1     -32.504   8.620   1.180  1.00 20.00    -0.111 C 
HETATM    2  C2  UNL     1     -32.310   8.096   2.244  1.00 20.00    -0.100 C 
HETATM    3  C7  UNL     1     -32.738   9.256  -0.116  1.00 20.00     0.112 C 
ENDROOT
BRANCH   2   4
HETATM    4  C8  UNL     1     -32.080   7.456   3.544  1.00 20.00     0.172 C 
BRANCH   4   5
HETATM    5  C3  UNL     1     -32.591   8.291   4.704  1.00 20.00     0.138 C 
HETATM    6  O10 UNL     1     -32.139   9.406   4.966  1.00 20.00    -0.297 OA
BRANCH   5   7
HETATM    7  C9  UNL     1     -33.702   7.660   5.524  1.00 20.00     0.083 C 
BRANCH   7   8
HETATM    8  C6  UNL     1     -33.939   6.216   5.208  1.00 20.00    -0.007 A 
HETATM    9  C4  UNL     1     -34.818   5.381   6.098  1.00 20.00     0.005 A 
HETATM   10  C5  UNL     1     -35.286   5.760   4.721  1.00 20.00     0.005 A 
ENDBRANCH   7   8
ENDBRANCH   5   7
ENDBRANCH   4   5
ENDBRANCH   2   4
TORSDOF 4
ENDMDL
MODEL 2
REMARK VINA RESULT:      -4.3      1.612      2.346
REMARK  4 active torsions:
REMARK  status: ('A' for Active; 'I' for Inactive)
REMARK    1  A    between atoms: C2_2  and  C8_8 
REMARK    2  A    between atoms: C3_3  and  C8_8 
REMARK    3  A    between atoms: C3_3  and  C9_9 
REMARK    4  A    between atoms: C6_6  and  C9_9 
ROOT
HETATM    1  C1  UNL     1     -32.739   5.622   2.669  1.00 20.00    -0.111 C 
HETATM    2  C2  UNL     1     -32.497   6.756   2.981  1.00 20.00    -0.100 C 
HETATM    3  C7  UNL     1     -33.036   4.241   2.290  1.00 20.00     0.112 C 
ENDROOT
BRANCH   2   4
HETATM    4  C8  UNL     1     -32.198   8.142   3.356  1.00 20.00     0.172 C 
BRANCH   4   5
HETATM    5  C3  UNL     1     -32.782   8.520   4.705  1.00 20.00     0.138 C 
HETATM    6  O10 UNL     1     -32.181   9.233   5.509  1.00 20.00    -0.297 OA
BRANCH   5   7
HETATM    7  C9  UNL     1     -34.161   7.959   5.000  1.00 20.00     0.083 C 
BRANCH   7   8
HETATM    8  C6  UNL     1     -34.230   7.153   6.259  1.00 20.00    -0.007 A 
HETATM    9  C4  UNL     1     -34.855   5.786   6.251  1.00 20.00     0.005 A 
HETATM   10  C5  UNL     1     -33.370   5.931   6.423  1.00 20.00     0.005 A 
ENDBRANCH   7   8
ENDBRANCH   5   7
ENDBRANCH   4   5
ENDBRANCH   2   4
TORSDOF 4
ENDMDL
MODEL 3
REMARK VINA RESULT:      -4.3     11.302     12.118
REMARK  4 active torsions:
REMARK  status: ('A' for Active; 'I' for Inactive)
REMARK    1  A    between atoms: C2_2  and  C8_8 
REMARK    2  A    between atoms: C3_3  and  C8_8 
REMARK    3  A    between atoms: C3_3  and  C9_9 
REMARK    4  A    between atoms: C6_6  and  C9_9 
ROOT
HETATM    1  C1  UNL     1     -29.563  18.685   2.942  1.00 20.00    -0.111 C 
HETATM    2  C2  UNL     1     -30.604  18.784   2.352  1.00 20.00    -0.100 C 
HETATM    3  C7  UNL     1     -28.293  18.563   3.659  1.00 20.00     0.112 C 
ENDROOT
BRANCH   2   4
HETATM    4  C8  UNL     1     -31.876  18.911   1.633  1.00 20.00     0.172 C 
BRANCH   4   5
HETATM    5  C3  UNL     1     -31.751  18.559   0.161  1.00 20.00     0.138 C 
HETATM    6  O10 UNL     1     -30.688  18.649  -0.452  1.00 20.00    -0.297 OA
BRANCH   5   7
HETATM    7  C9  UNL     1     -33.029  18.086  -0.508  1.00 20.00     0.083 C 
BRANCH   7   8
HETATM    8  C6  UNL     1     -32.891  17.856  -1.980  1.00 20.00    -0.007 A 
HETATM    9  C4  UNL     1     -33.301  16.541  -2.583  1.00 20.00     0.005 A 
HETATM   10  C5  UNL     1     -34.114  17.776  -2.851  1.00 20.00     0.005 A 
ENDBRANCH   7   8
ENDBRANCH   5   7
ENDBRANCH   4   5
ENDBRANCH   2   4
TORSDOF 4
ENDMDL
MODEL 4
REMARK VINA RESULT:      -4.2      2.635      3.218
REMARK  4 active torsions:
REMARK  status: ('A' for Active; 'I' for Inactive)
REMARK    1  A    between atoms: C2_2  and  C8_8 
REMARK    2  A    between atoms: C3_3  and  C8_8 
REMARK    3  A    between atoms: C3_3  and  C9_9 
REMARK    4  A    between atoms: C6_6  and  C9_9 
ROOT
HETATM    1  C1  UNL     1     -32.450   7.969   3.729  1.00 20.00    -0.111 C 
HETATM    2  C2  UNL     1     -32.716   6.858   3.355  1.00 20.00    -0.100 C 
HETATM    3  C7  UNL     1     -32.128   9.321   4.185  1.00 20.00     0.112 C 
ENDROOT
BRANCH   2   4
HETATM    4  C8  UNL     1     -33.035   5.501   2.901  1.00 20.00     0.172 C 
BRANCH   4   5
HETATM    5  C3  UNL     1     -33.961   4.769   3.857  1.00 20.00     0.138 C 
HETATM    6  O10 UNL     1     -33.862   3.563   4.080  1.00 20.00    -0.297 OA
BRANCH   5   7
HETATM    7  C9  UNL     1     -35.020   5.627   4.525  1.00 20.00     0.083 C 
BRANCH   7   8
HETATM    8  C6  UNL     1     -34.888   5.702   6.013  1.00 20.00    -0.007 A 
HETATM    9  C4  UNL     1     -33.527   5.750   6.651  1.00 20.00     0.005 A 
HETATM   10  C5  UNL     1     -34.409   6.967   6.668  1.00 20.00     0.005 A 
ENDBRANCH   7   8
ENDBRANCH   5   7
ENDBRANCH   4   5
ENDBRANCH   2   4
TORSDOF 4
ENDMDL
MODEL 5
REMARK VINA RESULT:      -4.2      1.816      4.017
REMARK  4 active torsions:
REMARK  status: ('A' for Active; 'I' for Inactive)
REMARK    1  A    between atoms: C2_2  and  C8_8 
REMARK    2  A    between atoms: C3_3  and  C8_8 
REMARK    3  A    between atoms: C3_3  and  C9_9 
REMARK    4  A    between atoms: C6_6  and  C9_9 
ROOT
HETATM    1  C1  UNL     1     -34.073   6.798   6.126  1.00 20.00    -0.111 C 
HETATM    2  C2  UNL     1     -33.445   7.670   5.589  1.00 20.00    -0.100 C 
HETATM    3  C7  UNL     1     -34.839   5.737   6.779  1.00 20.00     0.112 C 
ENDROOT
BRANCH   2   4
HETATM    4  C8  UNL     1     -32.674   8.731   4.932  1.00 20.00     0.172 C 
BRANCH   4   5
HETATM    5  C3  UNL     1     -32.493   8.484   3.445  1.00 20.00     0.138 C 
HETATM    6  O10 UNL     1     -32.750   9.338   2.597  1.00 20.00    -0.297 OA
BRANCH   5   7
HETATM    7  C9  UNL     1     -31.972   7.108   3.070  1.00 20.00     0.083 C 
BRANCH   7   8
HETATM    8  C6  UNL     1     -33.015   6.204   2.492  1.00 20.00    -0.007 A 
HETATM    9  C4  UNL     1     -32.696   4.761   2.214  1.00 20.00     0.005 A 
HETATM   10  C5  UNL     1     -33.629   5.122   3.336  1.00 20.00     0.005 A 
ENDBRANCH   7   8
ENDBRANCH   5   7
ENDBRANCH   4   5
ENDBRANCH   2   4
TORSDOF 4
ENDMDL
MODEL 6
REMARK VINA RESULT:      -4.2     11.211     11.962
REMARK  4 active torsions:
REMARK  status: ('A' for Active; 'I' for Inactive)
REMARK    1  A    between atoms: C2_2  and  C8_8 
REMARK    2  A    between atoms: C3_3  and  C8_8 
REMARK    3  A    between atoms: C3_3  and  C9_9 
REMARK    4  A    between atoms: C6_6  and  C9_9 
ROOT
HETATM    1  C1  UNL     1     -30.193  18.651   2.206  1.00 20.00    -0.111 C 
HETATM    2  C2  UNL     1     -30.816  18.617   1.180  1.00 20.00    -0.100 C 
HETATM    3  C7  UNL     1     -29.436  18.693   3.457  1.00 20.00     0.112 C 
ENDROOT
BRANCH   2   4
HETATM    4  C8  UNL     1     -31.573  18.570  -0.075  1.00 20.00     0.172 C 
BRANCH   4   5
HETATM    5  C3  UNL     1     -33.066  18.408   0.149  1.00 20.00     0.138 C 
HETATM    6  O10 UNL     1     -33.640  18.874   1.133  1.00 20.00    -0.297 OA
BRANCH   5   7
HETATM    7  C9  UNL     1     -33.807  17.631  -0.923  1.00 20.00     0.083 C 
BRANCH   7   8
HETATM    8  C6  UNL     1     -32.946  17.223  -2.078  1.00 20.00    -0.007 A 
HETATM    9  C4  UNL     1     -33.428  16.184  -3.052  1.00 20.00     0.005 A 
HETATM   10  C5  UNL     1     -33.320  17.621  -3.478  1.00 20.00     0.005 A 
ENDBRANCH   7   8
ENDBRANCH   5   7
ENDBRANCH   4   5
ENDBRANCH   2   4
TORSDOF 4
ENDMDL
MODEL 7
REMARK VINA RESULT:      -4.1      1.031      1.253
REMARK  4 active torsions:
REMARK  status: ('A' for Active; 'I' for Inactive)
REMARK    1  A    between atoms: C2_2  and  C8_8 
REMARK    2  A    between atoms: C3_3  and  C8_8 
REMARK    3  A    between atoms: C3_3  and  C9_9 
REMARK    4  A    between atoms: C6_6  and  C9_9 
ROOT
HETATM    1  C1  UNL     1     -32.621   8.879   2.015  1.00 20.00    -0.111 C 
HETATM    2  C2  UNL     1     -32.450   8.342   3.076  1.00 20.00    -0.100 C 
HETATM    3  C7  UNL     1     -32.828   9.533   0.723  1.00 20.00     0.112 C 
ENDROOT
BRANCH   2   4
HETATM    4  C8  UNL     1     -32.245   7.683   4.370  1.00 20.00     0.172 C 
BRANCH   4   5
HETATM    5  C3  UNL     1     -33.390   7.927   5.337  1.00 20.00     0.138 C 
HETATM    6  O10 UNL     1     -34.065   8.956   5.316  1.00 20.00    -0.297 OA
BRANCH   5   7
HETATM    7  C9  UNL     1     -33.650   6.813   6.335  1.00 20.00     0.083 C 
BRANCH   7   8
HETATM    8  C6  UNL     1     -34.732   5.867   5.918  1.00 20.00    -0.007 A 
HETATM    9  C4  UNL     1     -35.295   5.927   4.525  1.00 20.00     0.005 A 
HETATM   10  C5  UNL     1     -34.437   4.765   4.940  1.00 20.00     0.005 A 
ENDBRANCH   7   8
ENDBRANCH   5   7
ENDBRANCH   4   5
ENDBRANCH   2   4
TORSDOF 4
ENDMDL
MODEL 8
REMARK VINA RESULT:      -4.0      1.937      2.302
REMARK  4 active torsions:
REMARK  status: ('A' for Active; 'I' for Inactive)
REMARK    1  A    between atoms: C2_2  and  C8_8 
REMARK    2  A    between atoms: C3_3  and  C8_8 
REMARK    3  A    between atoms: C3_3  and  C9_9 
REMARK    4  A    between atoms: C6_6  and  C9_9 
ROOT
HETATM    1  C1  UNL     1     -32.522   8.543   1.306  1.00 20.00    -0.111 C 
HETATM    2  C2  UNL     1     -32.510   7.843   2.282  1.00 20.00    -0.100 C 
HETATM    3  C7  UNL     1     -32.534   9.395   0.117  1.00 20.00     0.112 C 
ENDROOT
BRANCH   2   4
HETATM    4  C8  UNL     1     -32.502   6.986   3.472  1.00 20.00     0.172 C 
BRANCH   4   5
HETATM    5  C3  UNL     1     -33.064   5.602   3.199  1.00 20.00     0.138 C 
HETATM    6  O10 UNL     1     -32.772   4.958   2.192  1.00 20.00    -0.297 OA
BRANCH   5   7
HETATM    7  C9  UNL     1     -34.012   5.062   4.254  1.00 20.00     0.083 C 
BRANCH   7   8
HETATM    8  C6  UNL     1     -34.622   6.121   5.117  1.00 20.00    -0.007 A 
HETATM    9  C4  UNL     1     -34.953   5.830   6.555  1.00 20.00     0.005 A 
HETATM   10  C5  UNL     1     -33.819   6.756   6.218  1.00 20.00     0.005 A 
ENDBRANCH   7   8
ENDBRANCH   5   7
ENDBRANCH   4   5
ENDBRANCH   2   4
TORSDOF 4
ENDMDL
MODEL 9
REMARK VINA RESULT:      -4.0     11.110     12.056
REMARK  4 active torsions:
REMARK  status: ('A' for Active; 'I' for Inactive)
REMARK    1  A    between atoms: C2_2  and  C8_8 
REMARK    2  A    between atoms: C3_3  and  C8_8 
REMARK    3  A    between atoms: C3_3  and  C9_9 
REMARK    4  A    between atoms: C6_6  and  C9_9 
ROOT
HETATM    1  C1  UNL     1     -31.064  18.572   0.777  1.00 20.00    -0.111 C 
HETATM    2  C2  UNL     1     -31.599  18.666  -0.294  1.00 20.00    -0.100 C 
HETATM    3  C7  UNL     1     -30.412  18.457   2.081  1.00 20.00     0.112 C 
ENDROOT
BRANCH   2   4
HETATM    4  C8  UNL     1     -32.257  18.783  -1.600  1.00 20.00     0.172 C 
BRANCH   4   5
HETATM    5  C3  UNL     1     -33.613  18.102  -1.633  1.00 20.00     0.138 C 
HETATM    6  O10 UNL     1     -34.659  18.698  -1.379  1.00 20.00    -0.297 OA
BRANCH   5   7
HETATM    7  C9  UNL     1     -33.595  16.629  -2.002  1.00 20.00     0.083 C 
BRANCH   7   8
HETATM    8  C6  UNL     1     -33.198  16.366  -3.421  1.00 20.00    -0.007 A 
HETATM    9  C4  UNL     1     -33.594  15.080  -4.092  1.00 20.00     0.005 A 
HETATM   10  C5  UNL     1     -34.234  16.374  -4.510  1.00 20.00     0.005 A 
ENDBRANCH   7   8
ENDBRANCH   5   7
ENDBRANCH   4   5
ENDBRANCH   2   4
TORSDOF 4
ENDMDL
