MODEL 1
REMARK VINA RESULT:      -4.3      0.000      0.000
REMARK  3 active torsions:
REMARK  status: ('A' for Active; 'I' for Inactive)
REMARK    1  A    between atoms: C1_1  and  C6_6 
REMARK    2  A    between atoms: C1_1  and  O8_8 
REMARK    3  A    between atoms: C4_4  and  C6_6 
ROOT
HETATM    1  C1  UNL     1     -34.516   5.992   5.643  1.00 20.00     0.132 C 
HETATM    2  N7  UNL     1     -35.091   5.258   6.535  1.00 20.00    -0.282 NA
HETATM    3  H19 UNL     1     -34.890   5.617   7.474  1.00 20.00     0.189 HD
ENDROOT
BRANCH   1   4
HETATM    4  C6  UNL     1     -33.667   7.186   5.972  1.00 20.00     0.090 C 
BRANCH   4   5
HETATM    5  C4  UNL     1     -33.450   8.069   4.787  1.00 20.00    -0.007 A 
HETATM    6  C2  UNL     1     -32.353   9.097   4.797  1.00 20.00     0.005 A 
HETATM    7  C3  UNL     1     -32.239   7.884   3.916  1.00 20.00     0.005 A 
ENDBRANCH   4   5
ENDBRANCH   1   4
BRANCH   1   8
HETATM    8  O8  UNL     1     -34.581   5.764   4.304  1.00 20.00    -0.343 OA
HETATM    9  C5  UNL     1     -33.927   4.589   3.808  1.00 20.00     0.211 C 
ENDBRANCH   1   8
TORSDOF 3
ENDMDL
MODEL 2
REMARK VINA RESULT:      -4.3      2.320      3.502
REMARK  3 active torsions:
REMARK  status: ('A' for Active; 'I' for Inactive)
REMARK    1  A    between atoms: C1_1  and  C6_6 
REMARK    2  A    between atoms: C1_1  and  O8_8 
REMARK    3  A    between atoms: C4_4  and  C6_6 
ROOT
HETATM    1  C1  UNL     1     -32.757   8.393   4.679  1.00 20.00     0.132 C 
HETATM    2  N7  UNL     1     -31.740   8.906   5.287  1.00 20.00    -0.282 NA
HETATM    3  H19 UNL     1     -31.858   8.830   6.303  1.00 20.00     0.189 HD
ENDROOT
BRANCH   1   4
HETATM    4  C6  UNL     1     -33.934   7.793   5.392  1.00 20.00     0.090 C 
BRANCH   4   5
HETATM    5  C4  UNL     1     -33.829   6.308   5.505  1.00 20.00    -0.007 A 
HETATM    6  C2  UNL     1     -34.790   5.542   6.372  1.00 20.00     0.005 A 
HETATM    7  C3  UNL     1     -34.870   5.425   4.875  1.00 20.00     0.005 A 
ENDBRANCH   4   5
ENDBRANCH   1   4
BRANCH   1   8
HETATM    8  O8  UNL     1     -32.904   8.357   3.329  1.00 20.00    -0.343 OA
HETATM    9  C5  UNL     1     -32.153   7.365   2.615  1.00 20.00     0.211 C 
ENDBRANCH   1   8
TORSDOF 3
ENDMDL
MODEL 3
REMARK VINA RESULT:      -4.3      2.409      3.672
REMARK  3 active torsions:
REMARK  status: ('A' for Active; 'I' for Inactive)
REMARK    1  A    between atoms: C1_1  and  C6_6 
REMARK    2  A    between atoms: C1_1  and  O8_8 
REMARK    3  A    between atoms: C4_4  and  C6_6 
ROOT
HETATM    1  C1  UNL     1     -32.603   8.192   4.149  1.00 20.00     0.132 C 
HETATM    2  N7  UNL     1     -32.191   8.773   5.226  1.00 20.00    -0.282 NA
HETATM    3  H19 UNL     1     -32.281   8.141   6.028  1.00 20.00     0.189 HD
ENDROOT
BRANCH   1   4
HETATM    4  C6  UNL     1     -33.145   6.792   4.118  1.00 20.00     0.090 C 
BRANCH   4   5
HETATM    5  C4  UNL     1     -34.388   6.650   4.934  1.00 20.00    -0.007 A 
HETATM    6  C2  UNL     1     -34.950   5.287   5.230  1.00 20.00     0.005 A 
HETATM    7  C3  UNL     1     -34.319   6.095   6.329  1.00 20.00     0.005 A 
ENDBRANCH   4   5
ENDBRANCH   1   4
BRANCH   1   8
HETATM    8  O8  UNL     1     -32.626   8.777   2.923  1.00 20.00    -0.343 OA
HETATM    9  C5  UNL     1     -32.232   7.969   1.805  1.00 20.00     0.211 C 
ENDBRANCH   1   8
TORSDOF 3
ENDMDL
MODEL 4
REMARK VINA RESULT:      -4.1      1.736      2.122
REMARK  3 active torsions:
REMARK  status: ('A' for Active; 'I' for Inactive)
REMARK    1  A    between atoms: C1_1  and  C6_6 
REMARK    2  A    between atoms: C1_1  and  O8_8 
REMARK    3  A    between atoms: C4_4  and  C6_6 
ROOT
HETATM    1  C1  UNL     1     -33.861   5.478   3.982  1.00 20.00     0.132 C 
HETATM    2  N7  UNL     1     -33.306   5.081   2.886  1.00 20.00    -0.282 NA
HETATM    3  H19 UNL     1     -32.889   5.876   2.391  1.00 20.00     0.189 HD
ENDROOT
BRANCH   1   4
HETATM    4  C6  UNL     1     -33.885   6.911   4.429  1.00 20.00     0.090 C 
BRANCH   4   5
HETATM    5  C4  UNL     1     -32.606   7.619   4.123  1.00 20.00    -0.007 A 
HETATM    6  C2  UNL     1     -32.617   8.899   3.335  1.00 20.00     0.005 A 
HETATM    7  C3  UNL     1     -32.281   8.921   4.799  1.00 20.00     0.005 A 
ENDBRANCH   4   5
ENDBRANCH   1   4
BRANCH   1   8
HETATM    8  O8  UNL     1     -34.513   4.660   4.850  1.00 20.00    -0.343 OA
HETATM    9  C5  UNL     1     -34.675   5.130   6.195  1.00 20.00     0.211 C 
ENDBRANCH   1   8
TORSDOF 3
ENDMDL
MODEL 5
REMARK VINA RESULT:      -4.1      1.178      1.424
REMARK  3 active torsions:
REMARK  status: ('A' for Active; 'I' for Inactive)
REMARK    1  A    between atoms: C1_1  and  C6_6 
REMARK    2  A    between atoms: C1_1  and  O8_8 
REMARK    3  A    between atoms: C4_4  and  C6_6 
ROOT
HETATM    1  C1  UNL     1     -34.485   5.274   4.732  1.00 20.00     0.132 C 
HETATM    2  N7  UNL     1     -35.161   4.853   5.748  1.00 20.00    -0.282 NA
HETATM    3  H19 UNL     1     -35.571   5.644   6.255  1.00 20.00     0.189 HD
ENDROOT
BRANCH   1   4
HETATM    4  C6  UNL     1     -34.330   6.725   4.382  1.00 20.00     0.090 C 
BRANCH   4   5
HETATM    5  C4  UNL     1     -33.377   7.427   5.294  1.00 20.00    -0.007 A 
HETATM    6  C2  UNL     1     -32.357   8.381   4.737  1.00 20.00     0.005 A 
HETATM    7  C3  UNL     1     -33.514   8.903   5.542  1.00 20.00     0.005 A 
ENDBRANCH   4   5
ENDBRANCH   1   4
BRANCH   1   8
HETATM    8  O8  UNL     1     -33.809   4.466   3.873  1.00 20.00    -0.343 OA
HETATM    9  C5  UNL     1     -33.125   5.097   2.782  1.00 20.00     0.211 C 
ENDBRANCH   1   8
TORSDOF 3
ENDMDL
MODEL 6
REMARK VINA RESULT:      -3.9      2.386      3.832
REMARK  3 active torsions:
REMARK  status: ('A' for Active; 'I' for Inactive)
REMARK    1  A    between atoms: C1_1  and  C6_6 
REMARK    2  A    between atoms: C1_1  and  O8_8 
REMARK    3  A    between atoms: C4_4  and  C6_6 
ROOT
HETATM    1  C1  UNL     1     -32.881   7.223   3.438  1.00 20.00     0.132 C 
HETATM    2  N7  UNL     1     -32.067   7.270   2.438  1.00 20.00    -0.282 NA
HETATM    3  H19 UNL     1     -31.930   6.332   2.046  1.00 20.00     0.189 HD
ENDROOT
BRANCH   1   4
HETATM    4  C6  UNL     1     -33.508   5.954   3.938  1.00 20.00     0.090 C 
BRANCH   4   5
HETATM    5  C4  UNL     1     -34.566   6.212   4.961  1.00 20.00    -0.007 A 
HETATM    6  C2  UNL     1     -34.940   5.144   5.952  1.00 20.00     0.005 A 
HETATM    7  C3  UNL     1     -34.196   6.367   6.410  1.00 20.00     0.005 A 
ENDBRANCH   4   5
ENDBRANCH   1   4
BRANCH   1   8
HETATM    8  O8  UNL     1     -33.250   8.302   4.177  1.00 20.00    -0.343 OA
HETATM    9  C5  UNL     1     -32.205   9.044   4.818  1.00 20.00     0.211 C 
ENDBRANCH   1   8
TORSDOF 3
ENDMDL
MODEL 7
REMARK VINA RESULT:      -3.9     12.304     12.580
REMARK  3 active torsions:
REMARK  status: ('A' for Active; 'I' for Inactive)
REMARK    1  A    between atoms: C1_1  and  C6_6 
REMARK    2  A    between atoms: C1_1  and  O8_8 
REMARK    3  A    between atoms: C4_4  and  C6_6 
ROOT
HETATM    1  C1  UNL     1     -33.310  15.031  -4.106  1.00 20.00     0.132 C 
HETATM    2  N7  UNL     1     -32.097  14.775  -4.465  1.00 20.00    -0.282 NA
HETATM    3  H19 UNL     1     -31.515  15.614  -4.374  1.00 20.00     0.189 HD
ENDROOT
BRANCH   1   4
HETATM    4  C6  UNL     1     -33.771  16.382  -3.641  1.00 20.00     0.090 C 
BRANCH   4   5
HETATM    5  C4  UNL     1     -33.422  16.636  -2.211  1.00 20.00    -0.007 A 
HETATM    6  C2  UNL     1     -32.585  17.827  -1.834  1.00 20.00     0.005 A 
HETATM    7  C3  UNL     1     -34.044  17.789  -1.473  1.00 20.00     0.005 A 
ENDBRANCH   4   5
ENDBRANCH   1   4
BRANCH   1   8
HETATM    8  O8  UNL     1     -34.324  14.126  -4.130  1.00 20.00    -0.343 OA
HETATM    9  C5  UNL     1     -35.391  14.363  -5.057  1.00 20.00     0.211 C 
ENDBRANCH   1   8
TORSDOF 3
ENDMDL
MODEL 8
REMARK VINA RESULT:      -3.9      9.033      9.569
REMARK  3 active torsions:
REMARK  status: ('A' for Active; 'I' for Inactive)
REMARK    1  A    between atoms: C1_1  and  C6_6 
REMARK    2  A    between atoms: C1_1  and  O8_8 
REMARK    3  A    between atoms: C4_4  and  C6_6 
ROOT
HETATM    1  C1  UNL     1     -40.835  13.554   6.977  1.00 20.00     0.132 C 
HETATM    2  N7  UNL     1     -40.065  14.503   7.393  1.00 20.00    -0.282 NA
HETATM    3  H19 UNL     1     -39.457  14.827   6.632  1.00 20.00     0.189 HD
ENDROOT
BRANCH   1   4
HETATM    4  C6  UNL     1     -40.806  13.016   5.576  1.00 20.00     0.090 C 
BRANCH   4   5
HETATM    5  C4  UNL     1     -39.888  11.846   5.439  1.00 20.00    -0.007 A 
HETATM    6  C2  UNL     1     -39.065  11.668   4.193  1.00 20.00     0.005 A 
HETATM    7  C3  UNL     1     -38.398  12.042   5.487  1.00 20.00     0.005 A 
ENDBRANCH   4   5
ENDBRANCH   1   4
BRANCH   1   8
HETATM    8  O8  UNL     1     -41.741  12.906   7.755  1.00 20.00    -0.343 OA
HETATM    9  C5  UNL     1     -43.005  12.585   7.158  1.00 20.00     0.211 C 
ENDBRANCH   1   8
TORSDOF 3
ENDMDL
MODEL 9
REMARK VINA RESULT:      -3.8     12.422     12.923
REMARK  3 active torsions:
REMARK  status: ('A' for Active; 'I' for Inactive)
REMARK    1  A    between atoms: C1_1  and  C6_6 
REMARK    2  A    between atoms: C1_1  and  O8_8 
REMARK    3  A    between atoms: C4_4  and  C6_6 
ROOT
HETATM    1  C1  UNL     1     -34.083  14.710  -4.614  1.00 20.00     0.132 C 
HETATM    2  N7  UNL     1     -34.712  13.707  -4.100  1.00 20.00    -0.282 NA
HETATM    3  H19 UNL     1     -34.464  13.602  -3.110  1.00 20.00     0.189 HD
ENDROOT
BRANCH   1   4
HETATM    4  C6  UNL     1     -33.122  15.570  -3.845  1.00 20.00     0.090 C 
BRANCH   4   5
HETATM    5  C4  UNL     1     -33.800  16.731  -3.194  1.00 20.00    -0.007 A 
HETATM    6  C2  UNL     1     -33.522  17.061  -1.754  1.00 20.00     0.005 A 
HETATM    7  C3  UNL     1     -33.017  17.965  -2.844  1.00 20.00     0.005 A 
ENDBRANCH   4   5
ENDBRANCH   1   4
BRANCH   1   8
HETATM    8  O8  UNL     1     -34.188  15.096  -5.913  1.00 20.00    -0.343 OA
HETATM    9  C5  UNL     1     -35.472  14.957  -6.535  1.00 20.00     0.211 C 
ENDBRANCH   1   8
TORSDOF 3
ENDMDL
