MODEL 1
REMARK VINA RESULT:      -3.6      0.000      0.000
REMARK  4 active torsions:
REMARK  status: ('A' for Active; 'I' for Inactive)
REMARK    1  A    between atoms: C3_3  and  C7_7 
REMARK    2  A    between atoms: C6_6  and  C7_7 
REMARK    3  A    between atoms: C6_6  and  O9_9 
REMARK    4  A    between atoms: C7_7  and  C8_8 
ROOT
HETATM    1  C7  UNL     1     -40.932  13.518   6.052  1.00 20.00     0.032 C 
ENDROOT
BRANCH   1   2
HETATM    2  C3  UNL     1     -40.216  12.185   5.984  1.00 20.00    -0.007 A 
HETATM    3  C1  UNL     1     -39.602  11.720   4.691  1.00 20.00     0.005 A 
HETATM    4  C2  UNL     1     -38.720  12.135   5.837  1.00 20.00     0.005 A 
ENDBRANCH   1   2
BRANCH   1   5
HETATM    5  C6  UNL     1     -40.310  14.406   7.144  1.00 20.00     0.173 C 
BRANCH   5   6
HETATM    6  O9  UNL     1     -40.222  13.670   8.361  1.00 20.00    -0.396 OA
HETATM    7  C5  UNL     1     -40.443  14.504   9.488  1.00 20.00     0.201 C 
ENDBRANCH   5   6
ENDBRANCH   1   5
BRANCH   1   8
HETATM    8  C8  UNL     1     -42.463  13.389   6.247  1.00 20.00     0.084 C 
HETATM    9  C4  UNL     1     -42.875  12.156   7.044  1.00 20.00     0.027 C 
HETATM   10 CL10 UNL     1     -43.177  14.846   7.007  1.00 20.00    -0.125 Cl
ENDBRANCH   1   8
TORSDOF 4
ENDMDL
MODEL 2
REMARK VINA RESULT:      -3.3      9.617     10.892
REMARK  4 active torsions:
REMARK  status: ('A' for Active; 'I' for Inactive)
REMARK    1  A    between atoms: C3_3  and  C7_7 
REMARK    2  A    between atoms: C6_6  and  C7_7 
REMARK    3  A    between atoms: C6_6  and  O9_9 
REMARK    4  A    between atoms: C7_7  and  C8_8 
ROOT
HETATM    1  C7  UNL     1     -32.907   6.834   3.991  1.00 20.00     0.032 C 
ENDROOT
BRANCH   1   2
HETATM    2  C3  UNL     1     -33.776   7.822   4.740  1.00 20.00    -0.007 A 
HETATM    3  C1  UNL     1     -34.015   7.656   6.216  1.00 20.00     0.005 A 
HETATM    4  C2  UNL     1     -33.161   8.788   5.714  1.00 20.00     0.005 A 
ENDBRANCH   1   2
BRANCH   1   5
HETATM    5  C6  UNL     1     -32.087   7.555   2.908  1.00 20.00     0.173 C 
BRANCH   5   6
HETATM    6  O9  UNL     1     -32.759   8.749   2.518  1.00 20.00    -0.396 OA
HETATM    7  C5  UNL     1     -32.606   9.001   1.130  1.00 20.00     0.201 C 
ENDBRANCH   5   6
ENDBRANCH   1   5
BRANCH   1   8
HETATM    8  C8  UNL     1     -33.697   5.645   3.391  1.00 20.00     0.084 C 
HETATM    9  C4  UNL     1     -32.912   4.855   2.348  1.00 20.00     0.027 C 
HETATM   10 CL10 UNL     1     -34.296   4.521   4.651  1.00 20.00    -0.125 Cl
ENDBRANCH   1   8
TORSDOF 4
ENDMDL
MODEL 3
REMARK VINA RESULT:      -3.3     12.610     13.784
REMARK  4 active torsions:
REMARK  status: ('A' for Active; 'I' for Inactive)
REMARK    1  A    between atoms: C3_3  and  C7_7 
REMARK    2  A    between atoms: C6_6  and  C7_7 
REMARK    3  A    between atoms: C6_6  and  O9_9 
REMARK    4  A    between atoms: C7_7  and  C8_8 
ROOT
HETATM    1  C7  UNL     1     -34.355  16.135  -4.647  1.00 20.00     0.032 C 
ENDROOT
BRANCH   1   2
HETATM    2  C3  UNL     1     -33.540  17.034  -3.741  1.00 20.00    -0.007 A 
HETATM    3  C1  UNL     1     -34.223  17.885  -2.705  1.00 20.00     0.005 A 
HETATM    4  C2  UNL     1     -33.391  16.706  -2.281  1.00 20.00     0.005 A 
ENDBRANCH   1   2
BRANCH   1   5
HETATM    5  C6  UNL     1     -33.712  14.740  -4.736  1.00 20.00     0.173 C 
BRANCH   5   6
HETATM    6  O9  UNL     1     -34.499  13.807  -4.001  1.00 20.00    -0.396 OA
HETATM    7  C5  UNL     1     -35.782  13.638  -4.585  1.00 20.00     0.201 C 
ENDBRANCH   5   6
ENDBRANCH   1   5
BRANCH   1   8
HETATM    8  C8  UNL     1     -34.593  16.728  -6.057  1.00 20.00     0.084 C 
HETATM    9  C4  UNL     1     -34.231  15.772  -7.190  1.00 20.00     0.027 C 
HETATM   10 CL10 UNL     1     -36.278  17.295  -6.282  1.00 20.00    -0.125 Cl
ENDBRANCH   1   8
TORSDOF 4
ENDMDL
MODEL 4
REMARK VINA RESULT:      -3.3      9.593     10.638
REMARK  4 active torsions:
REMARK  status: ('A' for Active; 'I' for Inactive)
REMARK    1  A    between atoms: C3_3  and  C7_7 
REMARK    2  A    between atoms: C6_6  and  C7_7 
REMARK    3  A    between atoms: C6_6  and  O9_9 
REMARK    4  A    between atoms: C7_7  and  C8_8 
ROOT
HETATM    1  C7  UNL     1     -33.249   6.713   4.336  1.00 20.00     0.032 C 
ENDROOT
BRANCH   1   2
HETATM    2  C3  UNL     1     -34.362   5.753   4.699  1.00 20.00    -0.007 A 
HETATM    3  C1  UNL     1     -34.147   4.711   5.763  1.00 20.00     0.005 A 
HETATM    4  C2  UNL     1     -35.065   5.874   6.024  1.00 20.00     0.005 A 
ENDBRANCH   1   2
BRANCH   1   5
HETATM    5  C6  UNL     1     -33.796   8.145   4.207  1.00 20.00     0.173 C 
BRANCH   5   6
HETATM    6  O9  UNL     1     -33.304   8.940   5.282  1.00 20.00    -0.396 OA
HETATM    7  C5  UNL     1     -31.945   9.297   5.083  1.00 20.00     0.201 C 
ENDBRANCH   5   6
ENDBRANCH   1   5
BRANCH   1   8
HETATM    8  C8  UNL     1     -32.467   6.301   3.064  1.00 20.00     0.084 C 
HETATM    9  C4  UNL     1     -33.055   5.086   2.353  1.00 20.00     0.027 C 
HETATM   10 CL10 UNL     1     -32.314   7.649   1.893  1.00 20.00    -0.125 Cl
ENDBRANCH   1   8
TORSDOF 4
ENDMDL
MODEL 5
REMARK VINA RESULT:      -3.2      2.422      3.176
REMARK  4 active torsions:
REMARK  status: ('A' for Active; 'I' for Inactive)
REMARK    1  A    between atoms: C3_3  and  C7_7 
REMARK    2  A    between atoms: C6_6  and  C7_7 
REMARK    3  A    between atoms: C6_6  and  O9_9 
REMARK    4  A    between atoms: C7_7  and  C8_8 
ROOT
HETATM    1  C7  UNL     1     -41.762  13.314   5.582  1.00 20.00     0.032 C 
ENDROOT
BRANCH   1   2
HETATM    2  C3  UNL     1     -40.283  13.010   5.697  1.00 20.00    -0.007 A 
HETATM    3  C1  UNL     1     -39.814  11.600   5.932  1.00 20.00     0.005 A 
HETATM    4  C2  UNL     1     -39.575  12.261   4.603  1.00 20.00     0.005 A 
ENDBRANCH   1   2
BRANCH   1   5
HETATM    5  C6  UNL     1     -41.983  14.599   4.765  1.00 20.00     0.173 C 
BRANCH   5   6
HETATM    6  O9  UNL     1     -42.052  14.275   3.380  1.00 20.00    -0.396 OA
HETATM    7  C5  UNL     1     -42.355  15.417   2.594  1.00 20.00     0.201 C 
ENDBRANCH   5   6
ENDBRANCH   1   5
BRANCH   1   8
HETATM    8  C8  UNL     1     -42.486  13.393   6.948  1.00 20.00     0.084 C 
HETATM    9  C4  UNL     1     -43.158  12.087   7.360  1.00 20.00     0.027 C 
HETATM   10 CL10 UNL     1     -41.397  13.934   8.265  1.00 20.00    -0.125 Cl
ENDBRANCH   1   8
TORSDOF 4
ENDMDL
MODEL 6
REMARK VINA RESULT:      -3.1     12.657     13.254
REMARK  4 active torsions:
REMARK  status: ('A' for Active; 'I' for Inactive)
REMARK    1  A    between atoms: C3_3  and  C7_7 
REMARK    2  A    between atoms: C6_6  and  C7_7 
REMARK    3  A    between atoms: C6_6  and  O9_9 
REMARK    4  A    between atoms: C7_7  and  C8_8 
ROOT
HETATM    1  C7  UNL     1     -33.931  16.863  -3.225  1.00 20.00     0.032 C 
ENDROOT
BRANCH   1   2
HETATM    2  C3  UNL     1     -33.281  15.659  -3.874  1.00 20.00    -0.007 A 
HETATM    3  C1  UNL     1     -34.034  14.362  -3.990  1.00 20.00     0.005 A 
HETATM    4  C2  UNL     1     -33.747  15.178  -5.220  1.00 20.00     0.005 A 
ENDBRANCH   1   2
BRANCH   1   5
HETATM    5  C6  UNL     1     -34.391  17.866  -4.298  1.00 20.00     0.173 C 
BRANCH   5   6
HETATM    6  O9  UNL     1     -35.766  18.178  -4.098  1.00 20.00    -0.396 OA
HETATM    7  C5  UNL     1     -36.578  17.616  -5.118  1.00 20.00     0.201 C 
ENDBRANCH   5   6
ENDBRANCH   1   5
BRANCH   1   8
HETATM    8  C8  UNL     1     -33.038  17.553  -2.166  1.00 20.00     0.084 C 
HETATM    9  C4  UNL     1     -32.647  18.981  -2.533  1.00 20.00     0.027 C 
HETATM   10 CL10 UNL     1     -33.788  17.550  -0.538  1.00 20.00    -0.125 Cl
ENDBRANCH   1   8
TORSDOF 4
ENDMDL
MODEL 7
REMARK VINA RESULT:      -3.1      9.629     10.712
REMARK  4 active torsions:
REMARK  status: ('A' for Active; 'I' for Inactive)
REMARK    1  A    between atoms: C3_3  and  C7_7 
REMARK    2  A    between atoms: C6_6  and  C7_7 
REMARK    3  A    between atoms: C6_6  and  O9_9 
REMARK    4  A    between atoms: C7_7  and  C8_8 
ROOT
HETATM    1  C7  UNL     1     -33.295   7.461   3.578  1.00 20.00     0.032 C 
ENDROOT
BRANCH   1   2
HETATM    2  C3  UNL     1     -32.943   5.997   3.732  1.00 20.00    -0.007 A 
HETATM    3  C1  UNL     1     -34.003   4.942   3.564  1.00 20.00     0.005 A 
HETATM    4  C2  UNL     1     -32.921   5.092   2.530  1.00 20.00     0.005 A 
ENDBRANCH   1   2
BRANCH   1   5
HETATM    5  C6  UNL     1     -32.248   8.175   2.705  1.00 20.00     0.173 C 
BRANCH   5   6
HETATM    6  O9  UNL     1     -32.853   9.286   2.051  1.00 20.00    -0.396 OA
HETATM    7  C5  UNL     1     -32.672   9.222   0.645  1.00 20.00     0.201 C 
ENDBRANCH   5   6
ENDBRANCH   1   5
BRANCH   1   8
HETATM    8  C8  UNL     1     -33.487   8.197   4.927  1.00 20.00     0.084 C 
HETATM    9  C4  UNL     1     -33.736   7.259   6.104  1.00 20.00     0.027 C 
HETATM   10 CL10 UNL     1     -32.109   9.275   5.317  1.00 20.00    -0.125 Cl
ENDBRANCH   1   8
TORSDOF 4
ENDMDL
MODEL 8
REMARK VINA RESULT:      -3.1      9.474     10.791
REMARK  4 active torsions:
REMARK  status: ('A' for Active; 'I' for Inactive)
REMARK    1  A    between atoms: C3_3  and  C7_7 
REMARK    2  A    between atoms: C6_6  and  C7_7 
REMARK    3  A    between atoms: C6_6  and  O9_9 
REMARK    4  A    between atoms: C7_7  and  C8_8 
ROOT
HETATM    1  C7  UNL     1     -33.598   6.916   3.930  1.00 20.00     0.032 C 
ENDROOT
BRANCH   1   2
HETATM    2  C3  UNL     1     -33.003   7.611   5.137  1.00 20.00    -0.007 A 
HETATM    3  C1  UNL     1     -32.424   8.993   5.006  1.00 20.00     0.005 A 
HETATM    4  C2  UNL     1     -33.708   8.784   5.760  1.00 20.00     0.005 A 
ENDBRANCH   1   2
BRANCH   1   5
HETATM    5  C6  UNL     1     -34.564   5.804   4.374  1.00 20.00     0.173 C 
BRANCH   5   6
HETATM    6  O9  UNL     1     -34.019   5.122   5.499  1.00 20.00    -0.396 OA
HETATM    7  C5  UNL     1     -34.823   5.302   6.654  1.00 20.00     0.201 C 
ENDBRANCH   5   6
ENDBRANCH   1   5
BRANCH   1   8
HETATM    8  C8  UNL     1     -32.536   6.368   2.945  1.00 20.00     0.084 C 
HETATM    9  C4  UNL     1     -32.933   5.049   2.290  1.00 20.00     0.027 C 
HETATM   10 CL10 UNL     1     -32.114   7.554   1.670  1.00 20.00    -0.125 Cl
ENDBRANCH   1   8
TORSDOF 4
ENDMDL
MODEL 9
REMARK VINA RESULT:      -3.1      9.463     10.568
REMARK  4 active torsions:
REMARK  status: ('A' for Active; 'I' for Inactive)
REMARK    1  A    between atoms: C3_3  and  C7_7 
REMARK    2  A    between atoms: C6_6  and  C7_7 
REMARK    3  A    between atoms: C6_6  and  O9_9 
REMARK    4  A    between atoms: C7_7  and  C8_8 
ROOT
HETATM    1  C7  UNL     1     -32.978   6.953   4.336  1.00 20.00     0.032 C 
ENDROOT
BRANCH   1   2
HETATM    2  C3  UNL     1     -33.563   6.110   3.222  1.00 20.00    -0.007 A 
HETATM    3  C1  UNL     1     -32.728   5.050   2.556  1.00 20.00     0.005 A 
HETATM    4  C2  UNL     1     -33.869   4.656   3.452  1.00 20.00     0.005 A 
ENDBRANCH   1   2
BRANCH   1   5
HETATM    5  C6  UNL     1     -34.087   7.414   5.297  1.00 20.00     0.173 C 
BRANCH   5   6
HETATM    6  O9  UNL     1     -33.935   6.754   6.550  1.00 20.00    -0.396 OA
HETATM    7  C5  UNL     1     -34.664   5.537   6.586  1.00 20.00     0.201 C 
ENDBRANCH   5   6
ENDBRANCH   1   5
BRANCH   1   8
HETATM    8  C8  UNL     1     -32.146   8.157   3.830  1.00 20.00     0.084 C 
HETATM    9  C4  UNL     1     -32.659   8.747   2.520  1.00 20.00     0.027 C 
HETATM   10 CL10 UNL     1     -32.023   9.461   5.053  1.00 20.00    -0.125 Cl
ENDBRANCH   1   8
TORSDOF 4
ENDMDL
