MODEL 1
REMARK VINA RESULT:      -3.8      0.000      0.000
REMARK  3 active torsions:
REMARK  status: ('A' for Active; 'I' for Inactive)
REMARK    1  A    between atoms: C3_3  and  C8_8 
REMARK    2  A    between atoms: C8_8  and  C9_9 
REMARK    3  A    between atoms: C8_8  and  O10_10 
ROOT
HETATM    1  C8  UNL     1     -33.148   6.335   4.258  1.00 20.00     0.133 C 
ENDROOT
BRANCH   1   2
HETATM    2  C3  UNL     1     -34.383   6.073   5.116  1.00 20.00    -0.017 A 
HETATM    3  C1  UNL     1     -34.425   6.675   6.502  1.00 20.00     0.012 A 
HETATM    4  C2  UNL     1     -34.226   5.197   6.336  1.00 20.00     0.012 A 
HETATM    5  C4  UNL     1     -35.672   5.985   4.346  1.00 20.00     0.018 C 
ENDBRANCH   1   2
BRANCH   1   6
HETATM    6  C9  UNL     1     -32.902   7.824   3.868  1.00 20.00    -0.025 C 
HETATM    7  C5  UNL     1     -31.970   8.502   4.888  1.00 20.00     0.017 C 
HETATM    8  C6  UNL     1     -32.221   7.876   2.483  1.00 20.00     0.017 C 
HETATM    9  C7  UNL     1     -34.211   8.629   3.782  1.00 20.00     0.017 C 
ENDBRANCH   1   6
BRANCH   1  10
HETATM   10  O10 UNL     1     -33.240   5.515   3.091  1.00 20.00    -0.394 OA
HETATM   11  H28 UNL     1     -33.359   6.120   2.344  1.00 20.00     0.210 HD
ENDBRANCH   1  10
TORSDOF 3
ENDMDL
MODEL 2
REMARK VINA RESULT:      -3.8      1.551      3.732
REMARK  3 active torsions:
REMARK  status: ('A' for Active; 'I' for Inactive)
REMARK    1  A    between atoms: C3_3  and  C8_8 
REMARK    2  A    between atoms: C8_8  and  C9_9 
REMARK    3  A    between atoms: C8_8  and  O10_10 
ROOT
HETATM    1  C8  UNL     1     -33.350   6.825   5.065  1.00 20.00     0.133 C 
ENDROOT
BRANCH   1   2
HETATM    2  C3  UNL     1     -32.749   7.124   3.694  1.00 20.00    -0.017 A 
HETATM    3  C1  UNL     1     -31.550   8.041   3.630  1.00 20.00     0.012 A 
HETATM    4  C2  UNL     1     -32.888   8.526   3.150  1.00 20.00     0.012 A 
HETATM    5  C4  UNL     1     -32.815   5.980   2.719  1.00 20.00     0.018 C 
ENDBRANCH   1   2
BRANCH   1   6
HETATM    6  C9  UNL     1     -34.447   5.718   5.093  1.00 20.00    -0.025 C 
HETATM    7  C5  UNL     1     -33.899   4.401   4.513  1.00 20.00     0.017 C 
HETATM    8  C6  UNL     1     -34.869   5.463   6.556  1.00 20.00     0.017 C 
HETATM    9  C7  UNL     1     -35.704   6.121   4.301  1.00 20.00     0.017 C 
ENDBRANCH   1   6
BRANCH   1  10
HETATM   10  O10 UNL     1     -33.855   8.049   5.602  1.00 20.00    -0.394 OA
HETATM   11  H28 UNL     1     -34.805   8.057   5.414  1.00 20.00     0.210 HD
ENDBRANCH   1  10
TORSDOF 3
ENDMDL
MODEL 3
REMARK VINA RESULT:      -3.7      0.039      1.367
REMARK  3 active torsions:
REMARK  status: ('A' for Active; 'I' for Inactive)
REMARK    1  A    between atoms: C3_3  and  C8_8 
REMARK    2  A    between atoms: C8_8  and  C9_9 
REMARK    3  A    between atoms: C8_8  and  O10_10 
ROOT
HETATM    1  C8  UNL     1     -33.154   6.301   4.243  1.00 20.00     0.133 C 
ENDROOT
BRANCH   1   2
HETATM    2  C3  UNL     1     -34.391   6.054   5.104  1.00 20.00    -0.017 A 
HETATM    3  C1  UNL     1     -34.420   6.651   6.492  1.00 20.00     0.012 A 
HETATM    4  C2  UNL     1     -34.244   5.169   6.319  1.00 20.00     0.012 A 
HETATM    5  C4  UNL     1     -35.684   5.990   4.337  1.00 20.00     0.018 C 
ENDBRANCH   1   2
BRANCH   1   6
HETATM    6  C9  UNL     1     -32.883   7.787   3.863  1.00 20.00    -0.025 C 
HETATM    7  C5  UNL     1     -32.217   7.878   2.478  1.00 20.00     0.017 C 
HETATM    8  C6  UNL     1     -34.226   8.546   3.804  1.00 20.00     0.017 C 
HETATM    9  C7  UNL     1     -31.982   8.497   4.891  1.00 20.00     0.017 C 
ENDBRANCH   1   6
BRANCH   1  10
HETATM   10  O10 UNL     1     -33.265   5.492   3.070  1.00 20.00    -0.394 OA
HETATM   11  H28 UNL     1     -32.707   5.910   2.398  1.00 20.00     0.210 HD
ENDBRANCH   1  10
TORSDOF 3
ENDMDL
MODEL 4
REMARK VINA RESULT:      -3.7      1.550      3.711
REMARK  3 active torsions:
REMARK  status: ('A' for Active; 'I' for Inactive)
REMARK    1  A    between atoms: C3_3  and  C8_8 
REMARK    2  A    between atoms: C8_8  and  C9_9 
REMARK    3  A    between atoms: C8_8  and  O10_10 
ROOT
HETATM    1  C8  UNL     1     -33.364   6.847   5.063  1.00 20.00     0.133 C 
ENDROOT
BRANCH   1   2
HETATM    2  C3  UNL     1     -32.756   7.125   3.689  1.00 20.00    -0.017 A 
HETATM    3  C1  UNL     1     -31.550   8.033   3.617  1.00 20.00     0.012 A 
HETATM    4  C2  UNL     1     -32.883   8.521   3.127  1.00 20.00     0.012 A 
HETATM    5  C4  UNL     1     -32.827   5.969   2.729  1.00 20.00     0.018 C 
ENDBRANCH   1   2
BRANCH   1   6
HETATM    6  C9  UNL     1     -34.428   5.711   5.111  1.00 20.00    -0.025 C 
HETATM    7  C5  UNL     1     -34.863   5.440   6.563  1.00 20.00     0.017 C 
HETATM    8  C6  UNL     1     -35.672   6.150   4.308  1.00 20.00     0.017 C 
HETATM    9  C7  UNL     1     -33.909   4.397   4.498  1.00 20.00     0.017 C 
ENDBRANCH   1   6
BRANCH   1  10
HETATM   10  O10 UNL     1     -33.909   8.072   5.559  1.00 20.00    -0.394 OA
HETATM   11  H28 UNL     1     -34.179   8.583   4.782  1.00 20.00     0.210 HD
ENDBRANCH   1  10
TORSDOF 3
ENDMDL
MODEL 5
REMARK VINA RESULT:      -3.5      1.629      2.518
REMARK  3 active torsions:
REMARK  status: ('A' for Active; 'I' for Inactive)
REMARK    1  A    between atoms: C3_3  and  C8_8 
REMARK    2  A    between atoms: C8_8  and  C9_9 
REMARK    3  A    between atoms: C8_8  and  O10_10 
ROOT
HETATM    1  C8  UNL     1     -34.080   7.929   4.550  1.00 20.00     0.133 C 
ENDROOT
BRANCH   1   2
HETATM    2  C3  UNL     1     -34.252   6.495   5.046  1.00 20.00    -0.017 A 
HETATM    3  C1  UNL     1     -34.139   5.376   4.037  1.00 20.00     0.012 A 
HETATM    4  C2  UNL     1     -35.481   5.735   4.607  1.00 20.00     0.012 A 
HETATM    5  C4  UNL     1     -33.728   6.247   6.435  1.00 20.00     0.018 C 
ENDBRANCH   1   2
BRANCH   1   6
HETATM    6  C9  UNL     1     -32.745   8.229   3.805  1.00 20.00    -0.025 C 
HETATM    7  C5  UNL     1     -32.955   9.317   2.736  1.00 20.00     0.017 C 
HETATM    8  C6  UNL     1     -31.706   8.746   4.822  1.00 20.00     0.017 C 
HETATM    9  C7  UNL     1     -32.161   6.976   3.126  1.00 20.00     0.017 C 
ENDBRANCH   1   6
BRANCH   1  10
HETATM   10  O10 UNL     1     -34.244   8.805   5.667  1.00 20.00    -0.394 OA
HETATM   11  H28 UNL     1     -35.034   8.500   6.137  1.00 20.00     0.210 HD
ENDBRANCH   1  10
TORSDOF 3
ENDMDL
MODEL 6
REMARK VINA RESULT:      -3.4      9.933     11.156
REMARK  3 active torsions:
REMARK  status: ('A' for Active; 'I' for Inactive)
REMARK    1  A    between atoms: C3_3  and  C8_8 
REMARK    2  A    between atoms: C8_8  and  C9_9 
REMARK    3  A    between atoms: C8_8  and  O10_10 
ROOT
HETATM    1  C8  UNL     1     -40.405  14.056   7.122  1.00 20.00     0.133 C 
ENDROOT
BRANCH   1   2
HETATM    2  C3  UNL     1     -41.264  15.081   7.860  1.00 20.00    -0.017 A 
HETATM    3  C1  UNL     1     -41.905  16.184   7.050  1.00 20.00     0.012 A 
HETATM    4  C2  UNL     1     -40.750  16.499   7.957  1.00 20.00     0.012 A 
HETATM    5  C4  UNL     1     -42.031  14.528   9.030  1.00 20.00     0.018 C 
ENDBRANCH   1   2
BRANCH   1   6
HETATM    6  C9  UNL     1     -41.175  13.094   6.169  1.00 20.00    -0.025 C 
HETATM    7  C5  UNL     1     -41.600  13.831   4.886  1.00 20.00     0.017 C 
HETATM    8  C6  UNL     1     -40.244  11.928   5.771  1.00 20.00     0.017 C 
HETATM    9  C7  UNL     1     -42.428  12.494   6.833  1.00 20.00     0.017 C 
ENDBRANCH   1   6
BRANCH   1  10
HETATM   10  O10 UNL     1     -39.665  13.318   8.097  1.00 20.00    -0.394 OA
HETATM   11  H28 UNL     1     -40.020  12.417   8.081  1.00 20.00     0.210 HD
ENDBRANCH   1  10
TORSDOF 3
ENDMDL
MODEL 7
REMARK VINA RESULT:      -3.4     15.268     16.587
REMARK  3 active torsions:
REMARK  status: ('A' for Active; 'I' for Inactive)
REMARK    1  A    between atoms: C3_3  and  C8_8 
REMARK    2  A    between atoms: C8_8  and  C9_9 
REMARK    3  A    between atoms: C8_8  and  O10_10 
ROOT
HETATM    1  C8  UNL     1     -23.871  17.484  10.132  1.00 20.00     0.133 C 
ENDROOT
BRANCH   1   2
HETATM    2  C3  UNL     1     -22.613  18.206   9.653  1.00 20.00    -0.017 A 
HETATM    3  C1  UNL     1     -22.762  19.246   8.567  1.00 20.00     0.012 A 
HETATM    4  C2  UNL     1     -22.124  17.924   8.252  1.00 20.00     0.012 A 
HETATM    5  C4  UNL     1     -21.584  18.447  10.724  1.00 20.00     0.018 C 
ENDBRANCH   1   2
BRANCH   1   6
HETATM    6  C9  UNL     1     -24.580  18.114  11.368  1.00 20.00    -0.025 C 
HETATM    7  C5  UNL     1     -25.617  19.160  10.919  1.00 20.00     0.017 C 
HETATM    8  C6  UNL     1     -25.319  17.004  12.146  1.00 20.00     0.017 C 
HETATM    9  C7  UNL     1     -23.585  18.787  12.332  1.00 20.00     0.017 C 
ENDBRANCH   1   6
BRANCH   1  10
HETATM   10  O10 UNL     1     -23.526  16.121  10.388  1.00 20.00    -0.394 OA
HETATM   11  H28 UNL     1     -24.205  15.777  10.987  1.00 20.00     0.210 HD
ENDBRANCH   1  10
TORSDOF 3
ENDMDL
MODEL 8
REMARK VINA RESULT:      -3.4      9.346     10.587
REMARK  3 active torsions:
REMARK  status: ('A' for Active; 'I' for Inactive)
REMARK    1  A    between atoms: C3_3  and  C8_8 
REMARK    2  A    between atoms: C8_8  and  C9_9 
REMARK    3  A    between atoms: C8_8  and  O10_10 
ROOT
HETATM    1  C8  UNL     1     -40.572  13.483   7.167  1.00 20.00     0.133 C 
ENDROOT
BRANCH   1   2
HETATM    2  C3  UNL     1     -40.252  12.842   5.818  1.00 20.00    -0.017 A 
HETATM    3  C1  UNL     1     -39.951  11.361   5.791  1.00 20.00     0.012 A 
HETATM    4  C2  UNL     1     -38.842  12.353   5.583  1.00 20.00     0.012 A 
HETATM    5  C4  UNL     1     -40.998  13.432   4.653  1.00 20.00     0.018 C 
ENDBRANCH   1   2
BRANCH   1   6
HETATM    6  C9  UNL     1     -42.087  13.635   7.499  1.00 20.00    -0.025 C 
HETATM    7  C5  UNL     1     -42.847  12.341   7.156  1.00 20.00     0.017 C 
HETATM    8  C6  UNL     1     -42.248  13.903   9.011  1.00 20.00     0.017 C 
HETATM    9  C7  UNL     1     -42.737  14.805   6.739  1.00 20.00     0.017 C 
ENDBRANCH   1   6
BRANCH   1  10
HETATM   10  O10 UNL     1     -39.914  14.751   7.220  1.00 20.00    -0.394 OA
HETATM   11  H28 UNL     1     -40.375  15.322   6.589  1.00 20.00     0.210 HD
ENDBRANCH   1  10
TORSDOF 3
ENDMDL
MODEL 9
REMARK VINA RESULT:      -3.3     12.077     13.727
REMARK  3 active torsions:
REMARK  status: ('A' for Active; 'I' for Inactive)
REMARK    1  A    between atoms: C3_3  and  C8_8 
REMARK    2  A    between atoms: C8_8  and  C9_9 
REMARK    3  A    between atoms: C8_8  and  O10_10 
ROOT
HETATM    1  C8  UNL     1     -33.980  15.831  -6.187  1.00 20.00     0.133 C 
ENDROOT
BRANCH   1   2
HETATM    2  C3  UNL     1     -34.021  15.161  -4.815  1.00 20.00    -0.017 A 
HETATM    3  C1  UNL     1     -33.683  16.000  -3.605  1.00 20.00     0.012 A 
HETATM    4  C2  UNL     1     -32.713  14.960  -4.086  1.00 20.00     0.012 A 
HETATM    5  C4  UNL     1     -35.080  14.103  -4.668  1.00 20.00     0.018 C 
ENDBRANCH   1   2
BRANCH   1   6
HETATM    6  C9  UNL     1     -35.345  16.367  -6.715  1.00 20.00    -0.025 C 
HETATM    7  C5  UNL     1     -35.145  17.680  -7.493  1.00 20.00     0.017 C 
HETATM    8  C6  UNL     1     -35.957  15.325  -7.677  1.00 20.00     0.017 C 
HETATM    9  C7  UNL     1     -36.355  16.614  -5.579  1.00 20.00     0.017 C 
ENDBRANCH   1   6
BRANCH   1  10
HETATM   10  O10 UNL     1     -33.407  14.906  -7.113  1.00 20.00    -0.394 OA
HETATM   11  H28 UNL     1     -33.583  15.263  -7.996  1.00 20.00     0.210 HD
ENDBRANCH   1  10
TORSDOF 3
ENDMDL
