MODEL 1
REMARK VINA RESULT:      -4.8      0.000      0.000
REMARK  3 active torsions:
REMARK  status: ('A' for Active; 'I' for Inactive)
REMARK    1  A    between atoms: C1_1  and  C6_6 
REMARK    2  A    between atoms: C2_2  and  C8_8 
REMARK    3  A    between atoms: C2_2  and  C9_9 
ROOT
HETATM    1  C1  UNL     1     -33.651   8.054   4.421  1.00 20.00    -0.018 C 
HETATM    2  C2  UNL     1     -32.864   8.228   3.342  1.00 20.00    -0.070 C 
ENDROOT
BRANCH   1   3
HETATM    3  C6  UNL     1     -33.665   6.807   5.206  1.00 20.00     0.008 C 
HETATM    4  C4  UNL     1     -34.166   6.939   6.667  1.00 20.00     0.008 C 
HETATM    5  C3  UNL     1     -34.845   5.566   6.478  1.00 20.00     0.001 C 
HETATM    6  C5  UNL     1     -34.881   5.878   4.968  1.00 20.00     0.008 C 
ENDBRANCH   1   3
BRANCH   2   7
HETATM    7  C8  UNL     1     -31.946   7.105   2.899  1.00 20.00     0.030 C 
HETATM    8  C7  UNL     1     -32.712   5.895   2.383  1.00 20.00     0.010 C 
ENDBRANCH   2   7
BRANCH   2   9
HETATM    9  C9  UNL     1     -32.821   9.491   2.522  1.00 20.00     0.148 C 
HETATM   10 CL10 UNL     1     -32.578   9.107   0.801  1.00 20.00    -0.126 Cl
ENDBRANCH   2   9
TORSDOF 3
ENDMDL
MODEL 2
REMARK VINA RESULT:      -4.5      1.054      2.066
REMARK  3 active torsions:
REMARK  status: ('A' for Active; 'I' for Inactive)
REMARK    1  A    between atoms: C1_1  and  C6_6 
REMARK    2  A    between atoms: C2_2  and  C8_8 
REMARK    3  A    between atoms: C2_2  and  C9_9 
ROOT
HETATM    1  C1  UNL     1     -33.382   6.426   3.638  1.00 20.00    -0.018 C 
HETATM    2  C2  UNL     1     -32.789   7.550   3.193  1.00 20.00    -0.070 C 
ENDROOT
BRANCH   1   3
HETATM    3  C6  UNL     1     -34.314   6.414   4.779  1.00 20.00     0.008 C 
HETATM    4  C4  UNL     1     -34.895   5.028   5.158  1.00 20.00     0.008 C 
HETATM    5  C3  UNL     1     -34.783   5.468   6.633  1.00 20.00     0.001 C 
HETATM    6  C5  UNL     1     -33.658   6.422   6.183  1.00 20.00     0.008 C 
ENDBRANCH   1   3
BRANCH   2   7
HETATM    7  C8  UNL     1     -33.078   8.870   3.880  1.00 20.00     0.030 C 
HETATM    8  C7  UNL     1     -32.025   9.230   4.919  1.00 20.00     0.010 C 
ENDBRANCH   2   7
BRANCH   2   9
HETATM    9  C9  UNL     1     -31.836   7.598   2.026  1.00 20.00     0.148 C 
HETATM   10 CL10 UNL     1     -32.409   8.753   0.801  1.00 20.00    -0.126 Cl
ENDBRANCH   2   9
TORSDOF 3
ENDMDL
MODEL 3
REMARK VINA RESULT:      -4.4      1.211      1.853
REMARK  3 active torsions:
REMARK  status: ('A' for Active; 'I' for Inactive)
REMARK    1  A    between atoms: C1_1  and  C6_6 
REMARK    2  A    between atoms: C2_2  and  C8_8 
REMARK    3  A    between atoms: C2_2  and  C9_9 
ROOT
HETATM    1  C1  UNL     1     -33.257   6.454   3.160  1.00 20.00    -0.018 C 
HETATM    2  C2  UNL     1     -32.389   7.448   2.893  1.00 20.00    -0.070 C 
ENDROOT
BRANCH   1   3
HETATM    3  C6  UNL     1     -33.471   5.926   4.519  1.00 20.00     0.008 C 
HETATM    4  C4  UNL     1     -34.613   6.594   5.328  1.00 20.00     0.008 C 
HETATM    5  C3  UNL     1     -34.931   5.193   5.891  1.00 20.00     0.001 C 
HETATM    6  C5  UNL     1     -34.294   4.617   4.609  1.00 20.00     0.008 C 
ENDBRANCH   1   3
BRANCH   2   7
HETATM    7  C8  UNL     1     -31.587   8.064   4.023  1.00 20.00     0.030 C 
HETATM    8  C7  UNL     1     -32.355   9.154   4.757  1.00 20.00     0.010 C 
ENDBRANCH   2   7
BRANCH   2   9
HETATM    9  C9  UNL     1     -32.151   8.015   1.517  1.00 20.00     0.148 C 
HETATM   10 CL10 UNL     1     -32.918   9.613   1.360  1.00 20.00    -0.126 Cl
ENDBRANCH   2   9
TORSDOF 3
ENDMDL
MODEL 4
REMARK VINA RESULT:      -4.3     11.267     12.227
REMARK  3 active torsions:
REMARK  status: ('A' for Active; 'I' for Inactive)
REMARK    1  A    between atoms: C1_1  and  C6_6 
REMARK    2  A    between atoms: C2_2  and  C8_8 
REMARK    3  A    between atoms: C2_2  and  C9_9 
ROOT
HETATM    1  C1  UNL     1     -33.292  16.589  -2.323  1.00 20.00    -0.018 C 
HETATM    2  C2  UNL     1     -33.543  16.434  -3.637  1.00 20.00    -0.070 C 
ENDROOT
BRANCH   1   3
HETATM    3  C6  UNL     1     -33.485  17.870  -1.620  1.00 20.00     0.008 C 
HETATM    4  C4  UNL     1     -33.862  17.763  -0.121  1.00 20.00     0.008 C 
HETATM    5  C3  UNL     1     -32.965  18.997   0.115  1.00 20.00     0.001 C 
HETATM    6  C5  UNL     1     -32.190  18.579  -1.151  1.00 20.00     0.008 C 
ENDBRANCH   1   3
BRANCH   2   7
HETATM    7  C8  UNL     1     -34.043  17.614  -4.447  1.00 20.00     0.030 C 
HETATM    8  C7  UNL     1     -35.548  17.574  -4.669  1.00 20.00     0.010 C 
ENDBRANCH   2   7
BRANCH   2   9
HETATM    9  C9  UNL     1     -33.362  15.138  -4.385  1.00 20.00     0.148 C 
HETATM   10 CL10 UNL     1     -34.785  14.091  -4.168  1.00 20.00    -0.126 Cl
ENDBRANCH   2   9
TORSDOF 3
ENDMDL
MODEL 5
REMARK VINA RESULT:      -4.2     11.524     12.242
REMARK  3 active torsions:
REMARK  status: ('A' for Active; 'I' for Inactive)
REMARK    1  A    between atoms: C1_1  and  C6_6 
REMARK    2  A    between atoms: C2_2  and  C8_8 
REMARK    3  A    between atoms: C2_2  and  C9_9 
ROOT
HETATM    1  C1  UNL     1     -33.769  17.915  -2.738  1.00 20.00    -0.018 C 
HETATM    2  C2  UNL     1     -33.843  17.033  -3.753  1.00 20.00    -0.070 C 
ENDROOT
BRANCH   1   3
HETATM    3  C6  UNL     1     -33.090  17.613  -1.467  1.00 20.00     0.008 C 
HETATM    4  C4  UNL     1     -31.976  18.606  -1.047  1.00 20.00     0.008 C 
HETATM    5  C3  UNL     1     -32.462  18.421   0.406  1.00 20.00     0.001 C 
HETATM    6  C5  UNL     1     -33.839  18.051  -0.184  1.00 20.00     0.008 C 
ENDBRANCH   1   3
BRANCH   2   7
HETATM    7  C8  UNL     1     -33.209  15.664  -3.601  1.00 20.00     0.030 C 
HETATM    8  C7  UNL     1     -33.977  14.578  -4.341  1.00 20.00     0.010 C 
ENDBRANCH   2   7
BRANCH   2   9
HETATM    9  C9  UNL     1     -34.525  17.312  -5.068  1.00 20.00     0.148 C 
HETATM   10 CL10 UNL     1     -36.287  17.424  -4.844  1.00 20.00    -0.126 Cl
ENDBRANCH   2   9
TORSDOF 3
ENDMDL
MODEL 6
REMARK VINA RESULT:      -4.0      9.567     10.609
REMARK  3 active torsions:
REMARK  status: ('A' for Active; 'I' for Inactive)
REMARK    1  A    between atoms: C1_1  and  C6_6 
REMARK    2  A    between atoms: C2_2  and  C8_8 
REMARK    3  A    between atoms: C2_2  and  C9_9 
ROOT
HETATM    1  C1  UNL     1     -40.387  13.482   6.878  1.00 20.00    -0.018 C 
HETATM    2  C2  UNL     1     -41.639  13.822   7.239  1.00 20.00    -0.070 C 
ENDROOT
BRANCH   1   3
HETATM    3  C6  UNL     1     -40.092  12.327   6.012  1.00 20.00     0.008 C 
HETATM    4  C4  UNL     1     -40.173  12.592   4.487  1.00 20.00     0.008 C 
HETATM    5  C3  UNL     1     -38.956  11.654   4.336  1.00 20.00     0.001 C 
HETATM    6  C5  UNL     1     -38.590  12.022   5.789  1.00 20.00     0.008 C 
ENDBRANCH   1   3
BRANCH   2   7
HETATM    7  C8  UNL     1     -42.809  12.992   6.747  1.00 20.00     0.030 C 
HETATM    8  C7  UNL     1     -43.417  12.131   7.845  1.00 20.00     0.010 C 
ENDBRANCH   2   7
BRANCH   2   9
HETATM    9  C9  UNL     1     -41.976  14.999   8.118  1.00 20.00     0.148 C 
HETATM   10 CL10 UNL     1     -40.500  15.892   8.555  1.00 20.00    -0.126 Cl
ENDBRANCH   2   9
TORSDOF 3
ENDMDL
MODEL 7
REMARK VINA RESULT:      -3.9      9.892     10.962
REMARK  3 active torsions:
REMARK  status: ('A' for Active; 'I' for Inactive)
REMARK    1  A    between atoms: C1_1  and  C6_6 
REMARK    2  A    between atoms: C2_2  and  C8_8 
REMARK    3  A    between atoms: C2_2  and  C9_9 
ROOT
HETATM    1  C1  UNL     1     -41.379  13.117   6.645  1.00 20.00    -0.018 C 
HETATM    2  C2  UNL     1     -41.594  13.801   7.785  1.00 20.00    -0.070 C 
ENDROOT
BRANCH   1   3
HETATM    3  C6  UNL     1     -40.069  13.080   5.972  1.00 20.00     0.008 C 
HETATM    4  C4  UNL     1     -39.175  11.859   6.309  1.00 20.00     0.008 C 
HETATM    5  C3  UNL     1     -38.733  11.869   4.830  1.00 20.00     0.001 C 
HETATM    6  C5  UNL     1     -40.077  12.558   4.513  1.00 20.00     0.008 C 
ENDBRANCH   1   3
BRANCH   2   7
HETATM    7  C8  UNL     1     -40.453  14.573   8.419  1.00 20.00     0.030 C 
HETATM    8  C7  UNL     1     -40.555  16.072   8.173  1.00 20.00     0.010 C 
ENDBRANCH   2   7
BRANCH   2   9
HETATM    9  C9  UNL     1     -42.919  13.856   8.500  1.00 20.00     0.148 C 
HETATM   10 CL10 UNL     1     -42.710  13.478  10.227  1.00 20.00    -0.126 Cl
ENDBRANCH   2   9
TORSDOF 3
ENDMDL
MODEL 8
REMARK VINA RESULT:      -3.9     11.213     12.511
REMARK  3 active torsions:
REMARK  status: ('A' for Active; 'I' for Inactive)
REMARK    1  A    between atoms: C1_1  and  C6_6 
REMARK    2  A    between atoms: C2_2  and  C8_8 
REMARK    3  A    between atoms: C2_2  and  C9_9 
ROOT
HETATM    1  C1  UNL     1     -33.974  17.641  -3.805  1.00 20.00    -0.018 C 
HETATM    2  C2  UNL     1     -34.163  16.654  -4.701  1.00 20.00    -0.070 C 
ENDROOT
BRANCH   1   3
HETATM    3  C6  UNL     1     -33.070  17.507  -2.649  1.00 20.00     0.008 C 
HETATM    4  C4  UNL     1     -32.531  18.835  -2.060  1.00 20.00     0.008 C 
HETATM    5  C3  UNL     1     -32.668  18.185  -0.667  1.00 20.00     0.001 C 
HETATM    6  C5  UNL     1     -33.758  17.282  -1.280  1.00 20.00     0.008 C 
ENDBRANCH   1   3
BRANCH   2   7
HETATM    7  C8  UNL     1     -33.425  15.340  -4.532  1.00 20.00     0.030 C 
HETATM    8  C7  UNL     1     -34.341  14.209  -4.087  1.00 20.00     0.010 C 
ENDBRANCH   2   7
BRANCH   2   9
HETATM    9  C9  UNL     1     -35.075  16.760  -5.896  1.00 20.00     0.148 C 
HETATM   10 CL10 UNL     1     -34.281  16.103  -7.346  1.00 20.00    -0.126 Cl
ENDBRANCH   2   9
TORSDOF 3
ENDMDL
MODEL 9
REMARK VINA RESULT:      -3.8      9.805     10.674
REMARK  3 active torsions:
REMARK  status: ('A' for Active; 'I' for Inactive)
REMARK    1  A    between atoms: C1_1  and  C6_6 
REMARK    2  A    between atoms: C2_2  and  C8_8 
REMARK    3  A    between atoms: C2_2  and  C9_9 
ROOT
HETATM    1  C1  UNL     1     -40.192  13.614   7.038  1.00 20.00    -0.018 C 
HETATM    2  C2  UNL     1     -40.734  13.166   5.890  1.00 20.00    -0.070 C 
ENDROOT
BRANCH   1   3
HETATM    3  C6  UNL     1     -40.902  14.525   7.953  1.00 20.00     0.008 C 
HETATM    4  C4  UNL     1     -40.368  14.567   9.408  1.00 20.00     0.008 C 
HETATM    5  C3  UNL     1     -40.660  16.083   9.391  1.00 20.00     0.001 C 
HETATM    6  C5  UNL     1     -40.500  16.019   7.858  1.00 20.00     0.008 C 
ENDBRANCH   1   3
BRANCH   2   7
HETATM    7  C8  UNL     1     -42.132  13.608   5.501  1.00 20.00     0.030 C 
HETATM    8  C7  UNL     1     -42.145  14.465   4.243  1.00 20.00     0.010 C 
ENDBRANCH   2   7
BRANCH   2   9
HETATM    9  C9  UNL     1     -40.039  12.230   4.935  1.00 20.00     0.148 C 
HETATM   10 CL10 UNL     1     -38.325  12.049   5.378  1.00 20.00    -0.126 Cl
ENDBRANCH   2   9
TORSDOF 3
ENDMDL
