MODEL 1
REMARK VINA RESULT:      -4.1      0.000      0.000
REMARK  2 active torsions:
REMARK  status: ('A' for Active; 'I' for Inactive)
REMARK    1  A    between atoms: C1_1  and  C3_3 
REMARK       I    between atoms: C3_3  and  N7_7 
REMARK    2  A    between atoms: N7_7  and  O9_9 
ROOT
HETATM    1  C3  UNL     1     -32.715   8.043   4.415  1.00 20.00     0.266 C 
HETATM    2  C5  UNL     1     -34.007   7.015   6.287  1.00 20.00     0.189 C 
HETATM    3  N7  UNL     1     -33.533   7.056   4.915  1.00 20.00    -0.228 N 
HETATM    4  O8  UNL     1     -32.307   8.988   5.090  1.00 20.00    -0.266 OA
ENDROOT
BRANCH   1   5
HETATM    5  C1  UNL     1     -32.336   7.920   2.976  1.00 20.00     0.072 C 
HETATM    6  C2  UNL     1     -32.701   8.865   2.098  1.00 20.00    -0.025 C 
HETATM    7  C4  UNL     1     -32.358   8.812   0.644  1.00 20.00     0.036 C 
ENDBRANCH   1   5
BRANCH   3   8
HETATM    8  O9  UNL     1     -34.008   5.970   4.155  1.00 20.00    -0.281 OA
HETATM    9  C6  UNL     1     -34.649   5.043   5.027  1.00 20.00     0.238 C 
ENDBRANCH   3   8
TORSDOF 2
ENDMDL
MODEL 2
REMARK VINA RESULT:      -3.8     11.278     12.371
REMARK  2 active torsions:
REMARK  status: ('A' for Active; 'I' for Inactive)
REMARK    1  A    between atoms: C1_1  and  C3_3 
REMARK       I    between atoms: C3_3  and  N7_7 
REMARK    2  A    between atoms: N7_7  and  O9_9 
ROOT
HETATM    1  C3  UNL     1     -33.983  15.118  -4.292  1.00 20.00     0.266 C 
HETATM    2  C5  UNL     1     -35.719  14.697  -6.035  1.00 20.00     0.189 C 
HETATM    3  N7  UNL     1     -34.862  15.567  -5.249  1.00 20.00    -0.228 N 
HETATM    4  O8  UNL     1     -33.840  13.928  -4.012  1.00 20.00    -0.266 OA
ENDROOT
BRANCH   1   5
HETATM    5  C1  UNL     1     -33.188  16.164  -3.581  1.00 20.00     0.072 C 
HETATM    6  C2  UNL     1     -33.564  16.589  -2.367  1.00 20.00    -0.025 C 
HETATM    7  C4  UNL     1     -32.821  17.630  -1.594  1.00 20.00     0.036 C 
ENDBRANCH   1   5
BRANCH   3   8
HETATM    8  O9  UNL     1     -35.036  16.925  -5.580  1.00 20.00    -0.281 OA
HETATM    9  C6  UNL     1     -36.344  17.331  -5.187  1.00 20.00     0.238 C 
ENDBRANCH   3   8
TORSDOF 2
ENDMDL
MODEL 3
REMARK VINA RESULT:      -3.6     11.786     12.284
REMARK  2 active torsions:
REMARK  status: ('A' for Active; 'I' for Inactive)
REMARK    1  A    between atoms: C1_1  and  C3_3 
REMARK       I    between atoms: C3_3  and  N7_7 
REMARK    2  A    between atoms: N7_7  and  O9_9 
ROOT
HETATM    1  C3  UNL     1     -30.662  18.930   2.920  1.00 20.00     0.266 C 
HETATM    2  C5  UNL     1     -32.670  18.872   1.438  1.00 20.00     0.189 C 
HETATM    3  N7  UNL     1     -31.237  18.914   1.670  1.00 20.00    -0.228 N 
HETATM    4  O8  UNL     1     -31.315  18.908   3.963  1.00 20.00    -0.266 OA
ENDROOT
BRANCH   1   5
HETATM    5  C1  UNL     1     -29.170  18.980   2.960  1.00 20.00     0.072 C 
HETATM    6  C2  UNL     1     -28.516  18.709   4.099  1.00 20.00    -0.025 C 
HETATM    7  C4  UNL     1     -27.026  18.738   4.217  1.00 20.00     0.036 C 
ENDBRANCH   1   5
BRANCH   3   8
HETATM    8  O9  UNL     1     -30.503  18.939   0.468  1.00 20.00    -0.281 OA
HETATM    9  C6  UNL     1     -31.366  18.575  -0.606  1.00 20.00     0.238 C 
ENDBRANCH   3   8
TORSDOF 2
ENDMDL
MODEL 4
REMARK VINA RESULT:      -3.6      9.758     10.448
REMARK  2 active torsions:
REMARK  status: ('A' for Active; 'I' for Inactive)
REMARK    1  A    between atoms: C1_1  and  C3_3 
REMARK       I    between atoms: C3_3  and  N7_7 
REMARK    2  A    between atoms: N7_7  and  O9_9 
ROOT
HETATM    1  C3  UNL     1     -41.515  12.876   6.754  1.00 20.00     0.266 C 
HETATM    2  C5  UNL     1     -42.027  14.129   8.851  1.00 20.00     0.189 C 
HETATM    3  N7  UNL     1     -41.297  13.929   7.612  1.00 20.00    -0.228 N 
HETATM    4  O8  UNL     1     -42.355  12.000   6.960  1.00 20.00    -0.266 OA
ENDROOT
BRANCH   1   5
HETATM    5  C1  UNL     1     -40.662  12.834   5.529  1.00 20.00     0.072 C 
HETATM    6  C2  UNL     1     -39.817  11.813   5.329  1.00 20.00    -0.025 C 
HETATM    7  C4  UNL     1     -38.933  11.701   4.129  1.00 20.00     0.036 C 
ENDBRANCH   1   5
BRANCH   3   8
HETATM    8  O9  UNL     1     -40.340  14.938   7.389  1.00 20.00    -0.281 OA
HETATM    9  C6  UNL     1     -40.386  15.863   8.471  1.00 20.00     0.238 C 
ENDBRANCH   3   8
TORSDOF 2
ENDMDL
MODEL 5
REMARK VINA RESULT:      -3.5     11.366     12.237
REMARK  2 active torsions:
REMARK  status: ('A' for Active; 'I' for Inactive)
REMARK    1  A    between atoms: C1_1  and  C3_3 
REMARK       I    between atoms: C3_3  and  N7_7 
REMARK    2  A    between atoms: N7_7  and  O9_9 
ROOT
HETATM    1  C3  UNL     1     -34.044  17.657  -2.707  1.00 20.00     0.266 C 
HETATM    2  C5  UNL     1     -34.802  16.718  -4.891  1.00 20.00     0.189 C 
HETATM    3  N7  UNL     1     -33.931  16.744  -3.730  1.00 20.00    -0.228 N 
HETATM    4  O8  UNL     1     -34.900  18.542  -2.682  1.00 20.00    -0.266 OA
ENDROOT
BRANCH   1   5
HETATM    5  C1  UNL     1     -33.053  17.532  -1.597  1.00 20.00     0.072 C 
HETATM    6  C2  UNL     1     -32.246  18.558  -1.293  1.00 20.00    -0.025 C 
HETATM    7  C4  UNL     1     -31.231  18.508  -0.196  1.00 20.00     0.036 C 
ENDBRANCH   1   5
BRANCH   3   8
HETATM    8  O9  UNL     1     -32.957  15.728  -3.771  1.00 20.00    -0.281 OA
HETATM    9  C6  UNL     1     -33.514  14.582  -4.407  1.00 20.00     0.238 C 
ENDBRANCH   3   8
TORSDOF 2
ENDMDL
MODEL 6
REMARK VINA RESULT:      -3.4     10.953     11.942
REMARK  2 active torsions:
REMARK  status: ('A' for Active; 'I' for Inactive)
REMARK    1  A    between atoms: C1_1  and  C3_3 
REMARK       I    between atoms: C3_3  and  N7_7 
REMARK    2  A    between atoms: N7_7  and  O9_9 
ROOT
HETATM    1  C3  UNL     1     -33.819  16.505  -4.176  1.00 20.00     0.266 C 
HETATM    2  C5  UNL     1     -34.357  15.181  -6.222  1.00 20.00     0.189 C 
HETATM    3  N7  UNL     1     -34.153  15.321  -4.791  1.00 20.00    -0.228 N 
HETATM    4  O8  UNL     1     -33.662  17.563  -4.786  1.00 20.00    -0.266 OA
ENDROOT
BRANCH   1   5
HETATM    5  C1  UNL     1     -33.645  16.454  -2.694  1.00 20.00     0.072 C 
HETATM    6  C2  UNL     1     -33.803  17.561  -1.955  1.00 20.00    -0.025 C 
HETATM    7  C4  UNL     1     -33.647  17.588  -0.470  1.00 20.00     0.036 C 
ENDBRANCH   1   5
BRANCH   3   8
HETATM    8  O9  UNL     1     -34.336  14.105  -4.106  1.00 20.00    -0.281 OA
HETATM    9  C6  UNL     1     -35.609  13.567  -4.455  1.00 20.00     0.238 C 
ENDBRANCH   3   8
TORSDOF 2
ENDMDL
MODEL 7
REMARK VINA RESULT:      -3.3     10.080     10.593
REMARK  2 active torsions:
REMARK  status: ('A' for Active; 'I' for Inactive)
REMARK    1  A    between atoms: C1_1  and  C3_3 
REMARK       I    between atoms: C3_3  and  N7_7 
REMARK    2  A    between atoms: N7_7  and  O9_9 
ROOT
HETATM    1  C3  UNL     1     -40.803  13.447   6.871  1.00 20.00     0.266 C 
HETATM    2  C5  UNL     1     -42.420  14.829   8.177  1.00 20.00     0.189 C 
HETATM    3  N7  UNL     1     -41.941  14.216   6.951  1.00 20.00    -0.228 N 
HETATM    4  O8  UNL     1     -40.082  13.207   7.839  1.00 20.00    -0.266 OA
ENDROOT
BRANCH   1   5
HETATM    5  C1  UNL     1     -40.465  12.905   5.522  1.00 20.00     0.072 C 
HETATM    6  C2  UNL     1     -39.362  12.162   5.349  1.00 20.00    -0.025 C 
HETATM    7  C4  UNL     1     -38.959  11.585   4.031  1.00 20.00     0.036 C 
ENDBRANCH   1   5
BRANCH   3   8
HETATM    8  O9  UNL     1     -42.775  14.500   5.853  1.00 20.00    -0.281 OA
HETATM    9  C6  UNL     1     -42.727  15.899   5.587  1.00 20.00     0.238 C 
ENDBRANCH   3   8
TORSDOF 2
ENDMDL
MODEL 8
REMARK VINA RESULT:      -3.2      1.585      4.360
REMARK  2 active torsions:
REMARK  status: ('A' for Active; 'I' for Inactive)
REMARK    1  A    between atoms: C1_1  and  C3_3 
REMARK       I    between atoms: C3_3  and  N7_7 
REMARK    2  A    between atoms: N7_7  and  O9_9 
ROOT
HETATM    1  C3  UNL     1     -33.336   5.881   3.327  1.00 20.00     0.266 C 
HETATM    2  C5  UNL     1     -31.935   7.664   2.285  1.00 20.00     0.189 C 
HETATM    3  N7  UNL     1     -32.917   7.189   3.243  1.00 20.00    -0.228 N 
HETATM    4  O8  UNL     1     -32.914   4.988   2.593  1.00 20.00    -0.266 OA
ENDROOT
BRANCH   1   5
HETATM    5  C1  UNL     1     -34.359   5.581   4.373  1.00 20.00     0.072 C 
HETATM    6  C2  UNL     1     -34.027   5.612   5.672  1.00 20.00    -0.025 C 
HETATM    7  C4  UNL     1     -34.994   5.325   6.774  1.00 20.00     0.036 C 
ENDBRANCH   1   5
BRANCH   3   8
HETATM    8  O9  UNL     1     -33.391   8.220   4.076  1.00 20.00    -0.281 OA
HETATM    9  C6  UNL     1     -32.291   8.778   4.789  1.00 20.00     0.238 C 
ENDBRANCH   3   8
TORSDOF 2
ENDMDL
MODEL 9
REMARK VINA RESULT:      -3.2     11.461     12.104
REMARK  2 active torsions:
REMARK  status: ('A' for Active; 'I' for Inactive)
REMARK    1  A    between atoms: C1_1  and  C3_3 
REMARK       I    between atoms: C3_3  and  N7_7 
REMARK    2  A    between atoms: N7_7  and  O9_9 
ROOT
HETATM    1  C3  UNL     1     -33.945  18.097  -2.049  1.00 20.00     0.266 C 
HETATM    2  C5  UNL     1     -33.627  19.262   0.135  1.00 20.00     0.189 C 
HETATM    3  N7  UNL     1     -33.161  18.450  -0.975  1.00 20.00    -0.228 N 
HETATM    4  O8  UNL     1     -35.121  18.440  -2.169  1.00 20.00    -0.266 OA
ENDROOT
BRANCH   1   5
HETATM    5  C1  UNL     1     -33.293  17.252  -3.093  1.00 20.00     0.072 C 
HETATM    6  C2  UNL     1     -33.610  15.954  -3.207  1.00 20.00    -0.025 C 
HETATM    7  C4  UNL     1     -33.002  15.046  -4.226  1.00 20.00     0.036 C 
ENDBRANCH   1   5
BRANCH   3   8
HETATM    8  O9  UNL     1     -31.815  18.065  -0.825  1.00 20.00    -0.281 OA
HETATM    9  C6  UNL     1     -31.193  18.925   0.126  1.00 20.00     0.238 C 
ENDBRANCH   3   8
TORSDOF 2
ENDMDL
