MODEL 1
REMARK VINA RESULT:      -4.3      0.000      0.000
REMARK  6 active torsions:
REMARK  status: ('A' for Active; 'I' for Inactive)
REMARK    1  A    between atoms: C1_1  and  C6_6 
REMARK    2  A    between atoms: C1_1  and  C7_7 
REMARK    3  A    between atoms: C6_6  and  C8_8 
REMARK    4  A    between atoms: C7_7  and  C10_10 
REMARK    5  A    between atoms: C8_8  and  C9_9 
REMARK    6  A    between atoms: C9_9  and  C11_11 
ROOT
HETATM    1  C1  UNL     1     -32.732   8.779   4.837  1.00 20.00     0.127 C 
HETATM    2  O12 UNL     1     -31.722   9.414   5.127  1.00 20.00    -0.298 OA
ENDROOT
BRANCH   1   3
HETATM    3  C6  UNL     1     -33.680   8.234   5.895  1.00 20.00     0.078 C 
BRANCH   3   4
HETATM    4  C8  UNL     1     -33.383   6.780   6.258  1.00 20.00     0.008 C 
BRANCH   4   5
HETATM    5  C9  UNL     1     -34.674   5.994   6.498  1.00 20.00     0.004 C 
BRANCH   5   6
HETATM    6  C11 UNL     1     -35.100   5.128   5.298  1.00 20.00    -0.023 C 
HETATM    7  C4  UNL     1     -35.718   6.013   4.213  1.00 20.00     0.009 C 
HETATM    8  C5  UNL     1     -33.934   4.331   4.711  1.00 20.00     0.009 C 
ENDBRANCH   5   6
ENDBRANCH   4   5
ENDBRANCH   3   4
ENDBRANCH   1   3
BRANCH   1   9
HETATM    9  C7  UNL     1     -33.145   8.521   3.393  1.00 20.00     0.082 C 
BRANCH   9  10
HETATM   10  C10 UNL     1     -32.118   7.707   2.591  1.00 20.00    -0.016 C 
HETATM   11  C2  UNL     1     -32.036   8.234   1.158  1.00 20.00     0.010 C 
HETATM   12  C3  UNL     1     -32.475   6.219   2.574  1.00 20.00     0.010 C 
ENDBRANCH   9  10
ENDBRANCH   1   9
TORSDOF 6
ENDMDL
MODEL 2
REMARK VINA RESULT:      -4.1     11.873     12.934
REMARK  6 active torsions:
REMARK  status: ('A' for Active; 'I' for Inactive)
REMARK    1  A    between atoms: C1_1  and  C6_6 
REMARK    2  A    between atoms: C1_1  and  C7_7 
REMARK    3  A    between atoms: C6_6  and  C8_8 
REMARK    4  A    between atoms: C7_7  and  C10_10 
REMARK    5  A    between atoms: C8_8  and  C9_9 
REMARK    6  A    between atoms: C9_9  and  C11_11 
ROOT
HETATM    1  C1  UNL     1     -33.452  17.641  -3.330  1.00 20.00     0.127 C 
HETATM    2  O12 UNL     1     -33.983  18.020  -4.371  1.00 20.00    -0.298 OA
ENDROOT
BRANCH   1   3
HETATM    3  C6  UNL     1     -33.393  16.173  -2.938  1.00 20.00     0.078 C 
BRANCH   3   4
HETATM    4  C8  UNL     1     -33.189  15.252  -4.139  1.00 20.00     0.008 C 
BRANCH   4   5
HETATM    5  C9  UNL     1     -34.444  14.422  -4.421  1.00 20.00     0.004 C 
BRANCH   5   6
HETATM    6  C11 UNL     1     -35.103  14.744  -5.775  1.00 20.00    -0.023 C 
HETATM    7  C4  UNL     1     -36.315  15.653  -5.558  1.00 20.00     0.009 C 
HETATM    8  C5  UNL     1     -34.132  15.404  -6.755  1.00 20.00     0.009 C 
ENDBRANCH   5   6
ENDBRANCH   4   5
ENDBRANCH   3   4
ENDBRANCH   1   3
BRANCH   1   9
HETATM    9  C7  UNL     1     -32.770  18.605  -2.367  1.00 20.00     0.082 C 
BRANCH   9  10
HETATM   10  C10 UNL     1     -32.542  18.021  -0.964  1.00 20.00    -0.016 C 
HETATM   11  C2  UNL     1     -33.743  18.325  -0.068  1.00 20.00     0.010 C 
HETATM   12  C3  UNL     1     -31.268  18.580  -0.327  1.00 20.00     0.010 C 
ENDBRANCH   9  10
ENDBRANCH   1   9
TORSDOF 6
ENDMDL
MODEL 3
REMARK VINA RESULT:      -4.1     11.715     13.100
REMARK  6 active torsions:
REMARK  status: ('A' for Active; 'I' for Inactive)
REMARK    1  A    between atoms: C1_1  and  C6_6 
REMARK    2  A    between atoms: C1_1  and  C7_7 
REMARK    3  A    between atoms: C6_6  and  C8_8 
REMARK    4  A    between atoms: C7_7  and  C10_10 
REMARK    5  A    between atoms: C8_8  and  C9_9 
REMARK    6  A    between atoms: C9_9  and  C11_11 
ROOT
HETATM    1  C1  UNL     1     -33.873  14.810  -4.481  1.00 20.00     0.127 C 
HETATM    2  O12 UNL     1     -34.405  13.845  -3.937  1.00 20.00    -0.298 OA
ENDROOT
BRANCH   1   3
HETATM    3  C6  UNL     1     -32.877  15.701  -3.757  1.00 20.00     0.078 C 
BRANCH   3   4
HETATM    4  C8  UNL     1     -33.519  16.503  -2.626  1.00 20.00     0.008 C 
BRANCH   4   5
HETATM    5  C9  UNL     1     -32.990  17.939  -2.594  1.00 20.00     0.004 C 
BRANCH   5   6
HETATM    6  C11 UNL     1     -32.901  18.531  -1.175  1.00 20.00    -0.023 C 
HETATM    7  C4  UNL     1     -33.888  17.814  -0.251  1.00 20.00     0.009 C 
HETATM    8  C5  UNL     1     -31.489  18.440  -0.593  1.00 20.00     0.009 C 
ENDBRANCH   5   6
ENDBRANCH   4   5
ENDBRANCH   3   4
ENDBRANCH   1   3
BRANCH   1   9
HETATM    9  C7  UNL     1     -34.133  15.167  -5.939  1.00 20.00     0.082 C 
BRANCH   9  10
HETATM   10  C10 UNL     1     -34.605  16.614  -6.148  1.00 20.00    -0.016 C 
HETATM   11  C2  UNL     1     -35.989  16.808  -5.530  1.00 20.00     0.010 C 
HETATM   12  C3  UNL     1     -34.647  16.978  -7.635  1.00 20.00     0.010 C 
ENDBRANCH   9  10
ENDBRANCH   1   9
TORSDOF 6
ENDMDL
MODEL 4
REMARK VINA RESULT:      -4.1      1.650      2.343
REMARK  6 active torsions:
REMARK  status: ('A' for Active; 'I' for Inactive)
REMARK    1  A    between atoms: C1_1  and  C6_6 
REMARK    2  A    between atoms: C1_1  and  C7_7 
REMARK    3  A    between atoms: C6_6  and  C8_8 
REMARK    4  A    between atoms: C7_7  and  C10_10 
REMARK    5  A    between atoms: C8_8  and  C9_9 
REMARK    6  A    between atoms: C9_9  and  C11_11 
ROOT
HETATM    1  C1  UNL     1     -32.302   7.234   2.999  1.00 20.00     0.127 C 
HETATM    2  O12 UNL     1     -32.594   6.042   2.925  1.00 20.00    -0.298 OA
ENDROOT
BRANCH   1   3
HETATM    3  C6  UNL     1     -32.326   7.993   4.317  1.00 20.00     0.078 C 
BRANCH   3   4
HETATM    4  C8  UNL     1     -33.727   8.085   4.917  1.00 20.00     0.008 C 
BRANCH   4   5
HETATM    5  C9  UNL     1     -33.869   7.170   6.137  1.00 20.00     0.004 C 
BRANCH   5   6
HETATM    6  C11 UNL     1     -34.790   5.960   5.895  1.00 20.00    -0.023 C 
HETATM    7  C4  UNL     1     -35.489   6.103   4.540  1.00 20.00     0.009 C 
HETATM    8  C5  UNL     1     -34.034   4.631   5.948  1.00 20.00     0.009 C 
ENDBRANCH   5   6
ENDBRANCH   4   5
ENDBRANCH   3   4
ENDBRANCH   1   3
BRANCH   1   9
HETATM    9  C7  UNL     1     -31.850   8.039   1.787  1.00 20.00     0.082 C 
BRANCH   9  10
HETATM   10  C10 UNL     1     -32.960   8.898   1.164  1.00 20.00    -0.016 C 
HETATM   11  C2  UNL     1     -32.808   8.928  -0.357  1.00 20.00     0.010 C 
HETATM   12  C3  UNL     1     -32.936  10.326   1.714  1.00 20.00     0.010 C 
ENDBRANCH   9  10
ENDBRANCH   1   9
TORSDOF 6
ENDMDL
MODEL 5
REMARK VINA RESULT:      -3.9      9.480     10.809
REMARK  6 active torsions:
REMARK  status: ('A' for Active; 'I' for Inactive)
REMARK    1  A    between atoms: C1_1  and  C6_6 
REMARK    2  A    between atoms: C1_1  and  C7_7 
REMARK    3  A    between atoms: C6_6  and  C8_8 
REMARK    4  A    between atoms: C7_7  and  C10_10 
REMARK    5  A    between atoms: C8_8  and  C9_9 
REMARK    6  A    between atoms: C9_9  and  C11_11 
ROOT
HETATM    1  C1  UNL     1     -41.673  13.098   6.390  1.00 20.00     0.127 C 
HETATM    2  O12 UNL     1     -42.164  12.098   6.909  1.00 20.00    -0.298 OA
ENDROOT
BRANCH   1   3
HETATM    3  C6  UNL     1     -41.927  14.498   6.928  1.00 20.00     0.078 C 
BRANCH   3   4
HETATM    4  C8  UNL     1     -40.680  15.120   7.556  1.00 20.00     0.008 C 
BRANCH   4   5
HETATM    5  C9  UNL     1     -40.289  14.395   8.846  1.00 20.00     0.004 C 
BRANCH   5   6
HETATM    6  C11 UNL     1     -40.180  15.327  10.067  1.00 20.00    -0.023 C 
HETATM    7  C4  UNL     1     -41.167  16.488   9.922  1.00 20.00     0.009 C 
HETATM    8  C5  UNL     1     -40.435  14.595  11.386  1.00 20.00     0.009 C 
ENDBRANCH   5   6
ENDBRANCH   4   5
ENDBRANCH   3   4
ENDBRANCH   1   3
BRANCH   1   9
HETATM    9  C7  UNL     1     -40.736  13.017   5.192  1.00 20.00     0.082 C 
BRANCH   9  10
HETATM   10  C10 UNL     1     -39.750  11.840   5.254  1.00 20.00    -0.016 C 
HETATM   11  C2  UNL     1     -38.738  12.063   6.379  1.00 20.00     0.010 C 
HETATM   12  C3  UNL     1     -39.013  11.657   3.925  1.00 20.00     0.010 C 
ENDBRANCH   9  10
ENDBRANCH   1   9
TORSDOF 6
ENDMDL
MODEL 6
REMARK VINA RESULT:      -3.9     12.126     12.859
REMARK  6 active torsions:
REMARK  status: ('A' for Active; 'I' for Inactive)
REMARK    1  A    between atoms: C1_1  and  C6_6 
REMARK    2  A    between atoms: C1_1  and  C7_7 
REMARK    3  A    between atoms: C6_6  and  C8_8 
REMARK    4  A    between atoms: C7_7  and  C10_10 
REMARK    5  A    between atoms: C8_8  and  C9_9 
REMARK    6  A    between atoms: C9_9  and  C11_11 
ROOT
HETATM    1  C1  UNL     1     -33.846  17.255  -4.073  1.00 20.00     0.127 C 
HETATM    2  O12 UNL     1     -33.375  18.346  -4.385  1.00 20.00    -0.298 OA
ENDROOT
BRANCH   1   3
HETATM    3  C6  UNL     1     -33.366  16.484  -2.853  1.00 20.00     0.078 C 
BRANCH   3   4
HETATM    4  C8  UNL     1     -33.519  17.279  -1.558  1.00 20.00     0.008 C 
BRANCH   4   5
HETATM    5  C9  UNL     1     -32.248  18.072  -1.240  1.00 20.00     0.004 C 
BRANCH   5   6
HETATM    6  C11 UNL     1     -32.308  18.818   0.106  1.00 20.00    -0.023 C 
HETATM    7  C4  UNL     1     -33.618  18.486   0.824  1.00 20.00     0.009 C 
HETATM    8  C5  UNL     1     -31.123  18.483   1.013  1.00 20.00     0.009 C 
ENDBRANCH   5   6
ENDBRANCH   4   5
ENDBRANCH   3   4
ENDBRANCH   1   3
BRANCH   1   9
HETATM    9  C7  UNL     1     -34.981  16.605  -4.854  1.00 20.00     0.082 C 
BRANCH   9  10
HETATM   10  C10 UNL     1     -34.676  15.170  -5.311  1.00 20.00    -0.016 C 
HETATM   11  C2  UNL     1     -34.022  15.188  -6.693  1.00 20.00     0.010 C 
HETATM   12  C3  UNL     1     -35.945  14.315  -5.351  1.00 20.00     0.010 C 
ENDBRANCH   9  10
ENDBRANCH   1   9
TORSDOF 6
ENDMDL
MODEL 7
REMARK VINA RESULT:      -3.9     11.756     13.562
REMARK  6 active torsions:
REMARK  status: ('A' for Active; 'I' for Inactive)
REMARK    1  A    between atoms: C1_1  and  C6_6 
REMARK    2  A    between atoms: C1_1  and  C7_7 
REMARK    3  A    between atoms: C6_6  and  C8_8 
REMARK    4  A    between atoms: C7_7  and  C10_10 
REMARK    5  A    between atoms: C8_8  and  C9_9 
REMARK    6  A    between atoms: C9_9  and  C11_11 
ROOT
HETATM    1  C1  UNL     1     -33.928  14.754  -4.469  1.00 20.00     0.127 C 
HETATM    2  O12 UNL     1     -34.377  13.741  -3.938  1.00 20.00    -0.298 OA
ENDROOT
BRANCH   1   3
HETATM    3  C6  UNL     1     -34.274  15.141  -5.899  1.00 20.00     0.078 C 
BRANCH   3   4
HETATM    4  C8  UNL     1     -35.708  14.774  -6.276  1.00 20.00     0.008 C 
BRANCH   4   5
HETATM    5  C9  UNL     1     -36.713  15.733  -5.631  1.00 20.00     0.004 C 
BRANCH   5   6
HETATM    6  C11 UNL     1     -36.351  17.218  -5.814  1.00 20.00    -0.023 C 
HETATM    7  C4  UNL     1     -36.804  17.696  -7.196  1.00 20.00     0.009 C 
HETATM    8  C5  UNL     1     -36.968  18.107  -4.733  1.00 20.00     0.009 C 
ENDBRANCH   5   6
ENDBRANCH   4   5
ENDBRANCH   3   4
ENDBRANCH   1   3
BRANCH   1   9
HETATM    9  C7  UNL     1     -33.025  15.731  -3.727  1.00 20.00     0.082 C 
BRANCH   9  10
HETATM   10  C10 UNL     1     -33.763  16.958  -3.170  1.00 20.00    -0.016 C 
HETATM   11  C2  UNL     1     -33.288  18.224  -3.884  1.00 20.00     0.010 C 
HETATM   12  C3  UNL     1     -33.547  17.103  -1.662  1.00 20.00     0.010 C 
ENDBRANCH   9  10
ENDBRANCH   1   9
TORSDOF 6
ENDMDL
MODEL 8
REMARK VINA RESULT:      -3.8      2.032      4.956
REMARK  6 active torsions:
REMARK  status: ('A' for Active; 'I' for Inactive)
REMARK    1  A    between atoms: C1_1  and  C6_6 
REMARK    2  A    between atoms: C1_1  and  C7_7 
REMARK    3  A    between atoms: C6_6  and  C8_8 
REMARK    4  A    between atoms: C7_7  and  C10_10 
REMARK    5  A    between atoms: C8_8  and  C9_9 
REMARK    6  A    between atoms: C9_9  and  C11_11 
ROOT
HETATM    1  C1  UNL     1     -33.955   4.970   3.879  1.00 20.00     0.127 C 
HETATM    2  O12 UNL     1     -34.044   3.842   4.358  1.00 20.00    -0.298 OA
ENDROOT
BRANCH   1   3
HETATM    3  C6  UNL     1     -32.980   5.301   2.760  1.00 20.00     0.078 C 
BRANCH   3   4
HETATM    4  C8  UNL     1     -32.393   6.706   2.888  1.00 20.00     0.008 C 
BRANCH   4   5
HETATM    5  C9  UNL     1     -32.170   7.341   1.513  1.00 20.00     0.004 C 
BRANCH   5   6
HETATM    6  C11 UNL     1     -32.219   8.880   1.531  1.00 20.00    -0.023 C 
HETATM    7  C4  UNL     1     -32.929   9.391   0.276  1.00 20.00     0.009 C 
HETATM    8  C5  UNL     1     -32.916   9.427   2.778  1.00 20.00     0.009 C 
ENDBRANCH   5   6
ENDBRANCH   4   5
ENDBRANCH   3   4
ENDBRANCH   1   3
BRANCH   1   9
HETATM    9  C7  UNL     1     -34.843   6.120   4.336  1.00 20.00     0.082 C 
BRANCH   9  10
HETATM   10  C10 UNL     1     -34.652   6.504   5.811  1.00 20.00    -0.016 C 
HETATM   11  C2  UNL     1     -33.528   7.532   5.944  1.00 20.00     0.010 C 
HETATM   12  C3  UNL     1     -34.336   5.278   6.670  1.00 20.00     0.010 C 
ENDBRANCH   9  10
ENDBRANCH   1   9
TORSDOF 6
ENDMDL
MODEL 9
REMARK VINA RESULT:      -3.7      9.744     11.064
REMARK  6 active torsions:
REMARK  status: ('A' for Active; 'I' for Inactive)
REMARK    1  A    between atoms: C1_1  and  C6_6 
REMARK    2  A    between atoms: C1_1  and  C7_7 
REMARK    3  A    between atoms: C6_6  and  C8_8 
REMARK    4  A    between atoms: C7_7  and  C10_10 
REMARK    5  A    between atoms: C8_8  and  C9_9 
REMARK    6  A    between atoms: C9_9  and  C11_11 
ROOT
HETATM    1  C1  UNL     1     -41.918  13.100   6.180  1.00 20.00     0.127 C 
HETATM    2  O12 UNL     1     -42.096  12.191   6.988  1.00 20.00    -0.298 OA
ENDROOT
BRANCH   1   3
HETATM    3  C6  UNL     1     -42.801  14.338   6.147  1.00 20.00     0.078 C 
BRANCH   3   4
HETATM    4  C8  UNL     1     -42.599  15.236   7.366  1.00 20.00     0.008 C 
BRANCH   4   5
HETATM    5  C9  UNL     1     -41.243  15.944   7.315  1.00 20.00     0.004 C 
BRANCH   5   6
HETATM    6  C11 UNL     1     -40.477  15.904   8.650  1.00 20.00    -0.023 C 
HETATM    7  C4  UNL     1     -41.245  16.694   9.713  1.00 20.00     0.009 C 
HETATM    8  C5  UNL     1     -40.237  14.476   9.143  1.00 20.00     0.009 C 
ENDBRANCH   5   6
ENDBRANCH   4   5
ENDBRANCH   3   4
ENDBRANCH   1   3
BRANCH   1   9
HETATM    9  C7  UNL     1     -40.773  13.084   5.176  1.00 20.00     0.082 C 
BRANCH   9  10
HETATM   10  C10 UNL     1     -39.837  11.874   5.321  1.00 20.00    -0.016 C 
HETATM   11  C2  UNL     1     -38.850  12.109   6.465  1.00 20.00     0.010 C 
HETATM   12  C3  UNL     1     -39.070  11.603   4.025  1.00 20.00     0.010 C 
ENDBRANCH   9  10
ENDBRANCH   1   9
TORSDOF 6
ENDMDL
