MODEL 1
REMARK VINA RESULT:      -4.3      0.000      0.000
REMARK  3 active torsions:
REMARK  status: ('A' for Active; 'I' for Inactive)
REMARK    1  A    between atoms: C5_5  and  C8_8 
REMARK    2  A    between atoms: C7_7  and  C8_8 
REMARK    3  A    between atoms: C8_8  and  O9_9 
ROOT
HETATM    1  C1  UNL     1     -34.750   5.401   6.679  1.00 20.00     0.012 C 
HETATM    2  C2  UNL     1     -34.619   5.590   5.500  1.00 20.00    -0.115 C 
HETATM    3  C7  UNL     1     -34.461   5.820   4.055  1.00 20.00     0.125 C 
ENDROOT
BRANCH   3   4
HETATM    4  C8  UNL     1     -32.990   6.028   3.659  1.00 20.00     0.137 C 
BRANCH   4   5
HETATM    5  C5  UNL     1     -32.674   7.479   3.428  1.00 20.00    -0.017 A 
HETATM    6  C3  UNL     1     -32.036   8.255   4.556  1.00 20.00     0.012 A 
HETATM    7  C4  UNL     1     -33.471   8.509   4.193  1.00 20.00     0.012 A 
HETATM    8  C6  UNL     1     -32.258   7.813   2.021  1.00 20.00     0.018 C 
ENDBRANCH   4   5
BRANCH   4   9
HETATM    9  O9  UNL     1     -32.746   5.292   2.455  1.00 20.00    -0.394 OA
HETATM   10  H21 UNL     1     -32.002   5.729   2.019  1.00 20.00     0.210 HD
ENDBRANCH   4   9
ENDBRANCH   3   4
TORSDOF 3
ENDMDL
MODEL 2
REMARK VINA RESULT:      -4.3      2.064      3.757
REMARK  3 active torsions:
REMARK  status: ('A' for Active; 'I' for Inactive)
REMARK    1  A    between atoms: C5_5  and  C8_8 
REMARK    2  A    between atoms: C7_7  and  C8_8 
REMARK    3  A    between atoms: C8_8  and  O9_9 
ROOT
HETATM    1  C1  UNL     1     -32.181   8.793   4.464  1.00 20.00     0.012 C 
HETATM    2  C2  UNL     1     -32.991   8.233   5.150  1.00 20.00    -0.115 C 
HETATM    3  C7  UNL     1     -33.985   7.548   5.993  1.00 20.00     0.125 C 
ENDROOT
BRANCH   3   4
HETATM    4  C8  UNL     1     -33.914   6.020   5.845  1.00 20.00     0.137 C 
BRANCH   4   5
HETATM    5  C5  UNL     1     -34.403   5.565   4.498  1.00 20.00    -0.017 A 
HETATM    6  C3  UNL     1     -33.919   4.231   3.981  1.00 20.00     0.012 A 
HETATM    7  C4  UNL     1     -33.406   5.501   3.366  1.00 20.00     0.012 A 
HETATM    8  C6  UNL     1     -35.813   5.978   4.172  1.00 20.00     0.018 C 
ENDBRANCH   4   5
BRANCH   4   9
HETATM    9  O9  UNL     1     -34.731   5.437   6.867  1.00 20.00    -0.394 OA
HETATM   10  H21 UNL     1     -35.249   4.745   6.435  1.00 20.00     0.210 HD
ENDBRANCH   4   9
ENDBRANCH   3   4
TORSDOF 3
ENDMDL
MODEL 3
REMARK VINA RESULT:      -4.0      1.847      4.122
REMARK  3 active torsions:
REMARK  status: ('A' for Active; 'I' for Inactive)
REMARK    1  A    between atoms: C5_5  and  C8_8 
REMARK    2  A    between atoms: C7_7  and  C8_8 
REMARK    3  A    between atoms: C8_8  and  O9_9 
ROOT
HETATM    1  C1  UNL     1     -32.195   8.395   2.341  1.00 20.00     0.012 C 
HETATM    2  C2  UNL     1     -32.839   8.290   3.350  1.00 20.00    -0.115 C 
HETATM    3  C7  UNL     1     -33.629   8.165   4.585  1.00 20.00     0.125 C 
ENDROOT
BRANCH   3   4
HETATM    4  C8  UNL     1     -33.243   6.915   5.394  1.00 20.00     0.137 C 
BRANCH   4   5
HETATM    5  C5  UNL     1     -34.337   5.884   5.384  1.00 20.00    -0.017 A 
HETATM    6  C3  UNL     1     -34.326   4.850   4.283  1.00 20.00     0.012 A 
HETATM    7  C4  UNL     1     -35.356   5.942   4.271  1.00 20.00     0.012 A 
HETATM    8  C6  UNL     1     -34.805   5.455   6.748  1.00 20.00     0.018 C 
ENDBRANCH   4   5
BRANCH   4   9
HETATM    9  O9  UNL     1     -32.987   7.322   6.743  1.00 20.00    -0.394 OA
HETATM   10  H21 UNL     1     -32.293   6.735   7.073  1.00 20.00     0.210 HD
ENDBRANCH   4   9
ENDBRANCH   3   4
TORSDOF 3
ENDMDL
MODEL 4
REMARK VINA RESULT:      -4.0     11.988     12.981
REMARK  3 active torsions:
REMARK  status: ('A' for Active; 'I' for Inactive)
REMARK    1  A    between atoms: C5_5  and  C8_8 
REMARK    2  A    between atoms: C7_7  and  C8_8 
REMARK    3  A    between atoms: C8_8  and  O9_9 
ROOT
HETATM    1  C1  UNL     1     -33.380  16.927  -2.357  1.00 20.00     0.012 C 
HETATM    2  C2  UNL     1     -33.399  16.047  -3.174  1.00 20.00    -0.115 C 
HETATM    3  C7  UNL     1     -33.419  14.967  -4.173  1.00 20.00     0.125 C 
ENDROOT
BRANCH   3   4
HETATM    4  C8  UNL     1     -33.992  15.436  -5.520  1.00 20.00     0.137 C 
BRANCH   4   5
HETATM    5  C5  UNL     1     -35.484  15.256  -5.585  1.00 20.00    -0.017 A 
HETATM    6  C3  UNL     1     -36.214  15.818  -6.782  1.00 20.00     0.012 A 
HETATM    7  C4  UNL     1     -36.353  16.483  -5.443  1.00 20.00     0.012 A 
HETATM    8  C6  UNL     1     -35.985  13.965  -4.996  1.00 20.00     0.018 C 
ENDBRANCH   4   5
BRANCH   4   9
HETATM    9  O9  UNL     1     -33.376  14.664  -6.558  1.00 20.00    -0.394 OA
HETATM   10  H21 UNL     1     -32.551  14.325  -6.186  1.00 20.00     0.210 HD
ENDBRANCH   4   9
ENDBRANCH   3   4
TORSDOF 3
ENDMDL
MODEL 5
REMARK VINA RESULT:      -3.9      1.620      3.908
REMARK  3 active torsions:
REMARK  status: ('A' for Active; 'I' for Inactive)
REMARK    1  A    between atoms: C5_5  and  C8_8 
REMARK    2  A    between atoms: C7_7  and  C8_8 
REMARK    3  A    between atoms: C8_8  and  O9_9 
ROOT
HETATM    1  C1  UNL     1     -32.085   8.232   1.455  1.00 20.00     0.012 C 
HETATM    2  C2  UNL     1     -32.377   7.409   2.281  1.00 20.00    -0.115 C 
HETATM    3  C7  UNL     1     -32.735   6.399   3.290  1.00 20.00     0.125 C 
ENDROOT
BRANCH   3   4
HETATM    4  C8  UNL     1     -33.250   7.038   4.590  1.00 20.00     0.137 C 
BRANCH   4   5
HETATM    5  C5  UNL     1     -34.388   6.255   5.183  1.00 20.00    -0.017 A 
HETATM    6  C3  UNL     1     -34.651   6.398   6.664  1.00 20.00     0.012 A 
HETATM    7  C4  UNL     1     -34.055   5.127   6.131  1.00 20.00     0.012 A 
HETATM    8  C6  UNL     1     -35.573   6.083   4.272  1.00 20.00     0.018 C 
ENDBRANCH   4   5
BRANCH   4   9
HETATM    9  O9  UNL     1     -33.695   8.365   4.286  1.00 20.00    -0.394 OA
HETATM   10  H21 UNL     1     -34.079   8.324   3.399  1.00 20.00     0.210 HD
ENDBRANCH   4   9
ENDBRANCH   3   4
TORSDOF 3
ENDMDL
MODEL 6
REMARK VINA RESULT:      -3.9      1.111      3.827
REMARK  3 active torsions:
REMARK  status: ('A' for Active; 'I' for Inactive)
REMARK    1  A    between atoms: C5_5  and  C8_8 
REMARK    2  A    between atoms: C7_7  and  C8_8 
REMARK    3  A    between atoms: C8_8  and  O9_9 
ROOT
HETATM    1  C1  UNL     1     -32.244   8.622   0.801  1.00 20.00     0.012 C 
HETATM    2  C2  UNL     1     -32.242   8.025   1.843  1.00 20.00    -0.115 C 
HETATM    3  C7  UNL     1     -32.236   7.293   3.120  1.00 20.00     0.125 C 
ENDROOT
BRANCH   3   4
HETATM    4  C8  UNL     1     -33.374   6.263   3.202  1.00 20.00     0.137 C 
BRANCH   4   5
HETATM    5  C5  UNL     1     -34.024   6.256   4.558  1.00 20.00    -0.017 A 
HETATM    6  C3  UNL     1     -34.383   4.920   5.165  1.00 20.00     0.012 A 
HETATM    7  C4  UNL     1     -35.467   5.822   4.650  1.00 20.00     0.012 A 
HETATM    8  C6  UNL     1     -33.555   7.346   5.483  1.00 20.00     0.018 C 
ENDBRANCH   4   5
BRANCH   4   9
HETATM    9  O9  UNL     1     -32.821   4.969   2.934  1.00 20.00    -0.394 OA
HETATM   10  H21 UNL     1     -33.517   4.467   2.488  1.00 20.00     0.210 HD
ENDBRANCH   4   9
ENDBRANCH   3   4
TORSDOF 3
ENDMDL
MODEL 7
REMARK VINA RESULT:      -3.9     12.104     12.913
REMARK  3 active torsions:
REMARK  status: ('A' for Active; 'I' for Inactive)
REMARK    1  A    between atoms: C5_5  and  C8_8 
REMARK    2  A    between atoms: C7_7  and  C8_8 
REMARK    3  A    between atoms: C8_8  and  O9_9 
ROOT
HETATM    1  C1  UNL     1     -33.657  17.395  -1.182  1.00 20.00     0.012 C 
HETATM    2  C2  UNL     1     -33.501  16.807  -2.218  1.00 20.00    -0.115 C 
HETATM    3  C7  UNL     1     -33.306  16.085  -3.486  1.00 20.00     0.125 C 
ENDROOT
BRANCH   3   4
HETATM    4  C8  UNL     1     -34.336  16.499  -4.550  1.00 20.00     0.137 C 
BRANCH   4   5
HETATM    5  C5  UNL     1     -34.749  15.337  -5.409  1.00 20.00    -0.017 A 
HETATM    6  C3  UNL     1     -36.216  14.981  -5.463  1.00 20.00     0.012 A 
HETATM    7  C4  UNL     1     -35.260  14.093  -4.721  1.00 20.00     0.012 A 
HETATM    8  C6  UNL     1     -33.936  15.165  -6.663  1.00 20.00     0.018 C 
ENDBRANCH   4   5
BRANCH   4   9
HETATM    9  O9  UNL     1     -33.741  17.509  -5.373  1.00 20.00    -0.394 OA
HETATM   10  H21 UNL     1     -34.157  18.344  -5.118  1.00 20.00     0.210 HD
ENDBRANCH   4   9
ENDBRANCH   3   4
TORSDOF 3
ENDMDL
MODEL 8
REMARK VINA RESULT:      -3.8     11.713     13.022
REMARK  3 active torsions:
REMARK  status: ('A' for Active; 'I' for Inactive)
REMARK    1  A    between atoms: C5_5  and  C8_8 
REMARK    2  A    between atoms: C7_7  and  C8_8 
REMARK    3  A    between atoms: C8_8  and  O9_9 
ROOT
HETATM    1  C1  UNL     1     -33.042  18.211  -3.096  1.00 20.00     0.012 C 
HETATM    2  C2  UNL     1     -33.355  17.057  -3.212  1.00 20.00    -0.115 C 
HETATM    3  C7  UNL     1     -33.738  15.643  -3.352  1.00 20.00     0.125 C 
ENDROOT
BRANCH   3   4
HETATM    4  C8  UNL     1     -33.370  15.078  -4.734  1.00 20.00     0.137 C 
BRANCH   4   5
HETATM    5  C5  UNL     1     -34.494  15.239  -5.720  1.00 20.00    -0.017 A 
HETATM    6  C3  UNL     1     -34.139  15.427  -7.176  1.00 20.00     0.012 A 
HETATM    7  C4  UNL     1     -34.669  16.585  -6.382  1.00 20.00     0.012 A 
HETATM    8  C6  UNL     1     -35.732  14.448  -5.393  1.00 20.00     0.018 C 
ENDBRANCH   4   5
BRANCH   4   9
HETATM    9  O9  UNL     1     -33.072  13.686  -4.579  1.00 20.00    -0.394 OA
HETATM   10  H21 UNL     1     -32.367  13.490  -5.212  1.00 20.00     0.210 HD
ENDBRANCH   4   9
ENDBRANCH   3   4
TORSDOF 3
ENDMDL
MODEL 9
REMARK VINA RESULT:      -3.8      9.680     10.816
REMARK  3 active torsions:
REMARK  status: ('A' for Active; 'I' for Inactive)
REMARK    1  A    between atoms: C5_5  and  C8_8 
REMARK    2  A    between atoms: C7_7  and  C8_8 
REMARK    3  A    between atoms: C8_8  and  O9_9 
ROOT
HETATM    1  C1  UNL     1     -39.018  11.651   4.024  1.00 20.00     0.012 C 
HETATM    2  C2  UNL     1     -39.384  12.028   5.104  1.00 20.00    -0.115 C 
HETATM    3  C7  UNL     1     -39.831  12.488   6.428  1.00 20.00     0.125 C 
ENDROOT
BRANCH   3   4
HETATM    4  C8  UNL     1     -41.309  12.911   6.426  1.00 20.00     0.137 C 
BRANCH   4   5
HETATM    5  C5  UNL     1     -41.552  14.096   7.318  1.00 20.00    -0.017 A 
HETATM    6  C3  UNL     1     -41.723  15.450   6.669  1.00 20.00     0.012 A 
HETATM    7  C4  UNL     1     -40.464  15.138   7.426  1.00 20.00     0.012 A 
HETATM    8  C6  UNL     1     -42.366  13.797   8.547  1.00 20.00     0.018 C 
ENDBRANCH   4   5
BRANCH   4   9
HETATM    9  O9  UNL     1     -42.088  11.802   6.888  1.00 20.00    -0.394 OA
HETATM   10  H21 UNL     1     -42.864  11.760   6.312  1.00 20.00     0.210 HD
ENDBRANCH   4   9
ENDBRANCH   3   4
TORSDOF 3
ENDMDL
