MODEL 1
REMARK VINA RESULT:      -3.9      0.000      0.000
REMARK  6 active torsions:
REMARK  status: ('A' for Active; 'I' for Inactive)
REMARK    1  A    between atoms: C5_5  and  C10_10 
REMARK    2  A    between atoms: C6_6  and  C7_7 
REMARK    3  A    between atoms: C6_6  and  C10_10 
REMARK    4  A    between atoms: C7_7  and  C11_11 
REMARK    5  A    between atoms: C8_8  and  C9_9 
REMARK    6  A    between atoms: C8_8  and  C11_11 
ROOT
HETATM    1  C7  UNL     1     -33.487  16.119  -3.011  1.00 20.00     0.020 C 
ENDROOT
BRANCH   1   2
HETATM    2  C6  UNL     1     -33.325  15.151  -4.195  1.00 20.00     0.005 C 
BRANCH   2   3
HETATM    3  C10 UNL     1     -34.501  15.213  -5.193  1.00 20.00    -0.019 C 
HETATM    4  C4  UNL     1     -35.535  14.114  -4.931  1.00 20.00     0.010 C 
BRANCH   3   5
HETATM    5  C5  UNL     1     -34.007  15.187  -6.654  1.00 20.00    -0.000 C 
HETATM    6  C1  UNL     1     -34.404  16.390  -7.500  1.00 20.00     0.005 C 
ENDBRANCH   3   5
ENDBRANCH   2   3
ENDBRANCH   1   2
BRANCH   1   7
HETATM    7  C11 UNL     1     -33.514  17.597  -3.431  1.00 20.00     0.082 C 
HETATM    8 CL12 UNL     1     -35.213  18.176  -3.574  1.00 20.00    -0.125 Cl
BRANCH   7   9
HETATM    9  C8  UNL     1     -32.791  18.524  -2.437  1.00 20.00     0.024 C 
BRANCH   9  10
HETATM   10  C9  UNL     1     -32.596  17.965  -1.013  1.00 20.00    -0.021 C 
HETATM   11  C2  UNL     1     -33.795  18.244  -0.106  1.00 20.00     0.009 C 
HETATM   12  C3  UNL     1     -31.329  18.564  -0.394  1.00 20.00     0.009 C 
ENDBRANCH   9  10
ENDBRANCH   7   9
ENDBRANCH   1   7
TORSDOF 6
ENDMDL
MODEL 2
REMARK VINA RESULT:      -3.9      1.636      6.035
REMARK  6 active torsions:
REMARK  status: ('A' for Active; 'I' for Inactive)
REMARK    1  A    between atoms: C5_5  and  C10_10 
REMARK    2  A    between atoms: C6_6  and  C7_7 
REMARK    3  A    between atoms: C6_6  and  C10_10 
REMARK    4  A    between atoms: C7_7  and  C11_11 
REMARK    5  A    between atoms: C8_8  and  C9_9 
REMARK    6  A    between atoms: C8_8  and  C11_11 
ROOT
HETATM    1  C7  UNL     1     -34.454  18.582  -1.373  1.00 20.00     0.020 C 
ENDROOT
BRANCH   1   2
HETATM    2  C6  UNL     1     -33.653  17.998  -0.197  1.00 20.00     0.005 C 
BRANCH   2   3
HETATM    3  C10 UNL     1     -32.502  18.917   0.265  1.00 20.00    -0.019 C 
HETATM    4  C4  UNL     1     -31.147  18.462  -0.285  1.00 20.00     0.010 C 
BRANCH   3   5
HETATM    5  C5  UNL     1     -32.470  19.056   1.801  1.00 20.00    -0.000 C 
HETATM    6  C1  UNL     1     -31.143  18.703   2.462  1.00 20.00     0.005 C 
ENDBRANCH   3   5
ENDBRANCH   2   3
ENDBRANCH   1   2
BRANCH   1   7
HETATM    7  C11 UNL     1     -33.992  18.064  -2.745  1.00 20.00     0.082 C 
HETATM    8 CL12 UNL     1     -32.790  19.193  -3.467  1.00 20.00    -0.125 Cl
BRANCH   7   9
HETATM    9  C8  UNL     1     -33.339  16.672  -2.680  1.00 20.00     0.024 C 
BRANCH   9  10
HETATM   10  C9  UNL     1     -33.856  15.636  -3.698  1.00 20.00    -0.021 C 
HETATM   11  C2  UNL     1     -32.730  14.799  -4.305  1.00 20.00     0.009 C 
HETATM   12  C3  UNL     1     -34.627  16.351  -4.813  1.00 20.00     0.009 C 
ENDBRANCH   9  10
ENDBRANCH   7   9
ENDBRANCH   1   7
TORSDOF 6
ENDMDL
MODEL 3
REMARK VINA RESULT:      -3.9      1.060      1.781
REMARK  6 active torsions:
REMARK  status: ('A' for Active; 'I' for Inactive)
REMARK    1  A    between atoms: C5_5  and  C10_10 
REMARK    2  A    between atoms: C6_6  and  C7_7 
REMARK    3  A    between atoms: C6_6  and  C10_10 
REMARK    4  A    between atoms: C7_7  and  C11_11 
REMARK    5  A    between atoms: C8_8  and  C9_9 
REMARK    6  A    between atoms: C8_8  and  C11_11 
ROOT
HETATM    1  C7  UNL     1     -32.997  15.717  -3.930  1.00 20.00     0.020 C 
ENDROOT
BRANCH   1   2
HETATM    2  C6  UNL     1     -34.217  14.780  -3.931  1.00 20.00     0.005 C 
BRANCH   2   3
HETATM    3  C10 UNL     1     -34.774  14.515  -5.345  1.00 20.00    -0.019 C 
HETATM    4  C4  UNL     1     -33.919  15.171  -6.433  1.00 20.00     0.010 C 
BRANCH   3   5
HETATM    5  C5  UNL     1     -36.254  14.937  -5.460  1.00 20.00    -0.000 C 
HETATM    6  C1  UNL     1     -36.549  16.011  -6.499  1.00 20.00     0.005 C 
ENDBRANCH   3   5
ENDBRANCH   2   3
ENDBRANCH   1   2
BRANCH   1   7
HETATM    7  C11 UNL     1     -33.268  17.072  -3.256  1.00 20.00     0.082 C 
HETATM    8 CL12 UNL     1     -34.734  17.840  -3.963  1.00 20.00    -0.125 Cl
BRANCH   7   9
HETATM    9  C8  UNL     1     -33.489  16.962  -1.737  1.00 20.00     0.024 C 
BRANCH   9  10
HETATM   10  C9  UNL     1     -33.167  18.227  -0.915  1.00 20.00    -0.021 C 
HETATM   11  C2  UNL     1     -31.666  18.415  -0.694  1.00 20.00     0.009 C 
HETATM   12  C3  UNL     1     -33.884  18.158   0.437  1.00 20.00     0.009 C 
ENDBRANCH   9  10
ENDBRANCH   7   9
ENDBRANCH   1   7
TORSDOF 6
ENDMDL
MODEL 4
REMARK VINA RESULT:      -3.8      1.033      5.836
REMARK  6 active torsions:
REMARK  status: ('A' for Active; 'I' for Inactive)
REMARK    1  A    between atoms: C5_5  and  C10_10 
REMARK    2  A    between atoms: C6_6  and  C7_7 
REMARK    3  A    between atoms: C6_6  and  C10_10 
REMARK    4  A    between atoms: C7_7  and  C11_11 
REMARK    5  A    between atoms: C8_8  and  C9_9 
REMARK    6  A    between atoms: C8_8  and  C11_11 
ROOT
HETATM    1  C7  UNL     1     -33.427  16.927  -1.955  1.00 20.00     0.020 C 
ENDROOT
BRANCH   1   2
HETATM    2  C6  UNL     1     -32.660  18.252  -1.814  1.00 20.00     0.005 C 
BRANCH   2   3
HETATM    3  C10 UNL     1     -32.575  18.749  -0.355  1.00 20.00    -0.019 C 
HETATM    4  C4  UNL     1     -31.191  18.511   0.254  1.00 20.00     0.010 C 
BRANCH   3   5
HETATM    5  C5  UNL     1     -33.690  18.136   0.519  1.00 20.00    -0.000 C 
HETATM    6  C1  UNL     1     -34.627  19.138   1.181  1.00 20.00     0.005 C 
ENDBRANCH   3   5
ENDBRANCH   2   3
ENDBRANCH   1   2
BRANCH   1   7
HETATM    7  C11 UNL     1     -33.841  16.612  -3.402  1.00 20.00     0.082 C 
HETATM    8 CL12 UNL     1     -33.679  18.079  -4.432  1.00 20.00    -0.125 Cl
BRANCH   7   9
HETATM    9  C8  UNL     1     -32.998  15.497  -4.046  1.00 20.00     0.024 C 
BRANCH   9  10
HETATM   10  C9  UNL     1     -33.750  14.548  -5.000  1.00 20.00    -0.021 C 
HETATM   11  C2  UNL     1     -33.991  15.170  -6.376  1.00 20.00     0.009 C 
HETATM   12  C3  UNL     1     -35.089  14.144  -4.375  1.00 20.00     0.009 C 
ENDBRANCH   9  10
ENDBRANCH   7   9
ENDBRANCH   1   7
TORSDOF 6
ENDMDL
MODEL 5
REMARK VINA RESULT:      -3.8     11.521     12.604
REMARK  6 active torsions:
REMARK  status: ('A' for Active; 'I' for Inactive)
REMARK    1  A    between atoms: C5_5  and  C10_10 
REMARK    2  A    between atoms: C6_6  and  C7_7 
REMARK    3  A    between atoms: C6_6  and  C10_10 
REMARK    4  A    between atoms: C7_7  and  C11_11 
REMARK    5  A    between atoms: C8_8  and  C9_9 
REMARK    6  A    between atoms: C8_8  and  C11_11 
ROOT
HETATM    1  C7  UNL     1     -33.626   7.520   5.130  1.00 20.00     0.020 C 
ENDROOT
BRANCH   1   2
HETATM    2  C6  UNL     1     -34.681   6.679   4.392  1.00 20.00     0.005 C 
BRANCH   2   3
HETATM    3  C10 UNL     1     -34.761   5.225   4.904  1.00 20.00    -0.019 C 
HETATM    4  C4  UNL     1     -34.531   5.134   6.415  1.00 20.00     0.010 C 
BRANCH   3   5
HETATM    5  C5  UNL     1     -33.802   4.297   4.130  1.00 20.00    -0.000 C 
HETATM    6  C1  UNL     1     -33.309   4.835   2.793  1.00 20.00     0.005 C 
ENDBRANCH   3   5
ENDBRANCH   2   3
ENDBRANCH   1   2
BRANCH   1   7
HETATM    7  C11 UNL     1     -32.981   8.601   4.247  1.00 20.00     0.082 C 
HETATM    8 CL12 UNL     1     -31.822   9.586   5.210  1.00 20.00    -0.125 Cl
BRANCH   7   9
HETATM    9  C8  UNL     1     -32.212   8.024   3.045  1.00 20.00     0.024 C 
BRANCH   9  10
HETATM   10  C9  UNL     1     -32.734   8.432   1.652  1.00 20.00    -0.021 C 
HETATM   11  C2  UNL     1     -31.771   8.042   0.530  1.00 20.00     0.009 C 
HETATM   12  C3  UNL     1     -32.983   9.943   1.617  1.00 20.00     0.009 C 
ENDBRANCH   9  10
ENDBRANCH   7   9
ENDBRANCH   1   7
TORSDOF 6
ENDMDL
MODEL 6
REMARK VINA RESULT:      -3.8     11.275     12.212
REMARK  6 active torsions:
REMARK  status: ('A' for Active; 'I' for Inactive)
REMARK    1  A    between atoms: C5_5  and  C10_10 
REMARK    2  A    between atoms: C6_6  and  C7_7 
REMARK    3  A    between atoms: C6_6  and  C10_10 
REMARK    4  A    between atoms: C7_7  and  C11_11 
REMARK    5  A    between atoms: C8_8  and  C9_9 
REMARK    6  A    between atoms: C8_8  and  C11_11 
ROOT
HETATM    1  C7  UNL     1     -32.074   7.968   4.370  1.00 20.00     0.020 C 
ENDROOT
BRANCH   1   2
HETATM    2  C6  UNL     1     -32.250   7.529   2.906  1.00 20.00     0.005 C 
BRANCH   2   3
HETATM    3  C10 UNL     1     -32.078   8.689   1.903  1.00 20.00    -0.019 C 
HETATM    4  C4  UNL     1     -33.063   9.830   2.167  1.00 20.00     0.010 C 
BRANCH   3   5
HETATM    5  C5  UNL     1     -32.166   8.193   0.444  1.00 20.00    -0.000 C 
HETATM    6  C1  UNL     1     -33.084   8.999  -0.466  1.00 20.00     0.005 C 
ENDBRANCH   3   5
ENDBRANCH   2   3
ENDBRANCH   1   2
BRANCH   1   7
HETATM    7  C11 UNL     1     -33.271   7.605   5.264  1.00 20.00     0.082 C 
HETATM    8 CL12 UNL     1     -33.973   9.089   6.003  1.00 20.00    -0.125 Cl
BRANCH   7   9
HETATM    9  C8  UNL     1     -34.400   6.887   4.505  1.00 20.00     0.024 C 
BRANCH   9  10
HETATM   10  C9  UNL     1     -34.793   5.495   5.039  1.00 20.00    -0.021 C 
HETATM   11  C2  UNL     1     -34.517   5.342   6.535  1.00 20.00     0.009 C 
HETATM   12  C3  UNL     1     -34.037   4.413   4.261  1.00 20.00     0.009 C 
ENDBRANCH   9  10
ENDBRANCH   7   9
ENDBRANCH   1   7
TORSDOF 6
ENDMDL
MODEL 7
REMARK VINA RESULT:      -3.8      1.665      6.049
REMARK  6 active torsions:
REMARK  status: ('A' for Active; 'I' for Inactive)
REMARK    1  A    between atoms: C5_5  and  C10_10 
REMARK    2  A    between atoms: C6_6  and  C7_7 
REMARK    3  A    between atoms: C6_6  and  C10_10 
REMARK    4  A    between atoms: C7_7  and  C11_11 
REMARK    5  A    between atoms: C8_8  and  C9_9 
REMARK    6  A    between atoms: C8_8  and  C11_11 
ROOT
HETATM    1  C7  UNL     1     -33.442  16.638  -2.331  1.00 20.00     0.020 C 
ENDROOT
BRANCH   1   2
HETATM    2  C6  UNL     1     -32.903  18.009  -1.889  1.00 20.00     0.005 C 
BRANCH   2   3
HETATM    3  C10 UNL     1     -32.686  18.111  -0.364  1.00 20.00    -0.019 C 
HETATM    4  C4  UNL     1     -33.854  18.808   0.338  1.00 20.00     0.010 C 
BRANCH   3   5
HETATM    5  C5  UNL     1     -31.340  18.787  -0.028  1.00 20.00    -0.000 C 
HETATM    6  C1  UNL     1     -30.753  18.433   1.333  1.00 20.00     0.005 C 
ENDBRANCH   3   5
ENDBRANCH   2   3
ENDBRANCH   1   2
BRANCH   1   7
HETATM    7  C11 UNL     1     -33.335  16.399  -3.846  1.00 20.00     0.082 C 
HETATM    8 CL12 UNL     1     -33.173  14.640  -4.192  1.00 20.00    -0.125 Cl
BRANCH   7   9
HETATM    9  C8  UNL     1     -34.555  16.915  -4.629  1.00 20.00     0.024 C 
BRANCH   9  10
HETATM   10  C9  UNL     1     -35.134  15.953  -5.687  1.00 20.00    -0.021 C 
HETATM   11  C2  UNL     1     -34.676  16.298  -7.104  1.00 20.00     0.009 C 
HETATM   12  C3  UNL     1     -36.665  15.974  -5.619  1.00 20.00     0.009 C 
ENDBRANCH   9  10
ENDBRANCH   7   9
ENDBRANCH   1   7
TORSDOF 6
ENDMDL
MODEL 8
REMARK VINA RESULT:      -3.7     11.690     12.755
REMARK  6 active torsions:
REMARK  status: ('A' for Active; 'I' for Inactive)
REMARK    1  A    between atoms: C5_5  and  C10_10 
REMARK    2  A    between atoms: C6_6  and  C7_7 
REMARK    3  A    between atoms: C6_6  and  C10_10 
REMARK    4  A    between atoms: C7_7  and  C11_11 
REMARK    5  A    between atoms: C8_8  and  C9_9 
REMARK    6  A    between atoms: C8_8  and  C11_11 
ROOT
HETATM    1  C7  UNL     1     -32.266   6.272   3.286  1.00 20.00     0.020 C 
ENDROOT
BRANCH   1   2
HETATM    2  C6  UNL     1     -32.223   7.408   2.250  1.00 20.00     0.005 C 
BRANCH   2   3
HETATM    3  C10 UNL     1     -32.356   8.809   2.884  1.00 20.00    -0.019 C 
HETATM    4  C4  UNL     1     -33.078   8.764   4.233  1.00 20.00     0.010 C 
BRANCH   3   5
HETATM    5  C5  UNL     1     -33.027   9.807   1.917  1.00 20.00    -0.000 C 
HETATM    6  C1  UNL     1     -32.824   9.519   0.435  1.00 20.00     0.005 C 
ENDBRANCH   3   5
ENDBRANCH   2   3
ENDBRANCH   1   2
BRANCH   1   7
HETATM    7  C11 UNL     1     -33.389   5.253   3.029  1.00 20.00     0.082 C 
HETATM    8 CL12 UNL     1     -32.861   4.033   1.815  1.00 20.00    -0.125 Cl
BRANCH   7   9
HETATM    9  C8  UNL     1     -33.819   4.491   4.295  1.00 20.00     0.024 C 
BRANCH   9  10
HETATM   10  C9  UNL     1     -34.940   5.146   5.128  1.00 20.00    -0.021 C 
HETATM   11  C2  UNL     1     -35.749   6.164   4.324  1.00 20.00     0.009 C 
HETATM   12  C3  UNL     1     -34.334   5.825   6.361  1.00 20.00     0.009 C 
ENDBRANCH   9  10
ENDBRANCH   7   9
ENDBRANCH   1   7
TORSDOF 6
ENDMDL
MODEL 9
REMARK VINA RESULT:      -3.7      2.154      2.919
REMARK  6 active torsions:
REMARK  status: ('A' for Active; 'I' for Inactive)
REMARK    1  A    between atoms: C5_5  and  C10_10 
REMARK    2  A    between atoms: C6_6  and  C7_7 
REMARK    3  A    between atoms: C6_6  and  C10_10 
REMARK    4  A    between atoms: C7_7  and  C11_11 
REMARK    5  A    between atoms: C8_8  and  C9_9 
REMARK    6  A    between atoms: C8_8  and  C11_11 
ROOT
HETATM    1  C7  UNL     1     -32.864  15.616  -3.912  1.00 20.00     0.020 C 
ENDROOT
BRANCH   1   2
HETATM    2  C6  UNL     1     -33.597  14.499  -4.674  1.00 20.00     0.005 C 
BRANCH   2   3
HETATM    3  C10 UNL     1     -35.038  14.883  -5.071  1.00 20.00    -0.019 C 
HETATM    4  C4  UNL     1     -36.056  13.827  -4.634  1.00 20.00     0.010 C 
BRANCH   3   5
HETATM    5  C5  UNL     1     -35.150  15.184  -6.581  1.00 20.00    -0.000 C 
HETATM    6  C1  UNL     1     -33.825  15.351  -7.314  1.00 20.00     0.005 C 
ENDBRANCH   3   5
ENDBRANCH   2   3
ENDBRANCH   1   2
BRANCH   1   7
HETATM    7  C11 UNL     1     -33.799  16.730  -3.413  1.00 20.00     0.082 C 
HETATM    8 CL12 UNL     1     -33.671  16.900  -1.625  1.00 20.00    -0.125 Cl
BRANCH   7   9
HETATM    9  C8  UNL     1     -33.491  18.105  -4.032  1.00 20.00     0.024 C 
BRANCH   9  10
HETATM   10  C9  UNL     1     -34.690  18.848  -4.656  1.00 20.00    -0.021 C 
HETATM   11  C2  UNL     1     -36.033  18.254  -4.230  1.00 20.00     0.009 C 
HETATM   12  C3  UNL     1     -34.574  18.820  -6.184  1.00 20.00     0.009 C 
ENDBRANCH   9  10
ENDBRANCH   7   9
ENDBRANCH   1   7
TORSDOF 6
ENDMDL
