MODEL 1
REMARK VINA RESULT:      -4.9      0.000      0.000
REMARK  5 active torsions:
REMARK  status: ('A' for Active; 'I' for Inactive)
REMARK    1  A    between atoms: C2_2  and  C8_8 
REMARK    2  A    between atoms: C2_2  and  C9_9 
REMARK    3  A    between atoms: C3_3  and  C8_8 
REMARK    4  A    between atoms: C3_3  and  C10_10 
REMARK    5  A    between atoms: C6_6  and  C10_10 
ROOT
HETATM    1  C3  UNL     1     -33.347   8.107   5.399  1.00 20.00     0.131 C 
HETATM    2  O11 UNL     1     -34.208   8.985   5.470  1.00 20.00    -0.298 OA
ENDROOT
BRANCH   1   3
HETATM    3  C8  UNL     1     -32.116   8.238   4.508  1.00 20.00     0.111 C 
BRANCH   3   4
HETATM    4  C2  UNL     1     -32.423   7.901   3.072  1.00 20.00    -0.083 C 
HETATM    5  C1  UNL     1     -32.389   6.632   2.636  1.00 20.00     0.014 C 
BRANCH   4   6
HETATM    6  C9  UNL     1     -32.765   9.039   2.138  1.00 20.00     0.029 C 
HETATM    7  C7  UNL     1     -32.356   8.760   0.699  1.00 20.00     0.010 C 
ENDBRANCH   4   6
ENDBRANCH   3   4
ENDBRANCH   1   3
BRANCH   1   8
HETATM    8  C10 UNL     1     -33.421   6.838   6.228  1.00 20.00     0.083 C 
BRANCH   8   9
HETATM    9  C6  UNL     1     -34.638   6.011   5.957  1.00 20.00    -0.008 A 
HETATM   10  C4  UNL     1     -35.245   5.982   4.582  1.00 20.00     0.005 A 
HETATM   11  C5  UNL     1     -34.537   4.768   5.118  1.00 20.00     0.005 A 
ENDBRANCH   8   9
ENDBRANCH   1   8
TORSDOF 5
ENDMDL
MODEL 2
REMARK VINA RESULT:      -4.6      1.040      4.237
REMARK  5 active torsions:
REMARK  status: ('A' for Active; 'I' for Inactive)
REMARK    1  A    between atoms: C2_2  and  C8_8 
REMARK    2  A    between atoms: C2_2  and  C9_9 
REMARK    3  A    between atoms: C3_3  and  C8_8 
REMARK    4  A    between atoms: C3_3  and  C10_10 
REMARK    5  A    between atoms: C6_6  and  C10_10 
ROOT
HETATM    1  C3  UNL     1     -32.640   8.333   4.413  1.00 20.00     0.131 C 
HETATM    2  O11 UNL     1     -31.997   9.116   5.113  1.00 20.00    -0.298 OA
ENDROOT
BRANCH   1   3
HETATM    3  C8  UNL     1     -34.119   8.049   4.650  1.00 20.00     0.111 C 
BRANCH   3   4
HETATM    4  C2  UNL     1     -34.333   6.737   5.359  1.00 20.00    -0.083 C 
HETATM    5  C1  UNL     1     -33.942   6.566   6.632  1.00 20.00     0.014 C 
BRANCH   4   6
HETATM    6  C9  UNL     1     -34.996   5.619   4.588  1.00 20.00     0.029 C 
HETATM    7  C7  UNL     1     -34.040   4.477   4.271  1.00 20.00     0.010 C 
ENDBRANCH   4   6
ENDBRANCH   3   4
ENDBRANCH   1   3
BRANCH   1   8
HETATM    8  C10 UNL     1     -32.020   7.619   3.227  1.00 20.00     0.083 C 
BRANCH   8   9
HETATM    9  C6  UNL     1     -32.689   7.920   1.923  1.00 20.00    -0.008 A 
HETATM   10  C4  UNL     1     -32.799   9.338   1.437  1.00 20.00     0.005 A 
HETATM   11  C5  UNL     1     -31.878   8.374   0.742  1.00 20.00     0.005 A 
ENDBRANCH   8   9
ENDBRANCH   1   8
TORSDOF 5
ENDMDL
MODEL 3
REMARK VINA RESULT:      -4.2      0.611      1.510
REMARK  5 active torsions:
REMARK  status: ('A' for Active; 'I' for Inactive)
REMARK    1  A    between atoms: C2_2  and  C8_8 
REMARK    2  A    between atoms: C2_2  and  C9_9 
REMARK    3  A    between atoms: C3_3  and  C8_8 
REMARK    4  A    between atoms: C3_3  and  C10_10 
REMARK    5  A    between atoms: C6_6  and  C10_10 
ROOT
HETATM    1  C3  UNL     1     -33.421   8.246   5.485  1.00 20.00     0.131 C 
HETATM    2  O11 UNL     1     -34.384   9.010   5.555  1.00 20.00    -0.298 OA
ENDROOT
BRANCH   1   3
HETATM    3  C8  UNL     1     -32.180   8.566   4.659  1.00 20.00     0.111 C 
BRANCH   3   4
HETATM    4  C2  UNL     1     -32.351   8.177   3.213  1.00 20.00    -0.083 C 
HETATM    5  C1  UNL     1     -32.946   9.004   2.340  1.00 20.00     0.014 C 
BRANCH   4   6
HETATM    6  C9  UNL     1     -31.836   6.823   2.782  1.00 20.00     0.029 C 
HETATM    7  C7  UNL     1     -32.955   5.824   2.525  1.00 20.00     0.010 C 
ENDBRANCH   4   6
ENDBRANCH   3   4
ENDBRANCH   1   3
BRANCH   1   8
HETATM    8  C10 UNL     1     -33.374   6.938   6.254  1.00 20.00     0.083 C 
BRANCH   8   9
HETATM    9  C6  UNL     1     -34.624   6.124   6.138  1.00 20.00    -0.008 A 
HETATM   10  C4  UNL     1     -35.266   5.908   4.797  1.00 20.00     0.005 A 
HETATM   11  C5  UNL     1     -34.586   4.765   5.497  1.00 20.00     0.005 A 
ENDBRANCH   8   9
ENDBRANCH   1   8
TORSDOF 5
ENDMDL
MODEL 4
REMARK VINA RESULT:      -4.1      1.448      3.776
REMARK  5 active torsions:
REMARK  status: ('A' for Active; 'I' for Inactive)
REMARK    1  A    between atoms: C2_2  and  C8_8 
REMARK    2  A    between atoms: C2_2  and  C9_9 
REMARK    3  A    between atoms: C3_3  and  C8_8 
REMARK    4  A    between atoms: C3_3  and  C10_10 
REMARK    5  A    between atoms: C6_6  and  C10_10 
ROOT
HETATM    1  C3  UNL     1     -33.727   7.000   6.287  1.00 20.00     0.131 C 
HETATM    2  O11 UNL     1     -32.783   6.860   7.064  1.00 20.00    -0.298 OA
ENDROOT
BRANCH   1   3
HETATM    3  C8  UNL     1     -34.824   5.952   6.134  1.00 20.00     0.111 C 
BRANCH   3   4
HETATM    4  C2  UNL     1     -34.986   5.511   4.703  1.00 20.00    -0.083 C 
HETATM    5  C1  UNL     1     -35.987   5.980   3.943  1.00 20.00     0.014 C 
BRANCH   4   6
HETATM    6  C9  UNL     1     -33.986   4.520   4.154  1.00 20.00     0.029 C 
HETATM    7  C7  UNL     1     -33.342   4.992   2.858  1.00 20.00     0.010 C 
ENDBRANCH   4   6
ENDBRANCH   3   4
ENDBRANCH   1   3
BRANCH   1   8
HETATM    8  C10 UNL     1     -33.897   8.251   5.446  1.00 20.00     0.083 C 
BRANCH   8   9
HETATM    9  C6  UNL     1     -32.646   8.687   4.750  1.00 20.00    -0.008 A 
HETATM   10  C4  UNL     1     -31.941   7.755   3.805  1.00 20.00     0.005 A 
HETATM   11  C5  UNL     1     -32.659   8.963   3.273  1.00 20.00     0.005 A 
ENDBRANCH   8   9
ENDBRANCH   1   8
TORSDOF 5
ENDMDL
MODEL 5
REMARK VINA RESULT:      -4.0      1.716      2.405
REMARK  5 active torsions:
REMARK  status: ('A' for Active; 'I' for Inactive)
REMARK    1  A    between atoms: C2_2  and  C8_8 
REMARK    2  A    between atoms: C2_2  and  C9_9 
REMARK    3  A    between atoms: C3_3  and  C8_8 
REMARK    4  A    between atoms: C3_3  and  C10_10 
REMARK    5  A    between atoms: C6_6  and  C10_10 
ROOT
HETATM    1  C3  UNL     1     -33.256   5.952   3.263  1.00 20.00     0.131 C 
HETATM    2  O11 UNL     1     -33.234   4.787   2.867  1.00 20.00    -0.298 OA
ENDROOT
BRANCH   1   3
HETATM    3  C8  UNL     1     -32.101   6.919   3.027  1.00 20.00     0.111 C 
BRANCH   3   4
HETATM    4  C2  UNL     1     -32.456   8.328   3.427  1.00 20.00    -0.083 C 
HETATM    5  C1  UNL     1     -32.411   8.714   4.711  1.00 20.00     0.014 C 
BRANCH   4   6
HETATM    6  C9  UNL     1     -32.868   9.288   2.335  1.00 20.00     0.029 C 
HETATM    7  C7  UNL     1     -32.450   8.815   0.949  1.00 20.00     0.010 C 
ENDBRANCH   4   6
ENDBRANCH   3   4
ENDBRANCH   1   3
BRANCH   1   8
HETATM    8  C10 UNL     1     -34.458   6.534   3.984  1.00 20.00     0.083 C 
BRANCH   8   9
HETATM    9  C6  UNL     1     -34.923   5.713   5.144  1.00 20.00    -0.008 A 
HETATM   10  C4  UNL     1     -33.925   5.050   6.052  1.00 20.00     0.005 A 
HETATM   11  C5  UNL     1     -34.738   6.213   6.549  1.00 20.00     0.005 A 
ENDBRANCH   8   9
ENDBRANCH   1   8
TORSDOF 5
ENDMDL
MODEL 6
REMARK VINA RESULT:      -4.0      1.326      4.702
REMARK  5 active torsions:
REMARK  status: ('A' for Active; 'I' for Inactive)
REMARK    1  A    between atoms: C2_2  and  C8_8 
REMARK    2  A    between atoms: C2_2  and  C9_9 
REMARK    3  A    between atoms: C3_3  and  C8_8 
REMARK    4  A    between atoms: C3_3  and  C10_10 
REMARK    5  A    between atoms: C6_6  and  C10_10 
ROOT
HETATM    1  C3  UNL     1     -32.455   7.929   3.721  1.00 20.00     0.131 C 
HETATM    2  O11 UNL     1     -31.433   8.180   4.360  1.00 20.00    -0.298 OA
ENDROOT
BRANCH   1   3
HETATM    3  C8  UNL     1     -33.852   8.117   4.302  1.00 20.00     0.111 C 
BRANCH   3   4
HETATM    4  C2  UNL     1     -34.389   6.843   4.900  1.00 20.00    -0.083 C 
HETATM    5  C1  UNL     1     -35.141   6.001   4.174  1.00 20.00     0.014 C 
BRANCH   4   6
HETATM    6  C9  UNL     1     -34.058   6.548   6.344  1.00 20.00     0.029 C 
HETATM    7  C7  UNL     1     -34.392   5.118   6.743  1.00 20.00     0.010 C 
ENDBRANCH   4   6
ENDBRANCH   3   4
ENDBRANCH   1   3
BRANCH   1   8
HETATM    8  C10 UNL     1     -32.406   7.449   2.281  1.00 20.00     0.083 C 
BRANCH   8   9
HETATM    9  C6  UNL     1     -32.026   8.515   1.303  1.00 20.00    -0.008 A 
HETATM   10  C4  UNL     1     -32.838   8.722   0.054  1.00 20.00     0.005 A 
HETATM   11  C5  UNL     1     -32.878   9.745   1.155  1.00 20.00     0.005 A 
ENDBRANCH   8   9
ENDBRANCH   1   8
TORSDOF 5
ENDMDL
MODEL 7
REMARK VINA RESULT:      -4.0      1.917      4.458
REMARK  5 active torsions:
REMARK  status: ('A' for Active; 'I' for Inactive)
REMARK    1  A    between atoms: C2_2  and  C8_8 
REMARK    2  A    between atoms: C2_2  and  C9_9 
REMARK    3  A    between atoms: C3_3  and  C8_8 
REMARK    4  A    between atoms: C3_3  and  C10_10 
REMARK    5  A    between atoms: C6_6  and  C10_10 
ROOT
HETATM    1  C3  UNL     1     -33.886   4.914   3.809  1.00 20.00     0.131 C 
HETATM    2  O11 UNL     1     -33.863   3.722   4.114  1.00 20.00    -0.298 OA
ENDROOT
BRANCH   1   3
HETATM    3  C8  UNL     1     -34.797   5.920   4.504  1.00 20.00     0.111 C 
BRANCH   3   4
HETATM    4  C2  UNL     1     -34.463   6.066   5.966  1.00 20.00    -0.083 C 
HETATM    5  C1  UNL     1     -34.904   5.177   6.869  1.00 20.00     0.014 C 
BRANCH   4   6
HETATM    6  C9  UNL     1     -33.619   7.249   6.381  1.00 20.00     0.029 C 
HETATM    7  C7  UNL     1     -34.000   8.528   5.648  1.00 20.00     0.010 C 
ENDBRANCH   4   6
ENDBRANCH   3   4
ENDBRANCH   1   3
BRANCH   1   8
HETATM    8  C10 UNL     1     -32.973   5.490   2.741  1.00 20.00     0.083 C 
BRANCH   8   9
HETATM    9  C6  UNL     1     -32.929   6.985   2.726  1.00 20.00    -0.008 A 
HETATM   10  C4  UNL     1     -31.713   7.712   3.229  1.00 20.00     0.005 A 
HETATM   11  C5  UNL     1     -32.032   7.706   1.760  1.00 20.00     0.005 A 
ENDBRANCH   8   9
ENDBRANCH   1   8
TORSDOF 5
ENDMDL
MODEL 8
REMARK VINA RESULT:      -3.9      9.512     10.746
REMARK  5 active torsions:
REMARK  status: ('A' for Active; 'I' for Inactive)
REMARK    1  A    between atoms: C2_2  and  C8_8 
REMARK    2  A    between atoms: C2_2  and  C9_9 
REMARK    3  A    between atoms: C3_3  and  C8_8 
REMARK    4  A    between atoms: C3_3  and  C10_10 
REMARK    5  A    between atoms: C6_6  and  C10_10 
ROOT
HETATM    1  C3  UNL     1     -41.889  13.146   6.701  1.00 20.00     0.131 C 
HETATM    2  O11 UNL     1     -42.332  12.112   7.200  1.00 20.00    -0.298 OA
ENDROOT
BRANCH   1   3
HETATM    3  C8  UNL     1     -42.213  14.528   7.258  1.00 20.00     0.111 C 
BRANCH   3   4
HETATM    4  C2  UNL     1     -41.002  15.187   7.866  1.00 20.00    -0.083 C 
HETATM    5  C1  UNL     1     -40.629  16.423   7.499  1.00 20.00     0.014 C 
BRANCH   4   6
HETATM    6  C9  UNL     1     -40.219  14.408   8.897  1.00 20.00     0.029 C 
HETATM    7  C7  UNL     1     -40.944  14.308  10.232  1.00 20.00     0.010 C 
ENDBRANCH   4   6
ENDBRANCH   3   4
ENDBRANCH   1   3
BRANCH   1   8
HETATM    8  C10 UNL     1     -40.947  13.126   5.511  1.00 20.00     0.083 C 
BRANCH   8   9
HETATM    9  C6  UNL     1     -40.031  11.943   5.486  1.00 20.00    -0.008 A 
HETATM   10  C4  UNL     1     -39.141  11.699   4.300  1.00 20.00     0.005 A 
HETATM   11  C5  UNL     1     -38.546  12.134   5.609  1.00 20.00     0.005 A 
ENDBRANCH   8   9
ENDBRANCH   1   8
TORSDOF 5
ENDMDL
MODEL 9
REMARK VINA RESULT:      -3.9     11.345     12.307
REMARK  5 active torsions:
REMARK  status: ('A' for Active; 'I' for Inactive)
REMARK    1  A    between atoms: C2_2  and  C8_8 
REMARK    2  A    between atoms: C2_2  and  C9_9 
REMARK    3  A    between atoms: C3_3  and  C8_8 
REMARK    4  A    between atoms: C3_3  and  C10_10 
REMARK    5  A    between atoms: C6_6  and  C10_10 
ROOT
HETATM    1  C3  UNL     1     -33.881  18.000  -2.089  1.00 20.00     0.131 C 
HETATM    2  O11 UNL     1     -35.020  18.418  -2.297  1.00 20.00    -0.298 OA
ENDROOT
BRANCH   1   3
HETATM    3  C8  UNL     1     -32.746  18.911  -1.631  1.00 20.00     0.111 C 
BRANCH   3   4
HETATM    4  C2  UNL     1     -32.412  18.704  -0.176  1.00 20.00    -0.083 C 
HETATM    5  C1  UNL     1     -33.371  18.706   0.761  1.00 20.00     0.014 C 
BRANCH   4   6
HETATM    6  C9  UNL     1     -30.960  18.501   0.191  1.00 20.00     0.029 C 
HETATM    7  C7  UNL     1     -30.757  18.279   1.683  1.00 20.00     0.010 C 
ENDBRANCH   4   6
ENDBRANCH   3   4
ENDBRANCH   1   3
BRANCH   1   8
HETATM    8  C10 UNL     1     -33.523  16.532  -2.230  1.00 20.00     0.083 C 
BRANCH   8   9
HETATM    9  C6  UNL     1     -33.164  16.130  -3.626  1.00 20.00    -0.008 A 
HETATM   10  C4  UNL     1     -33.574  14.785  -4.157  1.00 20.00     0.005 A 
HETATM   11  C5  UNL     1     -34.227  16.033  -4.684  1.00 20.00     0.005 A 
ENDBRANCH   8   9
ENDBRANCH   1   8
TORSDOF 5
ENDMDL
