MODEL 1
REMARK VINA RESULT:      -4.2      0.000      0.000
REMARK  4 active torsions:
REMARK  status: ('A' for Active; 'I' for Inactive)
REMARK    1  A    between atoms: C1_1  and  C4_4 
REMARK    2  A    between atoms: C1_1  and  C9_9 
REMARK    3  A    between atoms: C9_9  and  C10_10 
REMARK    4  A    between atoms: C10_10  and  C11_11 
ROOT
HETATM    1  C1  UNL     1     -34.091  14.815  -4.379  1.00 20.00     0.135 C 
HETATM    2  O12 UNL     1     -34.384  13.726  -3.905  1.00 20.00    -0.297 OA
ENDROOT
BRANCH   1   3
HETATM    3  C4  UNL     1     -34.798  15.312  -5.596  1.00 20.00     0.017 A 
HETATM    4  C2  UNL     1     -35.850  16.375  -5.382  1.00 20.00     0.018 A 
HETATM    5  C3  UNL     1     -36.265  14.974  -5.712  1.00 20.00     0.018 A 
HETATM    6  C5  UNL     1     -33.996  15.375  -6.866  1.00 20.00     0.023 C 
ENDBRANCH   1   3
BRANCH   1   7
HETATM    7  C9  UNL     1     -33.036  15.747  -3.819  1.00 20.00     0.080 C 
BRANCH   7   8
HETATM    8  C10 UNL     1     -33.487  16.405  -2.512  1.00 20.00     0.015 C 
BRANCH   8   9
HETATM    9  C11 UNL     1     -33.496  17.957  -2.508  1.00 20.00    -0.051 C 
HETATM   10  C6  UNL     1     -32.433  18.440  -1.501  1.00 20.00     0.014 C 
HETATM   11  C7  UNL     1     -34.865  18.504  -2.071  1.00 20.00     0.014 C 
HETATM   12  C8  UNL     1     -33.145  18.520  -3.895  1.00 20.00     0.014 C 
ENDBRANCH   8   9
ENDBRANCH   7   8
ENDBRANCH   1   7
TORSDOF 4
ENDMDL
MODEL 2
REMARK VINA RESULT:      -4.1      0.548      1.815
REMARK  4 active torsions:
REMARK  status: ('A' for Active; 'I' for Inactive)
REMARK    1  A    between atoms: C1_1  and  C4_4 
REMARK    2  A    between atoms: C1_1  and  C9_9 
REMARK    3  A    between atoms: C9_9  and  C10_10 
REMARK    4  A    between atoms: C10_10  and  C11_11 
ROOT
HETATM    1  C1  UNL     1     -33.978  14.902  -4.336  1.00 20.00     0.135 C 
HETATM    2  O12 UNL     1     -34.019  13.756  -3.908  1.00 20.00    -0.297 OA
ENDROOT
BRANCH   1   3
HETATM    3  C4  UNL     1     -34.842  15.300  -5.486  1.00 20.00     0.017 A 
HETATM    4  C2  UNL     1     -34.174  15.384  -6.838  1.00 20.00     0.018 A 
HETATM    5  C3  UNL     1     -34.554  16.641  -6.117  1.00 20.00     0.018 A 
HETATM    6  C5  UNL     1     -36.274  14.843  -5.446  1.00 20.00     0.023 C 
ENDBRANCH   1   3
BRANCH   1   7
HETATM    7  C9  UNL     1     -33.094  16.002  -3.781  1.00 20.00     0.080 C 
BRANCH   7   8
HETATM    8  C10 UNL     1     -33.562  16.472  -2.402  1.00 20.00     0.015 C 
BRANCH   8   9
HETATM    9  C11 UNL     1     -33.364  17.981  -2.102  1.00 20.00    -0.051 C 
HETATM   10  C6  UNL     1     -32.989  18.687  -3.420  1.00 20.00     0.014 C 
HETATM   11  C7  UNL     1     -32.229  18.203  -1.089  1.00 20.00     0.014 C 
HETATM   12  C8  UNL     1     -34.656  18.615  -1.561  1.00 20.00     0.014 C 
ENDBRANCH   8   9
ENDBRANCH   7   8
ENDBRANCH   1   7
TORSDOF 4
ENDMDL
MODEL 3
REMARK VINA RESULT:      -3.7      1.568      2.412
REMARK  4 active torsions:
REMARK  status: ('A' for Active; 'I' for Inactive)
REMARK    1  A    between atoms: C1_1  and  C4_4 
REMARK    2  A    between atoms: C1_1  and  C9_9 
REMARK    3  A    between atoms: C9_9  and  C10_10 
REMARK    4  A    between atoms: C10_10  and  C11_11 
ROOT
HETATM    1  C1  UNL     1     -34.393  16.708  -4.360  1.00 20.00     0.135 C 
HETATM    2  O12 UNL     1     -35.237  17.556  -4.619  1.00 20.00    -0.297 OA
ENDROOT
BRANCH   1   3
HETATM    3  C4  UNL     1     -34.479  15.356  -4.988  1.00 20.00     0.017 A 
HETATM    4  C2  UNL     1     -34.094  15.262  -6.446  1.00 20.00     0.018 A 
HETATM    5  C3  UNL     1     -35.536  15.170  -6.051  1.00 20.00     0.018 A 
HETATM    6  C5  UNL     1     -34.162  14.179  -4.108  1.00 20.00     0.023 C 
ENDBRANCH   1   3
BRANCH   1   7
HETATM    7  C9  UNL     1     -33.220  16.912  -3.423  1.00 20.00     0.080 C 
BRANCH   7   8
HETATM    8  C10 UNL     1     -33.651  16.906  -1.955  1.00 20.00     0.015 C 
BRANCH   8   9
HETATM    9  C11 UNL     1     -33.597  18.278  -1.232  1.00 20.00    -0.051 C 
HETATM   10  C6  UNL     1     -34.918  19.021  -1.514  1.00 20.00     0.014 C 
HETATM   11  C7  UNL     1     -32.433  19.136  -1.753  1.00 20.00     0.014 C 
HETATM   12  C8  UNL     1     -33.453  18.101   0.289  1.00 20.00     0.014 C 
ENDBRANCH   8   9
ENDBRANCH   7   8
ENDBRANCH   1   7
TORSDOF 4
ENDMDL
MODEL 4
REMARK VINA RESULT:      -3.5      1.562      2.094
REMARK  4 active torsions:
REMARK  status: ('A' for Active; 'I' for Inactive)
REMARK    1  A    between atoms: C1_1  and  C4_4 
REMARK    2  A    between atoms: C1_1  and  C9_9 
REMARK    3  A    between atoms: C9_9  and  C10_10 
REMARK    4  A    between atoms: C10_10  and  C11_11 
ROOT
HETATM    1  C1  UNL     1     -34.580  16.673  -4.529  1.00 20.00     0.135 C 
HETATM    2  O12 UNL     1     -35.620  17.302  -4.666  1.00 20.00    -0.297 OA
ENDROOT
BRANCH   1   3
HETATM    3  C4  UNL     1     -34.417  15.348  -5.197  1.00 20.00     0.017 A 
HETATM    4  C2  UNL     1     -35.331  14.239  -4.732  1.00 20.00     0.018 A 
HETATM    5  C3  UNL     1     -33.884  14.221  -4.344  1.00 20.00     0.018 A 
HETATM    6  C5  UNL     1     -34.028  15.366  -6.649  1.00 20.00     0.023 C 
ENDBRANCH   1   3
BRANCH   1   7
HETATM    7  C9  UNL     1     -33.391  17.135  -3.711  1.00 20.00     0.080 C 
BRANCH   7   8
HETATM    8  C10 UNL     1     -33.638  16.988  -2.208  1.00 20.00     0.015 C 
BRANCH   8   9
HETATM    9  C11 UNL     1     -33.762  18.315  -1.413  1.00 20.00    -0.051 C 
HETATM   10  C6  UNL     1     -32.639  19.262  -1.884  1.00 20.00     0.014 C 
HETATM   11  C7  UNL     1     -33.598  18.078   0.097  1.00 20.00     0.014 C 
HETATM   12  C8  UNL     1     -35.115  18.997  -1.675  1.00 20.00     0.014 C 
ENDBRANCH   8   9
ENDBRANCH   7   8
ENDBRANCH   1   7
TORSDOF 4
ENDMDL
MODEL 5
REMARK VINA RESULT:      -3.5      1.332      4.507
REMARK  4 active torsions:
REMARK  status: ('A' for Active; 'I' for Inactive)
REMARK    1  A    between atoms: C1_1  and  C4_4 
REMARK    2  A    between atoms: C1_1  and  C9_9 
REMARK    3  A    between atoms: C9_9  and  C10_10 
REMARK    4  A    between atoms: C10_10  and  C11_11 
ROOT
HETATM    1  C1  UNL     1     -33.316  17.027  -2.517  1.00 20.00     0.135 C 
HETATM    2  O12 UNL     1     -33.687  16.608  -1.429  1.00 20.00    -0.297 OA
ENDROOT
BRANCH   1   3
HETATM    3  C4  UNL     1     -33.105  18.491  -2.719  1.00 20.00     0.017 A 
HETATM    4  C2  UNL     1     -34.252  19.262  -3.328  1.00 20.00     0.018 A 
HETATM    5  C3  UNL     1     -33.032  18.973  -4.148  1.00 20.00     0.018 A 
HETATM    6  C5  UNL     1     -32.254  19.199  -1.701  1.00 20.00     0.023 C 
ENDBRANCH   1   3
BRANCH   1   7
HETATM    7  C9  UNL     1     -33.035  16.161  -3.728  1.00 20.00     0.080 C 
BRANCH   7   8
HETATM    8  C10 UNL     1     -34.114  15.093  -3.931  1.00 20.00     0.015 C 
BRANCH   8   9
HETATM    9  C11 UNL     1     -34.976  15.243  -5.212  1.00 20.00    -0.051 C 
HETATM   10  C6  UNL     1     -35.986  14.078  -5.249  1.00 20.00     0.014 C 
HETATM   11  C7  UNL     1     -34.108  15.176  -6.479  1.00 20.00     0.014 C 
HETATM   12  C8  UNL     1     -35.759  16.566  -5.205  1.00 20.00     0.014 C 
ENDBRANCH   8   9
ENDBRANCH   7   8
ENDBRANCH   1   7
TORSDOF 4
ENDMDL
MODEL 6
REMARK VINA RESULT:      -3.4      1.824      4.818
REMARK  4 active torsions:
REMARK  status: ('A' for Active; 'I' for Inactive)
REMARK    1  A    between atoms: C1_1  and  C4_4 
REMARK    2  A    between atoms: C1_1  and  C9_9 
REMARK    3  A    between atoms: C9_9  and  C10_10 
REMARK    4  A    between atoms: C10_10  and  C11_11 
ROOT
HETATM    1  C1  UNL     1     -34.920  18.310  -3.232  1.00 20.00     0.135 C 
HETATM    2  O12 UNL     1     -36.065  18.629  -2.942  1.00 20.00    -0.297 OA
ENDROOT
BRANCH   1   3
HETATM    3  C4  UNL     1     -33.829  18.450  -2.222  1.00 20.00     0.017 A 
HETATM    4  C2  UNL     1     -33.599  17.271  -1.307  1.00 20.00     0.018 A 
HETATM    5  C3  UNL     1     -34.253  18.509  -0.774  1.00 20.00     0.018 A 
HETATM    6  C5  UNL     1     -32.629  19.259  -2.630  1.00 20.00     0.023 C 
ENDBRANCH   1   3
BRANCH   1   7
HETATM    7  C9  UNL     1     -34.488  17.762  -4.577  1.00 20.00     0.080 C 
BRANCH   7   8
HETATM    8  C10 UNL     1     -35.437  16.672  -5.083  1.00 20.00     0.015 C 
BRANCH   8   9
HETATM    9  C11 UNL     1     -34.801  15.273  -5.298  1.00 20.00    -0.051 C 
HETATM   10  C6  UNL     1     -35.935  14.229  -5.316  1.00 20.00     0.014 C 
HETATM   11  C7  UNL     1     -33.832  14.921  -4.157  1.00 20.00     0.014 C 
HETATM   12  C8  UNL     1     -34.052  15.202  -6.638  1.00 20.00     0.014 C 
ENDBRANCH   8   9
ENDBRANCH   7   8
ENDBRANCH   1   7
TORSDOF 4
ENDMDL
MODEL 7
REMARK VINA RESULT:      -3.4      2.042      4.841
REMARK  4 active torsions:
REMARK  status: ('A' for Active; 'I' for Inactive)
REMARK    1  A    between atoms: C1_1  and  C4_4 
REMARK    2  A    between atoms: C1_1  and  C9_9 
REMARK    3  A    between atoms: C9_9  and  C10_10 
REMARK    4  A    between atoms: C10_10  and  C11_11 
ROOT
HETATM    1  C1  UNL     1     -33.697  18.261  -3.958  1.00 20.00     0.135 C 
HETATM    2  O12 UNL     1     -32.906  19.152  -4.236  1.00 20.00    -0.297 OA
ENDROOT
BRANCH   1   3
HETATM    3  C4  UNL     1     -33.420  17.350  -2.807  1.00 20.00     0.017 A 
HETATM    4  C2  UNL     1     -33.997  17.753  -1.471  1.00 20.00     0.018 A 
HETATM    5  C3  UNL     1     -32.526  17.891  -1.717  1.00 20.00     0.018 A 
HETATM    6  C5  UNL     1     -33.334  15.881  -3.113  1.00 20.00     0.023 C 
ENDBRANCH   1   3
BRANCH   1   7
HETATM    7  C9  UNL     1     -34.988  17.986  -4.703  1.00 20.00     0.080 C 
BRANCH   7   8
HETATM    8  C10 UNL     1     -34.734  17.568  -6.153  1.00 20.00     0.015 C 
BRANCH   8   9
HETATM    9  C11 UNL     1     -35.275  16.170  -6.556  1.00 20.00    -0.051 C 
HETATM   10  C6  UNL     1     -34.077  15.205  -6.664  1.00 20.00     0.014 C 
HETATM   11  C7  UNL     1     -35.986  16.220  -7.918  1.00 20.00     0.014 C 
HETATM   12  C8  UNL     1     -36.246  15.623  -5.497  1.00 20.00     0.014 C 
ENDBRANCH   8   9
ENDBRANCH   7   8
ENDBRANCH   1   7
TORSDOF 4
ENDMDL
MODEL 8
REMARK VINA RESULT:      -3.3      1.701      4.881
REMARK  4 active torsions:
REMARK  status: ('A' for Active; 'I' for Inactive)
REMARK    1  A    between atoms: C1_1  and  C4_4 
REMARK    2  A    between atoms: C1_1  and  C9_9 
REMARK    3  A    between atoms: C9_9  and  C10_10 
REMARK    4  A    between atoms: C10_10  and  C11_11 
ROOT
HETATM    1  C1  UNL     1     -33.411  17.781  -2.736  1.00 20.00     0.135 C 
HETATM    2  O12 UNL     1     -32.881  18.431  -3.628  1.00 20.00    -0.297 OA
ENDROOT
BRANCH   1   3
HETATM    3  C4  UNL     1     -33.932  18.472  -1.519  1.00 20.00     0.017 A 
HETATM    4  C2  UNL     1     -32.902  18.992  -0.545  1.00 20.00     0.018 A 
HETATM    5  C3  UNL     1     -33.705  17.776  -0.198  1.00 20.00     0.018 A 
HETATM    6  C5  UNL     1     -35.199  19.263  -1.681  1.00 20.00     0.023 C 
ENDBRANCH   1   3
BRANCH   1   7
HETATM    7  C9  UNL     1     -33.596  16.277  -2.755  1.00 20.00     0.080 C 
BRANCH   7   8
HETATM    8  C10 UNL     1     -33.262  15.675  -4.122  1.00 20.00     0.015 C 
BRANCH   8   9
HETATM    9  C11 UNL     1     -34.478  15.339  -5.025  1.00 20.00    -0.051 C 
HETATM   10  C6  UNL     1     -33.960  15.105  -6.459  1.00 20.00     0.014 C 
HETATM   11  C7  UNL     1     -35.487  16.498  -5.054  1.00 20.00     0.014 C 
HETATM   12  C8  UNL     1     -35.188  14.061  -4.550  1.00 20.00     0.014 C 
ENDBRANCH   8   9
ENDBRANCH   7   8
ENDBRANCH   1   7
TORSDOF 4
ENDMDL
MODEL 9
REMARK VINA RESULT:      -3.3      1.389      4.757
REMARK  4 active torsions:
REMARK  status: ('A' for Active; 'I' for Inactive)
REMARK    1  A    between atoms: C1_1  and  C4_4 
REMARK    2  A    between atoms: C1_1  and  C9_9 
REMARK    3  A    between atoms: C9_9  and  C10_10 
REMARK    4  A    between atoms: C10_10  and  C11_11 
ROOT
HETATM    1  C1  UNL     1     -33.817  16.908  -3.610  1.00 20.00     0.135 C 
HETATM    2  O12 UNL     1     -33.241  15.845  -3.418  1.00 20.00    -0.297 OA
ENDROOT
BRANCH   1   3
HETATM    3  C4  UNL     1     -34.059  17.841  -2.469  1.00 20.00     0.017 A 
HETATM    4  C2  UNL     1     -32.837  18.457  -1.829  1.00 20.00     0.018 A 
HETATM    5  C3  UNL     1     -33.590  17.381  -1.109  1.00 20.00     0.018 A 
HETATM    6  C5  UNL     1     -35.308  18.675  -2.530  1.00 20.00     0.023 C 
ENDBRANCH   1   3
BRANCH   1   7
HETATM    7  C9  UNL     1     -34.328  17.386  -4.954  1.00 20.00     0.080 C 
BRANCH   7   8
HETATM    8  C10 UNL     1     -34.423  16.244  -5.970  1.00 20.00     0.015 C 
BRANCH   8   9
HETATM    9  C11 UNL     1     -35.832  15.619  -6.149  1.00 20.00    -0.051 C 
HETATM   10  C6  UNL     1     -36.025  15.293  -7.644  1.00 20.00     0.014 C 
HETATM   11  C7  UNL     1     -36.935  16.599  -5.718  1.00 20.00     0.014 C 
HETATM   12  C8  UNL     1     -35.969  14.316  -5.344  1.00 20.00     0.014 C 
ENDBRANCH   8   9
ENDBRANCH   7   8
ENDBRANCH   1   7
TORSDOF 4
ENDMDL
