MODEL 1
REMARK VINA RESULT:      -3.3      0.000      0.000
REMARK  1 active torsions:
REMARK  status: ('A' for Active; 'I' for Inactive)
REMARK    1  A    between atoms: C5_5  and  C6_6 
ROOT
HETATM    1  C3  UNL     1     -33.713  19.256  -5.317  1.00 20.00     0.282 C 
HETATM    2  C4  UNL     1     -34.866  18.530  -5.991  1.00 20.00     0.106 C 
HETATM    3  C6  UNL     1     -33.928  17.474  -3.756  1.00 20.00     0.208 C 
HETATM    4  C8  UNL     1     -33.381  16.055  -3.608  1.00 20.00     0.062 C 
HETATM    5  N9  UNL     1     -32.967  18.271  -4.532  1.00 20.00     0.104 N 
HETATM    6  S10 UNL     1     -35.493  17.428  -4.705  1.00 20.00    -0.126 SA
HETATM    7  H25 UNL     1     -32.478  17.657  -5.185  1.00 20.00     0.318 HD
ENDROOT
BRANCH   3   8
HETATM    8  C5  UNL     1     -34.187  18.097  -2.380  1.00 20.00     0.001 A 
HETATM    9  C1  UNL     1     -33.654  17.376  -1.164  1.00 20.00     0.013 A 
HETATM   10  C2  UNL     1     -33.005  18.652  -1.620  1.00 20.00     0.013 A 
HETATM   11  C7  UNL     1     -35.504  18.813  -2.255  1.00 20.00     0.019 C 
ENDBRANCH   3   8
TORSDOF 1
ENDMDL
MODEL 2
REMARK VINA RESULT:      -3.3      2.201      2.683
REMARK  1 active torsions:
REMARK  status: ('A' for Active; 'I' for Inactive)
REMARK    1  A    between atoms: C5_5  and  C6_6 
ROOT
HETATM    1  C3  UNL     1     -34.461  16.209  -7.377  1.00 20.00     0.282 C 
HETATM    2  C4  UNL     1     -35.703  15.332  -7.376  1.00 20.00     0.106 C 
HETATM    3  C6  UNL     1     -34.490  15.693  -5.055  1.00 20.00     0.208 C 
HETATM    4  C8  UNL     1     -33.947  14.583  -4.157  1.00 20.00     0.062 C 
HETATM    5  N9  UNL     1     -33.630  15.802  -6.243  1.00 20.00     0.104 N 
HETATM    6  S10 UNL     1     -36.168  15.244  -5.634  1.00 20.00    -0.126 SA
HETATM    7  H25 UNL     1     -33.241  14.882  -6.455  1.00 20.00     0.318 HD
ENDROOT
BRANCH   3   8
HETATM    8  C5  UNL     1     -34.556  17.020  -4.290  1.00 20.00     0.001 A 
HETATM    9  C1  UNL     1     -33.834  17.111  -2.966  1.00 20.00     0.013 A 
HETATM   10  C2  UNL     1     -33.285  17.829  -4.166  1.00 20.00     0.013 A 
HETATM   11  C7  UNL     1     -35.853  17.765  -4.439  1.00 20.00     0.019 C 
ENDBRANCH   3   8
TORSDOF 1
ENDMDL
MODEL 3
REMARK VINA RESULT:      -3.3      2.281      3.712
REMARK  1 active torsions:
REMARK  status: ('A' for Active; 'I' for Inactive)
REMARK    1  A    between atoms: C5_5  and  C6_6 
ROOT
HETATM    1  C3  UNL     1     -37.053  16.621  -5.760  1.00 20.00     0.282 C 
HETATM    2  C4  UNL     1     -36.634  17.806  -6.615  1.00 20.00     0.106 C 
HETATM    3  C6  UNL     1     -34.823  16.824  -4.958  1.00 20.00     0.208 C 
HETATM    4  C8  UNL     1     -34.103  17.612  -3.864  1.00 20.00     0.062 C 
HETATM    5  N9  UNL     1     -36.223  16.629  -4.554  1.00 20.00     0.104 N 
HETATM    6  S10 UNL     1     -34.831  17.800  -6.506  1.00 20.00    -0.126 SA
HETATM    7  H25 UNL     1     -36.516  17.419  -3.978  1.00 20.00     0.318 HD
ENDROOT
BRANCH   3   8
HETATM    8  C5  UNL     1     -34.121  15.484  -5.206  1.00 20.00     0.001 A 
HETATM    9  C1  UNL     1     -33.069  15.041  -4.216  1.00 20.00     0.013 A 
HETATM   10  C2  UNL     1     -34.402  14.350  -4.248  1.00 20.00     0.013 A 
HETATM   11  C7  UNL     1     -33.912  15.146  -6.656  1.00 20.00     0.019 C 
ENDBRANCH   3   8
TORSDOF 1
ENDMDL
MODEL 4
REMARK VINA RESULT:      -3.2      2.892      4.778
REMARK  1 active torsions:
REMARK  status: ('A' for Active; 'I' for Inactive)
REMARK    1  A    between atoms: C5_5  and  C6_6 
ROOT
HETATM    1  C3  UNL     1     -34.278  17.185  -4.117  1.00 20.00     0.282 C 
HETATM    2  C4  UNL     1     -33.365  16.126  -3.521  1.00 20.00     0.106 C 
HETATM    3  C6  UNL     1     -35.108  15.318  -5.337  1.00 20.00     0.208 C 
HETATM    4  C8  UNL     1     -36.167  14.237  -5.128  1.00 20.00     0.062 C 
HETATM    5  N9  UNL     1     -35.497  16.513  -4.573  1.00 20.00     0.104 N 
HETATM    6  S10 UNL     1     -33.506  14.739  -4.667  1.00 20.00    -0.126 SA
HETATM    7  H25 UNL     1     -36.020  16.222  -3.746  1.00 20.00     0.318 HD
ENDROOT
BRANCH   3   8
HETATM    8  C5  UNL     1     -34.949  15.636  -6.828  1.00 20.00     0.001 A 
HETATM    9  C1  UNL     1     -36.142  15.418  -7.729  1.00 20.00     0.013 A 
HETATM   10  C2  UNL     1     -35.712  16.816  -7.385  1.00 20.00     0.013 A 
HETATM   11  C7  UNL     1     -33.583  15.353  -7.387  1.00 20.00     0.019 C 
ENDBRANCH   3   8
TORSDOF 1
ENDMDL
MODEL 5
REMARK VINA RESULT:      -3.1      2.281      3.281
REMARK  1 active torsions:
REMARK  status: ('A' for Active; 'I' for Inactive)
REMARK    1  A    between atoms: C5_5  and  C6_6 
ROOT
HETATM    1  C3  UNL     1     -35.076  18.140  -5.025  1.00 20.00     0.282 C 
HETATM    2  C4  UNL     1     -36.382  17.909  -5.767  1.00 20.00     0.106 C 
HETATM    3  C6  UNL     1     -34.581  15.978  -5.886  1.00 20.00     0.208 C 
HETATM    4  C8  UNL     1     -33.981  15.404  -7.169  1.00 20.00     0.062 C 
HETATM    5  N9  UNL     1     -34.045  17.332  -5.680  1.00 20.00     0.104 N 
HETATM    6  S10 UNL     1     -36.394  16.130  -6.076  1.00 20.00    -0.126 SA
HETATM    7  H25 UNL     1     -33.850  17.753  -6.590  1.00 20.00     0.318 HD
ENDROOT
BRANCH   3   8
HETATM    8  C5  UNL     1     -34.270  15.068  -4.693  1.00 20.00     0.001 A 
HETATM    9  C1  UNL     1     -32.820  14.789  -4.373  1.00 20.00     0.013 A 
HETATM   10  C2  UNL     1     -33.622  15.690  -3.477  1.00 20.00     0.013 A 
HETATM   11  C7  UNL     1     -35.265  13.963  -4.472  1.00 20.00     0.019 C 
ENDBRANCH   3   8
TORSDOF 1
ENDMDL
MODEL 6
REMARK VINA RESULT:      -3.1     12.753     14.131
REMARK  1 active torsions:
REMARK  status: ('A' for Active; 'I' for Inactive)
REMARK    1  A    between atoms: C5_5  and  C6_6 
ROOT
HETATM    1  C3  UNL     1     -40.237  14.442   9.256  1.00 20.00     0.282 C 
HETATM    2  C4  UNL     1     -41.552  14.846   9.902  1.00 20.00     0.106 C 
HETATM    3  C6  UNL     1     -41.535  14.608   7.269  1.00 20.00     0.208 C 
HETATM    4  C8  UNL     1     -41.912  15.709   6.277  1.00 20.00     0.062 C 
HETATM    5  N9  UNL     1     -40.243  14.950   7.883  1.00 20.00     0.104 N 
HETATM    6  S10 UNL     1     -42.778  14.545   8.610  1.00 20.00    -0.126 SA
HETATM    7  H25 UNL     1     -40.154  15.966   7.926  1.00 20.00     0.318 HD
ENDROOT
BRANCH   3   8
HETATM    8  C5  UNL     1     -41.476  13.248   6.566  1.00 20.00     0.001 A 
HETATM    9  C1  UNL     1     -40.970  13.207   5.143  1.00 20.00     0.013 A 
HETATM   10  C2  UNL     1     -40.115  12.670   6.255  1.00 20.00     0.013 A 
HETATM   11  C7  UNL     1     -42.574  12.296   6.951  1.00 20.00     0.019 C 
ENDBRANCH   3   8
TORSDOF 1
ENDMDL
MODEL 7
REMARK VINA RESULT:      -3.1     14.103     15.077
REMARK  1 active torsions:
REMARK  status: ('A' for Active; 'I' for Inactive)
REMARK    1  A    between atoms: C5_5  and  C6_6 
ROOT
HETATM    1  C3  UNL     1     -42.494   4.325   1.562  1.00 20.00     0.282 C 
HETATM    2  C4  UNL     1     -43.411   4.015   0.389  1.00 20.00     0.106 C 
HETATM    3  C6  UNL     1     -42.530   6.500   0.597  1.00 20.00     0.208 C 
HETATM    4  C8  UNL     1     -43.409   7.746   0.698  1.00 20.00     0.062 C 
HETATM    5  N9  UNL     1     -42.623   5.753   1.860  1.00 20.00     0.104 N 
HETATM    6  S10 UNL     1     -43.167   5.411  -0.730  1.00 20.00    -0.126 SA
HETATM    7  H25 UNL     1     -43.547   5.904   2.268  1.00 20.00     0.318 HD
ENDROOT
BRANCH   3   8
HETATM    8  C5  UNL     1     -41.081   6.887   0.283  1.00 20.00     0.001 A 
HETATM    9  C1  UNL     1     -40.789   8.333  -0.043  1.00 20.00     0.013 A 
HETATM   10  C2  UNL     1     -40.351   7.763   1.276  1.00 20.00     0.013 A 
HETATM   11  C7  UNL     1     -40.291   5.829  -0.436  1.00 20.00     0.019 C 
ENDBRANCH   3   8
TORSDOF 1
ENDMDL
MODEL 8
REMARK VINA RESULT:      -3.1      2.424      3.436
REMARK  1 active torsions:
REMARK  status: ('A' for Active; 'I' for Inactive)
REMARK    1  A    between atoms: C5_5  and  C6_6 
ROOT
HETATM    1  C3  UNL     1     -36.227  14.880  -5.303  1.00 20.00     0.282 C 
HETATM    2  C4  UNL     1     -35.684  14.762  -6.718  1.00 20.00     0.106 C 
HETATM    3  C6  UNL     1     -34.588  16.599  -5.164  1.00 20.00     0.208 C 
HETATM    4  C8  UNL     1     -34.516  18.094  -5.474  1.00 20.00     0.062 C 
HETATM    5  N9  UNL     1     -35.980  16.249  -4.847  1.00 20.00     0.104 N 
HETATM    6  S10 UNL     1     -34.110  15.645  -6.651  1.00 20.00    -0.126 SA
HETATM    7  H25 UNL     1     -36.604  16.869  -5.366  1.00 20.00     0.318 HD
ENDROOT
BRANCH   3   8
HETATM    8  C5  UNL     1     -33.646  16.243  -4.009  1.00 20.00     0.001 A 
HETATM    9  C1  UNL     1     -32.915  17.370  -3.318  1.00 20.00     0.013 A 
HETATM   10  C2  UNL     1     -34.043  16.670  -2.615  1.00 20.00     0.013 A 
HETATM   11  C7  UNL     1     -32.930  14.931  -4.166  1.00 20.00     0.019 C 
ENDBRANCH   3   8
TORSDOF 1
ENDMDL
MODEL 9
REMARK VINA RESULT:      -3.0     24.884     26.278
REMARK  1 active torsions:
REMARK  status: ('A' for Active; 'I' for Inactive)
REMARK    1  A    between atoms: C5_5  and  C6_6 
ROOT
HETATM    1  C3  UNL     1     -27.326  -0.709  10.024  1.00 20.00     0.282 C 
HETATM    2  C4  UNL     1     -27.961  -0.660  11.404  1.00 20.00     0.106 C 
HETATM    3  C6  UNL     1     -26.530  -2.806  10.819  1.00 20.00     0.208 C 
HETATM    4  C8  UNL     1     -27.039  -4.246  10.854  1.00 20.00     0.062 C 
HETATM    5  N9  UNL     1     -27.140  -2.118   9.671  1.00 20.00     0.104 N 
HETATM    6  S10 UNL     1     -27.074  -1.930  12.332  1.00 20.00    -0.126 SA
HETATM    7  H25 UNL     1     -28.062  -2.520   9.495  1.00 20.00     0.318 HD
ENDROOT
BRANCH   3   8
HETATM    8  C5  UNL     1     -25.001  -2.777  10.738  1.00 20.00     0.001 A 
HETATM    9  C1  UNL     1     -24.279  -4.081  10.489  1.00 20.00     0.013 A 
HETATM   10  C2  UNL     1     -24.357  -3.051   9.399  1.00 20.00     0.013 A 
HETATM   11  C7  UNL     1     -24.344  -1.771  11.642  1.00 20.00     0.019 C 
ENDBRANCH   3   8
TORSDOF 1
ENDMDL
