MODEL 1
REMARK VINA RESULT:      -4.4      0.000      0.000
REMARK  5 active torsions:
REMARK  status: ('A' for Active; 'I' for Inactive)
REMARK    1  A    between atoms: C5_5  and  C7_7 
REMARK    2  A    between atoms: C6_6  and  C8_8 
REMARK    3  A    between atoms: C7_7  and  C9_9 
REMARK    4  A    between atoms: C8_8  and  C9_9 
REMARK    5  A    between atoms: C9_9  and  O10_10 
ROOT
HETATM    1  C1  UNL     1     -34.730   4.999   6.094  1.00 20.00     0.012 C 
HETATM    2  C2  UNL     1     -34.315   6.124   6.145  1.00 20.00    -0.117 C 
HETATM    3  C5  UNL     1     -33.805   7.502   6.212  1.00 20.00     0.096 C 
ENDROOT
BRANCH   3   4
HETATM    4  C7  UNL     1     -33.941   8.201   4.858  1.00 20.00     0.049 C 
BRANCH   4   5
HETATM    5  C9  UNL     1     -32.611   8.494   4.128  1.00 20.00     0.055 C 
HETATM    6  C4  UNL     1     -32.817   9.510   2.996  1.00 20.00     0.045 C 
BRANCH   5   7
HETATM    7  C8  UNL     1     -31.896   7.244   3.565  1.00 20.00     0.037 C 
BRANCH   7   8
HETATM    8  C6  UNL     1     -32.618   6.554   2.403  1.00 20.00    -0.002 C 
HETATM    9  C3  UNL     1     -33.003   5.126   2.763  1.00 20.00     0.005 C 
ENDBRANCH   7   8
ENDBRANCH   5   7
BRANCH   5  10
HETATM   10  O10 UNL     1     -31.732   9.129   5.066  1.00 20.00    -0.390 OA
HETATM   11  H26 UNL     1     -30.992   9.474   4.547  1.00 20.00     0.210 HD
ENDBRANCH   5  10
ENDBRANCH   4   5
ENDBRANCH   3   4
TORSDOF 5
ENDMDL
MODEL 2
REMARK VINA RESULT:      -4.1      2.146      4.252
REMARK  5 active torsions:
REMARK  status: ('A' for Active; 'I' for Inactive)
REMARK    1  A    between atoms: C5_5  and  C7_7 
REMARK    2  A    between atoms: C6_6  and  C8_8 
REMARK    3  A    between atoms: C7_7  and  C9_9 
REMARK    4  A    between atoms: C8_8  and  C9_9 
REMARK    5  A    between atoms: C9_9  and  O10_10 
ROOT
HETATM    1  C1  UNL     1     -32.039   7.119   2.390  1.00 20.00     0.012 C 
HETATM    2  C2  UNL     1     -32.697   6.151   2.658  1.00 20.00    -0.117 C 
HETATM    3  C5  UNL     1     -33.504   4.964   2.981  1.00 20.00     0.096 C 
ENDROOT
BRANCH   3   4
HETATM    4  C7  UNL     1     -33.549   4.731   4.493  1.00 20.00     0.049 C 
BRANCH   4   5
HETATM    5  C9  UNL     1     -34.567   5.599   5.266  1.00 20.00     0.055 C 
HETATM    6  C4  UNL     1     -35.636   6.164   4.322  1.00 20.00     0.045 C 
BRANCH   5   7
HETATM    7  C8  UNL     1     -33.942   6.756   6.078  1.00 20.00     0.037 C 
BRANCH   7   8
HETATM    8  C6  UNL     1     -34.022   8.133   5.408  1.00 20.00    -0.002 C 
HETATM    9  C3  UNL     1     -32.642   8.761   5.272  1.00 20.00     0.005 C 
ENDBRANCH   7   8
ENDBRANCH   5   7
BRANCH   5  10
HETATM   10  O10 UNL     1     -35.267   4.739   6.177  1.00 20.00    -0.390 OA
HETATM   11  H26 UNL     1     -36.069   5.216   6.430  1.00 20.00     0.210 HD
ENDBRANCH   5  10
ENDBRANCH   4   5
ENDBRANCH   3   4
TORSDOF 5
ENDMDL
MODEL 3
REMARK VINA RESULT:      -3.9     11.932     13.331
REMARK  5 active torsions:
REMARK  status: ('A' for Active; 'I' for Inactive)
REMARK    1  A    between atoms: C5_5  and  C7_7 
REMARK    2  A    between atoms: C6_6  and  C8_8 
REMARK    3  A    between atoms: C7_7  and  C9_9 
REMARK    4  A    between atoms: C8_8  and  C9_9 
REMARK    5  A    between atoms: C9_9  and  O10_10 
ROOT
HETATM    1  C1  UNL     1     -33.448  16.951  -2.292  1.00 20.00     0.012 C 
HETATM    2  C2  UNL     1     -33.323  16.117  -3.147  1.00 20.00    -0.117 C 
HETATM    3  C5  UNL     1     -33.165  15.095  -4.193  1.00 20.00     0.096 C 
ENDROOT
BRANCH   3   4
HETATM    4  C7  UNL     1     -34.515  14.470  -4.554  1.00 20.00     0.049 C 
BRANCH   4   5
HETATM    5  C9  UNL     1     -35.173  15.018  -5.841  1.00 20.00     0.055 C 
HETATM    6  C4  UNL     1     -34.112  15.416  -6.875  1.00 20.00     0.045 C 
BRANCH   5   7
HETATM    7  C8  UNL     1     -36.136  16.206  -5.616  1.00 20.00     0.037 C 
BRANCH   7   8
HETATM    8  C6  UNL     1     -35.520  17.591  -5.849  1.00 20.00    -0.002 C 
HETATM    9  C3  UNL     1     -35.855  18.542  -4.710  1.00 20.00     0.005 C 
ENDBRANCH   7   8
ENDBRANCH   5   7
BRANCH   5  10
HETATM   10  O10 UNL     1     -35.916  13.946  -6.438  1.00 20.00    -0.390 OA
HETATM   11  H26 UNL     1     -35.861  13.206  -5.817  1.00 20.00     0.210 HD
ENDBRANCH   5  10
ENDBRANCH   4   5
ENDBRANCH   3   4
TORSDOF 5
ENDMDL
MODEL 4
REMARK VINA RESULT:      -3.7      2.152      3.693
REMARK  5 active torsions:
REMARK  status: ('A' for Active; 'I' for Inactive)
REMARK    1  A    between atoms: C5_5  and  C7_7 
REMARK    2  A    between atoms: C6_6  and  C8_8 
REMARK    3  A    between atoms: C7_7  and  C9_9 
REMARK    4  A    between atoms: C8_8  and  C9_9 
REMARK    5  A    between atoms: C9_9  and  O10_10 
ROOT
HETATM    1  C1  UNL     1     -31.989   9.188   4.728  1.00 20.00     0.012 C 
HETATM    2  C2  UNL     1     -32.866   8.543   5.234  1.00 20.00    -0.117 C 
HETATM    3  C5  UNL     1     -33.940   7.756   5.858  1.00 20.00     0.096 C 
ENDROOT
BRANCH   3   4
HETATM    4  C7  UNL     1     -34.661   6.895   4.818  1.00 20.00     0.049 C 
BRANCH   4   5
HETATM    5  C9  UNL     1     -34.549   5.369   5.030  1.00 20.00     0.055 C 
HETATM    6  C4  UNL     1     -34.248   5.039   6.498  1.00 20.00     0.045 C 
BRANCH   5   7
HETATM    7  C8  UNL     1     -33.509   4.667   4.127  1.00 20.00     0.037 C 
BRANCH   7   8
HETATM    8  C6  UNL     1     -33.406   5.226   2.704  1.00 20.00    -0.002 C 
HETATM    9  C3  UNL     1     -32.292   6.256   2.595  1.00 20.00     0.005 C 
ENDBRANCH   7   8
ENDBRANCH   5   7
BRANCH   5  10
HETATM   10  O10 UNL     1     -35.837   4.798   4.759  1.00 20.00    -0.390 OA
HETATM   11  H26 UNL     1     -35.740   4.302   3.934  1.00 20.00     0.210 HD
ENDBRANCH   5  10
ENDBRANCH   4   5
ENDBRANCH   3   4
TORSDOF 5
ENDMDL
MODEL 5
REMARK VINA RESULT:      -3.7      1.548      3.777
REMARK  5 active torsions:
REMARK  status: ('A' for Active; 'I' for Inactive)
REMARK    1  A    between atoms: C5_5  and  C7_7 
REMARK    2  A    between atoms: C6_6  and  C8_8 
REMARK    3  A    between atoms: C7_7  and  C9_9 
REMARK    4  A    between atoms: C8_8  and  C9_9 
REMARK    5  A    between atoms: C9_9  and  O10_10 
ROOT
HETATM    1  C1  UNL     1     -32.537   8.992   0.947  1.00 20.00     0.012 C 
HETATM    2  C2  UNL     1     -32.390   8.228   1.862  1.00 20.00    -0.117 C 
HETATM    3  C5  UNL     1     -32.209   7.290   2.980  1.00 20.00     0.096 C 
ENDROOT
BRANCH   3   4
HETATM    4  C7  UNL     1     -32.327   8.012   4.323  1.00 20.00     0.049 C 
BRANCH   4   5
HETATM    5  C9  UNL     1     -33.598   7.686   5.140  1.00 20.00     0.055 C 
HETATM    6  C4  UNL     1     -33.236   7.064   6.495  1.00 20.00     0.045 C 
BRANCH   5   7
HETATM    7  C8  UNL     1     -34.613   6.772   4.416  1.00 20.00     0.037 C 
BRANCH   7   8
HETATM    8  C6  UNL     1     -34.799   5.386   5.045  1.00 20.00    -0.002 C 
HETATM    9  C3  UNL     1     -34.018   4.325   4.284  1.00 20.00     0.005 C 
ENDBRANCH   7   8
ENDBRANCH   5   7
BRANCH   5  10
HETATM   10  O10 UNL     1     -34.250   8.927   5.443  1.00 20.00    -0.390 OA
HETATM   11  H26 UNL     1     -35.194   8.775   5.297  1.00 20.00     0.210 HD
ENDBRANCH   5  10
ENDBRANCH   4   5
ENDBRANCH   3   4
TORSDOF 5
ENDMDL
MODEL 6
REMARK VINA RESULT:      -3.7      9.087     10.646
REMARK  5 active torsions:
REMARK  status: ('A' for Active; 'I' for Inactive)
REMARK    1  A    between atoms: C5_5  and  C7_7 
REMARK    2  A    between atoms: C6_6  and  C8_8 
REMARK    3  A    between atoms: C7_7  and  C9_9 
REMARK    4  A    between atoms: C8_8  and  C9_9 
REMARK    5  A    between atoms: C9_9  and  O10_10 
ROOT
HETATM    1  C1  UNL     1     -38.903  11.698   3.396  1.00 20.00     0.012 C 
HETATM    2  C2  UNL     1     -39.256  11.675   4.544  1.00 20.00    -0.117 C 
HETATM    3  C5  UNL     1     -39.687  11.642   5.950  1.00 20.00     0.096 C 
ENDROOT
BRANCH   3   4
HETATM    4  C7  UNL     1     -40.051  13.044   6.442  1.00 20.00     0.049 C 
BRANCH   4   5
HETATM    5  C9  UNL     1     -41.528  13.238   6.854  1.00 20.00     0.055 C 
HETATM    6  C4  UNL     1     -42.325  13.923   5.736  1.00 20.00     0.045 C 
BRANCH   5   7
HETATM    7  C8  UNL     1     -41.733  14.016   8.174  1.00 20.00     0.037 C 
BRANCH   7   8
HETATM    8  C6  UNL     1     -40.495  14.765   8.682  1.00 20.00    -0.002 C 
HETATM    9  C3  UNL     1     -40.570  16.247   8.342  1.00 20.00     0.005 C 
ENDBRANCH   7   8
ENDBRANCH   5   7
BRANCH   5  10
HETATM   10  O10 UNL     1     -42.110  11.936   7.006  1.00 20.00    -0.390 OA
HETATM   11  H26 UNL     1     -41.832  11.428   6.231  1.00 20.00     0.210 HD
ENDBRANCH   5  10
ENDBRANCH   4   5
ENDBRANCH   3   4
TORSDOF 5
ENDMDL
MODEL 7
REMARK VINA RESULT:      -3.7      1.241      3.183
REMARK  5 active torsions:
REMARK  status: ('A' for Active; 'I' for Inactive)
REMARK    1  A    between atoms: C5_5  and  C7_7 
REMARK    2  A    between atoms: C6_6  and  C8_8 
REMARK    3  A    between atoms: C7_7  and  C9_9 
REMARK    4  A    between atoms: C8_8  and  C9_9 
REMARK    5  A    between atoms: C9_9  and  O10_10 
ROOT
HETATM    1  C1  UNL     1     -33.066   4.582   2.624  1.00 20.00     0.012 C 
HETATM    2  C2  UNL     1     -32.752   5.739   2.570  1.00 20.00    -0.117 C 
HETATM    3  C5  UNL     1     -32.368   7.157   2.499  1.00 20.00     0.096 C 
ENDROOT
BRANCH   3   4
HETATM    4  C7  UNL     1     -31.815   7.641   3.841  1.00 20.00     0.049 C 
BRANCH   4   5
HETATM    5  C9  UNL     1     -32.866   8.194   4.830  1.00 20.00     0.055 C 
HETATM    6  C4  UNL     1     -32.380   9.496   5.478  1.00 20.00     0.045 C 
BRANCH   5   7
HETATM    7  C8  UNL     1     -33.294   7.203   5.937  1.00 20.00     0.037 C 
BRANCH   7   8
HETATM    8  C6  UNL     1     -34.602   6.453   5.663  1.00 20.00    -0.002 C 
HETATM    9  C3  UNL     1     -34.503   4.996   6.093  1.00 20.00     0.005 C 
ENDBRANCH   7   8
ENDBRANCH   5   7
BRANCH   5  10
HETATM   10  O10 UNL     1     -34.031   8.548   4.071  1.00 20.00    -0.390 OA
HETATM   11  H26 UNL     1     -34.717   8.760   4.719  1.00 20.00     0.210 HD
ENDBRANCH   5  10
ENDBRANCH   4   5
ENDBRANCH   3   4
TORSDOF 5
ENDMDL
MODEL 8
REMARK VINA RESULT:      -3.7      1.611      2.130
REMARK  5 active torsions:
REMARK  status: ('A' for Active; 'I' for Inactive)
REMARK    1  A    between atoms: C5_5  and  C7_7 
REMARK    2  A    between atoms: C6_6  and  C8_8 
REMARK    3  A    between atoms: C7_7  and  C9_9 
REMARK    4  A    between atoms: C8_8  and  C9_9 
REMARK    5  A    between atoms: C9_9  and  O10_10 
ROOT
HETATM    1  C1  UNL     1     -34.653   4.987   6.270  1.00 20.00     0.012 C 
HETATM    2  C2  UNL     1     -34.348   6.138   6.116  1.00 20.00    -0.117 C 
HETATM    3  C5  UNL     1     -33.974   7.548   5.931  1.00 20.00     0.096 C 
ENDROOT
BRANCH   3   4
HETATM    4  C7  UNL     1     -34.023   7.937   4.452  1.00 20.00     0.049 C 
BRANCH   4   5
HETATM    5  C9  UNL     1     -32.677   8.388   3.842  1.00 20.00     0.055 C 
HETATM    6  C4  UNL     1     -31.853   9.189   4.859  1.00 20.00     0.045 C 
BRANCH   5   7
HETATM    7  C8  UNL     1     -32.802   9.204   2.535  1.00 20.00     0.037 C 
BRANCH   7   8
HETATM    8  C6  UNL     1     -32.180   8.544   1.299  1.00 20.00    -0.002 C 
HETATM    9  C3  UNL     1     -32.790   9.091   0.016  1.00 20.00     0.005 C 
ENDBRANCH   7   8
ENDBRANCH   5   7
BRANCH   5  10
HETATM   10  O10 UNL     1     -31.910   7.208   3.563  1.00 20.00    -0.390 OA
HETATM   11  H26 UNL     1     -32.221   6.536   4.184  1.00 20.00     0.210 HD
ENDBRANCH   5  10
ENDBRANCH   4   5
ENDBRANCH   3   4
TORSDOF 5
ENDMDL
MODEL 9
REMARK VINA RESULT:      -3.6     11.750     12.485
REMARK  5 active torsions:
REMARK  status: ('A' for Active; 'I' for Inactive)
REMARK    1  A    between atoms: C5_5  and  C7_7 
REMARK    2  A    between atoms: C6_6  and  C8_8 
REMARK    3  A    between atoms: C7_7  and  C9_9 
REMARK    4  A    between atoms: C8_8  and  C9_9 
REMARK    5  A    between atoms: C9_9  and  O10_10 
ROOT
HETATM    1  C1  UNL     1     -31.457  18.671  -0.474  1.00 20.00     0.012 C 
HETATM    2  C2  UNL     1     -32.449  18.108  -0.848  1.00 20.00    -0.117 C 
HETATM    3  C5  UNL     1     -33.668  17.420  -1.302  1.00 20.00     0.096 C 
ENDROOT
BRANCH   3   4
HETATM    4  C7  UNL     1     -33.388  16.583  -2.551  1.00 20.00     0.049 C 
BRANCH   4   5
HETATM    5  C9  UNL     1     -33.950  17.157  -3.872  1.00 20.00     0.055 C 
HETATM    6  C4  UNL     1     -35.158  18.065  -3.607  1.00 20.00     0.045 C 
BRANCH   5   7
HETATM    7  C8  UNL     1     -34.335  16.093  -4.925  1.00 20.00     0.037 C 
BRANCH   7   8
HETATM    8  C6  UNL     1     -34.172  14.639  -4.466  1.00 20.00    -0.002 C 
HETATM    9  C3  UNL     1     -35.479  13.871  -4.591  1.00 20.00     0.005 C 
ENDBRANCH   7   8
ENDBRANCH   5   7
BRANCH   5  10
HETATM   10  O10 UNL     1     -32.942  18.005  -4.439  1.00 20.00    -0.390 OA
HETATM   11  H26 UNL     1     -33.307  18.332  -5.273  1.00 20.00     0.210 HD
ENDBRANCH   5  10
ENDBRANCH   4   5
ENDBRANCH   3   4
TORSDOF 5
ENDMDL
