MODEL 1
REMARK VINA RESULT:      -4.1      0.000      0.000
REMARK  4 active torsions:
REMARK  status: ('A' for Active; 'I' for Inactive)
REMARK    1  A    between atoms: C5_5  and  C6_6 
REMARK    2  A    between atoms: C5_5  and  C8_8 
REMARK    3  A    between atoms: C6_6  and  C7_7 
REMARK    4  A    between atoms: C6_6  and  N9_9 
ROOT
HETATM    1  C6  UNL     1     -33.784  16.557  -3.862  1.00 20.00     0.285 C 
ENDROOT
BRANCH   1   2
HETATM    2  C5  UNL     1     -33.404  16.733  -2.375  1.00 20.00     0.049 C 
BRANCH   2   3
HETATM    3  C8  UNL     1     -33.107  18.171  -1.856  1.00 20.00    -0.049 C 
HETATM    4  C1  UNL     1     -32.817  19.133  -3.021  1.00 20.00     0.014 C 
HETATM    5  C2  UNL     1     -34.368  18.672  -1.119  1.00 20.00     0.014 C 
HETATM    6  C3  UNL     1     -31.934  18.211  -0.866  1.00 20.00     0.014 C 
ENDBRANCH   2   3
ENDBRANCH   1   2
BRANCH   1   7
HETATM    7  C7  UNL     1     -33.432  15.149  -4.346  1.00 20.00     0.386 C 
HETATM    8  F10 UNL     1     -32.122  14.882  -4.120  1.00 20.00    -0.212 F 
HETATM    9  F11 UNL     1     -34.145  14.232  -3.642  1.00 20.00    -0.212 F 
ENDBRANCH   1   7
BRANCH   1  10
HETATM   10  N9  UNL     1     -35.211  16.780  -4.084  1.00 20.00     0.089 N 
HETATM   11  C4  UNL     1     -35.516  16.786  -5.507  1.00 20.00     0.307 C 
HETATM   12  H28 UNL     1     -35.472  17.677  -3.678  1.00 20.00     0.316 HD
ENDBRANCH   1  10
TORSDOF 4
ENDMDL
MODEL 2
REMARK VINA RESULT:      -4.0     11.963     12.883
REMARK  4 active torsions:
REMARK  status: ('A' for Active; 'I' for Inactive)
REMARK    1  A    between atoms: C5_5  and  C6_6 
REMARK    2  A    between atoms: C5_5  and  C8_8 
REMARK    3  A    between atoms: C6_6  and  C7_7 
REMARK    4  A    between atoms: C6_6  and  N9_9 
ROOT
HETATM    1  C6  UNL     1     -33.388   8.026   4.131  1.00 20.00     0.285 C 
ENDROOT
BRANCH   1   2
HETATM    2  C5  UNL     1     -33.213   6.493   4.213  1.00 20.00     0.049 C 
BRANCH   2   3
HETATM    3  C8  UNL     1     -34.364   5.654   4.844  1.00 20.00    -0.049 C 
HETATM    4  C1  UNL     1     -35.730   6.061   4.265  1.00 20.00     0.014 C 
HETATM    5  C2  UNL     1     -34.112   4.172   4.489  1.00 20.00     0.014 C 
HETATM    6  C3  UNL     1     -34.410   5.771   6.374  1.00 20.00     0.014 C 
ENDBRANCH   2   3
ENDBRANCH   1   2
BRANCH   1   7
HETATM    7  C7  UNL     1     -32.984   8.687   5.449  1.00 20.00     0.386 C 
HETATM    8  F10 UNL     1     -32.121   9.708   5.224  1.00 20.00    -0.212 F 
HETATM    9  F11 UNL     1     -34.078   9.225   6.046  1.00 20.00    -0.212 F 
ENDBRANCH   1   7
BRANCH   1  10
HETATM   10  N9  UNL     1     -32.582   8.603   3.057  1.00 20.00     0.089 N 
HETATM   11  C4  UNL     1     -32.165   7.575   2.115  1.00 20.00     0.307 C 
HETATM   12  H28 UNL     1     -31.759   9.045   3.462  1.00 20.00     0.316 HD
ENDBRANCH   1  10
TORSDOF 4
ENDMDL
MODEL 3
REMARK VINA RESULT:      -4.0     12.119     12.950
REMARK  4 active torsions:
REMARK  status: ('A' for Active; 'I' for Inactive)
REMARK    1  A    between atoms: C5_5  and  C6_6 
REMARK    2  A    between atoms: C5_5  and  C8_8 
REMARK    3  A    between atoms: C6_6  and  C7_7 
REMARK    4  A    between atoms: C6_6  and  N9_9 
ROOT
HETATM    1  C6  UNL     1     -33.837   6.384   5.000  1.00 20.00     0.285 C 
ENDROOT
BRANCH   1   2
HETATM    2  C5  UNL     1     -34.002   7.790   4.380  1.00 20.00     0.049 C 
BRANCH   2   3
HETATM    3  C8  UNL     1     -32.740   8.487   3.792  1.00 20.00    -0.049 C 
HETATM    4  C1  UNL     1     -31.932   9.194   4.893  1.00 20.00     0.014 C 
HETATM    5  C2  UNL     1     -31.848   7.392   3.167  1.00 20.00     0.014 C 
HETATM    6  C3  UNL     1     -33.084   9.500   2.690  1.00 20.00     0.014 C 
ENDBRANCH   2   3
ENDBRANCH   1   2
BRANCH   1   7
HETATM    7  C7  UNL     1     -34.148   6.415   6.497  1.00 20.00     0.386 C 
HETATM    8  F10 UNL     1     -34.472   7.672   6.889  1.00 20.00    -0.212 F 
HETATM    9  F11 UNL     1     -35.227   5.634   6.757  1.00 20.00    -0.212 F 
ENDBRANCH   1   7
BRANCH   1  10
HETATM   10  N9  UNL     1     -34.719   5.407   4.364  1.00 20.00     0.089 N 
HETATM   11  C4  UNL     1     -33.972   4.228   3.953  1.00 20.00     0.307 C 
HETATM   12  H28 UNL     1     -35.152   5.835   3.548  1.00 20.00     0.316 HD
ENDBRANCH   1  10
TORSDOF 4
ENDMDL
MODEL 4
REMARK VINA RESULT:      -3.9     12.109     12.895
REMARK  4 active torsions:
REMARK  status: ('A' for Active; 'I' for Inactive)
REMARK    1  A    between atoms: C5_5  and  C6_6 
REMARK    2  A    between atoms: C5_5  and  C8_8 
REMARK    3  A    between atoms: C6_6  and  C7_7 
REMARK    4  A    between atoms: C6_6  and  N9_9 
ROOT
HETATM    1  C6  UNL     1     -33.829   6.399   5.012  1.00 20.00     0.285 C 
ENDROOT
BRANCH   1   2
HETATM    2  C5  UNL     1     -33.969   7.813   4.404  1.00 20.00     0.049 C 
BRANCH   2   3
HETATM    3  C8  UNL     1     -32.712   8.460   3.750  1.00 20.00    -0.049 C 
HETATM    4  C1  UNL     1     -33.112   9.503   2.693  1.00 20.00     0.014 C 
HETATM    5  C2  UNL     1     -31.923   9.180   4.865  1.00 20.00     0.014 C 
HETATM    6  C3  UNL     1     -31.780   7.422   3.107  1.00 20.00     0.014 C 
ENDBRANCH   2   3
ENDBRANCH   1   2
BRANCH   1   7
HETATM    7  C7  UNL     1     -34.157   6.419   6.506  1.00 20.00     0.386 C 
HETATM    8  F10 UNL     1     -34.493   7.672   6.902  1.00 20.00    -0.212 F 
HETATM    9  F11 UNL     1     -35.235   5.631   6.749  1.00 20.00    -0.212 F 
ENDBRANCH   1   7
BRANCH   1  10
HETATM   10  N9  UNL     1     -34.715   5.440   4.356  1.00 20.00     0.089 N 
HETATM   11  C4  UNL     1     -33.981   4.249   3.955  1.00 20.00     0.307 C 
HETATM   12  H28 UNL     1     -35.126   5.878   3.534  1.00 20.00     0.316 HD
ENDBRANCH   1  10
TORSDOF 4
ENDMDL
MODEL 5
REMARK VINA RESULT:      -3.9     12.116     13.058
REMARK  4 active torsions:
REMARK  status: ('A' for Active; 'I' for Inactive)
REMARK    1  A    between atoms: C5_5  and  C6_6 
REMARK    2  A    between atoms: C5_5  and  C8_8 
REMARK    3  A    between atoms: C6_6  and  C7_7 
REMARK    4  A    between atoms: C6_6  and  N9_9 
ROOT
HETATM    1  C6  UNL     1     -33.183   7.685   4.117  1.00 20.00     0.285 C 
ENDROOT
BRANCH   1   2
HETATM    2  C5  UNL     1     -33.296   6.603   5.215  1.00 20.00     0.049 C 
BRANCH   2   3
HETATM    3  C8  UNL     1     -34.443   5.556   5.102  1.00 20.00    -0.049 C 
HETATM    4  C1  UNL     1     -33.950   4.262   4.432  1.00 20.00     0.014 C 
HETATM    5  C2  UNL     1     -34.907   5.212   6.534  1.00 20.00     0.014 C 
HETATM    6  C3  UNL     1     -35.657   6.092   4.329  1.00 20.00     0.014 C 
ENDBRANCH   2   3
ENDBRANCH   1   2
BRANCH   1   7
HETATM    7  C7  UNL     1     -33.133   9.081   4.739  1.00 20.00     0.386 C 
HETATM    8  F10 UNL     1     -33.993   9.167   5.785  1.00 20.00    -0.212 F 
HETATM    9  F11 UNL     1     -31.892   9.319   5.233  1.00 20.00    -0.212 F 
ENDBRANCH   1   7
BRANCH   1  10
HETATM   10  N9  UNL     1     -31.987   7.499   3.299  1.00 20.00     0.089 N 
HETATM   11  C4  UNL     1     -32.236   7.899   1.922  1.00 20.00     0.307 C 
HETATM   12  H28 UNL     1     -31.719   6.517   3.323  1.00 20.00     0.316 HD
ENDBRANCH   1  10
TORSDOF 4
ENDMDL
MODEL 6
REMARK VINA RESULT:      -3.8      2.623      4.376
REMARK  4 active torsions:
REMARK  status: ('A' for Active; 'I' for Inactive)
REMARK    1  A    between atoms: C5_5  and  C6_6 
REMARK    2  A    between atoms: C5_5  and  C8_8 
REMARK    3  A    between atoms: C6_6  and  C7_7 
REMARK    4  A    between atoms: C6_6  and  N9_9 
ROOT
HETATM    1  C6  UNL     1     -33.978  15.065  -4.798  1.00 20.00     0.285 C 
ENDROOT
BRANCH   1   2
HETATM    2  C5  UNL     1     -35.039  15.990  -5.435  1.00 20.00     0.049 C 
BRANCH   2   3
HETATM    3  C8  UNL     1     -34.867  16.386  -6.931  1.00 20.00    -0.049 C 
HETATM    4  C1  UNL     1     -33.816  15.502  -7.623  1.00 20.00     0.014 C 
HETATM    5  C2  UNL     1     -36.224  16.162  -7.634  1.00 20.00     0.014 C 
HETATM    6  C3  UNL     1     -34.481  17.862  -7.111  1.00 20.00     0.014 C 
ENDBRANCH   2   3
ENDBRANCH   1   2
BRANCH   1   7
HETATM    7  C7  UNL     1     -33.177  15.817  -3.733  1.00 20.00     0.386 C 
HETATM    8  F10 UNL     1     -33.178  17.149  -3.990  1.00 20.00    -0.212 F 
HETATM    9  F11 UNL     1     -33.762  15.652  -2.520  1.00 20.00    -0.212 F 
ENDBRANCH   1   7
BRANCH   1  10
HETATM   10  N9  UNL     1     -34.588  13.892  -4.176  1.00 20.00     0.089 N 
HETATM   11  C4  UNL     1     -35.954  13.711  -4.645  1.00 20.00     0.307 C 
HETATM   12  H28 UNL     1     -34.591  14.017  -3.166  1.00 20.00     0.316 HD
ENDBRANCH   1  10
TORSDOF 4
ENDMDL
MODEL 7
REMARK VINA RESULT:      -3.8      2.106      2.664
REMARK  4 active torsions:
REMARK  status: ('A' for Active; 'I' for Inactive)
REMARK    1  A    between atoms: C5_5  and  C6_6 
REMARK    2  A    between atoms: C5_5  and  C8_8 
REMARK    3  A    between atoms: C6_6  and  C7_7 
REMARK    4  A    between atoms: C6_6  and  N9_9 
ROOT
HETATM    1  C6  UNL     1     -34.242  15.322  -5.128  1.00 20.00     0.285 C 
ENDROOT
BRANCH   1   2
HETATM    2  C5  UNL     1     -34.617  16.813  -4.968  1.00 20.00     0.049 C 
BRANCH   2   3
HETATM    3  C8  UNL     1     -34.098  17.571  -3.711  1.00 20.00    -0.049 C 
HETATM    4  C1  UNL     1     -33.100  18.676  -4.100  1.00 20.00     0.014 C 
HETATM    5  C2  UNL     1     -35.314  18.238  -3.031  1.00 20.00     0.014 C 
HETATM    6  C3  UNL     1     -33.440  16.636  -2.687  1.00 20.00     0.014 C 
ENDBRANCH   2   3
ENDBRANCH   1   2
BRANCH   1   7
HETATM    7  C7  UNL     1     -35.498  14.465  -5.293  1.00 20.00     0.386 C 
HETATM    8  F10 UNL     1     -35.570  13.534  -4.309  1.00 20.00    -0.212 F 
HETATM    9  F11 UNL     1     -36.602  15.244  -5.175  1.00 20.00    -0.212 F 
ENDBRANCH   1   7
BRANCH   1  10
HETATM   10  N9  UNL     1     -33.377  15.105  -6.286  1.00 20.00     0.089 N 
HETATM   11  C4  UNL     1     -34.017  15.580  -7.504  1.00 20.00     0.307 C 
HETATM   12  H28 UNL     1     -33.183  14.109  -6.372  1.00 20.00     0.316 HD
ENDBRANCH   1  10
TORSDOF 4
ENDMDL
MODEL 8
REMARK VINA RESULT:      -3.8     11.799     12.750
REMARK  4 active torsions:
REMARK  status: ('A' for Active; 'I' for Inactive)
REMARK    1  A    between atoms: C5_5  and  C6_6 
REMARK    2  A    between atoms: C5_5  and  C8_8 
REMARK    3  A    between atoms: C6_6  and  C7_7 
REMARK    4  A    between atoms: C6_6  and  N9_9 
ROOT
HETATM    1  C6  UNL     1     -32.411   7.335   4.086  1.00 20.00     0.285 C 
ENDROOT
BRANCH   1   2
HETATM    2  C5  UNL     1     -33.942   7.244   4.273  1.00 20.00     0.049 C 
BRANCH   2   3
HETATM    3  C8  UNL     1     -34.545   5.897   4.769  1.00 20.00    -0.049 C 
HETATM    4  C1  UNL     1     -34.540   5.819   6.306  1.00 20.00     0.014 C 
HETATM    5  C2  UNL     1     -36.010   5.832   4.287  1.00 20.00     0.014 C 
HETATM    6  C3  UNL     1     -33.807   4.675   4.201  1.00 20.00     0.014 C 
ENDBRANCH   2   3
ENDBRANCH   1   2
BRANCH   1   7
HETATM    7  C7  UNL     1     -32.058   7.531   2.611  1.00 20.00     0.386 C 
HETATM    8  F10 UNL     1     -32.577   6.528   1.861  1.00 20.00    -0.212 F 
HETATM    9  F11 UNL     1     -32.611   8.684   2.157  1.00 20.00    -0.212 F 
ENDBRANCH   1   7
BRANCH   1  10
HETATM   10  N9  UNL     1     -31.839   8.441   4.850  1.00 20.00     0.089 N 
HETATM   11  C4  UNL     1     -32.873   9.140   5.599  1.00 20.00     0.307 C 
HETATM   12  H28 UNL     1     -31.390   9.090   4.207  1.00 20.00     0.316 HD
ENDBRANCH   1  10
TORSDOF 4
ENDMDL
MODEL 9
REMARK VINA RESULT:      -3.7      3.312      4.401
REMARK  4 active torsions:
REMARK  status: ('A' for Active; 'I' for Inactive)
REMARK    1  A    between atoms: C5_5  and  C6_6 
REMARK    2  A    between atoms: C5_5  and  C8_8 
REMARK    3  A    between atoms: C6_6  and  C7_7 
REMARK    4  A    between atoms: C6_6  and  N9_9 
ROOT
HETATM    1  C6  UNL     1     -34.326  15.303  -5.545  1.00 20.00     0.285 C 
ENDROOT
BRANCH   1   2
HETATM    2  C5  UNL     1     -35.808  15.092  -5.930  1.00 20.00     0.049 C 
BRANCH   2   3
HETATM    3  C8  UNL     1     -36.789  16.290  -5.765  1.00 20.00    -0.049 C 
HETATM    4  C1  UNL     1     -36.104  17.477  -5.065  1.00 20.00     0.014 C 
HETATM    5  C2  UNL     1     -37.215  16.744  -7.178  1.00 20.00     0.014 C 
HETATM    6  C3  UNL     1     -38.059  15.912  -4.988  1.00 20.00     0.014 C 
ENDBRANCH   2   3
ENDBRANCH   1   2
BRANCH   1   7
HETATM    7  C7  UNL     1     -33.971  14.489  -4.300  1.00 20.00     0.386 C 
HETATM    8  F10 UNL     1     -33.793  15.307  -3.232  1.00 20.00    -0.212 F 
HETATM    9  F11 UNL     1     -34.998  13.658  -3.988  1.00 20.00    -0.212 F 
ENDBRANCH   1   7
BRANCH   1  10
HETATM   10  N9  UNL     1     -33.427  14.910  -6.628  1.00 20.00     0.089 N 
HETATM   11  C4  UNL     1     -33.772  15.599  -7.861  1.00 20.00     0.307 C 
HETATM   12  H28 UNL     1     -33.501  13.904  -6.770  1.00 20.00     0.316 HD
ENDBRANCH   1  10
TORSDOF 4
ENDMDL
