MODEL 1
REMARK VINA RESULT:      -3.6      0.000      0.000
REMARK  2 active torsions:
REMARK  status: ('A' for Active; 'I' for Inactive)
REMARK    1  A    between atoms: C3_3  and  C7_7 
REMARK    2  A    between atoms: C3_3  and  C8_8 
ROOT
HETATM    1  C1  UNL     1     -40.428  14.079   8.212  1.00 20.00     0.286 C 
HETATM    2  C2  UNL     1     -41.941  13.959   8.383  1.00 20.00     0.074 C 
HETATM    3  C3  UNL     1     -40.897  13.171   6.068  1.00 20.00     0.205 C 
HETATM    4  C4  UNL     1     -42.674  15.287   8.237  1.00 20.00     0.023 C 
HETATM    5  N9  UNL     1     -40.115  14.199   6.780  1.00 20.00     0.104 N 
HETATM    6  S10 UNL     1     -42.413  12.836   7.039  1.00 20.00    -0.122 SA
HETATM    7  H27 UNL     1     -40.338  15.130   6.444  1.00 20.00     0.318 HD
ENDROOT
BRANCH   3   8
HETATM    8  C7  UNL     1     -41.290  13.681   4.678  1.00 20.00     0.048 C 
HETATM    9  C5  UNL     1     -42.586  14.419   4.712  1.00 20.00     0.009 C 
ENDBRANCH   3   8
BRANCH   3  10
HETATM   10  C8  UNL     1     -40.078  11.883   5.947  1.00 20.00     0.048 C 
HETATM   11  C6  UNL     1     -39.350  11.814   4.645  1.00 20.00     0.009 C 
ENDBRANCH   3  10
TORSDOF 2
ENDMDL
MODEL 2
REMARK VINA RESULT:      -3.5     12.586     13.414
REMARK  2 active torsions:
REMARK  status: ('A' for Active; 'I' for Inactive)
REMARK    1  A    between atoms: C3_3  and  C7_7 
REMARK    2  A    between atoms: C3_3  and  C8_8 
ROOT
HETATM    1  C1  UNL     1     -34.058  19.199  -4.944  1.00 20.00     0.286 C 
HETATM    2  C2  UNL     1     -35.482  19.054  -4.409  1.00 20.00     0.074 C 
HETATM    3  C3  UNL     1     -33.502  18.100  -2.913  1.00 20.00     0.205 C 
HETATM    4  C4  UNL     1     -36.265  17.928  -5.074  1.00 20.00     0.023 C 
HETATM    5  N9  UNL     1     -33.216  18.145  -4.359  1.00 20.00     0.104 N 
HETATM    6  S10 UNL     1     -35.220  18.678  -2.654  1.00 20.00    -0.122 SA
HETATM    7  H27 UNL     1     -33.408  17.252  -4.800  1.00 20.00     0.318 HD
ENDROOT
BRANCH   3   8
HETATM    8  C7  UNL     1     -33.368  16.664  -2.397  1.00 20.00     0.048 C 
HETATM    9  C5  UNL     1     -33.464  15.673  -3.507  1.00 20.00     0.009 C 
ENDBRANCH   3   8
BRANCH   3  10
HETATM   10  C8  UNL     1     -32.538  19.024  -2.163  1.00 20.00     0.048 C 
HETATM   11  C6  UNL     1     -31.985  18.368  -0.941  1.00 20.00     0.009 C 
ENDBRANCH   3  10
TORSDOF 2
ENDMDL
MODEL 3
REMARK VINA RESULT:      -3.4     12.411     13.941
REMARK  2 active torsions:
REMARK  status: ('A' for Active; 'I' for Inactive)
REMARK    1  A    between atoms: C3_3  and  C7_7 
REMARK    2  A    between atoms: C3_3  and  C8_8 
ROOT
HETATM    1  C1  UNL     1     -33.972  18.988  -5.483  1.00 20.00     0.286 C 
HETATM    2  C2  UNL     1     -34.983  18.067  -6.165  1.00 20.00     0.074 C 
HETATM    3  C3  UNL     1     -33.966  17.274  -3.839  1.00 20.00     0.205 C 
HETATM    4  C4  UNL     1     -34.393  17.276  -7.326  1.00 20.00     0.023 C 
HETATM    5  N9  UNL     1     -33.101  18.185  -4.612  1.00 20.00     0.104 N 
HETATM    6  S10 UNL     1     -35.471  16.943  -4.828  1.00 20.00    -0.122 SA
HETATM    7  H27 UNL     1     -32.425  17.668  -5.165  1.00 20.00     0.318 HD
ENDROOT
BRANCH   3   8
HETATM    8  C7  UNL     1     -33.234  15.955  -3.574  1.00 20.00     0.048 C 
HETATM    9  C5  UNL     1     -33.899  14.812  -4.266  1.00 20.00     0.009 C 
ENDBRANCH   3   8
BRANCH   3  10
HETATM   10  C8  UNL     1     -34.365  17.933  -2.516  1.00 20.00     0.048 C 
HETATM   11  C6  UNL     1     -33.620  17.346  -1.362  1.00 20.00     0.009 C 
ENDBRANCH   3  10
TORSDOF 2
ENDMDL
MODEL 4
REMARK VINA RESULT:      -3.4     12.746     14.223
REMARK  2 active torsions:
REMARK  status: ('A' for Active; 'I' for Inactive)
REMARK    1  A    between atoms: C3_3  and  C7_7 
REMARK    2  A    between atoms: C3_3  and  C8_8 
ROOT
HETATM    1  C1  UNL     1     -33.675  15.795  -7.275  1.00 20.00     0.286 C 
HETATM    2  C2  UNL     1     -35.138  16.233  -7.245  1.00 20.00     0.074 C 
HETATM    3  C3  UNL     1     -34.089  15.285  -4.993  1.00 20.00     0.205 C 
HETATM    4  C4  UNL     1     -36.085  15.223  -7.883  1.00 20.00     0.023 C 
HETATM    5  N9  UNL     1     -33.453  14.788  -6.227  1.00 20.00     0.104 N 
HETATM    6  S10 UNL     1     -35.482  16.375  -5.470  1.00 20.00    -0.122 SA
HETATM    7  H27 UNL     1     -33.842  13.893  -6.506  1.00 20.00     0.318 HD
ENDROOT
BRANCH   3   8
HETATM    8  C7  UNL     1     -34.625  14.111  -4.168  1.00 20.00     0.048 C 
HETATM    9  C5  UNL     1     -35.997  13.719  -4.603  1.00 20.00     0.009 C 
ENDBRANCH   3   8
BRANCH   3  10
HETATM   10  C8  UNL     1     -33.076  16.089  -4.172  1.00 20.00     0.048 C 
HETATM   11  C6  UNL     1     -33.559  16.323  -2.778  1.00 20.00     0.009 C 
ENDBRANCH   3  10
TORSDOF 2
ENDMDL
MODEL 5
REMARK VINA RESULT:      -3.3     11.637     12.745
REMARK  2 active torsions:
REMARK  status: ('A' for Active; 'I' for Inactive)
REMARK    1  A    between atoms: C3_3  and  C7_7 
REMARK    2  A    between atoms: C3_3  and  C8_8 
ROOT
HETATM    1  C1  UNL     1     -33.272  16.380  -3.353  1.00 20.00     0.286 C 
HETATM    2  C2  UNL     1     -33.782  17.517  -4.237  1.00 20.00     0.074 C 
HETATM    3  C3  UNL     1     -33.357  18.049  -1.666  1.00 20.00     0.205 C 
HETATM    4  C4  UNL     1     -35.272  17.423  -4.544  1.00 20.00     0.023 C 
HETATM    5  N9  UNL     1     -33.668  16.638  -1.961  1.00 20.00     0.104 N 
HETATM    6  S10 UNL     1     -33.444  18.991  -3.234  1.00 20.00    -0.122 SA
HETATM    7  H27 UNL     1     -34.656  16.444  -1.831  1.00 20.00     0.318 HD
ENDROOT
BRANCH   3   8
HETATM    8  C7  UNL     1     -34.381  18.616  -0.678  1.00 20.00     0.048 C 
HETATM    9  C5  UNL     1     -35.524  19.262  -1.386  1.00 20.00     0.009 C 
ENDBRANCH   3   8
BRANCH   3  10
HETATM   10  C8  UNL     1     -31.944  18.161  -1.086  1.00 20.00     0.048 C 
HETATM   11  C6  UNL     1     -31.969  18.553   0.354  1.00 20.00     0.009 C 
ENDBRANCH   3  10
TORSDOF 2
ENDMDL
MODEL 6
REMARK VINA RESULT:      -3.3     12.640     13.657
REMARK  2 active torsions:
REMARK  status: ('A' for Active; 'I' for Inactive)
REMARK    1  A    between atoms: C3_3  and  C7_7 
REMARK    2  A    between atoms: C3_3  and  C8_8 
ROOT
HETATM    1  C1  UNL     1     -36.895  16.621  -5.388  1.00 20.00     0.286 C 
HETATM    2  C2  UNL     1     -36.220  17.956  -5.077  1.00 20.00     0.074 C 
HETATM    3  C3  UNL     1     -34.683  15.788  -5.158  1.00 20.00     0.205 C 
HETATM    4  C4  UNL     1     -36.440  18.426  -3.644  1.00 20.00     0.023 C 
HETATM    5  N9  UNL     1     -36.093  15.532  -4.811  1.00 20.00     0.104 N 
HETATM    6  S10 UNL     1     -34.464  17.596  -5.353  1.00 20.00    -0.122 SA
HETATM    7  H27 UNL     1     -36.223  15.490  -3.806  1.00 20.00     0.318 HD
ENDROOT
BRANCH   3   8
HETATM    8  C7  UNL     1     -33.768  15.285  -4.038  1.00 20.00     0.048 C 
HETATM    9  C5  UNL     1     -33.358  16.394  -3.127  1.00 20.00     0.009 C 
ENDBRANCH   3   8
BRANCH   3  10
HETATM   10  C8  UNL     1     -34.336  15.091  -6.477  1.00 20.00     0.048 C 
HETATM   11  C6  UNL     1     -34.085  16.076  -7.571  1.00 20.00     0.009 C 
ENDBRANCH   3  10
TORSDOF 2
ENDMDL
MODEL 7
REMARK VINA RESULT:      -3.2     12.851     13.725
REMARK  2 active torsions:
REMARK  status: ('A' for Active; 'I' for Inactive)
REMARK    1  A    between atoms: C3_3  and  C7_7 
REMARK    2  A    between atoms: C3_3  and  C8_8 
ROOT
HETATM    1  C1  UNL     1     -33.275  16.731  -3.235  1.00 20.00     0.286 C 
HETATM    2  C2  UNL     1     -34.199  17.812  -3.793  1.00 20.00     0.074 C 
HETATM    3  C3  UNL     1     -34.147  15.468  -5.047  1.00 20.00     0.205 C 
HETATM    4  C4  UNL     1     -33.464  18.883  -4.590  1.00 20.00     0.023 C 
HETATM    5  N9  UNL     1     -32.911  15.804  -4.317  1.00 20.00     0.104 N 
HETATM    6  S10 UNL     1     -35.307  16.875  -4.881  1.00 20.00    -0.122 SA
HETATM    7  H27 UNL     1     -32.224  16.229  -4.932  1.00 20.00     0.318 HD
ENDROOT
BRANCH   3   8
HETATM    8  C7  UNL     1     -33.835  15.241  -6.530  1.00 20.00     0.048 C 
HETATM    9  C5  UNL     1     -34.464  16.288  -7.387  1.00 20.00     0.009 C 
ENDBRANCH   3   8
BRANCH   3  10
HETATM   10  C8  UNL     1     -34.784  14.213  -4.443  1.00 20.00     0.048 C 
HETATM   11  C6  UNL     1     -36.163  13.987  -4.969  1.00 20.00     0.009 C 
ENDBRANCH   3  10
TORSDOF 2
ENDMDL
MODEL 8
REMARK VINA RESULT:      -3.2     12.940     13.974
REMARK  2 active torsions:
REMARK  status: ('A' for Active; 'I' for Inactive)
REMARK    1  A    between atoms: C3_3  and  C7_7 
REMARK    2  A    between atoms: C3_3  and  C8_8 
ROOT
HETATM    1  C1  UNL     1     -36.339  15.006  -5.341  1.00 20.00     0.286 C 
HETATM    2  C2  UNL     1     -35.746  14.963  -6.749  1.00 20.00     0.074 C 
HETATM    3  C3  UNL     1     -34.434  16.356  -4.901  1.00 20.00     0.205 C 
HETATM    4  C4  UNL     1     -36.458  15.883  -7.733  1.00 20.00     0.023 C 
HETATM    5  N9  UNL     1     -35.885  16.231  -4.666  1.00 20.00     0.104 N 
HETATM    6  S10 UNL     1     -34.042  15.529  -6.488  1.00 20.00    -0.122 SA
HETATM    7  H27 UNL     1     -36.386  17.039  -5.021  1.00 20.00     0.318 HD
ENDROOT
BRANCH   3   8
HETATM    8  C7  UNL     1     -34.043  17.834  -4.991  1.00 20.00     0.048 C 
HETATM    9  C5  UNL     1     -35.181  18.673  -5.467  1.00 20.00     0.009 C 
ENDBRANCH   3   8
BRANCH   3  10
HETATM   10  C8  UNL     1     -33.662  15.672  -3.770  1.00 20.00     0.048 C 
HETATM   11  C6  UNL     1     -33.293  16.637  -2.693  1.00 20.00     0.009 C 
ENDBRANCH   3  10
TORSDOF 2
ENDMDL
MODEL 9
REMARK VINA RESULT:      -3.1     11.519     12.721
REMARK  2 active torsions:
REMARK  status: ('A' for Active; 'I' for Inactive)
REMARK    1  A    between atoms: C3_3  and  C7_7 
REMARK    2  A    between atoms: C3_3  and  C8_8 
ROOT
HETATM    1  C1  UNL     1     -33.870  17.992  -0.412  1.00 20.00     0.286 C 
HETATM    2  C2  UNL     1     -32.705  18.933  -0.716  1.00 20.00     0.074 C 
HETATM    3  C3  UNL     1     -33.913  17.763  -2.776  1.00 20.00     0.205 C 
HETATM    4  C4  UNL     1     -31.340  18.310  -0.449  1.00 20.00     0.023 C 
HETATM    5  N9  UNL     1     -33.999  17.017  -1.506  1.00 20.00     0.104 N 
HETATM    6  S10 UNL     1     -32.903  19.263  -2.488  1.00 20.00    -0.122 SA
HETATM    7  H27 UNL     1     -33.270  16.314  -1.443  1.00 20.00     0.318 HD
ENDROOT
BRANCH   3   8
HETATM    8  C7  UNL     1     -33.242  16.898  -3.847  1.00 20.00     0.048 C 
HETATM    9  C5  UNL     1     -33.522  15.448  -3.635  1.00 20.00     0.009 C 
ENDBRANCH   3   8
BRANCH   3  10
HETATM   10  C8  UNL     1     -35.315  18.176  -3.232  1.00 20.00     0.048 C 
HETATM   11  C6  UNL     1     -35.345  18.508  -4.688  1.00 20.00     0.009 C 
ENDBRANCH   3  10
TORSDOF 2
ENDMDL
