MODEL 1
REMARK VINA RESULT:      -3.9      0.000      0.000
REMARK  1 active torsions:
REMARK  status: ('A' for Active; 'I' for Inactive)
REMARK    1  A    between atoms: C4_4  and  C7_7 
ROOT
HETATM    1  C1  UNL     1     -23.447  19.232   8.030  1.00 20.00     0.040 C 
HETATM    2  C2  UNL     1     -24.578  19.188   9.056  1.00 20.00     0.272 C 
HETATM    3  C3  UNL     1     -22.468  18.073   8.160  1.00 20.00     0.078 C 
HETATM    4  C4  UNL     1     -23.228  18.141  10.841  1.00 20.00     0.201 C 
HETATM    5  C5  UNL     1     -23.969  16.795  10.842  1.00 20.00     0.061 C 
HETATM    6  N8  UNL     1     -24.096  19.257  10.435  1.00 20.00     0.102 N 
HETATM    7  S9  UNL     1     -21.710  18.026   9.809  1.00 20.00    -0.128 SA
HETATM    8  H24 UNL     1     -23.598  20.138  10.565  1.00 20.00     0.317 HD
ENDROOT
BRANCH   4   9
HETATM    9  C7  UNL     1     -22.761  18.438  12.277  1.00 20.00     0.048 C 
HETATM   10  C6  UNL     1     -21.293  18.682  12.331  1.00 20.00     0.009 C 
ENDBRANCH   4   9
TORSDOF 1
ENDMDL
MODEL 2
REMARK VINA RESULT:      -3.4     18.547     19.668
REMARK  1 active torsions:
REMARK  status: ('A' for Active; 'I' for Inactive)
REMARK    1  A    between atoms: C4_4  and  C7_7 
ROOT
HETATM    1  C1  UNL     1     -43.183  13.637   8.175  1.00 20.00     0.040 C 
HETATM    2  C2  UNL     1     -43.259  12.608   7.048  1.00 20.00     0.272 C 
HETATM    3  C3  UNL     1     -42.255  14.804   7.865  1.00 20.00     0.078 C 
HETATM    4  C4  UNL     1     -40.930  12.926   6.289  1.00 20.00     0.201 C 
HETATM    5  C5  UNL     1     -41.282  13.562   4.935  1.00 20.00     0.061 C 
HETATM    6  N8  UNL     1     -41.966  11.991   6.754  1.00 20.00     0.102 N 
HETATM    7  S9  UNL     1     -40.564  14.236   7.526  1.00 20.00    -0.128 SA
HETATM    8  H24 UNL     1     -41.635  11.508   7.589  1.00 20.00     0.317 HD
ENDROOT
BRANCH   4   9
HETATM    9  C7  UNL     1     -39.636  12.109   6.118  1.00 20.00     0.048 C 
HETATM   10  C6  UNL     1     -39.366  11.814   4.683  1.00 20.00     0.009 C 
ENDBRANCH   4   9
TORSDOF 1
ENDMDL
MODEL 3
REMARK VINA RESULT:      -3.4     18.136     19.706
REMARK  1 active torsions:
REMARK  status: ('A' for Active; 'I' for Inactive)
REMARK    1  A    between atoms: C4_4  and  C7_7 
ROOT
HETATM    1  C1  UNL     1     -33.175  16.066  -3.385  1.00 20.00     0.040 C 
HETATM    2  C2  UNL     1     -33.213  14.756  -4.170  1.00 20.00     0.272 C 
HETATM    3  C3  UNL     1     -34.421  16.920  -3.576  1.00 20.00     0.078 C 
HETATM    4  C4  UNL     1     -34.527  15.656  -6.058  1.00 20.00     0.201 C 
HETATM    5  C5  UNL     1     -35.798  14.840  -5.779  1.00 20.00     0.061 C 
HETATM    6  N8  UNL     1     -33.308  14.961  -5.615  1.00 20.00     0.102 N 
HETATM    7  S9  UNL     1     -34.680  17.336  -5.324  1.00 20.00    -0.128 SA
HETATM    8  H24 UNL     1     -32.489  15.483  -5.927  1.00 20.00     0.317 HD
ENDROOT
BRANCH   4   9
HETATM    9  C7  UNL     1     -34.401  15.852  -7.579  1.00 20.00     0.048 C 
HETATM   10  C6  UNL     1     -34.041  17.257  -7.918  1.00 20.00     0.009 C 
ENDBRANCH   4   9
TORSDOF 1
ENDMDL
MODEL 4
REMARK VINA RESULT:      -3.4     18.659     19.929
REMARK  1 active torsions:
REMARK  status: ('A' for Active; 'I' for Inactive)
REMARK    1  A    between atoms: C4_4  and  C7_7 
ROOT
HETATM    1  C1  UNL     1     -36.321  17.249  -6.766  1.00 20.00     0.040 C 
HETATM    2  C2  UNL     1     -36.679  16.895  -5.323  1.00 20.00     0.272 C 
HETATM    3  C3  UNL     1     -35.772  16.069  -7.557  1.00 20.00     0.078 C 
HETATM    4  C4  UNL     1     -34.909  15.193  -5.056  1.00 20.00     0.201 C 
HETATM    5  C5  UNL     1     -35.853  13.984  -4.965  1.00 20.00     0.061 C 
HETATM    6  N8  UNL     1     -35.529  16.427  -4.550  1.00 20.00     0.102 N 
HETATM    7  S9  UNL     1     -34.285  15.379  -6.776  1.00 20.00    -0.128 SA
HETATM    8  H24 UNL     1     -34.830  17.169  -4.520  1.00 20.00     0.317 HD
ENDROOT
BRANCH   4   9
HETATM    9  C7  UNL     1     -33.680  14.916  -4.171  1.00 20.00     0.048 C 
HETATM   10  C6  UNL     1     -33.350  16.092  -3.318  1.00 20.00     0.009 C 
ENDBRANCH   4   9
TORSDOF 1
ENDMDL
MODEL 5
REMARK VINA RESULT:      -3.3     15.128     16.491
REMARK  1 active torsions:
REMARK  status: ('A' for Active; 'I' for Inactive)
REMARK    1  A    between atoms: C4_4  and  C7_7 
ROOT
HETATM    1  C1  UNL     1     -34.519  16.977  -4.310  1.00 20.00     0.040 C 
HETATM    2  C2  UNL     1     -33.374  16.403  -3.475  1.00 20.00     0.272 C 
HETATM    3  C3  UNL     1     -34.729  18.470  -4.100  1.00 20.00     0.078 C 
HETATM    4  C4  UNL     1     -33.683  17.945  -1.570  1.00 20.00     0.201 C 
HETATM    5  C5  UNL     1     -32.369  18.717  -1.766  1.00 20.00     0.061 C 
HETATM    6  N8  UNL     1     -33.589  16.553  -2.037  1.00 20.00     0.102 N 
HETATM    7  S9  UNL     1     -35.073  18.855  -2.359  1.00 20.00    -0.128 SA
HETATM    8  H24 UNL     1     -34.440  16.052  -1.778  1.00 20.00     0.317 HD
ENDROOT
BRANCH   4   9
HETATM    9  C7  UNL     1     -33.993  17.891  -0.064  1.00 20.00     0.048 C 
HETATM   10  C6  UNL     1     -32.899  18.508   0.738  1.00 20.00     0.009 C 
ENDBRANCH   4   9
TORSDOF 1
ENDMDL
MODEL 6
REMARK VINA RESULT:      -3.3     15.957     17.032
REMARK  1 active torsions:
REMARK  status: ('A' for Active; 'I' for Inactive)
REMARK    1  A    between atoms: C4_4  and  C7_7 
ROOT
HETATM    1  C1  UNL     1     -32.081   8.184   3.877  1.00 20.00     0.040 C 
HETATM    2  C2  UNL     1     -33.219   8.349   4.884  1.00 20.00     0.272 C 
HETATM    3  C3  UNL     1     -32.447   7.300   2.693  1.00 20.00     0.078 C 
HETATM    4  C4  UNL     1     -34.175   6.100   4.522  1.00 20.00     0.201 C 
HETATM    5  C5  UNL     1     -35.478   6.578   3.863  1.00 20.00     0.061 C 
HETATM    6  N8  UNL     1     -33.640   7.081   5.478  1.00 20.00     0.102 N 
HETATM    7  S9  UNL     1     -32.947   5.640   3.233  1.00 20.00    -0.128 SA
HETATM    8  H24 UNL     1     -32.848   6.672   5.975  1.00 20.00     0.317 HD
ENDROOT
BRANCH   4   9
HETATM    9  C7  UNL     1     -34.477   4.818   5.318  1.00 20.00     0.048 C 
HETATM   10  C6  UNL     1     -34.647   5.109   6.770  1.00 20.00     0.009 C 
ENDBRANCH   4   9
TORSDOF 1
ENDMDL
MODEL 7
REMARK VINA RESULT:      -3.3     18.274     19.616
REMARK  1 active torsions:
REMARK  status: ('A' for Active; 'I' for Inactive)
REMARK    1  A    between atoms: C4_4  and  C7_7 
ROOT
HETATM    1  C1  UNL     1     -37.287  16.220  -5.413  1.00 20.00     0.040 C 
HETATM    2  C2  UNL     1     -36.690  14.813  -5.411  1.00 20.00     0.272 C 
HETATM    3  C3  UNL     1     -36.341  17.276  -5.967  1.00 20.00     0.078 C 
HETATM    4  C4  UNL     1     -34.364  15.551  -5.027  1.00 20.00     0.201 C 
HETATM    5  C5  UNL     1     -33.829  15.138  -6.407  1.00 20.00     0.061 C 
HETATM    6  N8  UNL     1     -35.486  14.708  -4.587  1.00 20.00     0.102 N 
HETATM    7  S9  UNL     1     -34.791  17.340  -5.025  1.00 20.00    -0.128 SA
HETATM    8  H24 UNL     1     -35.727  14.942  -3.623  1.00 20.00     0.317 HD
ENDROOT
BRANCH   4   9
HETATM    9  C7  UNL     1     -33.237  15.368  -3.996  1.00 20.00     0.048 C 
HETATM   10  C6  UNL     1     -33.324  16.384  -2.909  1.00 20.00     0.009 C 
ENDBRANCH   4   9
TORSDOF 1
ENDMDL
MODEL 8
REMARK VINA RESULT:      -3.3     18.167     19.070
REMARK  1 active torsions:
REMARK  status: ('A' for Active; 'I' for Inactive)
REMARK    1  A    between atoms: C4_4  and  C7_7 
ROOT
HETATM    1  C1  UNL     1     -40.909  15.795   8.377  1.00 20.00     0.040 C 
HETATM    2  C2  UNL     1     -40.346  14.388   8.568  1.00 20.00     0.272 C 
HETATM    3  C3  UNL     1     -42.207  15.823   7.581  1.00 20.00     0.078 C 
HETATM    4  C4  UNL     1     -41.175  13.512   6.412  1.00 20.00     0.201 C 
HETATM    5  C5  UNL     1     -42.206  12.544   7.012  1.00 20.00     0.061 C 
HETATM    6  N8  UNL     1     -40.025  13.727   7.304  1.00 20.00     0.102 N 
HETATM    7  S9  UNL     1     -41.992  15.089   5.934  1.00 20.00    -0.128 SA
HETATM    8  H24 UNL     1     -39.317  14.277   6.817  1.00 20.00     0.317 HD
ENDROOT
BRANCH   4   9
HETATM    9  C7  UNL     1     -40.625  12.892   5.116  1.00 20.00     0.048 C 
HETATM   10  C6  UNL     1     -39.612  11.838   5.406  1.00 20.00     0.009 C 
ENDBRANCH   4   9
TORSDOF 1
ENDMDL
MODEL 9
REMARK VINA RESULT:      -3.2     16.063     17.391
REMARK  1 active torsions:
REMARK  status: ('A' for Active; 'I' for Inactive)
REMARK    1  A    between atoms: C4_4  and  C7_7 
ROOT
HETATM    1  C1  UNL     1     -35.130  19.157  -5.080  1.00 20.00     0.040 C 
HETATM    2  C2  UNL     1     -35.702  17.887  -4.452  1.00 20.00     0.272 C 
HETATM    3  C3  UNL     1     -33.608  19.196  -5.081  1.00 20.00     0.078 C 
HETATM    4  C4  UNL     1     -33.876  17.596  -2.814  1.00 20.00     0.201 C 
HETATM    5  C5  UNL     1     -33.294  16.318  -3.439  1.00 20.00     0.061 C 
HETATM    6  N8  UNL     1     -35.322  17.725  -3.050  1.00 20.00     0.102 N 
HETATM    7  S9  UNL     1     -32.939  19.067  -3.398  1.00 20.00    -0.128 SA
HETATM    8  H24 UNL     1     -35.681  18.519  -2.519  1.00 20.00     0.317 HD
ENDROOT
BRANCH   4   9
HETATM    9  C7  UNL     1     -33.676  17.524  -1.290  1.00 20.00     0.048 C 
HETATM   10  C6  UNL     1     -32.401  18.178  -0.879  1.00 20.00     0.009 C 
ENDBRANCH   4   9
TORSDOF 1
ENDMDL
