MODEL 1
REMARK VINA RESULT:      -3.8      0.000      0.000
REMARK  1 active torsions:
REMARK  status: ('A' for Active; 'I' for Inactive)
REMARK    1  A    between atoms: C3_3  and  C8_8 
ROOT
HETATM    1  C1  UNL     1     -42.068  13.860   8.246  1.00 20.00     0.111 C 
HETATM    2  C2  UNL     1     -41.179  14.907   7.579  1.00 20.00     0.227 C 
HETATM    3  C3  UNL     1     -40.919  13.173   5.966  1.00 20.00     0.205 C 
HETATM    4  C4  UNL     1     -40.470  15.776   8.612  1.00 20.00     0.043 C 
HETATM    5  C5  UNL     1     -41.377  13.766   4.630  1.00 20.00     0.062 C 
HETATM    6  N9  UNL     1     -40.192  14.191   6.750  1.00 20.00     0.108 N 
HETATM    7  S10 UNL     1     -42.381  12.658   6.936  1.00 20.00    -0.126 SA
HETATM    8  H27 UNL     1     -39.699  14.842   6.141  1.00 20.00     0.318 HD
ENDROOT
BRANCH   3   9
HETATM    9  C8  UNL     1     -40.016  11.959   5.725  1.00 20.00     0.026 C 
HETATM   10  C6  UNL     1     -39.523  11.939   4.280  1.00 20.00     0.013 C 
HETATM   11  C7  UNL     1     -38.840  11.967   6.696  1.00 20.00     0.013 C 
ENDBRANCH   3   9
TORSDOF 1
ENDMDL
MODEL 2
REMARK VINA RESULT:      -3.6     11.978     12.944
REMARK  1 active torsions:
REMARK  status: ('A' for Active; 'I' for Inactive)
REMARK    1  A    between atoms: C3_3  and  C8_8 
ROOT
HETATM    1  C1  UNL     1     -36.505  17.058  -5.354  1.00 20.00     0.111 C 
HETATM    2  C2  UNL     1     -36.544  18.187  -4.327  1.00 20.00     0.227 C 
HETATM    3  C3  UNL     1     -34.224  17.673  -4.167  1.00 20.00     0.205 C 
HETATM    4  C4  UNL     1     -37.876  18.220  -3.586  1.00 20.00     0.043 C 
HETATM    5  C5  UNL     1     -33.479  18.971  -4.490  1.00 20.00     0.062 C 
HETATM    6  N9  UNL     1     -35.437  17.967  -3.379  1.00 20.00     0.108 N 
HETATM    7  S10 UNL     1     -34.748  16.868  -5.722  1.00 20.00    -0.126 SA
HETATM    8  H27 UNL     1     -35.303  18.787  -2.790  1.00 20.00     0.318 HD
ENDROOT
BRANCH   3   9
HETATM    9  C8  UNL     1     -33.314  16.720  -3.385  1.00 20.00     0.026 C 
HETATM   10  C6  UNL     1     -33.503  16.915  -1.882  1.00 20.00     0.013 C 
HETATM   11  C7  UNL     1     -33.590  15.273  -3.780  1.00 20.00     0.013 C 
ENDBRANCH   3   9
TORSDOF 1
ENDMDL
MODEL 3
REMARK VINA RESULT:      -3.5     12.643     13.462
REMARK  1 active torsions:
REMARK  status: ('A' for Active; 'I' for Inactive)
REMARK    1  A    between atoms: C3_3  and  C8_8 
ROOT
HETATM    1  C1  UNL     1     -36.340  15.926  -6.747  1.00 20.00     0.111 C 
HETATM    2  C2  UNL     1     -36.854  16.786  -5.595  1.00 20.00     0.227 C 
HETATM    3  C3  UNL     1     -34.547  16.783  -5.001  1.00 20.00     0.205 C 
HETATM    4  C4  UNL     1     -38.259  16.370  -5.173  1.00 20.00     0.043 C 
HETATM    5  C5  UNL     1     -34.122  18.253  -4.950  1.00 20.00     0.062 C 
HETATM    6  N9  UNL     1     -35.916  16.633  -4.468  1.00 20.00     0.108 N 
HETATM    7  S10 UNL     1     -34.557  16.212  -6.738  1.00 20.00    -0.126 SA
HETATM    8  H27 UNL     1     -36.109  17.326  -3.747  1.00 20.00     0.318 HD
ENDROOT
BRANCH   3   9
HETATM    9  C8  UNL     1     -33.576  15.921  -4.189  1.00 20.00     0.026 C 
HETATM   10  C6  UNL     1     -33.423  16.477  -2.775  1.00 20.00     0.013 C 
HETATM   11  C7  UNL     1     -34.051  14.472  -4.150  1.00 20.00     0.013 C 
ENDBRANCH   3   9
TORSDOF 1
ENDMDL
MODEL 4
REMARK VINA RESULT:      -3.5     12.339     13.217
REMARK  1 active torsions:
REMARK  status: ('A' for Active; 'I' for Inactive)
REMARK    1  A    between atoms: C3_3  and  C8_8 
ROOT
HETATM    1  C1  UNL     1     -34.490  18.010  -4.135  1.00 20.00     0.111 C 
HETATM    2  C2  UNL     1     -33.625  16.820  -3.726  1.00 20.00     0.227 C 
HETATM    3  C3  UNL     1     -34.848  15.756  -5.472  1.00 20.00     0.205 C 
HETATM    4  C4  UNL     1     -33.328  16.834  -2.231  1.00 20.00     0.043 C 
HETATM    5  C5  UNL     1     -33.804  15.244  -6.469  1.00 20.00     0.062 C 
HETATM    6  N9  UNL     1     -34.354  15.591  -4.091  1.00 20.00     0.108 N 
HETATM    7  S10 UNL     1     -35.136  17.539  -5.754  1.00 20.00    -0.126 SA
HETATM    8  H27 UNL     1     -33.745  14.778  -4.012  1.00 20.00     0.318 HD
ENDROOT
BRANCH   3   9
HETATM    9  C8  UNL     1     -36.166  14.996  -5.647  1.00 20.00     0.026 C 
HETATM   10  C6  UNL     1     -36.221  13.797  -4.703  1.00 20.00     0.013 C 
HETATM   11  C7  UNL     1     -37.354  15.924  -5.409  1.00 20.00     0.013 C 
ENDBRANCH   3   9
TORSDOF 1
ENDMDL
MODEL 5
REMARK VINA RESULT:      -3.4     12.059     13.356
REMARK  1 active torsions:
REMARK  status: ('A' for Active; 'I' for Inactive)
REMARK    1  A    between atoms: C3_3  and  C8_8 
ROOT
HETATM    1  C1  UNL     1     -35.056  18.177  -6.274  1.00 20.00     0.111 C 
HETATM    2  C2  UNL     1     -36.149  17.491  -5.458  1.00 20.00     0.227 C 
HETATM    3  C3  UNL     1     -34.611  17.889  -3.683  1.00 20.00     0.205 C 
HETATM    4  C4  UNL     1     -36.871  16.427  -6.278  1.00 20.00     0.043 C 
HETATM    5  C5  UNL     1     -35.369  18.722  -2.645  1.00 20.00     0.062 C 
HETATM    6  N9  UNL     1     -35.510  16.881  -4.278  1.00 20.00     0.108 N 
HETATM    7  S10 UNL     1     -34.025  18.980  -5.028  1.00 20.00    -0.126 SA
HETATM    8  H27 UNL     1     -36.214  16.575  -3.609  1.00 20.00     0.318 HD
ENDROOT
BRANCH   3   9
HETATM    9  C8  UNL     1     -33.410  17.197  -3.032  1.00 20.00     0.026 C 
HETATM   10  C6  UNL     1     -33.577  17.153  -1.515  1.00 20.00     0.013 C 
HETATM   11  C7  UNL     1     -33.234  15.790  -3.596  1.00 20.00     0.013 C 
ENDBRANCH   3   9
TORSDOF 1
ENDMDL
MODEL 6
REMARK VINA RESULT:      -3.4      1.098      3.911
REMARK  1 active torsions:
REMARK  status: ('A' for Active; 'I' for Inactive)
REMARK    1  A    between atoms: C3_3  and  C8_8 
ROOT
HETATM    1  C1  UNL     1     -41.228  13.558   4.954  1.00 20.00     0.111 C 
HETATM    2  C2  UNL     1     -40.624  12.578   5.957  1.00 20.00     0.227 C 
HETATM    3  C3  UNL     1     -41.042  14.378   7.461  1.00 20.00     0.205 C 
HETATM    4  C4  UNL     1     -39.554  11.707   5.309  1.00 20.00     0.043 C 
HETATM    5  C5  UNL     1     -41.951  13.812   8.556  1.00 20.00     0.062 C 
HETATM    6  N9  UNL     1     -40.044  13.367   7.059  1.00 20.00     0.108 N 
HETATM    7  S10 UNL     1     -42.046  14.790   5.990  1.00 20.00    -0.126 SA
HETATM    8  H27 UNL     1     -39.797  12.762   7.840  1.00 20.00     0.318 HD
ENDROOT
BRANCH   3   9
HETATM    9  C8  UNL     1     -40.332  15.640   7.961  1.00 20.00     0.026 C 
HETATM   10  C6  UNL     1     -41.029  16.890   7.428  1.00 20.00     0.013 C 
HETATM   11  C7  UNL     1     -40.285  15.658   9.486  1.00 20.00     0.013 C 
ENDBRANCH   3   9
TORSDOF 1
ENDMDL
MODEL 7
REMARK VINA RESULT:      -3.3     11.822     12.994
REMARK  1 active torsions:
REMARK  status: ('A' for Active; 'I' for Inactive)
REMARK    1  A    between atoms: C3_3  and  C8_8 
ROOT
HETATM    1  C1  UNL     1     -34.618  15.289  -4.725  1.00 20.00     0.111 C 
HETATM    2  C2  UNL     1     -35.360  16.563  -5.122  1.00 20.00     0.227 C 
HETATM    3  C3  UNL     1     -33.997  17.495  -3.405  1.00 20.00     0.205 C 
HETATM    4  C4  UNL     1     -36.787  16.262  -5.566  1.00 20.00     0.043 C 
HETATM    5  C5  UNL     1     -33.196  18.622  -4.064  1.00 20.00     0.062 C 
HETATM    6  N9  UNL     1     -35.367  17.459  -3.951  1.00 20.00     0.108 N 
HETATM    7  S10 UNL     1     -33.205  15.889  -3.775  1.00 20.00    -0.126 SA
HETATM    8  H27 UNL     1     -35.682  18.391  -4.217  1.00 20.00     0.318 HD
ENDROOT
BRANCH   3   9
HETATM    9  C8  UNL     1     -34.047  17.698  -1.887  1.00 20.00     0.026 C 
HETATM   10  C6  UNL     1     -32.640  17.902  -1.330  1.00 20.00     0.013 C 
HETATM   11  C7  UNL     1     -34.943  18.881  -1.535  1.00 20.00     0.013 C 
ENDBRANCH   3   9
TORSDOF 1
ENDMDL
MODEL 8
REMARK VINA RESULT:      -3.3     12.834     14.153
REMARK  1 active torsions:
REMARK  status: ('A' for Active; 'I' for Inactive)
REMARK    1  A    between atoms: C3_3  and  C8_8 
ROOT
HETATM    1  C1  UNL     1     -34.736  19.103  -5.547  1.00 20.00     0.111 C 
HETATM    2  C2  UNL     1     -34.612  18.229  -6.793  1.00 20.00     0.227 C 
HETATM    3  C3  UNL     1     -34.629  16.487  -5.168  1.00 20.00     0.205 C 
HETATM    4  C4  UNL     1     -33.798  18.922  -7.881  1.00 20.00     0.043 C 
HETATM    5  C5  UNL     1     -35.806  15.579  -5.534  1.00 20.00     0.062 C 
HETATM    6  N9  UNL     1     -33.960  16.968  -6.392  1.00 20.00     0.108 N 
HETATM    7  S10 UNL     1     -35.248  17.948  -4.258  1.00 20.00    -0.126 SA
HETATM    8  H27 UNL     1     -34.023  16.280  -7.141  1.00 20.00     0.318 HD
ENDROOT
BRANCH   3   9
HETATM    9  C8  UNL     1     -33.628  15.730  -4.290  1.00 20.00     0.026 C 
HETATM   10  C6  UNL     1     -33.418  16.462  -2.967  1.00 20.00     0.013 C 
HETATM   11  C7  UNL     1     -34.105  14.302  -4.046  1.00 20.00     0.013 C 
ENDBRANCH   3   9
TORSDOF 1
ENDMDL
MODEL 9
REMARK VINA RESULT:      -3.2     21.308     23.075
REMARK  1 active torsions:
REMARK  status: ('A' for Active; 'I' for Inactive)
REMARK    1  A    between atoms: C3_3  and  C8_8 
ROOT
HETATM    1  C1  UNL     1     -25.878  -1.260  11.811  1.00 20.00     0.111 C 
HETATM    2  C2  UNL     1     -26.661  -2.009  10.735  1.00 20.00     0.227 C 
HETATM    3  C3  UNL     1     -24.624  -3.235  10.577  1.00 20.00     0.205 C 
HETATM    4  C4  UNL     1     -27.628  -1.083  10.005  1.00 20.00     0.043 C 
HETATM    5  C5  UNL     1     -24.991  -4.699  10.835  1.00 20.00     0.062 C 
HETATM    6  N9  UNL     1     -25.685  -2.578   9.788  1.00 20.00     0.108 N 
HETATM    7  S10 UNL     1     -24.485  -2.351  12.172  1.00 20.00    -0.126 SA
HETATM    8  H27 UNL     1     -26.141  -3.240   9.161  1.00 20.00     0.318 HD
ENDROOT
BRANCH   3   9
HETATM    9  C8  UNL     1     -23.290  -3.146   9.830  1.00 20.00     0.026 C 
HETATM   10  C6  UNL     1     -22.359  -4.275  10.266  1.00 20.00     0.013 C 
HETATM   11  C7  UNL     1     -23.517  -3.187   8.322  1.00 20.00     0.013 C 
ENDBRANCH   3   9
TORSDOF 1
ENDMDL
