MODEL 1
REMARK VINA RESULT:      -4.2      0.000      0.000
REMARK  2 active torsions:
REMARK  status: ('A' for Active; 'I' for Inactive)
REMARK    1  A    between atoms: C5_5  and  C8_8 
REMARK    2  A    between atoms: C5_5  and  O9_9 
ROOT
HETATM    1  C1  UNL     1     -43.077   5.737   2.210  1.00 20.00     0.004 C 
HETATM    2  C2  UNL     1     -43.219   7.047   1.431  1.00 20.00     0.012 C 
HETATM    3  C3  UNL     1     -42.084   4.869   1.437  1.00 20.00     0.044 C 
HETATM    4  C4  UNL     1     -42.040   7.073   0.440  1.00 20.00    -0.011 C 
HETATM    5  C5  UNL     1     -41.881   5.567   0.084  1.00 20.00     0.123 C 
HETATM    6  C6  UNL     1     -40.783   7.643   1.137  1.00 20.00     0.018 C 
HETATM    7  C7  UNL     1     -42.352   7.973  -0.763  1.00 20.00     0.018 C 
ENDROOT
BRANCH   5   8
HETATM    8  C8  UNL     1     -42.889   5.033  -0.942  1.00 20.00     0.388 C 
HETATM    9  F10 UNL     1     -43.417   3.882  -0.475  1.00 20.00    -0.211 F 
HETATM   10  F11 UNL     1     -42.235   4.745  -2.086  1.00 20.00    -0.211 F 
ENDBRANCH   5   8
BRANCH   5  11
HETATM   11  O9  UNL     1     -40.578   5.272  -0.404  1.00 20.00    -0.383 OA
HETATM   12  H25 UNL     1     -39.989   5.309   0.362  1.00 20.00     0.210 HD
ENDBRANCH   5  11
TORSDOF 2
ENDMDL
MODEL 2
REMARK VINA RESULT:      -4.1      2.464      3.341
REMARK  2 active torsions:
REMARK  status: ('A' for Active; 'I' for Inactive)
REMARK    1  A    between atoms: C5_5  and  C8_8 
REMARK    2  A    between atoms: C5_5  and  O9_9 
ROOT
HETATM    1  C1  UNL     1     -43.100   5.946   2.122  1.00 20.00     0.004 C 
HETATM    2  C2  UNL     1     -42.233   4.995   1.293  1.00 20.00     0.012 C 
HETATM    3  C3  UNL     1     -43.219   7.244   1.322  1.00 20.00     0.044 C 
HETATM    4  C4  UNL     1     -42.179   5.603  -0.121  1.00 20.00    -0.011 C 
HETATM    5  C5  UNL     1     -42.197   7.129   0.181  1.00 20.00     0.123 C 
HETATM    6  C6  UNL     1     -43.417   5.156  -0.932  1.00 20.00     0.018 C 
HETATM    7  C7  UNL     1     -40.932   5.128  -0.878  1.00 20.00     0.018 C 
ENDROOT
BRANCH   5   8
HETATM    8  C8  UNL     1     -40.850   7.720   0.618  1.00 20.00     0.388 C 
HETATM    9  F10 UNL     1     -40.948   8.126   1.901  1.00 20.00    -0.211 F 
HETATM   10  F11 UNL     1     -40.588   8.809  -0.134  1.00 20.00    -0.211 F 
ENDBRANCH   5   8
BRANCH   5  11
HETATM   11  O9  UNL     1     -42.654   7.886  -0.934  1.00 20.00    -0.383 OA
HETATM   12  H25 UNL     1     -43.455   7.445  -1.248  1.00 20.00     0.210 HD
ENDBRANCH   5  11
TORSDOF 2
ENDMDL
MODEL 3
REMARK VINA RESULT:      -4.0      2.166      3.250
REMARK  2 active torsions:
REMARK  status: ('A' for Active; 'I' for Inactive)
REMARK    1  A    between atoms: C5_5  and  C8_8 
REMARK    2  A    between atoms: C5_5  and  O9_9 
ROOT
HETATM    1  C1  UNL     1     -42.096   5.201  -1.291  1.00 20.00     0.004 C 
HETATM    2  C2  UNL     1     -43.213   5.543  -0.302  1.00 20.00     0.012 C 
HETATM    3  C3  UNL     1     -40.805   5.784  -0.717  1.00 20.00     0.044 C 
HETATM    4  C4  UNL     1     -42.505   5.981   0.993  1.00 20.00    -0.011 C 
HETATM    5  C5  UNL     1     -41.235   6.693   0.445  1.00 20.00     0.123 C 
HETATM    6  C6  UNL     1     -42.155   4.739   1.845  1.00 20.00     0.018 C 
HETATM    7  C7  UNL     1     -43.413   6.884   1.840  1.00 20.00     0.018 C 
ENDROOT
BRANCH   5   8
HETATM    8  C8  UNL     1     -41.460   8.124  -0.060  1.00 20.00     0.388 C 
HETATM    9  F10 UNL     1     -41.474   8.113  -1.410  1.00 20.00    -0.211 F 
HETATM   10  F11 UNL     1     -40.421   8.891   0.329  1.00 20.00    -0.211 F 
ENDBRANCH   5   8
BRANCH   5  11
HETATM   11  O9  UNL     1     -40.193   6.740   1.412  1.00 20.00    -0.383 OA
HETATM   12  H25 UNL     1     -39.469   7.234   1.003  1.00 20.00     0.210 HD
ENDBRANCH   5  11
TORSDOF 2
ENDMDL
MODEL 4
REMARK VINA RESULT:      -3.9      9.075     10.269
REMARK  2 active torsions:
REMARK  status: ('A' for Active; 'I' for Inactive)
REMARK    1  A    between atoms: C5_5  and  C8_8 
REMARK    2  A    between atoms: C5_5  and  O9_9 
ROOT
HETATM    1  C1  UNL     1     -34.069   6.710   6.834  1.00 20.00     0.004 C 
HETATM    2  C2  UNL     1     -33.892   5.524   5.882  1.00 20.00     0.012 C 
HETATM    3  C3  UNL     1     -34.135   7.966   5.965  1.00 20.00     0.044 C 
HETATM    4  C4  UNL     1     -34.234   6.059   4.480  1.00 20.00    -0.011 C 
HETATM    5  C5  UNL     1     -33.715   7.524   4.555  1.00 20.00     0.123 C 
HETATM    6  C6  UNL     1     -35.761   5.993   4.251  1.00 20.00     0.018 C 
HETATM    7  C7  UNL     1     -33.564   5.212   3.388  1.00 20.00     0.018 C 
ENDROOT
BRANCH   5   8
HETATM    8  C8  UNL     1     -32.199   7.686   4.381  1.00 20.00     0.388 C 
HETATM    9  F10 UNL     1     -31.808   8.818   5.002  1.00 20.00    -0.211 F 
HETATM   10  F11 UNL     1     -31.925   7.827   3.068  1.00 20.00    -0.211 F 
ENDBRANCH   5   8
BRANCH   5  11
HETATM   11  O9  UNL     1     -34.348   8.362   3.595  1.00 20.00    -0.383 OA
HETATM   12  H25 UNL     1     -33.973   8.117   2.737  1.00 20.00     0.210 HD
ENDBRANCH   5  11
TORSDOF 2
ENDMDL
MODEL 5
REMARK VINA RESULT:      -3.8     23.625     24.370
REMARK  2 active torsions:
REMARK  status: ('A' for Active; 'I' for Inactive)
REMARK    1  A    between atoms: C5_5  and  C8_8 
REMARK    2  A    between atoms: C5_5  and  O9_9 
ROOT
HETATM    1  C1  UNL     1     -25.252  19.263   9.833  1.00 20.00     0.004 C 
HETATM    2  C2  UNL     1     -24.355  18.514   8.844  1.00 20.00     0.012 C 
HETATM    3  C3  UNL     1     -24.719  18.954  11.232  1.00 20.00     0.044 C 
HETATM    4  C4  UNL     1     -23.107  18.097   9.644  1.00 20.00    -0.011 C 
HETATM    5  C5  UNL     1     -23.704  17.815  11.053  1.00 20.00     0.123 C 
HETATM    6  C6  UNL     1     -22.086  19.257   9.666  1.00 20.00     0.018 C 
HETATM    7  C7  UNL     1     -22.419  16.885   9.000  1.00 20.00     0.018 C 
ENDROOT
BRANCH   5   8
HETATM    8  C8  UNL     1     -24.403  16.457  11.202  1.00 20.00     0.388 C 
HETATM    9  F10 UNL     1     -25.689  16.665  11.553  1.00 20.00    -0.211 F 
HETATM   10  F11 UNL     1     -23.814  15.772  12.203  1.00 20.00    -0.211 F 
ENDBRANCH   5   8
BRANCH   5  11
HETATM   11  O9  UNL     1     -22.718  17.902  12.074  1.00 20.00    -0.383 OA
HETATM   12  H25 UNL     1     -22.601  17.003  12.412  1.00 20.00     0.210 HD
ENDBRANCH   5  11
TORSDOF 2
ENDMDL
MODEL 6
REMARK VINA RESULT:      -3.7      9.424     10.457
REMARK  2 active torsions:
REMARK  status: ('A' for Active; 'I' for Inactive)
REMARK    1  A    between atoms: C5_5  and  C8_8 
REMARK    2  A    between atoms: C5_5  and  O9_9 
ROOT
HETATM    1  C1  UNL     1     -42.441  15.315   5.658  1.00 20.00     0.004 C 
HETATM    2  C2  UNL     1     -41.546  15.594   6.867  1.00 20.00     0.012 C 
HETATM    3  C3  UNL     1     -42.636  13.800   5.593  1.00 20.00     0.044 C 
HETATM    4  C4  UNL     1     -41.545  14.295   7.695  1.00 20.00    -0.011 C 
HETATM    5  C5  UNL     1     -41.629  13.204   6.589  1.00 20.00     0.123 C 
HETATM    6  C6  UNL     1     -42.774  14.270   8.632  1.00 20.00     0.018 C 
HETATM    7  C7  UNL     1     -40.290  14.202   8.574  1.00 20.00     0.018 C 
ENDROOT
BRANCH   5   8
HETATM    8  C8  UNL     1     -40.304  12.896   5.880  1.00 20.00     0.388 C 
HETATM    9  F10 UNL     1     -40.518  12.873   4.547  1.00 20.00    -0.211 F 
HETATM   10  F11 UNL     1     -39.890  11.665   6.246  1.00 20.00    -0.211 F 
ENDBRANCH   5   8
BRANCH   5  11
HETATM   11  O9  UNL     1     -42.140  11.976   7.093  1.00 20.00    -0.383 OA
HETATM   12  H25 UNL     1     -41.370  11.448   7.345  1.00 20.00     0.210 HD
ENDBRANCH   5  11
TORSDOF 2
ENDMDL
MODEL 7
REMARK VINA RESULT:      -3.7     13.266     14.091
REMARK  2 active torsions:
REMARK  status: ('A' for Active; 'I' for Inactive)
REMARK    1  A    between atoms: C5_5  and  C8_8 
REMARK    2  A    between atoms: C5_5  and  O9_9 
ROOT
HETATM    1  C1  UNL     1     -34.026  16.181  -7.202  1.00 20.00     0.004 C 
HETATM    2  C2  UNL     1     -34.690  17.352  -6.475  1.00 20.00     0.012 C 
HETATM    3  C3  UNL     1     -34.117  14.974  -6.269  1.00 20.00     0.044 C 
HETATM    4  C4  UNL     1     -35.481  16.728  -5.311  1.00 20.00    -0.011 C 
HETATM    5  C5  UNL     1     -34.577  15.527  -4.911  1.00 20.00     0.123 C 
HETATM    6  C6  UNL     1     -36.871  16.269  -5.808  1.00 20.00     0.018 C 
HETATM    7  C7  UNL     1     -35.703  17.747  -4.186  1.00 20.00     0.018 C 
ENDROOT
BRANCH   5   8
HETATM    8  C8  UNL     1     -33.360  15.889  -4.050  1.00 20.00     0.388 C 
HETATM    9  F10 UNL     1     -32.358  15.027  -4.326  1.00 20.00    -0.211 F 
HETATM   10  F11 UNL     1     -33.684  15.732  -2.750  1.00 20.00    -0.211 F 
ENDBRANCH   5   8
BRANCH   5  11
HETATM   11  O9  UNL     1     -35.306  14.520  -4.219  1.00 20.00    -0.383 OA
HETATM   12  H25 UNL     1     -34.954  14.506  -3.318  1.00 20.00     0.210 HD
ENDBRANCH   5  11
TORSDOF 2
ENDMDL
MODEL 8
REMARK VINA RESULT:      -3.7     12.486     13.998
REMARK  2 active torsions:
REMARK  status: ('A' for Active; 'I' for Inactive)
REMARK    1  A    between atoms: C5_5  and  C8_8 
REMARK    2  A    between atoms: C5_5  and  O9_9 
ROOT
HETATM    1  C1  UNL     1     -35.700  17.745  -5.540  1.00 20.00     0.004 C 
HETATM    2  C2  UNL     1     -36.517  16.483  -5.253  1.00 20.00     0.012 C 
HETATM    3  C3  UNL     1     -34.289  17.284  -5.903  1.00 20.00     0.044 C 
HETATM    4  C4  UNL     1     -35.688  15.312  -5.813  1.00 20.00    -0.011 C 
HETATM    5  C5  UNL     1     -34.231  15.791  -5.549  1.00 20.00     0.123 C 
HETATM    6  C6  UNL     1     -35.979  15.138  -7.321  1.00 20.00     0.018 C 
HETATM    7  C7  UNL     1     -36.051  13.995  -5.114  1.00 20.00     0.018 C 
ENDROOT
BRANCH   5   8
HETATM    8  C8  UNL     1     -33.739  15.608  -4.107  1.00 20.00     0.388 C 
HETATM    9  F10 UNL     1     -33.014  16.690  -3.754  1.00 20.00    -0.211 F 
HETATM   10  F11 UNL     1     -32.919  14.537  -4.059  1.00 20.00    -0.211 F 
ENDBRANCH   5   8
BRANCH   5  11
HETATM   11  O9  UNL     1     -33.296  15.143  -6.405  1.00 20.00    -0.383 OA
HETATM   12  H25 UNL     1     -32.909  14.425  -5.885  1.00 20.00     0.210 HD
ENDBRANCH   5  11
TORSDOF 2
ENDMDL
MODEL 9
REMARK VINA RESULT:      -3.5     12.649     13.857
REMARK  2 active torsions:
REMARK  status: ('A' for Active; 'I' for Inactive)
REMARK    1  A    between atoms: C5_5  and  C8_8 
REMARK    2  A    between atoms: C5_5  and  O9_9 
ROOT
HETATM    1  C1  UNL     1     -33.401  16.596  -2.660  1.00 20.00     0.004 C 
HETATM    2  C2  UNL     1     -34.618  17.441  -3.045  1.00 20.00     0.012 C 
HETATM    3  C3  UNL     1     -33.006  15.800  -3.904  1.00 20.00     0.044 C 
HETATM    4  C4  UNL     1     -34.678  17.412  -4.583  1.00 20.00    -0.011 C 
HETATM    5  C5  UNL     1     -34.160  15.979  -4.901  1.00 20.00     0.123 C 
HETATM    6  C6  UNL     1     -33.754  18.506  -5.165  1.00 20.00     0.018 C 
HETATM    7  C7  UNL     1     -36.101  17.690  -5.086  1.00 20.00     0.018 C 
ENDROOT
BRANCH   5   8
HETATM    8  C8  UNL     1     -35.194  14.860  -4.719  1.00 20.00     0.388 C 
HETATM    9  F10 UNL     1     -34.643  13.873  -3.982  1.00 20.00    -0.211 F 
HETATM   10  F11 UNL     1     -35.496  14.345  -5.928  1.00 20.00    -0.211 F 
ENDBRANCH   5   8
BRANCH   5  11
HETATM   11  O9  UNL     1     -33.652  15.879  -6.227  1.00 20.00    -0.383 OA
HETATM   12  H25 UNL     1     -34.363  16.180  -6.810  1.00 20.00     0.210 HD
ENDBRANCH   5  11
TORSDOF 2
ENDMDL
