MODEL 1
REMARK VINA RESULT:      -3.7      0.000      0.000
REMARK  4 active torsions:
REMARK  status: ('A' for Active; 'I' for Inactive)
REMARK    1  A    between atoms: C5_5  and  C8_8 
REMARK    2  A    between atoms: C6_6  and  C8_8 
REMARK    3  A    between atoms: C7_7  and  C8_8 
REMARK    4  A    between atoms: C8_8  and  N9_9 
ROOT
HETATM    1  C8  UNL     1     -34.509  15.371  -5.263  1.00 20.00     0.217 C 
ENDROOT
BRANCH   1   2
HETATM    2  C5  UNL     1     -34.918  16.853  -5.517  1.00 20.00     0.043 C 
HETATM    3  C1  UNL     1     -36.375  17.204  -5.236  1.00 20.00     0.008 C 
ENDBRANCH   1   2
BRANCH   1   4
HETATM    4  C6  UNL     1     -33.644  15.192  -3.965  1.00 20.00     0.021 C 
HETATM    5  C2  UNL     1     -33.440  16.482  -3.159  1.00 20.00     0.012 C 
HETATM    6  C3  UNL     1     -32.263  14.564  -4.226  1.00 20.00     0.012 C 
ENDBRANCH   1   4
BRANCH   1   7
HETATM    7  C7  UNL     1     -35.788  14.510  -5.248  1.00 20.00     0.391 C 
HETATM    8  F10 UNL     1     -35.991  13.953  -6.472  1.00 20.00    -0.212 F 
HETATM    9  F11 UNL     1     -35.657  13.473  -4.383  1.00 20.00    -0.212 F 
ENDBRANCH   1   7
BRANCH   1  10
HETATM   10  N9  UNL     1     -33.719  14.898  -6.415  1.00 20.00     0.094 N 
HETATM   11  C4  UNL     1     -33.858  15.816  -7.529  1.00 20.00     0.307 C 
HETATM   12  H28 UNL     1     -34.059  13.980  -6.677  1.00 20.00     0.316 HD
ENDBRANCH   1  10
TORSDOF 4
ENDMDL
MODEL 2
REMARK VINA RESULT:      -3.6      1.860      2.920
REMARK  4 active torsions:
REMARK  status: ('A' for Active; 'I' for Inactive)
REMARK    1  A    between atoms: C5_5  and  C8_8 
REMARK    2  A    between atoms: C6_6  and  C8_8 
REMARK    3  A    between atoms: C7_7  and  C8_8 
REMARK    4  A    between atoms: C8_8  and  N9_9 
ROOT
HETATM    1  C8  UNL     1     -34.576  15.807  -5.039  1.00 20.00     0.217 C 
ENDROOT
BRANCH   1   2
HETATM    2  C5  UNL     1     -35.773  14.894  -5.437  1.00 20.00     0.043 C 
HETATM    3  C1  UNL     1     -35.947  13.619  -4.617  1.00 20.00     0.008 C 
ENDBRANCH   1   2
BRANCH   1   4
HETATM    4  C6  UNL     1     -35.031  17.229  -4.551  1.00 20.00     0.021 C 
HETATM    5  C2  UNL     1     -36.457  17.613  -4.969  1.00 20.00     0.012 C 
HETATM    6  C3  UNL     1     -34.081  18.361  -4.983  1.00 20.00     0.012 C 
ENDBRANCH   1   4
BRANCH   1   7
HETATM    7  C7  UNL     1     -33.726  15.063  -3.989  1.00 20.00     0.391 C 
HETATM    8  F10 UNL     1     -32.429  15.003  -4.395  1.00 20.00    -0.212 F 
HETATM    9  F11 UNL     1     -33.718  15.739  -2.813  1.00 20.00    -0.212 F 
ENDBRANCH   1   7
BRANCH   1  10
HETATM   10  N9  UNL     1     -33.704  15.978  -6.216  1.00 20.00     0.094 N 
HETATM   11  C4  UNL     1     -34.399  15.568  -7.420  1.00 20.00     0.307 C 
HETATM   12  H28 UNL     1     -32.876  15.408  -6.081  1.00 20.00     0.316 HD
ENDBRANCH   1  10
TORSDOF 4
ENDMDL
MODEL 3
REMARK VINA RESULT:      -3.4      1.461      3.112
REMARK  4 active torsions:
REMARK  status: ('A' for Active; 'I' for Inactive)
REMARK    1  A    between atoms: C5_5  and  C8_8 
REMARK    2  A    between atoms: C6_6  and  C8_8 
REMARK    3  A    between atoms: C7_7  and  C8_8 
REMARK    4  A    between atoms: C8_8  and  N9_9 
ROOT
HETATM    1  C8  UNL     1     -35.109  15.319  -5.448  1.00 20.00     0.217 C 
ENDROOT
BRANCH   1   2
HETATM    2  C5  UNL     1     -33.741  14.878  -4.847  1.00 20.00     0.043 C 
HETATM    3  C1  UNL     1     -33.219  15.714  -3.683  1.00 20.00     0.008 C 
ENDBRANCH   1   2
BRANCH   1   4
HETATM    4  C6  UNL     1     -34.997  15.782  -6.944  1.00 20.00     0.021 C 
HETATM    5  C2  UNL     1     -36.088  15.214  -7.864  1.00 20.00     0.012 C 
HETATM    6  C3  UNL     1     -33.628  15.482  -7.581  1.00 20.00     0.012 C 
ENDBRANCH   1   4
BRANCH   1   7
HETATM    7  C7  UNL     1     -36.117  14.167  -5.257  1.00 20.00     0.391 C 
HETATM    8  F10 UNL     1     -35.683  13.323  -4.283  1.00 20.00    -0.212 F 
HETATM    9  F11 UNL     1     -37.314  14.644  -4.831  1.00 20.00    -0.212 F 
ENDBRANCH   1   7
BRANCH   1  10
HETATM   10  N9  UNL     1     -35.631  16.446  -4.652  1.00 20.00     0.094 N 
HETATM   11  C4  UNL     1     -35.730  17.637  -5.472  1.00 20.00     0.307 C 
HETATM   12  H28 UNL     1     -34.995  16.608  -3.879  1.00 20.00     0.316 HD
ENDBRANCH   1  10
TORSDOF 4
ENDMDL
MODEL 4
REMARK VINA RESULT:      -3.4      1.658      3.249
REMARK  4 active torsions:
REMARK  status: ('A' for Active; 'I' for Inactive)
REMARK    1  A    between atoms: C5_5  and  C8_8 
REMARK    2  A    between atoms: C6_6  and  C8_8 
REMARK    3  A    between atoms: C7_7  and  C8_8 
REMARK    4  A    between atoms: C8_8  and  N9_9 
ROOT
HETATM    1  C8  UNL     1     -34.970  15.858  -5.254  1.00 20.00     0.217 C 
ENDROOT
BRANCH   1   2
HETATM    2  C5  UNL     1     -33.882  15.240  -4.326  1.00 20.00     0.043 C 
HETATM    3  C1  UNL     1     -33.372  16.135  -3.201  1.00 20.00     0.008 C 
ENDBRANCH   1   2
BRANCH   1   4
HETATM    4  C6  UNL     1     -35.315  17.344  -4.884  1.00 20.00     0.021 C 
HETATM    5  C2  UNL     1     -36.819  17.638  -4.789  1.00 20.00     0.012 C 
HETATM    6  C3  UNL     1     -34.681  18.378  -5.832  1.00 20.00     0.012 C 
ENDBRANCH   1   4
BRANCH   1   7
HETATM    7  C7  UNL     1     -34.505  15.703  -6.716  1.00 20.00     0.391 C 
HETATM    8  F10 UNL     1     -33.495  14.795  -6.792  1.00 20.00    -0.212 F 
HETATM    9  F11 UNL     1     -35.507  15.210  -7.487  1.00 20.00    -0.212 F 
ENDBRANCH   1   7
BRANCH   1  10
HETATM   10  N9  UNL     1     -36.200  15.053  -5.135  1.00 20.00     0.094 N 
HETATM   11  C4  UNL     1     -35.888  13.728  -4.635  1.00 20.00     0.307 C 
HETATM   12  H28 UNL     1     -36.625  14.986  -6.053  1.00 20.00     0.316 HD
ENDBRANCH   1  10
TORSDOF 4
ENDMDL
MODEL 5
REMARK VINA RESULT:      -3.4      1.256      1.993
REMARK  4 active torsions:
REMARK  status: ('A' for Active; 'I' for Inactive)
REMARK    1  A    between atoms: C5_5  and  C8_8 
REMARK    2  A    between atoms: C6_6  and  C8_8 
REMARK    3  A    between atoms: C7_7  and  C8_8 
REMARK    4  A    between atoms: C8_8  and  N9_9 
ROOT
HETATM    1  C8  UNL     1     -34.624  15.788  -4.974  1.00 20.00     0.217 C 
ENDROOT
BRANCH   1   2
HETATM    2  C5  UNL     1     -36.024  15.550  -5.614  1.00 20.00     0.043 C 
HETATM    3  C1  UNL     1     -37.116  16.544  -5.231  1.00 20.00     0.008 C 
ENDBRANCH   1   2
BRANCH   1   4
HETATM    4  C6  UNL     1     -34.530  17.154  -4.204  1.00 20.00     0.021 C 
HETATM    5  C2  UNL     1     -34.018  18.324  -5.055  1.00 20.00     0.012 C 
HETATM    6  C3  UNL     1     -33.679  17.082  -2.923  1.00 20.00     0.012 C 
ENDBRANCH   1   4
BRANCH   1   7
HETATM    7  C7  UNL     1     -34.286  14.578  -4.080  1.00 20.00     0.391 C 
HETATM    8  F10 UNL     1     -35.209  13.595  -4.256  1.00 20.00    -0.212 F 
HETATM    9  F11 UNL     1     -33.093  14.038  -4.436  1.00 20.00    -0.212 F 
ENDBRANCH   1   7
BRANCH   1  10
HETATM   10  N9  UNL     1     -33.612  15.791  -6.048  1.00 20.00     0.094 N 
HETATM   11  C4  UNL     1     -34.222  15.433  -7.313  1.00 20.00     0.307 C 
HETATM   12  H28 UNL     1     -32.892  15.119  -5.806  1.00 20.00     0.316 HD
ENDBRANCH   1  10
TORSDOF 4
ENDMDL
MODEL 6
REMARK VINA RESULT:      -3.3      1.103      2.714
REMARK  4 active torsions:
REMARK  status: ('A' for Active; 'I' for Inactive)
REMARK    1  A    between atoms: C5_5  and  C8_8 
REMARK    2  A    between atoms: C6_6  and  C8_8 
REMARK    3  A    between atoms: C7_7  and  C8_8 
REMARK    4  A    between atoms: C8_8  and  N9_9 
ROOT
HETATM    1  C8  UNL     1     -34.992  15.546  -5.259  1.00 20.00     0.217 C 
ENDROOT
BRANCH   1   2
HETATM    2  C5  UNL     1     -33.996  15.281  -6.427  1.00 20.00     0.043 C 
HETATM    3  C1  UNL     1     -34.144  16.180  -7.651  1.00 20.00     0.008 C 
ENDBRANCH   1   2
BRANCH   1   4
HETATM    4  C6  UNL     1     -35.596  16.995  -5.289  1.00 20.00     0.021 C 
HETATM    5  C2  UNL     1     -35.150  17.888  -4.123  1.00 20.00     0.012 C 
HETATM    6  C3  UNL     1     -37.134  17.020  -5.353  1.00 20.00     0.012 C 
ENDBRANCH   1   4
BRANCH   1   7
HETATM    7  C7  UNL     1     -36.076  14.450  -5.288  1.00 20.00     0.391 C 
HETATM    8  F10 UNL     1     -36.106  13.853  -6.510  1.00 20.00    -0.212 F 
HETATM    9  F11 UNL     1     -35.786  13.465  -4.400  1.00 20.00    -0.212 F 
ENDBRANCH   1   7
BRANCH   1  10
HETATM   10  N9  UNL     1     -34.274  15.368  -3.982  1.00 20.00     0.094 N 
HETATM   11  C4  UNL     1     -32.900  14.978  -4.228  1.00 20.00     0.307 C 
HETATM   12  H28 UNL     1     -34.750  14.649  -3.449  1.00 20.00     0.316 HD
ENDBRANCH   1  10
TORSDOF 4
ENDMDL
MODEL 7
REMARK VINA RESULT:      -3.3      1.705      2.284
REMARK  4 active torsions:
REMARK  status: ('A' for Active; 'I' for Inactive)
REMARK    1  A    between atoms: C5_5  and  C8_8 
REMARK    2  A    between atoms: C6_6  and  C8_8 
REMARK    3  A    between atoms: C7_7  and  C8_8 
REMARK    4  A    between atoms: C8_8  and  N9_9 
ROOT
HETATM    1  C8  UNL     1     -34.603  16.367  -5.730  1.00 20.00     0.217 C 
ENDROOT
BRANCH   1   2
HETATM    2  C5  UNL     1     -36.112  16.415  -5.345  1.00 20.00     0.043 C 
HETATM    3  C1  UNL     1     -36.598  17.704  -4.692  1.00 20.00     0.008 C 
ENDBRANCH   1   2
BRANCH   1   4
HETATM    4  C6  UNL     1     -33.728  15.606  -4.672  1.00 20.00     0.021 C 
HETATM    5  C2  UNL     1     -34.356  14.305  -4.152  1.00 20.00     0.012 C 
HETATM    6  C3  UNL     1     -33.337  16.469  -3.459  1.00 20.00     0.012 C 
ENDBRANCH   1   4
BRANCH   1   7
HETATM    7  C7  UNL     1     -34.482  15.766  -7.145  1.00 20.00     0.391 C 
HETATM    8  F10 UNL     1     -33.364  14.996  -7.231  1.00 20.00    -0.212 F 
HETATM    9  F11 UNL     1     -35.525  14.938  -7.403  1.00 20.00    -0.212 F 
ENDBRANCH   1   7
BRANCH   1  10
HETATM   10  N9  UNL     1     -34.103  17.751  -5.837  1.00 20.00     0.094 N 
HETATM   11  C4  UNL     1     -34.185  18.210  -7.209  1.00 20.00     0.307 C 
HETATM   12  H28 UNL     1     -33.139  17.764  -5.523  1.00 20.00     0.316 HD
ENDBRANCH   1  10
TORSDOF 4
ENDMDL
MODEL 8
REMARK VINA RESULT:      -3.2      3.158      4.023
REMARK  4 active torsions:
REMARK  status: ('A' for Active; 'I' for Inactive)
REMARK    1  A    between atoms: C5_5  and  C8_8 
REMARK    2  A    between atoms: C6_6  and  C8_8 
REMARK    3  A    between atoms: C7_7  and  C8_8 
REMARK    4  A    between atoms: C8_8  and  N9_9 
ROOT
HETATM    1  C8  UNL     1     -34.431  17.544  -4.355  1.00 20.00     0.217 C 
ENDROOT
BRANCH   1   2
HETATM    2  C5  UNL     1     -34.976  16.779  -5.598  1.00 20.00     0.043 C 
HETATM    3  C1  UNL     1     -36.427  16.316  -5.518  1.00 20.00     0.008 C 
ENDBRANCH   1   2
BRANCH   1   4
HETATM    4  C6  UNL     1     -33.341  16.732  -3.569  1.00 20.00     0.021 C 
HETATM    5  C2  UNL     1     -33.260  15.248  -3.954  1.00 20.00     0.012 C 
HETATM    6  C3  UNL     1     -33.487  16.825  -2.040  1.00 20.00     0.012 C 
ENDBRANCH   1   4
BRANCH   1   7
HETATM    7  C7  UNL     1     -33.922  18.925  -4.820  1.00 20.00     0.391 C 
HETATM    8  F10 UNL     1     -32.642  19.116  -4.404  1.00 20.00    -0.212 F 
HETATM    9  F11 UNL     1     -33.888  18.991  -6.175  1.00 20.00    -0.212 F 
ENDBRANCH   1   7
BRANCH   1  10
HETATM   10  N9  UNL     1     -35.555  17.817  -3.441  1.00 20.00     0.094 N 
HETATM   11  C4  UNL     1     -35.855  19.235  -3.421  1.00 20.00     0.307 C 
HETATM   12  H28 UNL     1     -35.293  17.503  -2.514  1.00 20.00     0.316 HD
ENDBRANCH   1  10
TORSDOF 4
ENDMDL
MODEL 9
REMARK VINA RESULT:      -3.2      2.825      4.186
REMARK  4 active torsions:
REMARK  status: ('A' for Active; 'I' for Inactive)
REMARK    1  A    between atoms: C5_5  and  C8_8 
REMARK    2  A    between atoms: C6_6  and  C8_8 
REMARK    3  A    between atoms: C7_7  and  C8_8 
REMARK    4  A    between atoms: C8_8  and  N9_9 
ROOT
HETATM    1  C8  UNL     1     -34.319  17.532  -3.703  1.00 20.00     0.217 C 
ENDROOT
BRANCH   1   2
HETATM    2  C5  UNL     1     -33.147  18.546  -3.869  1.00 20.00     0.043 C 
HETATM    3  C1  UNL     1     -32.695  19.262  -2.600  1.00 20.00     0.008 C 
ENDBRANCH   1   2
BRANCH   1   4
HETATM    4  C6  UNL     1     -35.157  17.349  -5.018  1.00 20.00     0.021 C 
HETATM    5  C2  UNL     1     -35.481  15.888  -5.362  1.00 20.00     0.012 C 
HETATM    6  C3  UNL     1     -34.514  18.003  -6.255  1.00 20.00     0.012 C 
ENDBRANCH   1   4
BRANCH   1   7
HETATM    7  C7  UNL     1     -33.739  16.202  -3.179  1.00 20.00     0.391 C 
HETATM    8  F10 UNL     1     -32.487  16.010  -3.675  1.00 20.00    -0.212 F 
HETATM    9  F11 UNL     1     -33.604  16.238  -1.829  1.00 20.00    -0.212 F 
ENDBRANCH   1   7
BRANCH   1  10
HETATM   10  N9  UNL     1     -35.219  18.024  -2.644  1.00 20.00     0.094 N 
HETATM   11  C4  UNL     1     -36.297  18.802  -3.222  1.00 20.00     0.307 C 
HETATM   12  H28 UNL     1     -34.676  18.599  -2.009  1.00 20.00     0.316 HD
ENDBRANCH   1  10
TORSDOF 4
ENDMDL
