MODEL 1
REMARK VINA RESULT:      -3.6      0.000      0.000
REMARK  3 active torsions:
REMARK  status: ('A' for Active; 'I' for Inactive)
REMARK    1  A    between atoms: C3_3  and  N7_7 
REMARK    2  A    between atoms: C4_4  and  C5_5 
REMARK    3  A    between atoms: C4_4  and  N7_7 
ROOT
HETATM    1  C1  UNL     1     -32.686   6.054   2.844  1.00 20.00     0.089 C 
HETATM    2  C3  UNL     1     -32.348   7.436   3.182  1.00 20.00     0.395 C 
HETATM    3  N6  UNL     1     -32.954   4.958   2.573  1.00 20.00    -0.195 NA
ENDROOT
BRANCH   2   4
HETATM    4  N7  UNL     1     -32.594   7.701   4.599  1.00 20.00     0.099 N 
HETATM    5  C2  UNL     1     -32.301   9.099   4.916  1.00 20.00     0.311 C 
BRANCH   4   6
HETATM    6  C4  UNL     1     -33.976   7.377   4.947  1.00 20.00     0.304 C 
BRANCH   6   7
HETATM    7  C5  UNL     1     -34.085   6.853   6.364  1.00 20.00     0.252 C 
HETATM    8  F8  UNL     1     -34.836   5.720   6.362  1.00 20.00    -0.254 F 
ENDBRANCH   6   7
ENDBRANCH   4   6
ENDBRANCH   2   4
TORSDOF 3
ENDMDL
MODEL 2
REMARK VINA RESULT:      -3.4      1.591      2.712
REMARK  3 active torsions:
REMARK  status: ('A' for Active; 'I' for Inactive)
REMARK    1  A    between atoms: C3_3  and  N7_7 
REMARK    2  A    between atoms: C4_4  and  C5_5 
REMARK    3  A    between atoms: C4_4  and  N7_7 
ROOT
HETATM    1  C1  UNL     1     -32.807   8.102   3.756  1.00 20.00     0.089 C 
HETATM    2  C3  UNL     1     -33.266   7.021   4.627  1.00 20.00     0.395 C 
HETATM    3  N6  UNL     1     -32.442   8.962   3.067  1.00 20.00    -0.195 NA
ENDROOT
BRANCH   2   4
HETATM    4  N7  UNL     1     -33.965   5.993   3.858  1.00 20.00     0.099 N 
HETATM    5  C2  UNL     1     -33.047   5.343   2.923  1.00 20.00     0.311 C 
BRANCH   4   6
HETATM    6  C4  UNL     1     -34.567   5.006   4.753  1.00 20.00     0.304 C 
BRANCH   6   7
HETATM    7  C5  UNL     1     -34.720   5.549   6.158  1.00 20.00     0.252 C 
HETATM    8  F8  UNL     1     -33.882   4.872   6.989  1.00 20.00    -0.254 F 
ENDBRANCH   6   7
ENDBRANCH   4   6
ENDBRANCH   2   4
TORSDOF 3
ENDMDL
MODEL 3
REMARK VINA RESULT:      -3.4      2.311      2.990
REMARK  3 active torsions:
REMARK  status: ('A' for Active; 'I' for Inactive)
REMARK    1  A    between atoms: C3_3  and  N7_7 
REMARK    2  A    between atoms: C4_4  and  C5_5 
REMARK    3  A    between atoms: C4_4  and  N7_7 
ROOT
HETATM    1  C1  UNL     1     -34.458   4.934   4.543  1.00 20.00     0.089 C 
HETATM    2  C3  UNL     1     -35.090   6.253   4.555  1.00 20.00     0.395 C 
HETATM    3  N6  UNL     1     -33.960   3.886   4.534  1.00 20.00    -0.195 NA
ENDROOT
BRANCH   2   4
HETATM    4  N7  UNL     1     -34.170   7.267   5.066  1.00 20.00     0.099 N 
HETATM    5  C2  UNL     1     -33.849   7.004   6.469  1.00 20.00     0.311 C 
BRANCH   4   6
HETATM    6  C4  UNL     1     -32.950   7.303   4.261  1.00 20.00     0.304 C 
BRANCH   6   7
HETATM    7  C5  UNL     1     -32.558   8.722   3.908  1.00 20.00     0.252 C 
HETATM    8  F8  UNL     1     -32.236   9.390   5.048  1.00 20.00    -0.254 F 
ENDBRANCH   6   7
ENDBRANCH   4   6
ENDBRANCH   2   4
TORSDOF 3
ENDMDL
MODEL 4
REMARK VINA RESULT:      -3.4      2.236      3.574
REMARK  3 active torsions:
REMARK  status: ('A' for Active; 'I' for Inactive)
REMARK    1  A    between atoms: C3_3  and  N7_7 
REMARK    2  A    between atoms: C4_4  and  C5_5 
REMARK    3  A    between atoms: C4_4  and  N7_7 
ROOT
HETATM    1  C1  UNL     1     -32.970   8.260   5.002  1.00 20.00     0.089 C 
HETATM    2  C3  UNL     1     -33.945   7.477   5.759  1.00 20.00     0.395 C 
HETATM    3  N6  UNL     1     -32.198   8.884   4.401  1.00 20.00    -0.195 NA
ENDROOT
BRANCH   2   4
HETATM    4  N7  UNL     1     -33.858   6.059   5.411  1.00 20.00     0.099 N 
HETATM    5  C2  UNL     1     -34.611   5.251   6.370  1.00 20.00     0.311 C 
BRANCH   4   6
HETATM    6  C4  UNL     1     -34.353   5.835   4.053  1.00 20.00     0.304 C 
BRANCH   6   7
HETATM    7  C5  UNL     1     -33.322   5.135   3.194  1.00 20.00     0.252 C 
HETATM    8  F8  UNL     1     -32.613   6.067   2.503  1.00 20.00    -0.254 F 
ENDBRANCH   6   7
ENDBRANCH   4   6
ENDBRANCH   2   4
TORSDOF 3
ENDMDL
MODEL 5
REMARK VINA RESULT:      -3.3      2.004      2.661
REMARK  3 active torsions:
REMARK  status: ('A' for Active; 'I' for Inactive)
REMARK    1  A    between atoms: C3_3  and  N7_7 
REMARK    2  A    between atoms: C4_4  and  C5_5 
REMARK    3  A    between atoms: C4_4  and  N7_7 
ROOT
HETATM    1  C1  UNL     1     -32.606   7.837   3.647  1.00 20.00     0.089 C 
HETATM    2  C3  UNL     1     -33.294   8.017   4.925  1.00 20.00     0.395 C 
HETATM    3  N6  UNL     1     -32.060   7.698   2.632  1.00 20.00    -0.195 NA
ENDROOT
BRANCH   2   4
HETATM    4  N7  UNL     1     -33.700   6.728   5.484  1.00 20.00     0.099 N 
HETATM    5  C2  UNL     1     -34.342   6.915   6.785  1.00 20.00     0.311 C 
BRANCH   4   6
HETATM    6  C4  UNL     1     -34.601   6.034   4.564  1.00 20.00     0.304 C 
BRANCH   6   7
HETATM    7  C5  UNL     1     -34.155   4.608   4.321  1.00 20.00     0.252 C 
HETATM    8  F8  UNL     1     -33.334   4.578   3.237  1.00 20.00    -0.254 F 
ENDBRANCH   6   7
ENDBRANCH   4   6
ENDBRANCH   2   4
TORSDOF 3
ENDMDL
MODEL 6
REMARK VINA RESULT:      -3.3      1.571      2.100
REMARK  3 active torsions:
REMARK  status: ('A' for Active; 'I' for Inactive)
REMARK    1  A    between atoms: C3_3  and  N7_7 
REMARK    2  A    between atoms: C4_4  and  C5_5 
REMARK    3  A    between atoms: C4_4  and  N7_7 
ROOT
HETATM    1  C1  UNL     1     -32.264   7.885   2.823  1.00 20.00     0.089 C 
HETATM    2  C3  UNL     1     -32.485   7.834   4.267  1.00 20.00     0.395 C 
HETATM    3  N6  UNL     1     -32.086   7.928   1.677  1.00 20.00    -0.195 NA
ENDROOT
BRANCH   2   4
HETATM    4  N7  UNL     1     -33.769   7.207   4.576  1.00 20.00     0.099 N 
HETATM    5  C2  UNL     1     -33.880   5.913   3.904  1.00 20.00     0.311 C 
BRANCH   4   6
HETATM    6  C4  UNL     1     -33.926   7.048   6.021  1.00 20.00     0.304 C 
BRANCH   6   7
HETATM    7  C5  UNL     1     -34.701   5.792   6.361  1.00 20.00     0.252 C 
HETATM    8  F8  UNL     1     -33.864   4.903   6.960  1.00 20.00    -0.254 F 
ENDBRANCH   6   7
ENDBRANCH   4   6
ENDBRANCH   2   4
TORSDOF 3
ENDMDL
MODEL 7
REMARK VINA RESULT:      -3.3      2.478      3.276
REMARK  3 active torsions:
REMARK  status: ('A' for Active; 'I' for Inactive)
REMARK    1  A    between atoms: C3_3  and  N7_7 
REMARK    2  A    between atoms: C4_4  and  C5_5 
REMARK    3  A    between atoms: C4_4  and  N7_7 
ROOT
HETATM    1  C1  UNL     1     -34.510   5.799   5.536  1.00 20.00     0.089 C 
HETATM    2  C3  UNL     1     -33.899   7.066   5.936  1.00 20.00     0.395 C 
HETATM    3  N6  UNL     1     -34.993   4.792   5.222  1.00 20.00    -0.195 NA
ENDROOT
BRANCH   2   4
HETATM    4  N7  UNL     1     -33.539   7.863   4.765  1.00 20.00     0.099 N 
HETATM    5  C2  UNL     1     -32.498   8.833   5.107  1.00 20.00     0.311 C 
BRANCH   4   6
HETATM    6  C4  UNL     1     -33.092   6.997   3.675  1.00 20.00     0.304 C 
BRANCH   6   7
HETATM    7  C5  UNL     1     -31.888   7.577   2.962  1.00 20.00     0.252 C 
HETATM    8  F8  UNL     1     -32.148   7.636   1.629  1.00 20.00    -0.254 F 
ENDBRANCH   6   7
ENDBRANCH   4   6
ENDBRANCH   2   4
TORSDOF 3
ENDMDL
MODEL 8
REMARK VINA RESULT:      -3.3     12.405     12.936
REMARK  3 active torsions:
REMARK  status: ('A' for Active; 'I' for Inactive)
REMARK    1  A    between atoms: C3_3  and  N7_7 
REMARK    2  A    between atoms: C4_4  and  C5_5 
REMARK    3  A    between atoms: C4_4  and  N7_7 
ROOT
HETATM    1  C1  UNL     1     -35.666  14.677  -6.435  1.00 20.00     0.089 C 
HETATM    2  C3  UNL     1     -35.109  14.748  -5.085  1.00 20.00     0.395 C 
HETATM    3  N6  UNL     1     -36.110  14.617  -7.506  1.00 20.00    -0.195 NA
ENDROOT
BRANCH   2   4
HETATM    4  N7  UNL     1     -34.143  15.840  -4.978  1.00 20.00     0.099 N 
HETATM    5  C2  UNL     1     -34.834  17.121  -4.834  1.00 20.00     0.311 C 
BRANCH   4   6
HETATM    6  C4  UNL     1     -33.242  15.616  -3.847  1.00 20.00     0.304 C 
BRANCH   6   7
HETATM    7  C5  UNL     1     -33.263  16.781  -2.880  1.00 20.00     0.252 C 
HETATM    8  F8  UNL     1     -33.659  16.335  -1.658  1.00 20.00    -0.254 F 
ENDBRANCH   6   7
ENDBRANCH   4   6
ENDBRANCH   2   4
TORSDOF 3
ENDMDL
MODEL 9
REMARK VINA RESULT:      -3.3      2.275      3.247
REMARK  3 active torsions:
REMARK  status: ('A' for Active; 'I' for Inactive)
REMARK    1  A    between atoms: C3_3  and  N7_7 
REMARK    2  A    between atoms: C4_4  and  C5_5 
REMARK    3  A    between atoms: C4_4  and  N7_7 
ROOT
HETATM    1  C1  UNL     1     -34.281   6.236   6.296  1.00 20.00     0.089 C 
HETATM    2  C3  UNL     1     -33.640   7.511   5.977  1.00 20.00     0.395 C 
HETATM    3  N6  UNL     1     -34.788   5.224   6.552  1.00 20.00    -0.195 NA
ENDROOT
BRANCH   2   4
HETATM    4  N7  UNL     1     -33.502   7.677   4.531  1.00 20.00     0.099 N 
HETATM    5  C2  UNL     1     -32.205   8.271   4.207  1.00 20.00     0.311 C 
BRANCH   4   6
HETATM    6  C4  UNL     1     -33.660   6.392   3.851  1.00 20.00     0.304 C 
BRANCH   6   7
HETATM    7  C5  UNL     1     -32.611   6.199   2.777  1.00 20.00     0.252 C 
HETATM    8  F8  UNL     1     -32.573   4.886   2.425  1.00 20.00    -0.254 F 
ENDBRANCH   6   7
ENDBRANCH   4   6
ENDBRANCH   2   4
TORSDOF 3
ENDMDL
