MODEL 1
REMARK VINA RESULT:      -4.6      0.000      0.000
REMARK  4 active torsions:
REMARK  status: ('A' for Active; 'I' for Inactive)
REMARK    1  A    between atoms: C2_2  and  C8_8 
REMARK    2  A    between atoms: C6_6  and  C9_9 
REMARK    3  A    between atoms: C8_8  and  C9_9 
REMARK    4  A    between atoms: C9_9  and  O10_10 
ROOT
HETATM    1  C1  UNL     1     -33.311  16.496  -2.687  1.00 20.00    -0.111 C 
HETATM    2  C2  UNL     1     -33.526  15.605  -3.464  1.00 20.00    -0.104 C 
HETATM    3  C7  UNL     1     -33.048  17.578  -1.741  1.00 20.00     0.112 C 
ENDROOT
BRANCH   2   4
HETATM    4  C8  UNL     1     -33.789  14.514  -4.418  1.00 20.00     0.126 C 
BRANCH   4   5
HETATM    5  C9  UNL     1     -35.291  14.306  -4.623  1.00 20.00     0.143 C 
BRANCH   5   6
HETATM    6  C6  UNL     1     -35.724  14.754  -6.014  1.00 20.00     0.077 C 
HETATM    7  C4  UNL     1     -36.698  15.930  -5.985  1.00 20.00     0.018 C 
HETATM    8  C3  UNL     1     -35.872  17.203  -5.860  1.00 20.00     0.011 C 
HETATM    9  C5  UNL     1     -34.783  17.118  -6.914  1.00 20.00     0.074 C 
HETATM   10  S11 UNL     1     -34.283  15.373  -6.944  1.00 20.00    -0.162 SA
ENDBRANCH   5   6
BRANCH   5  11
HETATM   11  O10 UNL     1     -35.586  12.917  -4.481  1.00 20.00    -0.394 OA
HETATM   12  H25 UNL     1     -35.330  12.673  -3.579  1.00 20.00     0.210 HD
ENDBRANCH   5  11
ENDBRANCH   4   5
ENDBRANCH   2   4
TORSDOF 4
ENDMDL
MODEL 2
REMARK VINA RESULT:      -4.2      1.284      1.716
REMARK  4 active torsions:
REMARK  status: ('A' for Active; 'I' for Inactive)
REMARK    1  A    between atoms: C2_2  and  C8_8 
REMARK    2  A    between atoms: C6_6  and  C9_9 
REMARK    3  A    between atoms: C8_8  and  C9_9 
REMARK    4  A    between atoms: C9_9  and  O10_10 
ROOT
HETATM    1  C1  UNL     1     -33.565  17.150  -1.653  1.00 20.00    -0.111 C 
HETATM    2  C2  UNL     1     -33.265  16.620  -2.688  1.00 20.00    -0.104 C 
HETATM    3  C7  UNL     1     -33.932  17.793  -0.393  1.00 20.00     0.112 C 
ENDROOT
BRANCH   2   4
HETATM    4  C8  UNL     1     -32.894  15.972  -3.957  1.00 20.00     0.126 C 
BRANCH   4   5
HETATM    5  C9  UNL     1     -33.966  14.978  -4.408  1.00 20.00     0.143 C 
BRANCH   5   6
HETATM    6  C6  UNL     1     -34.485  15.322  -5.800  1.00 20.00     0.077 C 
HETATM    7  C4  UNL     1     -35.865  14.732  -6.084  1.00 20.00     0.018 C 
HETATM    8  C3  UNL     1     -36.898  15.682  -5.492  1.00 20.00     0.011 C 
HETATM    9  C5  UNL     1     -36.530  17.074  -5.972  1.00 20.00     0.074 C 
HETATM   10  S11 UNL     1     -34.716  17.124  -5.949  1.00 20.00    -0.162 SA
ENDBRANCH   5   6
BRANCH   5  11
HETATM   11  O10 UNL     1     -33.395  13.671  -4.447  1.00 20.00    -0.394 OA
HETATM   12  H25 UNL     1     -32.752  13.632  -3.724  1.00 20.00     0.210 HD
ENDBRANCH   5  11
ENDBRANCH   4   5
ENDBRANCH   2   4
TORSDOF 4
ENDMDL
MODEL 3
REMARK VINA RESULT:      -3.9      1.464      1.925
REMARK  4 active torsions:
REMARK  status: ('A' for Active; 'I' for Inactive)
REMARK    1  A    between atoms: C2_2  and  C8_8 
REMARK    2  A    between atoms: C6_6  and  C9_9 
REMARK    3  A    between atoms: C8_8  and  C9_9 
REMARK    4  A    between atoms: C9_9  and  O10_10 
ROOT
HETATM    1  C1  UNL     1     -33.542  17.234  -1.489  1.00 20.00    -0.111 C 
HETATM    2  C2  UNL     1     -33.255  16.625  -2.484  1.00 20.00    -0.104 C 
HETATM    3  C7  UNL     1     -33.892  17.975  -0.279  1.00 20.00     0.112 C 
ENDROOT
BRANCH   2   4
HETATM    4  C8  UNL     1     -32.900  15.878  -3.703  1.00 20.00     0.126 C 
BRANCH   4   5
HETATM    5  C9  UNL     1     -34.048  14.973  -4.154  1.00 20.00     0.143 C 
BRANCH   5   6
HETATM    6  C6  UNL     1     -35.120  15.768  -4.890  1.00 20.00     0.077 C 
HETATM    7  C4  UNL     1     -34.540  16.812  -5.842  1.00 20.00     0.018 C 
HETATM    8  C3  UNL     1     -34.205  16.103  -7.147  1.00 20.00     0.011 C 
HETATM    9  C5  UNL     1     -35.433  15.296  -7.529  1.00 20.00     0.074 C 
HETATM   10  S11 UNL     1     -36.091  14.657  -5.962  1.00 20.00    -0.162 SA
ENDBRANCH   5   6
BRANCH   5  11
HETATM   11  O10 UNL     1     -33.531  13.981  -5.039  1.00 20.00    -0.394 OA
HETATM   12  H25 UNL     1     -34.209  13.292  -5.105  1.00 20.00     0.210 HD
ENDBRANCH   5  11
ENDBRANCH   4   5
ENDBRANCH   2   4
TORSDOF 4
ENDMDL
MODEL 4
REMARK VINA RESULT:      -3.9      1.979      3.039
REMARK  4 active torsions:
REMARK  status: ('A' for Active; 'I' for Inactive)
REMARK    1  A    between atoms: C2_2  and  C8_8 
REMARK    2  A    between atoms: C6_6  and  C9_9 
REMARK    3  A    between atoms: C8_8  and  C9_9 
REMARK    4  A    between atoms: C9_9  and  O10_10 
ROOT
HETATM    1  C1  UNL     1     -33.689  17.774  -0.604  1.00 20.00    -0.111 C 
HETATM    2  C2  UNL     1     -33.529  17.212  -1.653  1.00 20.00    -0.104 C 
HETATM    3  C7  UNL     1     -33.884  18.459   0.672  1.00 20.00     0.112 C 
ENDROOT
BRANCH   2   4
HETATM    4  C8  UNL     1     -33.332  16.521  -2.939  1.00 20.00     0.126 C 
BRANCH   4   5
HETATM    5  C9  UNL     1     -34.148  17.177  -4.054  1.00 20.00     0.143 C 
BRANCH   5   6
HETATM    6  C6  UNL     1     -34.213  16.284  -5.287  1.00 20.00     0.077 C 
HETATM    7  C4  UNL     1     -33.733  14.859  -5.018  1.00 20.00     0.018 C 
HETATM    8  C3  UNL     1     -34.905  14.087  -4.427  1.00 20.00     0.011 C 
HETATM    9  C5  UNL     1     -36.096  14.350  -5.331  1.00 20.00     0.074 C 
HETATM   10  S11 UNL     1     -35.945  16.091  -5.824  1.00 20.00    -0.162 SA
ENDBRANCH   5   6
BRANCH   5  11
HETATM   11  O10 UNL     1     -35.477  17.397  -3.583  1.00 20.00    -0.394 OA
HETATM   12  H25 UNL     1     -35.397  17.922  -2.773  1.00 20.00     0.210 HD
ENDBRANCH   5  11
ENDBRANCH   4   5
ENDBRANCH   2   4
TORSDOF 4
ENDMDL
MODEL 5
REMARK VINA RESULT:      -3.8      1.739      2.089
REMARK  4 active torsions:
REMARK  status: ('A' for Active; 'I' for Inactive)
REMARK    1  A    between atoms: C2_2  and  C8_8 
REMARK    2  A    between atoms: C6_6  and  C9_9 
REMARK    3  A    between atoms: C8_8  and  C9_9 
REMARK    4  A    between atoms: C9_9  and  O10_10 
ROOT
HETATM    1  C1  UNL     1     -33.292  16.386  -2.809  1.00 20.00    -0.111 C 
HETATM    2  C2  UNL     1     -33.610  15.519  -3.577  1.00 20.00    -0.104 C 
HETATM    3  C7  UNL     1     -32.905  17.441  -1.874  1.00 20.00     0.112 C 
ENDROOT
BRANCH   2   4
HETATM    4  C8  UNL     1     -34.000  14.457  -4.519  1.00 20.00     0.126 C 
BRANCH   4   5
HETATM    5  C9  UNL     1     -34.397  15.037  -5.878  1.00 20.00     0.143 C 
BRANCH   5   6
HETATM    6  C6  UNL     1     -34.977  16.439  -5.730  1.00 20.00     0.077 C 
HETATM    7  C4  UNL     1     -34.827  17.283  -6.994  1.00 20.00     0.018 C 
HETATM    8  C3  UNL     1     -35.984  16.930  -7.918  1.00 20.00     0.011 C 
HETATM    9  C5  UNL     1     -37.246  17.001  -7.077  1.00 20.00     0.074 C 
HETATM   10  S11 UNL     1     -36.777  16.341  -5.453  1.00 20.00    -0.162 SA
ENDBRANCH   5   6
BRANCH   5  11
HETATM   11  O10 UNL     1     -33.236  15.111  -6.704  1.00 20.00    -0.394 OA
HETATM   12  H25 UNL     1     -32.751  14.284  -6.569  1.00 20.00     0.210 HD
ENDBRANCH   5  11
ENDBRANCH   4   5
ENDBRANCH   2   4
TORSDOF 4
ENDMDL
MODEL 6
REMARK VINA RESULT:      -3.8     11.466     12.752
REMARK  4 active torsions:
REMARK  status: ('A' for Active; 'I' for Inactive)
REMARK    1  A    between atoms: C2_2  and  C8_8 
REMARK    2  A    between atoms: C6_6  and  C9_9 
REMARK    3  A    between atoms: C8_8  and  C9_9 
REMARK    4  A    between atoms: C9_9  and  O10_10 
ROOT
HETATM    1  C1  UNL     1     -32.534   8.567   1.018  1.00 20.00    -0.111 C 
HETATM    2  C2  UNL     1     -32.215   7.948   1.997  1.00 20.00    -0.104 C 
HETATM    3  C7  UNL     1     -32.923   9.320  -0.172  1.00 20.00     0.112 C 
ENDROOT
BRANCH   2   4
HETATM    4  C8  UNL     1     -31.822   7.190   3.197  1.00 20.00     0.126 C 
BRANCH   4   5
HETATM    5  C9  UNL     1     -32.814   6.063   3.493  1.00 20.00     0.143 C 
BRANCH   5   6
HETATM    6  C6  UNL     1     -34.121   6.613   4.052  1.00 20.00     0.077 C 
HETATM    7  C4  UNL     1     -34.996   5.537   4.690  1.00 20.00     0.018 C 
HETATM    8  C3  UNL     1     -34.501   5.333   6.116  1.00 20.00     0.011 C 
HETATM    9  C5  UNL     1     -34.387   6.714   6.736  1.00 20.00     0.074 C 
HETATM   10  S11 UNL     1     -33.773   7.785   5.405  1.00 20.00    -0.162 SA
ENDBRANCH   5   6
BRANCH   5  11
HETATM   11  O10 UNL     1     -33.097   5.368   2.279  1.00 20.00    -0.394 OA
HETATM   12  H25 UNL     1     -33.323   4.460   2.529  1.00 20.00     0.210 HD
ENDBRANCH   5  11
ENDBRANCH   4   5
ENDBRANCH   2   4
TORSDOF 4
ENDMDL
MODEL 7
REMARK VINA RESULT:      -3.6      2.238      3.788
REMARK  4 active torsions:
REMARK  status: ('A' for Active; 'I' for Inactive)
REMARK    1  A    between atoms: C2_2  and  C8_8 
REMARK    2  A    between atoms: C6_6  and  C9_9 
REMARK    3  A    between atoms: C8_8  and  C9_9 
REMARK    4  A    between atoms: C9_9  and  O10_10 
ROOT
HETATM    1  C1  UNL     1     -31.783  18.565  -0.264  1.00 20.00    -0.111 C 
HETATM    2  C2  UNL     1     -32.523  18.661  -1.205  1.00 20.00    -0.104 C 
HETATM    3  C7  UNL     1     -30.883  18.449   0.882  1.00 20.00     0.112 C 
ENDROOT
BRANCH   2   4
HETATM    4  C8  UNL     1     -33.430  18.776  -2.359  1.00 20.00     0.126 C 
BRANCH   4   5
HETATM    5  C9  UNL     1     -34.036  17.421  -2.728  1.00 20.00     0.143 C 
BRANCH   5   6
HETATM    6  C6  UNL     1     -33.438  16.886  -4.025  1.00 20.00     0.077 C 
HETATM    7  C4  UNL     1     -32.988  15.431  -3.918  1.00 20.00     0.018 C 
HETATM    8  C3  UNL     1     -34.212  14.556  -4.150  1.00 20.00     0.011 C 
HETATM    9  C5  UNL     1     -34.881  15.074  -5.410  1.00 20.00     0.074 C 
HETATM   10  S11 UNL     1     -34.706  16.879  -5.336  1.00 20.00    -0.162 SA
ENDBRANCH   5   6
BRANCH   5  11
HETATM   11  O10 UNL     1     -33.756  16.492  -1.683  1.00 20.00    -0.394 OA
HETATM   12  H25 UNL     1     -34.613  16.204  -1.334  1.00 20.00     0.210 HD
ENDBRANCH   5  11
ENDBRANCH   4   5
ENDBRANCH   2   4
TORSDOF 4
ENDMDL
MODEL 8
REMARK VINA RESULT:      -3.6     12.553     13.692
REMARK  4 active torsions:
REMARK  status: ('A' for Active; 'I' for Inactive)
REMARK    1  A    between atoms: C2_2  and  C8_8 
REMARK    2  A    between atoms: C6_6  and  C9_9 
REMARK    3  A    between atoms: C8_8  and  C9_9 
REMARK    4  A    between atoms: C9_9  and  O10_10 
ROOT
HETATM    1  C1  UNL     1     -39.792  12.201   4.855  1.00 20.00    -0.111 C 
HETATM    2  C2  UNL     1     -40.501  12.735   5.665  1.00 20.00    -0.104 C 
HETATM    3  C7  UNL     1     -38.928  11.551   3.872  1.00 20.00     0.112 C 
ENDROOT
BRANCH   2   4
HETATM    4  C8  UNL     1     -41.371  13.391   6.655  1.00 20.00     0.126 C 
BRANCH   4   5
HETATM    5  C9  UNL     1     -40.594  14.408   7.492  1.00 20.00     0.143 C 
BRANCH   5   6
HETATM    6  C6  UNL     1     -41.528  15.448   8.102  1.00 20.00     0.077 C 
HETATM    7  C4  UNL     1     -40.806  16.729   8.512  1.00 20.00     0.018 C 
HETATM    8  C3  UNL     1     -40.686  17.602   7.270  1.00 20.00     0.011 C 
HETATM    9  C5  UNL     1     -42.066  17.652   6.641  1.00 20.00     0.074 C 
HETATM   10  S11 UNL     1     -42.752  15.986   6.862  1.00 20.00    -0.162 SA
ENDBRANCH   5   6
BRANCH   5  11
HETATM   11  O10 UNL     1     -39.929  13.720   8.551  1.00 20.00    -0.394 OA
HETATM   12  H25 UNL     1     -40.623  13.349   9.116  1.00 20.00     0.210 HD
ENDBRANCH   5  11
ENDBRANCH   4   5
ENDBRANCH   2   4
TORSDOF 4
ENDMDL
MODEL 9
REMARK VINA RESULT:      -3.5     13.629     14.871
REMARK  4 active torsions:
REMARK  status: ('A' for Active; 'I' for Inactive)
REMARK    1  A    between atoms: C2_2  and  C8_8 
REMARK    2  A    between atoms: C6_6  and  C9_9 
REMARK    3  A    between atoms: C8_8  and  C9_9 
REMARK    4  A    between atoms: C9_9  and  O10_10 
ROOT
HETATM    1  C1  UNL     1     -39.884  12.182   4.970  1.00 20.00    -0.111 C 
HETATM    2  C2  UNL     1     -40.685  12.633   5.743  1.00 20.00    -0.104 C 
HETATM    3  C7  UNL     1     -38.910  11.631   4.030  1.00 20.00     0.112 C 
ENDROOT
BRANCH   2   4
HETATM    4  C8  UNL     1     -41.667  13.188   6.690  1.00 20.00     0.126 C 
BRANCH   4   5
HETATM    5  C9  UNL     1     -40.984  14.036   7.765  1.00 20.00     0.143 C 
BRANCH   5   6
HETATM    6  C6  UNL     1     -41.862  14.164   9.005  1.00 20.00     0.077 C 
HETATM    7  C4  UNL     1     -41.057  14.242  10.300  1.00 20.00     0.018 C 
HETATM    8  C3  UNL     1     -40.629  15.692  10.484  1.00 20.00     0.011 C 
HETATM    9  C5  UNL     1     -41.873  16.538  10.287  1.00 20.00     0.074 C 
HETATM   10  S11 UNL     1     -42.793  15.730   8.947  1.00 20.00    -0.162 SA
ENDBRANCH   5   6
BRANCH   5  11
HETATM   11  O10 UNL     1     -39.760  13.405   8.139  1.00 20.00    -0.394 OA
HETATM   12  H25 UNL     1     -39.760  13.361   9.108  1.00 20.00     0.210 HD
ENDBRANCH   5  11
ENDBRANCH   4   5
ENDBRANCH   2   4
TORSDOF 4
ENDMDL
