MODEL 1
REMARK VINA RESULT:      -4.1      0.000      0.000
REMARK  0 active torsions:
REMARK  status: ('A' for Active; 'I' for Inactive)
ROOT
HETATM    1  C1  UNL     1     -33.874   7.398   6.412  1.00 20.00     0.016 C 
HETATM    2  C2  UNL     1     -34.622   6.075   6.266  1.00 20.00     0.010 C 
HETATM    3  C3  UNL     1     -33.772   6.864   4.100  1.00 20.00     0.024 C 
HETATM    4  C4  UNL     1     -32.916   7.391   5.239  1.00 20.00     0.058 C 
HETATM    5  C5  UNL     1     -34.630   5.754   4.750  1.00 20.00    -0.047 C 
HETATM    6  C6  UNL     1     -36.055   5.773   4.187  1.00 20.00     0.015 C 
HETATM    7  C7  UNL     1     -34.008   4.373   4.496  1.00 20.00     0.015 C 
HETATM    8 BR8  UNL     1     -32.237   9.159   4.865  1.00 20.00    -0.091 Br
ENDROOT
TORSDOF 0
ENDMDL
MODEL 2
REMARK VINA RESULT:      -3.9      1.015      2.138
REMARK  0 active torsions:
REMARK  status: ('A' for Active; 'I' for Inactive)
ROOT
HETATM    1  C1  UNL     1     -32.518   6.768   3.429  1.00 20.00     0.016 C 
HETATM    2  C2  UNL     1     -33.541   5.634   3.424  1.00 20.00     0.010 C 
HETATM    3  C3  UNL     1     -33.938   7.188   5.286  1.00 20.00     0.024 C 
HETATM    4  C4  UNL     1     -33.246   7.894   4.133  1.00 20.00     0.058 C 
HETATM    5  C5  UNL     1     -34.426   5.853   4.677  1.00 20.00    -0.047 C 
HETATM    6  C6  UNL     1     -34.259   4.707   5.681  1.00 20.00     0.015 C 
HETATM    7  C7  UNL     1     -35.905   5.954   4.273  1.00 20.00     0.015 C 
HETATM    8 BR8  UNL     1     -32.022   9.251   4.757  1.00 20.00    -0.091 Br
ENDROOT
TORSDOF 0
ENDMDL
MODEL 3
REMARK VINA RESULT:      -3.4     12.621     13.730
REMARK  0 active torsions:
REMARK  status: ('A' for Active; 'I' for Inactive)
ROOT
HETATM    1  C1  UNL     1     -33.731  17.693  -4.150  1.00 20.00     0.016 C 
HETATM    2  C2  UNL     1     -33.403  18.825  -3.179  1.00 20.00     0.010 C 
HETATM    3  C3  UNL     1     -33.524  16.662  -2.020  1.00 20.00     0.024 C 
HETATM    4  C4  UNL     1     -33.139  16.471  -3.477  1.00 20.00     0.058 C 
HETATM    5  C5  UNL     1     -33.342  18.176  -1.773  1.00 20.00    -0.047 C 
HETATM    6  C6  UNL     1     -34.455  18.715  -0.867  1.00 20.00     0.015 C 
HETATM    7  C7  UNL     1     -31.982  18.456  -1.116  1.00 20.00     0.015 C 
HETATM    8 BR8  UNL     1     -33.869  14.837  -4.203  1.00 20.00    -0.091 Br
ENDROOT
TORSDOF 0
ENDMDL
MODEL 4
REMARK VINA RESULT:      -3.4     12.752     13.578
REMARK  0 active torsions:
REMARK  status: ('A' for Active; 'I' for Inactive)
ROOT
HETATM    1  C1  UNL     1     -33.487  15.913  -3.283  1.00 20.00     0.016 C 
HETATM    2  C2  UNL     1     -33.586  14.795  -4.317  1.00 20.00     0.010 C 
HETATM    3  C3  UNL     1     -35.019  16.697  -4.920  1.00 20.00     0.024 C 
HETATM    4  C4  UNL     1     -33.844  17.155  -4.073  1.00 20.00     0.058 C 
HETATM    5  C5  UNL     1     -34.642  15.262  -5.351  1.00 20.00    -0.047 C 
HETATM    6  C6  UNL     1     -35.874  14.350  -5.334  1.00 20.00     0.015 C 
HETATM    7  C7  UNL     1     -34.039  15.264  -6.764  1.00 20.00     0.015 C 
HETATM    8 BR8  UNL     1     -34.326  18.622  -2.914  1.00 20.00    -0.091 Br
ENDROOT
TORSDOF 0
ENDMDL
MODEL 5
REMARK VINA RESULT:      -3.3     12.671     13.460
REMARK  0 active torsions:
REMARK  status: ('A' for Active; 'I' for Inactive)
ROOT
HETATM    1  C1  UNL     1     -33.714  19.253   0.367  1.00 20.00     0.016 C 
HETATM    2  C2  UNL     1     -34.296  18.770  -0.959  1.00 20.00     0.010 C 
HETATM    3  C3  UNL     1     -31.870  18.392  -0.859  1.00 20.00     0.024 C 
HETATM    4  C4  UNL     1     -32.473  18.402   0.536  1.00 20.00     0.058 C 
HETATM    5  C5  UNL     1     -33.091  18.277  -1.800  1.00 20.00    -0.047 C 
HETATM    6  C6  UNL     1     -32.895  19.144  -3.049  1.00 20.00     0.015 C 
HETATM    7  C7  UNL     1     -33.304  16.818  -2.231  1.00 20.00     0.015 C 
HETATM    8 BR8  UNL     1     -31.261  19.161   1.834  1.00 20.00    -0.091 Br
ENDROOT
TORSDOF 0
ENDMDL
MODEL 6
REMARK VINA RESULT:      -3.2      2.473      3.910
REMARK  0 active torsions:
REMARK  status: ('A' for Active; 'I' for Inactive)
ROOT
HETATM    1  C1  UNL     1     -32.946   6.104   3.342  1.00 20.00     0.016 C 
HETATM    2  C2  UNL     1     -32.006   7.288   3.126  1.00 20.00     0.010 C 
HETATM    3  C3  UNL     1     -33.991   7.948   4.414  1.00 20.00     0.024 C 
HETATM    4  C4  UNL     1     -33.688   6.473   4.610  1.00 20.00     0.058 C 
HETATM    5  C5  UNL     1     -32.714   8.515   3.754  1.00 20.00    -0.047 C 
HETATM    6  C6  UNL     1     -33.072   9.554   2.685  1.00 20.00     0.015 C 
HETATM    7  C7  UNL     1     -31.807   9.171   4.807  1.00 20.00     0.015 C 
HETATM    8 BR8  UNL     1     -35.301   5.432   4.818  1.00 20.00    -0.091 Br
ENDROOT
TORSDOF 0
ENDMDL
MODEL 7
REMARK VINA RESULT:      -3.2     13.065     14.173
REMARK  0 active torsions:
REMARK  status: ('A' for Active; 'I' for Inactive)
ROOT
HETATM    1  C1  UNL     1     -33.315  15.665  -3.677  1.00 20.00     0.016 C 
HETATM    2  C2  UNL     1     -33.352  16.717  -2.571  1.00 20.00     0.010 C 
HETATM    3  C3  UNL     1     -34.244  17.607  -4.681  1.00 20.00     0.024 C 
HETATM    4  C4  UNL     1     -34.424  16.100  -4.613  1.00 20.00     0.058 C 
HETATM    5  C5  UNL     1     -33.884  18.013  -3.234  1.00 20.00    -0.047 C 
HETATM    6  C6  UNL     1     -32.818  19.115  -3.230  1.00 20.00     0.015 C 
HETATM    7  C7  UNL     1     -35.129  18.518  -2.490  1.00 20.00     0.015 C 
HETATM    8 BR8  UNL     1     -34.249  15.279  -6.352  1.00 20.00    -0.091 Br
ENDROOT
TORSDOF 0
ENDMDL
MODEL 8
REMARK VINA RESULT:      -3.1      9.371     10.163
REMARK  0 active torsions:
REMARK  status: ('A' for Active; 'I' for Inactive)
ROOT
HETATM    1  C1  UNL     1     -41.229  13.607   4.531  1.00 20.00     0.016 C 
HETATM    2  C2  UNL     1     -42.197  14.137   5.587  1.00 20.00     0.010 C 
HETATM    3  C3  UNL     1     -40.970  12.173   6.406  1.00 20.00     0.024 C 
HETATM    4  C4  UNL     1     -40.164  12.910   5.351  1.00 20.00     0.058 C 
HETATM    5  C5  UNL     1     -42.094  13.163   6.787  1.00 20.00    -0.047 C 
HETATM    6  C6  UNL     1     -43.416  12.420   7.013  1.00 20.00     0.015 C 
HETATM    7  C7  UNL     1     -41.726  13.931   8.066  1.00 20.00     0.015 C 
HETATM    8 BR8  UNL     1     -39.117  11.697   4.273  1.00 20.00    -0.091 Br
ENDROOT
TORSDOF 0
ENDMDL
MODEL 9
REMARK VINA RESULT:      -3.0      9.822     10.442
REMARK  0 active torsions:
REMARK  status: ('A' for Active; 'I' for Inactive)
ROOT
HETATM    1  C1  UNL     1     -42.290  13.695   8.215  1.00 20.00     0.016 C 
HETATM    2  C2  UNL     1     -42.318  12.791   6.984  1.00 20.00     0.010 C 
HETATM    3  C3  UNL     1     -40.413  14.341   6.909  1.00 20.00     0.024 C 
HETATM    4  C4  UNL     1     -40.826  14.064   8.345  1.00 20.00     0.058 C 
HETATM    5  C5  UNL     1     -41.143  13.255   6.086  1.00 20.00    -0.047 C 
HETATM    6  C6  UNL     1     -41.654  13.832   4.761  1.00 20.00     0.015 C 
HETATM    7  C7  UNL     1     -40.201  12.078   5.791  1.00 20.00     0.015 C 
HETATM    8 BR8  UNL     1     -40.582  15.613   9.472  1.00 20.00    -0.091 Br
ENDROOT
TORSDOF 0
ENDMDL
