MODEL 1
REMARK VINA RESULT:      -4.7      0.000      0.000
REMARK  1 active torsions:
REMARK  status: ('A' for Active; 'I' for Inactive)
REMARK    1  A    between atoms: C3_3  and  C8_8 
ROOT
HETATM    1  C1  UNL     1     -38.968  11.644   3.743  1.00 20.00     0.021 C 
HETATM    2  C2  UNL     1     -39.272  11.936   4.867  1.00 20.00    -0.037 C 
HETATM    3  C3  UNL     1     -39.636  12.287   6.220  1.00 20.00     0.235 C 
HETATM    4  O10 UNL     1     -38.919  11.946   7.151  1.00 20.00    -0.280 OA
ENDROOT
BRANCH   3   5
HETATM    5  C8  UNL     1     -40.908  13.067   6.385  1.00 20.00     0.129 C 
HETATM    6  C6  UNL     1     -40.713  14.144   7.459  1.00 20.00     0.047 C 
HETATM    7  C4  UNL     1     -42.043  14.693   7.966  1.00 20.00     0.006 C 
HETATM    8  C5  UNL     1     -42.970  13.551   8.363  1.00 20.00     0.026 C 
HETATM    9  C7  UNL     1     -43.095  12.539   7.233  1.00 20.00     0.169 C 
HETATM   10  O11 UNL     1     -41.817  12.053   6.825  1.00 20.00    -0.372 OA
HETATM   11  C9  UNL     1     -41.312  13.636   5.026  1.00 20.00     0.055 C 
ENDBRANCH   3   5
TORSDOF 1
ENDMDL
MODEL 2
REMARK VINA RESULT:      -4.4      1.235      2.140
REMARK  1 active torsions:
REMARK  status: ('A' for Active; 'I' for Inactive)
REMARK    1  A    between atoms: C3_3  and  C8_8 
ROOT
HETATM    1  C1  UNL     1     -39.077  11.693   3.815  1.00 20.00     0.021 C 
HETATM    2  C2  UNL     1     -39.450  12.031   4.905  1.00 20.00    -0.037 C 
HETATM    3  C3  UNL     1     -39.897  12.437   6.216  1.00 20.00     0.235 C 
HETATM    4  O10 UNL     1     -39.239  12.136   7.204  1.00 20.00    -0.280 OA
ENDROOT
BRANCH   3   5
HETATM    5  C8  UNL     1     -41.175  13.223   6.270  1.00 20.00     0.129 C 
HETATM    6  C6  UNL     1     -41.489  13.788   4.879  1.00 20.00     0.047 C 
HETATM    7  C4  UNL     1     -42.522  14.909   4.938  1.00 20.00     0.006 C 
HETATM    8  C5  UNL     1     -42.118  15.946   5.977  1.00 20.00     0.026 C 
HETATM    9  C7  UNL     1     -41.828  15.285   7.317  1.00 20.00     0.169 C 
HETATM   10  O11 UNL     1     -40.839  14.264   7.191  1.00 20.00    -0.372 OA
HETATM   11  C9  UNL     1     -42.280  12.319   6.817  1.00 20.00     0.055 C 
ENDBRANCH   3   5
TORSDOF 1
ENDMDL
MODEL 3
REMARK VINA RESULT:      -4.3     12.698     14.204
REMARK  1 active torsions:
REMARK  status: ('A' for Active; 'I' for Inactive)
REMARK    1  A    between atoms: C3_3  and  C8_8 
ROOT
HETATM    1  C1  UNL     1     -33.300  16.795  -2.474  1.00 20.00     0.021 C 
HETATM    2  C2  UNL     1     -33.498  15.966  -3.319  1.00 20.00    -0.037 C 
HETATM    3  C3  UNL     1     -33.735  14.967  -4.335  1.00 20.00     0.235 C 
HETATM    4  O10 UNL     1     -33.206  13.867  -4.243  1.00 20.00    -0.280 OA
ENDROOT
BRANCH   3   5
HETATM    5  C8  UNL     1     -34.642  15.368  -5.463  1.00 20.00     0.129 C 
HETATM    6  C6  UNL     1     -33.884  15.263  -6.792  1.00 20.00     0.047 C 
HETATM    7  C4  UNL     1     -34.586  16.026  -7.911  1.00 20.00     0.006 C 
HETATM    8  C5  UNL     1     -34.904  17.446  -7.464  1.00 20.00     0.026 C 
HETATM    9  C7  UNL     1     -35.653  17.441  -6.139  1.00 20.00     0.169 C 
HETATM   10  O11 UNL     1     -34.930  16.730  -5.135  1.00 20.00    -0.372 OA
HETATM   11  C9  UNL     1     -35.896  14.497  -5.413  1.00 20.00     0.055 C 
ENDBRANCH   3   5
TORSDOF 1
ENDMDL
MODEL 4
REMARK VINA RESULT:      -4.2      1.574      2.479
REMARK  1 active torsions:
REMARK  status: ('A' for Active; 'I' for Inactive)
REMARK    1  A    between atoms: C3_3  and  C8_8 
ROOT
HETATM    1  C1  UNL     1     -39.223  11.580   4.849  1.00 20.00     0.021 C 
HETATM    2  C2  UNL     1     -40.077  12.420   4.939  1.00 20.00    -0.037 C 
HETATM    3  C3  UNL     1     -41.102  13.430   5.045  1.00 20.00     0.235 C 
HETATM    4  O10 UNL     1     -41.577  13.926   4.031  1.00 20.00    -0.280 OA
ENDROOT
BRANCH   3   5
HETATM    5  C8  UNL     1     -41.523  13.808   6.436  1.00 20.00     0.129 C 
HETATM    6  C6  UNL     1     -42.189  15.189   6.414  1.00 20.00     0.047 C 
HETATM    7  C4  UNL     1     -42.270  15.808   7.806  1.00 20.00     0.006 C 
HETATM    8  C5  UNL     1     -40.907  15.763   8.483  1.00 20.00     0.026 C 
HETATM    9  C7  UNL     1     -40.332  14.354   8.452  1.00 20.00     0.169 C 
HETATM   10  O11 UNL     1     -40.266  13.848   7.119  1.00 20.00    -0.372 OA
HETATM   11  C9  UNL     1     -42.431  12.709   6.987  1.00 20.00     0.055 C 
ENDBRANCH   3   5
TORSDOF 1
ENDMDL
MODEL 5
REMARK VINA RESULT:      -4.1      8.675      9.884
REMARK  1 active torsions:
REMARK  status: ('A' for Active; 'I' for Inactive)
REMARK    1  A    between atoms: C3_3  and  C8_8 
ROOT
HETATM    1  C1  UNL     1     -32.170   8.011   1.345  1.00 20.00     0.021 C 
HETATM    2  C2  UNL     1     -32.260   8.001   2.542  1.00 20.00    -0.037 C 
HETATM    3  C3  UNL     1     -32.367   7.991   3.982  1.00 20.00     0.235 C 
HETATM    4  O10 UNL     1     -31.467   8.465   4.663  1.00 20.00    -0.280 OA
ENDROOT
BRANCH   3   5
HETATM    5  C8  UNL     1     -33.614   7.378   4.552  1.00 20.00     0.129 C 
HETATM    6  C6  UNL     1     -33.467   7.238   6.073  1.00 20.00     0.047 C 
HETATM    7  C4  UNL     1     -34.494   6.273   6.659  1.00 20.00     0.006 C 
HETATM    8  C5  UNL     1     -34.483   4.959   5.889  1.00 20.00     0.026 C 
HETATM    9  C7  UNL     1     -34.632   5.207   4.394  1.00 20.00     0.169 C 
HETATM   10  O11 UNL     1     -33.629   6.099   3.912  1.00 20.00    -0.372 OA
HETATM   11  C9  UNL     1     -34.810   8.233   4.137  1.00 20.00     0.055 C 
ENDBRANCH   3   5
TORSDOF 1
ENDMDL
MODEL 6
REMARK VINA RESULT:      -4.1     12.506     14.182
REMARK  1 active torsions:
REMARK  status: ('A' for Active; 'I' for Inactive)
REMARK    1  A    between atoms: C3_3  and  C8_8 
ROOT
HETATM    1  C1  UNL     1     -33.351  16.826  -2.180  1.00 20.00     0.021 C 
HETATM    2  C2  UNL     1     -33.569  16.148  -3.147  1.00 20.00    -0.037 C 
HETATM    3  C3  UNL     1     -33.831  15.331  -4.308  1.00 20.00     0.235 C 
HETATM    4  O10 UNL     1     -33.487  14.156  -4.317  1.00 20.00    -0.280 OA
ENDROOT
BRANCH   3   5
HETATM    5  C8  UNL     1     -34.529  16.006  -5.453  1.00 20.00     0.129 C 
HETATM    6  C6  UNL     1     -36.018  15.638  -5.437  1.00 20.00     0.047 C 
HETATM    7  C4  UNL     1     -36.696  15.942  -6.769  1.00 20.00     0.006 C 
HETATM    8  C5  UNL     1     -35.898  15.341  -7.918  1.00 20.00     0.026 C 
HETATM    9  C7  UNL     1     -34.438  15.765  -7.842  1.00 20.00     0.169 C 
HETATM   10  O11 UNL     1     -33.863  15.430  -6.580  1.00 20.00    -0.372 OA
HETATM   11  C9  UNL     1     -34.279  17.511  -5.357  1.00 20.00     0.055 C 
ENDBRANCH   3   5
TORSDOF 1
ENDMDL
MODEL 7
REMARK VINA RESULT:      -4.1      1.728      2.434
REMARK  1 active torsions:
REMARK  status: ('A' for Active; 'I' for Inactive)
REMARK    1  A    between atoms: C3_3  and  C8_8 
ROOT
HETATM    1  C1  UNL     1     -39.342  11.814   6.014  1.00 20.00     0.021 C 
HETATM    2  C2  UNL     1     -40.184  12.665   5.927  1.00 20.00    -0.037 C 
HETATM    3  C3  UNL     1     -41.197  13.688   5.822  1.00 20.00     0.235 C 
HETATM    4  O10 UNL     1     -41.743  13.897   4.746  1.00 20.00    -0.280 OA
ENDROOT
BRANCH   3   5
HETATM    5  C8  UNL     1     -41.514  14.443   7.081  1.00 20.00     0.129 C 
HETATM    6  C6  UNL     1     -40.272  15.217   7.541  1.00 20.00     0.047 C 
HETATM    7  C4  UNL     1     -40.386  15.665   8.995  1.00 20.00     0.006 C 
HETATM    8  C5  UNL     1     -40.777  14.491   9.882  1.00 20.00     0.026 C 
HETATM    9  C7  UNL     1     -42.015  13.792   9.339  1.00 20.00     0.169 C 
HETATM   10  O11 UNL     1     -41.831  13.381   7.985  1.00 20.00    -0.372 OA
HETATM   11  C9  UNL     1     -42.722  15.342   6.819  1.00 20.00     0.055 C 
ENDBRANCH   3   5
TORSDOF 1
ENDMDL
MODEL 8
REMARK VINA RESULT:      -4.0     12.849     13.967
REMARK  1 active torsions:
REMARK  status: ('A' for Active; 'I' for Inactive)
REMARK    1  A    between atoms: C3_3  and  C8_8 
ROOT
HETATM    1  C1  UNL     1     -38.134  16.245  -5.118  1.00 20.00     0.021 C 
HETATM    2  C2  UNL     1     -37.186  15.739  -5.654  1.00 20.00    -0.037 C 
HETATM    3  C3  UNL     1     -36.047  15.131  -6.299  1.00 20.00     0.235 C 
HETATM    4  O10 UNL     1     -36.218  14.310  -7.191  1.00 20.00    -0.280 OA
ENDROOT
BRANCH   3   5
HETATM    5  C8  UNL     1     -34.695  15.564  -5.809  1.00 20.00     0.129 C 
HETATM    6  C6  UNL     1     -34.277  14.694  -4.617  1.00 20.00     0.047 C 
HETATM    7  C4  UNL     1     -33.135  15.320  -3.825  1.00 20.00     0.006 C 
HETATM    8  C5  UNL     1     -33.462  16.767  -3.480  1.00 20.00     0.026 C 
HETATM    9  C7  UNL     1     -33.864  17.542  -4.727  1.00 20.00     0.169 C 
HETATM   10  O11 UNL     1     -34.950  16.912  -5.405  1.00 20.00    -0.372 OA
HETATM   11  C9  UNL     1     -33.711  15.500  -6.977  1.00 20.00     0.055 C 
ENDBRANCH   3   5
TORSDOF 1
ENDMDL
MODEL 9
REMARK VINA RESULT:      -3.8     11.888     13.036
REMARK  1 active torsions:
REMARK  status: ('A' for Active; 'I' for Inactive)
REMARK    1  A    between atoms: C3_3  and  C8_8 
ROOT
HETATM    1  C1  UNL     1     -30.956  18.487  -0.115  1.00 20.00     0.021 C 
HETATM    2  C2  UNL     1     -32.106  18.489  -0.459  1.00 20.00    -0.037 C 
HETATM    3  C3  UNL     1     -33.490  18.493  -0.872  1.00 20.00     0.235 C 
HETATM    4  O10 UNL     1     -34.366  18.775  -0.065  1.00 20.00    -0.280 OA
ENDROOT
BRANCH   3   5
HETATM    5  C8  UNL     1     -33.757  18.138  -2.306  1.00 20.00     0.129 C 
HETATM    6  C6  UNL     1     -32.961  19.074  -3.224  1.00 20.00     0.047 C 
HETATM    7  C4  UNL     1     -33.483  19.048  -4.657  1.00 20.00     0.006 C 
HETATM    8  C5  UNL     1     -34.991  19.260  -4.675  1.00 20.00     0.026 C 
HETATM    9  C7  UNL     1     -35.685  18.286  -3.734  1.00 20.00     0.169 C 
HETATM   10  O11 UNL     1     -35.163  18.380  -2.409  1.00 20.00    -0.372 OA
HETATM   11  C9  UNL     1     -33.421  16.661  -2.514  1.00 20.00     0.055 C 
ENDBRANCH   3   5
TORSDOF 1
ENDMDL
