MODEL 1
REMARK VINA RESULT:      -3.8      0.000      0.000
REMARK  1 active torsions:
REMARK  status: ('A' for Active; 'I' for Inactive)
REMARK    1  A    between atoms: C4_4  and  S8_8 
ROOT
HETATM    1  C1  UNL     1     -33.859   7.430   6.390  1.00 20.00     0.015 C 
HETATM    2  C2  UNL     1     -34.586   6.092   6.259  1.00 20.00     0.010 C 
HETATM    3  C3  UNL     1     -33.777   6.886   4.077  1.00 20.00     0.023 C 
HETATM    4  C4  UNL     1     -32.905   7.429   5.205  1.00 20.00     0.045 C 
HETATM    5  C5  UNL     1     -34.614   5.769   4.745  1.00 20.00    -0.047 C 
HETATM    6  C6  UNL     1     -33.985   4.393   4.482  1.00 20.00     0.015 C 
HETATM    7  C7  UNL     1     -36.049   5.774   4.204  1.00 20.00     0.015 C 
ENDROOT
BRANCH   4   8
HETATM    8  S8  UNL     1     -32.248   9.078   4.845  1.00 20.00    -0.177 SA
HETATM    9  H22 UNL     1     -31.829   8.783   3.608  1.00 20.00     0.102 HD
ENDBRANCH   4   8
TORSDOF 1
ENDMDL
MODEL 2
REMARK VINA RESULT:      -3.7      1.013      2.132
REMARK  1 active torsions:
REMARK  status: ('A' for Active; 'I' for Inactive)
REMARK    1  A    between atoms: C4_4  and  S8_8 
ROOT
HETATM    1  C1  UNL     1     -32.497   6.785   3.426  1.00 20.00     0.015 C 
HETATM    2  C2  UNL     1     -33.538   5.668   3.397  1.00 20.00     0.010 C 
HETATM    3  C3  UNL     1     -33.909   7.184   5.297  1.00 20.00     0.023 C 
HETATM    4  C4  UNL     1     -33.213   7.914   4.152  1.00 20.00     0.045 C 
HETATM    5  C5  UNL     1     -34.412   5.867   4.660  1.00 20.00    -0.047 C 
HETATM    6  C6  UNL     1     -35.892   5.987   4.269  1.00 20.00     0.015 C 
HETATM    7  C7  UNL     1     -34.247   4.697   5.638  1.00 20.00     0.015 C 
ENDROOT
BRANCH   4   8
HETATM    8  S8  UNL     1     -32.073   9.195   4.735  1.00 20.00    -0.177 SA
HETATM    9  H22 UNL     1     -32.929   9.744   5.607  1.00 20.00     0.102 HD
ENDBRANCH   4   8
TORSDOF 1
ENDMDL
MODEL 3
REMARK VINA RESULT:      -3.4     15.414     16.515
REMARK  1 active torsions:
REMARK  status: ('A' for Active; 'I' for Inactive)
REMARK    1  A    between atoms: C4_4  and  S8_8 
ROOT
HETATM    1  C1  UNL     1     -25.437  16.946  12.194  1.00 20.00     0.015 C 
HETATM    2  C2  UNL     1     -23.967  16.606  11.957  1.00 20.00     0.010 C 
HETATM    3  C3  UNL     1     -24.503  18.864  11.144  1.00 20.00     0.023 C 
HETATM    4  C4  UNL     1     -25.437  18.465  12.283  1.00 20.00     0.045 C 
HETATM    5  C5  UNL     1     -23.367  17.813  11.195  1.00 20.00    -0.047 C 
HETATM    6  C6  UNL     1     -22.152  18.369  11.951  1.00 20.00     0.015 C 
HETATM    7  C7  UNL     1     -22.935  17.416   9.779  1.00 20.00     0.015 C 
ENDROOT
BRANCH   4   8
HETATM    8  S8  UNL     1     -27.095  19.169  12.101  1.00 20.00    -0.177 SA
HETATM    9  H22 UNL     1     -27.303  19.351  13.411  1.00 20.00     0.102 HD
ENDBRANCH   4   8
TORSDOF 1
ENDMDL
MODEL 4
REMARK VINA RESULT:      -3.3     12.769     13.577
REMARK  1 active torsions:
REMARK  status: ('A' for Active; 'I' for Inactive)
REMARK    1  A    between atoms: C4_4  and  S8_8 
ROOT
HETATM    1  C1  UNL     1     -33.484  15.954  -3.292  1.00 20.00     0.015 C 
HETATM    2  C2  UNL     1     -33.563  14.829  -4.322  1.00 20.00     0.010 C 
HETATM    3  C3  UNL     1     -35.042  16.698  -4.927  1.00 20.00     0.023 C 
HETATM    4  C4  UNL     1     -33.863  17.191  -4.092  1.00 20.00     0.045 C 
HETATM    5  C5  UNL     1     -34.640  15.264  -5.347  1.00 20.00    -0.047 C 
HETATM    6  C6  UNL     1     -34.054  15.262  -6.766  1.00 20.00     0.015 C 
HETATM    7  C7  UNL     1     -35.854  14.329  -5.306  1.00 20.00     0.015 C 
ENDROOT
BRANCH   4   8
HETATM    8  S8  UNL     1     -34.300  18.594  -3.033  1.00 20.00    -0.177 SA
HETATM    9  H22 UNL     1     -34.559  17.859  -1.944  1.00 20.00     0.102 HD
ENDBRANCH   4   8
TORSDOF 1
ENDMDL
MODEL 5
REMARK VINA RESULT:      -3.2     15.810     16.834
REMARK  1 active torsions:
REMARK  status: ('A' for Active; 'I' for Inactive)
REMARK    1  A    between atoms: C4_4  and  S8_8 
ROOT
HETATM    1  C1  UNL     1     -23.218  18.345  12.113  1.00 20.00     0.015 C 
HETATM    2  C2  UNL     1     -22.171  18.520  11.014  1.00 20.00     0.010 C 
HETATM    3  C3  UNL     1     -24.344  17.852  10.077  1.00 20.00     0.023 C 
HETATM    4  C4  UNL     1     -24.531  18.605  11.391  1.00 20.00     0.045 C 
HETATM    5  C5  UNL     1     -22.869  18.118   9.692  1.00 20.00    -0.047 C 
HETATM    6  C6  UNL     1     -22.776  19.262   8.671  1.00 20.00     0.015 C 
HETATM    7  C7  UNL     1     -22.234  16.859   9.090  1.00 20.00     0.015 C 
ENDROOT
BRANCH   4   8
HETATM    8  S8  UNL     1     -25.965  18.019  12.331  1.00 20.00    -0.177 SA
HETATM    9  H22 UNL     1     -25.258  17.550  13.367  1.00 20.00     0.102 HD
ENDBRANCH   4   8
TORSDOF 1
ENDMDL
MODEL 6
REMARK VINA RESULT:      -3.2     12.686     13.726
REMARK  1 active torsions:
REMARK  status: ('A' for Active; 'I' for Inactive)
REMARK    1  A    between atoms: C4_4  and  S8_8 
ROOT
HETATM    1  C1  UNL     1     -34.306  18.596  -3.346  1.00 20.00     0.015 C 
HETATM    2  C2  UNL     1     -33.737  19.263  -2.096  1.00 20.00     0.010 C 
HETATM    3  C3  UNL     1     -33.358  16.834  -2.062  1.00 20.00     0.023 C 
HETATM    4  C4  UNL     1     -33.454  17.345  -3.496  1.00 20.00     0.045 C 
HETATM    5  C5  UNL     1     -33.193  18.115  -1.210  1.00 20.00    -0.047 C 
HETATM    6  C6  UNL     1     -31.713  18.355  -0.877  1.00 20.00     0.015 C 
HETATM    7  C7  UNL     1     -33.986  18.000   0.097  1.00 20.00     0.015 C 
ENDROOT
BRANCH   4   8
HETATM    8  S8  UNL     1     -34.195  16.132  -4.619  1.00 20.00    -0.177 SA
HETATM    9  H22 UNL     1     -34.879  15.479  -3.671  1.00 20.00     0.102 HD
ENDBRANCH   4   8
TORSDOF 1
ENDMDL
MODEL 7
REMARK VINA RESULT:      -3.2     12.371     13.327
REMARK  1 active torsions:
REMARK  status: ('A' for Active; 'I' for Inactive)
REMARK    1  A    between atoms: C4_4  and  S8_8 
ROOT
HETATM    1  C1  UNL     1     -31.415  19.088  -0.357  1.00 20.00     0.015 C 
HETATM    2  C2  UNL     1     -32.260  18.946  -1.622  1.00 20.00     0.010 C 
HETATM    3  C3  UNL     1     -33.422  18.019   0.336  1.00 20.00     0.023 C 
HETATM    4  C4  UNL     1     -32.450  19.118   0.756  1.00 20.00     0.045 C 
HETATM    5  C5  UNL     1     -33.533  18.173  -1.200  1.00 20.00    -0.047 C 
HETATM    6  C6  UNL     1     -34.790  18.975  -1.572  1.00 20.00     0.015 C 
HETATM    7  C7  UNL     1     -33.598  16.800  -1.877  1.00 20.00     0.015 C 
ENDROOT
BRANCH   4   8
HETATM    8  S8  UNL     1     -31.723  18.817   2.387  1.00 20.00    -0.177 SA
HETATM    9  H22 UNL     1     -31.149  17.652   2.061  1.00 20.00     0.102 HD
ENDBRANCH   4   8
TORSDOF 1
ENDMDL
MODEL 8
REMARK VINA RESULT:      -3.1     12.567     13.327
REMARK  1 active torsions:
REMARK  status: ('A' for Active; 'I' for Inactive)
REMARK    1  A    between atoms: C4_4  and  S8_8 
ROOT
HETATM    1  C1  UNL     1     -33.300  19.187   0.838  1.00 20.00     0.015 C 
HETATM    2  C2  UNL     1     -34.126  18.717  -0.358  1.00 20.00     0.010 C 
HETATM    3  C3  UNL     1     -31.718  18.470  -0.786  1.00 20.00     0.023 C 
HETATM    4  C4  UNL     1     -32.011  18.389   0.710  1.00 20.00     0.045 C 
HETATM    5  C5  UNL     1     -33.106  18.329  -1.455  1.00 20.00    -0.047 C 
HETATM    6  C6  UNL     1     -33.340  16.881  -1.911  1.00 20.00     0.015 C 
HETATM    7  C7  UNL     1     -33.216  19.259  -2.669  1.00 20.00     0.015 C 
ENDROOT
BRANCH   4   8
HETATM    8  S8  UNL     1     -30.671  19.072   1.719  1.00 20.00    -0.177 SA
HETATM    9  H22 UNL     1     -30.442  17.947   2.408  1.00 20.00     0.102 HD
ENDBRANCH   4   8
TORSDOF 1
ENDMDL
MODEL 9
REMARK VINA RESULT:      -3.1     13.044     14.158
REMARK  1 active torsions:
REMARK  status: ('A' for Active; 'I' for Inactive)
REMARK    1  A    between atoms: C4_4  and  S8_8 
ROOT
HETATM    1  C1  UNL     1     -33.301  15.672  -3.684  1.00 20.00     0.015 C 
HETATM    2  C2  UNL     1     -33.366  16.732  -2.586  1.00 20.00     0.010 C 
HETATM    3  C3  UNL     1     -34.248  17.595  -4.713  1.00 20.00     0.023 C 
HETATM    4  C4  UNL     1     -34.416  16.081  -4.634  1.00 20.00     0.045 C 
HETATM    5  C5  UNL     1     -33.901  18.017  -3.264  1.00 20.00    -0.047 C 
HETATM    6  C6  UNL     1     -35.155  18.521  -2.535  1.00 20.00     0.015 C 
HETATM    7  C7  UNL     1     -32.843  19.126  -3.263  1.00 20.00     0.015 C 
ENDROOT
BRANCH   4   8
HETATM    8  S8  UNL     1     -34.274  15.281  -6.253  1.00 20.00    -0.177 SA
HETATM    9  H22 UNL     1     -35.586  15.056  -6.402  1.00 20.00     0.102 HD
ENDBRANCH   4   8
TORSDOF 1
ENDMDL
