MODEL 1
REMARK VINA RESULT:      -3.8      0.000      0.000
REMARK  2 active torsions:
REMARK  status: ('A' for Active; 'I' for Inactive)
REMARK    1  A    between atoms: C6_6  and  C7_7 
REMARK    2  A    between atoms: C6_6  and  N9_9 
ROOT
HETATM    1  C1  UNL     1     -32.968   5.653   2.844  1.00 20.00     0.095 C 
HETATM    2  C2  UNL     1     -32.106   8.581   4.593  1.00 20.00     0.033 C 
HETATM    3  C3  UNL     1     -32.392   8.038   3.200  1.00 20.00     0.053 C 
HETATM    4  C4  UNL     1     -33.330   8.177   5.391  1.00 20.00     0.274 C 
HETATM    5  C5  UNL     1     -33.433   6.928   3.402  1.00 20.00     0.328 C 
HETATM    6  N8  UNL     1     -32.599   4.645   2.403  1.00 20.00    -0.195 NA
HETATM    7  N9  UNL     1     -33.605   6.841   4.861  1.00 20.00     0.108 N 
ENDROOT
BRANCH   7   8
HETATM    8  C6  UNL     1     -34.922   6.357   5.255  1.00 20.00     0.305 C 
BRANCH   8   9
HETATM    9  C7  UNL     1     -34.828   5.074   6.051  1.00 20.00     0.252 C 
HETATM   10  F10 UNL     1     -33.770   5.158   6.903  1.00 20.00    -0.254 F 
ENDBRANCH   8   9
ENDBRANCH   7   8
TORSDOF 2
ENDMDL
MODEL 2
REMARK VINA RESULT:      -3.8      2.157      3.756
REMARK  2 active torsions:
REMARK  status: ('A' for Active; 'I' for Inactive)
REMARK    1  A    between atoms: C6_6  and  C7_7 
REMARK    2  A    between atoms: C6_6  and  N9_9 
ROOT
HETATM    1  C1  UNL     1     -32.984   8.104   4.918  1.00 20.00     0.095 C 
HETATM    2  C2  UNL     1     -34.363   5.406   6.704  1.00 20.00     0.033 C 
HETATM    3  C3  UNL     1     -34.466   6.912   6.509  1.00 20.00     0.053 C 
HETATM    4  C4  UNL     1     -34.493   4.854   5.299  1.00 20.00     0.274 C 
HETATM    5  C5  UNL     1     -34.098   7.156   5.039  1.00 20.00     0.328 C 
HETATM    6  N8  UNL     1     -32.103   8.853   4.824  1.00 20.00    -0.195 NA
HETATM    7  N9  UNL     1     -33.727   5.829   4.523  1.00 20.00     0.108 N 
ENDROOT
BRANCH   7   8
HETATM    8  C6  UNL     1     -33.954   5.686   3.090  1.00 20.00     0.305 C 
BRANCH   8   9
HETATM    9  C7  UNL     1     -32.651   5.625   2.323  1.00 20.00     0.252 C 
HETATM   10  F10 UNL     1     -32.250   6.892   2.031  1.00 20.00    -0.254 F 
ENDBRANCH   8   9
ENDBRANCH   7   8
TORSDOF 2
ENDMDL
MODEL 3
REMARK VINA RESULT:      -3.8      9.638     10.458
REMARK  2 active torsions:
REMARK  status: ('A' for Active; 'I' for Inactive)
REMARK    1  A    between atoms: C6_6  and  C7_7 
REMARK    2  A    between atoms: C6_6  and  N9_9 
ROOT
HETATM    1  C1  UNL     1     -42.682   4.895  -1.163  1.00 20.00     0.095 C 
HETATM    2  C2  UNL     1     -43.417   5.689   2.183  1.00 20.00     0.033 C 
HETATM    3  C3  UNL     1     -42.566   4.777   1.310  1.00 20.00     0.053 C 
HETATM    4  C4  UNL     1     -43.089   7.078   1.674  1.00 20.00     0.274 C 
HETATM    5  C5  UNL     1     -42.253   5.598   0.051  1.00 20.00     0.328 C 
HETATM    6  N8  UNL     1     -43.022   4.339  -2.124  1.00 20.00    -0.195 NA
HETATM    7  N9  UNL     1     -42.998   6.854   0.231  1.00 20.00     0.108 N 
ENDROOT
BRANCH   7   8
HETATM    8  C6  UNL     1     -42.392   7.985  -0.460  1.00 20.00     0.305 C 
BRANCH   8   9
HETATM    9  C7  UNL     1     -40.884   7.968  -0.337  1.00 20.00     0.252 C 
HETATM   10  F10 UNL     1     -40.469   9.153   0.189  1.00 20.00    -0.254 F 
ENDBRANCH   8   9
ENDBRANCH   7   8
TORSDOF 2
ENDMDL
MODEL 4
REMARK VINA RESULT:      -3.6      9.795     10.697
REMARK  2 active torsions:
REMARK  status: ('A' for Active; 'I' for Inactive)
REMARK    1  A    between atoms: C6_6  and  C7_7 
REMARK    2  A    between atoms: C6_6  and  N9_9 
ROOT
HETATM    1  C1  UNL     1     -42.021  14.323   4.291  1.00 20.00     0.095 C 
HETATM    2  C2  UNL     1     -40.874  15.320   7.463  1.00 20.00     0.033 C 
HETATM    3  C3  UNL     1     -42.125  15.216   6.601  1.00 20.00     0.053 C 
HETATM    4  C4  UNL     1     -40.301  13.918   7.431  1.00 20.00     0.274 C 
HETATM    5  C5  UNL     1     -41.904  13.983   5.714  1.00 20.00     0.328 C 
HETATM    6  N8  UNL     1     -42.113  14.592   3.166  1.00 20.00    -0.195 NA
HETATM    7  N9  UNL     1     -40.544  13.526   6.042  1.00 20.00     0.108 N 
ENDROOT
BRANCH   7   8
HETATM    8  C6  UNL     1     -40.354  12.096   5.837  1.00 20.00     0.305 C 
BRANCH   8   9
HETATM    9  C7  UNL     1     -39.294  11.820   4.793  1.00 20.00     0.252 C 
HETATM   10  F10 UNL     1     -38.075  12.146   5.302  1.00 20.00    -0.254 F 
ENDBRANCH   8   9
ENDBRANCH   7   8
TORSDOF 2
ENDMDL
MODEL 5
REMARK VINA RESULT:      -3.5     12.529     13.591
REMARK  2 active torsions:
REMARK  status: ('A' for Active; 'I' for Inactive)
REMARK    1  A    between atoms: C6_6  and  C7_7 
REMARK    2  A    between atoms: C6_6  and  N9_9 
ROOT
HETATM    1  C1  UNL     1     -35.819  14.108  -4.920  1.00 20.00     0.095 C 
HETATM    2  C2  UNL     1     -34.951  16.037  -7.730  1.00 20.00     0.033 C 
HETATM    3  C3  UNL     1     -36.120  15.335  -7.053  1.00 20.00     0.053 C 
HETATM    4  C4  UNL     1     -34.396  16.935  -6.642  1.00 20.00     0.274 C 
HETATM    5  C5  UNL     1     -35.836  15.435  -5.547  1.00 20.00     0.328 C 
HETATM    6  N8  UNL     1     -35.806  13.059  -4.424  1.00 20.00    -0.195 NA
HETATM    7  N9  UNL     1     -34.518  16.083  -5.459  1.00 20.00     0.108 N 
ENDROOT
BRANCH   7   8
HETATM    8  C6  UNL     1     -34.329  16.833  -4.224  1.00 20.00     0.305 C 
BRANCH   8   9
HETATM    9  C7  UNL     1     -33.228  16.237  -3.374  1.00 20.00     0.252 C 
HETATM   10  F10 UNL     1     -33.649  16.178  -2.081  1.00 20.00    -0.254 F 
ENDBRANCH   8   9
ENDBRANCH   7   8
TORSDOF 2
ENDMDL
MODEL 6
REMARK VINA RESULT:      -3.5      2.242      3.746
REMARK  2 active torsions:
REMARK  status: ('A' for Active; 'I' for Inactive)
REMARK    1  A    between atoms: C6_6  and  C7_7 
REMARK    2  A    between atoms: C6_6  and  N9_9 
ROOT
HETATM    1  C1  UNL     1     -34.551   5.489   5.765  1.00 20.00     0.095 C 
HETATM    2  C2  UNL     1     -32.715   5.245   2.775  1.00 20.00     0.033 C 
HETATM    3  C3  UNL     1     -34.038   4.860   3.422  1.00 20.00     0.053 C 
HETATM    4  C4  UNL     1     -32.641   6.745   2.980  1.00 20.00     0.274 C 
HETATM    5  C5  UNL     1     -34.356   5.998   4.402  1.00 20.00     0.328 C 
HETATM    6  N8  UNL     1     -34.705   5.085   6.842  1.00 20.00    -0.195 NA
HETATM    7  N9  UNL     1     -33.188   6.890   4.329  1.00 20.00     0.108 N 
ENDROOT
BRANCH   7   8
HETATM    8  C6  UNL     1     -33.505   8.278   4.644  1.00 20.00     0.305 C 
BRANCH   8   9
HETATM    9  C7  UNL     1     -32.253   9.100   4.854  1.00 20.00     0.252 C 
HETATM   10  F10 UNL     1     -32.115   9.970   3.817  1.00 20.00    -0.254 F 
ENDBRANCH   8   9
ENDBRANCH   7   8
TORSDOF 2
ENDMDL
MODEL 7
REMARK VINA RESULT:      -3.5     12.940     13.931
REMARK  2 active torsions:
REMARK  status: ('A' for Active; 'I' for Inactive)
REMARK    1  A    between atoms: C6_6  and  C7_7 
REMARK    2  A    between atoms: C6_6  and  N9_9 
ROOT
HETATM    1  C1  UNL     1     -35.856  15.222  -6.279  1.00 20.00     0.095 C 
HETATM    2  C2  UNL     1     -35.156  18.635  -5.794  1.00 20.00     0.033 C 
HETATM    3  C3  UNL     1     -36.295  17.626  -5.859  1.00 20.00     0.053 C 
HETATM    4  C4  UNL     1     -34.219  18.049  -4.757  1.00 20.00     0.274 C 
HETATM    5  C5  UNL     1     -35.708  16.317  -5.313  1.00 20.00     0.328 C 
HETATM    6  N8  UNL     1     -35.973  14.357  -7.043  1.00 20.00    -0.195 NA
HETATM    7  N9  UNL     1     -34.290  16.620  -5.064  1.00 20.00     0.108 N 
ENDROOT
BRANCH   7   8
HETATM    8  C6  UNL     1     -33.705  15.805  -4.006  1.00 20.00     0.305 C 
BRANCH   8   9
HETATM    9  C7  UNL     1     -33.164  16.659  -2.881  1.00 20.00     0.252 C 
HETATM   10  F10 UNL     1     -33.698  16.232  -1.704  1.00 20.00    -0.254 F 
ENDBRANCH   8   9
ENDBRANCH   7   8
TORSDOF 2
ENDMDL
MODEL 8
REMARK VINA RESULT:      -3.4     12.858     13.909
REMARK  2 active torsions:
REMARK  status: ('A' for Active; 'I' for Inactive)
REMARK    1  A    between atoms: C6_6  and  C7_7 
REMARK    2  A    between atoms: C6_6  and  N9_9 
ROOT
HETATM    1  C1  UNL     1     -35.142  14.071  -4.652  1.00 20.00     0.095 C 
HETATM    2  C2  UNL     1     -33.393  16.810  -3.308  1.00 20.00     0.033 C 
HETATM    3  C3  UNL     1     -33.214  15.388  -3.819  1.00 20.00     0.053 C 
HETATM    4  C4  UNL     1     -34.097  17.514  -4.451  1.00 20.00     0.274 C 
HETATM    5  C5  UNL     1     -34.267  15.218  -4.923  1.00 20.00     0.328 C 
HETATM    6  N8  UNL     1     -35.834  13.164  -4.438  1.00 20.00    -0.195 NA
HETATM    7  N9  UNL     1     -35.024  16.480  -4.913  1.00 20.00     0.108 N 
ENDROOT
BRANCH   7   8
HETATM    8  C6  UNL     1     -35.607  16.809  -6.207  1.00 20.00     0.305 C 
BRANCH   8   9
HETATM    9  C7  UNL     1     -34.671  17.657  -7.040  1.00 20.00     0.252 C 
HETATM   10  F10 UNL     1     -33.888  16.840  -7.796  1.00 20.00    -0.254 F 
ENDBRANCH   8   9
ENDBRANCH   7   8
TORSDOF 2
ENDMDL
MODEL 9
REMARK VINA RESULT:      -3.4      9.599     10.780
REMARK  2 active torsions:
REMARK  status: ('A' for Active; 'I' for Inactive)
REMARK    1  A    between atoms: C6_6  and  C7_7 
REMARK    2  A    between atoms: C6_6  and  N9_9 
ROOT
HETATM    1  C1  UNL     1     -40.470  14.185   8.599  1.00 20.00     0.095 C 
HETATM    2  C2  UNL     1     -42.323  14.662   5.648  1.00 20.00     0.033 C 
HETATM    3  C3  UNL     1     -41.507  15.398   6.702  1.00 20.00     0.053 C 
HETATM    4  C4  UNL     1     -41.385  13.572   5.169  1.00 20.00     0.274 C 
HETATM    5  C5  UNL     1     -40.428  14.402   7.149  1.00 20.00     0.328 C 
HETATM    6  N8  UNL     1     -40.503  14.015   9.747  1.00 20.00    -0.195 NA
HETATM    7  N9  UNL     1     -40.738  13.164   6.416  1.00 20.00     0.108 N 
ENDROOT
BRANCH   7   8
HETATM    8  C6  UNL     1     -39.567  12.330   6.176  1.00 20.00     0.305 C 
BRANCH   8   9
HETATM    9  C7  UNL     1     -39.479  11.898   4.729  1.00 20.00     0.252 C 
HETATM   10  F10 UNL     1     -38.169  11.780   4.381  1.00 20.00    -0.254 F 
ENDBRANCH   8   9
ENDBRANCH   7   8
TORSDOF 2
ENDMDL
