MODEL 1
REMARK VINA RESULT:      -4.6      0.000      0.000
REMARK  0 active torsions:
REMARK  status: ('A' for Active; 'I' for Inactive)
ROOT
HETATM    1  C1  UNL     1     -33.873   7.415   6.459  1.00 20.00     0.021 C 
HETATM    2  C2  UNL     1     -34.585   6.077   6.266  1.00 20.00     0.010 C 
HETATM    3  C3  UNL     1     -33.789   6.984   4.125  1.00 20.00     0.029 C 
HETATM    4  C4  UNL     1     -32.922   7.478   5.275  1.00 20.00     0.083 C 
HETATM    5  C5  UNL     1     -34.604   5.821   4.737  1.00 20.00    -0.046 C 
HETATM    6  C6  UNL     1     -36.036   5.818   4.192  1.00 20.00     0.015 C 
HETATM    7  C7  UNL     1     -33.942   4.471   4.416  1.00 20.00     0.015 C 
HETATM    8 CL8  UNL     1     -32.303   9.112   4.999  1.00 20.00    -0.125 Cl
ENDROOT
TORSDOF 0
ENDMDL
MODEL 2
REMARK VINA RESULT:      -4.5      1.023      2.138
REMARK  0 active torsions:
REMARK  status: ('A' for Active; 'I' for Inactive)
ROOT
HETATM    1  C1  UNL     1     -32.469   6.898   3.463  1.00 20.00     0.021 C 
HETATM    2  C2  UNL     1     -33.493   5.766   3.394  1.00 20.00     0.010 C 
HETATM    3  C3  UNL     1     -33.876   7.200   5.352  1.00 20.00     0.029 C 
HETATM    4  C4  UNL     1     -33.202   7.983   4.234  1.00 20.00     0.083 C 
HETATM    5  C5  UNL     1     -34.371   5.907   4.663  1.00 20.00    -0.046 C 
HETATM    6  C6  UNL     1     -34.201   4.700   5.593  1.00 20.00     0.015 C 
HETATM    7  C7  UNL     1     -35.852   6.035   4.273  1.00 20.00     0.015 C 
HETATM    8 CL8  UNL     1     -32.103   9.226   4.849  1.00 20.00    -0.125 Cl
ENDROOT
TORSDOF 0
ENDMDL
MODEL 3
REMARK VINA RESULT:      -3.8     15.504     16.705
REMARK  0 active torsions:
REMARK  status: ('A' for Active; 'I' for Inactive)
ROOT
HETATM    1  C1  UNL     1     -23.840  18.988   8.580  1.00 20.00     0.021 C 
HETATM    2  C2  UNL     1     -24.398  18.889   9.998  1.00 20.00     0.010 C 
HETATM    3  C3  UNL     1     -22.376  17.519   9.736  1.00 20.00     0.029 C 
HETATM    4  C4  UNL     1     -22.361  18.693   8.767  1.00 20.00     0.083 C 
HETATM    5  C5  UNL     1     -23.495  17.872  10.743  1.00 20.00    -0.046 C 
HETATM    6  C6  UNL     1     -24.281  16.618  11.140  1.00 20.00     0.015 C 
HETATM    7  C7  UNL     1     -22.902  18.514  12.006  1.00 20.00     0.015 C 
HETATM    8 CL8  UNL     1     -21.559  18.297   7.240  1.00 20.00    -0.125 Cl
ENDROOT
TORSDOF 0
ENDMDL
MODEL 4
REMARK VINA RESULT:      -3.5      2.383      3.806
REMARK  0 active torsions:
REMARK  status: ('A' for Active; 'I' for Inactive)
ROOT
HETATM    1  C1  UNL     1     -33.158   5.981   3.293  1.00 20.00     0.021 C 
HETATM    2  C2  UNL     1     -32.118   7.088   3.128  1.00 20.00     0.010 C 
HETATM    3  C3  UNL     1     -34.084   7.886   4.368  1.00 20.00     0.029 C 
HETATM    4  C4  UNL     1     -33.900   6.386   4.556  1.00 20.00     0.083 C 
HETATM    5  C5  UNL     1     -32.744   8.358   3.760  1.00 20.00    -0.046 C 
HETATM    6  C6  UNL     1     -32.981   9.443   2.704  1.00 20.00     0.015 C 
HETATM    7  C7  UNL     1     -31.821   8.917   4.854  1.00 20.00     0.015 C 
HETATM    8 CL8  UNL     1     -35.441   5.534   4.730  1.00 20.00    -0.125 Cl
ENDROOT
TORSDOF 0
ENDMDL
MODEL 5
REMARK VINA RESULT:      -3.5     12.579     13.722
REMARK  0 active torsions:
REMARK  status: ('A' for Active; 'I' for Inactive)
ROOT
HETATM    1  C1  UNL     1     -33.339  17.958  -3.807  1.00 20.00     0.021 C 
HETATM    2  C2  UNL     1     -32.877  19.036  -2.827  1.00 20.00     0.010 C 
HETATM    3  C3  UNL     1     -33.514  16.973  -1.653  1.00 20.00     0.029 C 
HETATM    4  C4  UNL     1     -33.041  16.664  -3.067  1.00 20.00     0.083 C 
HETATM    5  C5  UNL     1     -33.058  18.431  -1.411  1.00 20.00    -0.046 C 
HETATM    6  C6  UNL     1     -34.113  19.202  -0.610  1.00 20.00     0.015 C 
HETATM    7  C7  UNL     1     -31.726  18.461  -0.646  1.00 20.00     0.015 C 
HETATM    8 CL8  UNL     1     -33.886  15.280  -3.773  1.00 20.00    -0.125 Cl
ENDROOT
TORSDOF 0
ENDMDL
MODEL 6
REMARK VINA RESULT:      -3.4     12.285     13.208
REMARK  0 active torsions:
REMARK  status: ('A' for Active; 'I' for Inactive)
ROOT
HETATM    1  C1  UNL     1     -31.395  18.927  -0.395  1.00 20.00     0.021 C 
HETATM    2  C2  UNL     1     -32.234  18.841  -1.669  1.00 20.00     0.010 C 
HETATM    3  C3  UNL     1     -33.410  17.847   0.246  1.00 20.00     0.029 C 
HETATM    4  C4  UNL     1     -32.437  18.923   0.710  1.00 20.00     0.083 C 
HETATM    5  C5  UNL     1     -33.521  18.070  -1.280  1.00 20.00    -0.046 C 
HETATM    6  C6  UNL     1     -33.609  16.729  -2.017  1.00 20.00     0.015 C 
HETATM    7  C7  UNL     1     -34.765  18.908  -1.614  1.00 20.00     0.015 C 
HETATM    8 CL8  UNL     1     -31.735  18.560   2.293  1.00 20.00    -0.125 Cl
ENDROOT
TORSDOF 0
ENDMDL
MODEL 7
REMARK VINA RESULT:      -3.4     12.759     13.567
REMARK  0 active torsions:
REMARK  status: ('A' for Active; 'I' for Inactive)
ROOT
HETATM    1  C1  UNL     1     -33.483  15.964  -3.294  1.00 20.00     0.021 C 
HETATM    2  C2  UNL     1     -33.573  14.828  -4.311  1.00 20.00     0.010 C 
HETATM    3  C3  UNL     1     -35.040  16.699  -4.930  1.00 20.00     0.029 C 
HETATM    4  C4  UNL     1     -33.855  17.192  -4.110  1.00 20.00     0.083 C 
HETATM    5  C5  UNL     1     -34.644  15.263  -5.344  1.00 20.00    -0.046 C 
HETATM    6  C6  UNL     1     -35.861  14.333  -5.306  1.00 20.00     0.015 C 
HETATM    7  C7  UNL     1     -34.049  15.254  -6.760  1.00 20.00     0.015 C 
HETATM    8 CL8  UNL     1     -34.271  18.575  -3.088  1.00 20.00    -0.125 Cl
ENDROOT
TORSDOF 0
ENDMDL
MODEL 8
REMARK VINA RESULT:      -3.3      2.266      3.507
REMARK  0 active torsions:
REMARK  status: ('A' for Active; 'I' for Inactive)
ROOT
HETATM    1  C1  UNL     1     -33.731   7.272   5.925  1.00 20.00     0.021 C 
HETATM    2  C2  UNL     1     -32.980   8.420   5.252  1.00 20.00     0.010 C 
HETATM    3  C3  UNL     1     -33.247   6.510   3.729  1.00 20.00     0.029 C 
HETATM    4  C4  UNL     1     -34.370   6.541   4.756  1.00 20.00     0.083 C 
HETATM    5  C5  UNL     1     -32.591   7.905   3.842  1.00 20.00    -0.046 C 
HETATM    6  C6  UNL     1     -31.070   7.802   3.689  1.00 20.00     0.015 C 
HETATM    7  C7  UNL     1     -33.142   8.849   2.762  1.00 20.00     0.015 C 
HETATM    8 CL8  UNL     1     -34.922   4.920   5.202  1.00 20.00    -0.125 Cl
ENDROOT
TORSDOF 0
ENDMDL
MODEL 9
REMARK VINA RESULT:      -3.3      8.424      9.158
REMARK  0 active torsions:
REMARK  status: ('A' for Active; 'I' for Inactive)
ROOT
HETATM    1  C1  UNL     1     -38.808  12.135   5.958  1.00 20.00     0.021 C 
HETATM    2  C2  UNL     1     -39.741  12.567   7.087  1.00 20.00     0.010 C 
HETATM    3  C3  UNL     1     -40.723  13.043   4.886  1.00 20.00     0.029 C 
HETATM    4  C4  UNL     1     -39.760  11.867   4.803  1.00 20.00     0.083 C 
HETATM    5  C5  UNL     1     -40.963  13.231   6.402  1.00 20.00    -0.046 C 
HETATM    6  C6  UNL     1     -41.055  14.720   6.754  1.00 20.00     0.015 C 
HETATM    7  C7  UNL     1     -42.260  12.531   6.834  1.00 20.00     0.015 C 
HETATM    8 CL8  UNL     1     -38.921  11.789   3.248  1.00 20.00    -0.125 Cl
ENDROOT
TORSDOF 0
ENDMDL
