MODEL 1
REMARK VINA RESULT:      -3.7      0.000      0.000
REMARK  2 active torsions:
REMARK  status: ('A' for Active; 'I' for Inactive)
REMARK    1  A    between atoms: C5_5  and  C6_6 
REMARK    2  A    between atoms: C5_5  and  N7_7 
ROOT
HETATM    1  C1  UNL     1     -32.680   6.162   2.667  1.00 20.00     0.048 C 
HETATM    2  C2  UNL     1     -33.650   6.004   3.830  1.00 20.00     0.273 C 
HETATM    3  C3  UNL     1     -32.744   8.126   4.094  1.00 20.00     0.288 C 
HETATM    4  C4  UNL     1     -32.111   7.568   2.828  1.00 20.00     0.087 C 
HETATM    5  N7  UNL     1     -33.096   6.912   4.835  1.00 20.00     0.091 N 
HETATM    6 BR9  UNL     1     -32.528   8.685   1.297  1.00 20.00    -0.089 Br
ENDROOT
BRANCH   5   7
HETATM    7  C5  UNL     1     -34.030   7.174   5.921  1.00 20.00     0.303 C 
BRANCH   7   8
HETATM    8  C6  UNL     1     -34.801   5.928   6.301  1.00 20.00     0.252 C 
HETATM    9  F8  UNL     1     -33.951   5.042   6.886  1.00 20.00    -0.254 F 
ENDBRANCH   7   8
ENDBRANCH   5   7
TORSDOF 2
ENDMDL
MODEL 2
REMARK VINA RESULT:      -3.4     16.201     16.766
REMARK  2 active torsions:
REMARK  status: ('A' for Active; 'I' for Inactive)
REMARK    1  A    between atoms: C5_5  and  C6_6 
REMARK    2  A    between atoms: C5_5  and  N7_7 
ROOT
HETATM    1  C1  UNL     1     -24.901  18.964  10.085  1.00 20.00     0.048 C 
HETATM    2  C2  UNL     1     -23.869  19.030   8.966  1.00 20.00     0.273 C 
HETATM    3  C3  UNL     1     -22.690  18.276  10.819  1.00 20.00     0.288 C 
HETATM    4  C4  UNL     1     -24.128  18.440  11.291  1.00 20.00     0.087 C 
HETATM    5  N7  UNL     1     -22.615  19.214   9.697  1.00 20.00     0.091 N 
HETATM    6 BR9  UNL     1     -24.846  16.749  11.918  1.00 20.00    -0.089 Br
ENDROOT
BRANCH   5   7
HETATM    7  C5  UNL     1     -21.447  18.987   8.859  1.00 20.00     0.303 C 
BRANCH   7   8
HETATM    8  C6  UNL     1     -21.293  17.523   8.506  1.00 20.00     0.252 C 
HETATM    9  F8  UNL     1     -21.532  17.359   7.178  1.00 20.00    -0.254 F 
ENDBRANCH   7   8
ENDBRANCH   5   7
TORSDOF 2
ENDMDL
MODEL 3
REMARK VINA RESULT:      -3.4     15.402     16.156
REMARK  2 active torsions:
REMARK  status: ('A' for Active; 'I' for Inactive)
REMARK    1  A    between atoms: C5_5  and  C6_6 
REMARK    2  A    between atoms: C5_5  and  N7_7 
ROOT
HETATM    1  C1  UNL     1     -21.656  18.781  10.592  1.00 20.00     0.048 C 
HETATM    2  C2  UNL     1     -22.639  18.098  11.534  1.00 20.00     0.273 C 
HETATM    3  C3  UNL     1     -23.830  18.429   9.569  1.00 20.00     0.288 C 
HETATM    4  C4  UNL     1     -22.434  18.968   9.293  1.00 20.00     0.087 C 
HETATM    5  N7  UNL     1     -23.935  18.547  11.025  1.00 20.00     0.091 N 
HETATM    6 BR9  UNL     1     -21.603  18.015   7.821  1.00 20.00    -0.089 Br
ENDROOT
BRANCH   5   7
HETATM    7  C5  UNL     1     -25.042  17.773  11.567  1.00 20.00     0.303 C 
BRANCH   7   8
HETATM    8  C6  UNL     1     -24.566  16.462  12.156  1.00 20.00     0.252 C 
HETATM    9  F8  UNL     1     -24.560  15.514  11.180  1.00 20.00    -0.254 F 
ENDBRANCH   7   8
ENDBRANCH   5   7
TORSDOF 2
ENDMDL
MODEL 4
REMARK VINA RESULT:      -3.4     12.028     12.875
REMARK  2 active torsions:
REMARK  status: ('A' for Active; 'I' for Inactive)
REMARK    1  A    between atoms: C5_5  and  C6_6 
REMARK    2  A    between atoms: C5_5  and  N7_7 
ROOT
HETATM    1  C1  UNL     1     -32.804  19.040  -2.524  1.00 20.00     0.048 C 
HETATM    2  C2  UNL     1     -33.513  18.429  -3.726  1.00 20.00     0.273 C 
HETATM    3  C3  UNL     1     -33.424  16.721  -2.156  1.00 20.00     0.288 C 
HETATM    4  C4  UNL     1     -32.776  17.924  -1.486  1.00 20.00     0.087 C 
HETATM    5  N7  UNL     1     -33.222  17.003  -3.579  1.00 20.00     0.091 N 
HETATM    6 BR9  UNL     1     -33.742  18.422   0.122  1.00 20.00    -0.089 Br
ENDROOT
BRANCH   5   7
HETATM    7  C5  UNL     1     -34.059  16.175  -4.435  1.00 20.00     0.303 C 
BRANCH   7   8
HETATM    8  C6  UNL     1     -33.564  14.745  -4.480  1.00 20.00     0.252 C 
HETATM    9  F8  UNL     1     -34.432  13.954  -3.794  1.00 20.00    -0.254 F 
ENDBRANCH   7   8
ENDBRANCH   5   7
TORSDOF 2
ENDMDL
MODEL 5
REMARK VINA RESULT:      -3.3      3.545      4.641
REMARK  2 active torsions:
REMARK  status: ('A' for Active; 'I' for Inactive)
REMARK    1  A    between atoms: C5_5  and  C6_6 
REMARK    2  A    between atoms: C5_5  and  N7_7 
ROOT
HETATM    1  C1  UNL     1     -33.183   7.941   4.969  1.00 20.00     0.048 C 
HETATM    2  C2  UNL     1     -32.849   8.694   3.688  1.00 20.00     0.273 C 
HETATM    3  C3  UNL     1     -32.966   6.463   3.054  1.00 20.00     0.288 C 
HETATM    4  C4  UNL     1     -33.289   6.481   4.542  1.00 20.00     0.087 C 
HETATM    5  N7  UNL     1     -32.164   7.678   2.889  1.00 20.00     0.091 N 
HETATM    6 BR9  UNL     1     -35.064   5.769   4.871  1.00 20.00    -0.089 Br
ENDROOT
BRANCH   5   7
HETATM    7  C5  UNL     1     -32.028   8.069   1.493  1.00 20.00     0.303 C 
BRANCH   7   8
HETATM    8  C6  UNL     1     -32.760   9.363   1.206  1.00 20.00     0.252 C 
HETATM    9  F8  UNL     1     -33.108   9.393  -0.108  1.00 20.00    -0.254 F 
ENDBRANCH   7   8
ENDBRANCH   5   7
TORSDOF 2
ENDMDL
MODEL 6
REMARK VINA RESULT:      -3.3     12.290     12.835
REMARK  2 active torsions:
REMARK  status: ('A' for Active; 'I' for Inactive)
REMARK    1  A    between atoms: C5_5  and  C6_6 
REMARK    2  A    between atoms: C5_5  and  N7_7 
ROOT
HETATM    1  C1  UNL     1     -33.602  18.292   0.517  1.00 20.00     0.048 C 
HETATM    2  C2  UNL     1     -33.880  17.577  -0.799  1.00 20.00     0.273 C 
HETATM    3  C3  UNL     1     -31.932  18.782  -1.177  1.00 20.00     0.288 C 
HETATM    4  C4  UNL     1     -32.306  19.058   0.273  1.00 20.00     0.087 C 
HETATM    5  N7  UNL     1     -33.223  18.443  -1.779  1.00 20.00     0.091 N 
HETATM    6 BR9  UNL     1     -30.896  18.473   1.472  1.00 20.00    -0.089 Br
ENDROOT
BRANCH   5   7
HETATM    7  C5  UNL     1     -33.080  17.800  -3.077  1.00 20.00     0.303 C 
BRANCH   7   8
HETATM    8  C6  UNL     1     -33.447  16.333  -3.014  1.00 20.00     0.252 C 
HETATM    9  F8  UNL     1     -32.558  15.621  -3.757  1.00 20.00    -0.254 F 
ENDBRANCH   7   8
ENDBRANCH   5   7
TORSDOF 2
ENDMDL
MODEL 7
REMARK VINA RESULT:      -3.3     12.417     12.995
REMARK  2 active torsions:
REMARK  status: ('A' for Active; 'I' for Inactive)
REMARK    1  A    between atoms: C5_5  and  C6_6 
REMARK    2  A    between atoms: C5_5  and  N7_7 
ROOT
HETATM    1  C1  UNL     1     -34.599  18.027  -4.074  1.00 20.00     0.048 C 
HETATM    2  C2  UNL     1     -35.231  16.922  -4.911  1.00 20.00     0.273 C 
HETATM    3  C3  UNL     1     -33.403  15.921  -3.887  1.00 20.00     0.288 C 
HETATM    4  C4  UNL     1     -33.417  17.356  -3.381  1.00 20.00     0.087 C 
HETATM    5  N7  UNL     1     -34.100  16.030  -5.171  1.00 20.00     0.091 N 
HETATM    6 BR9  UNL     1     -33.604  17.405  -1.450  1.00 20.00    -0.089 Br
ENDROOT
BRANCH   5   7
HETATM    7  C5  UNL     1     -34.523  14.736  -5.686  1.00 20.00     0.303 C 
BRANCH   7   8
HETATM    8  C6  UNL     1     -35.951  14.422  -5.293  1.00 20.00     0.252 C 
HETATM    9  F8  UNL     1     -35.955  13.344  -4.464  1.00 20.00    -0.254 F 
ENDBRANCH   7   8
ENDBRANCH   5   7
TORSDOF 2
ENDMDL
MODEL 8
REMARK VINA RESULT:      -3.2     12.863     13.726
REMARK  2 active torsions:
REMARK  status: ('A' for Active; 'I' for Inactive)
REMARK    1  A    between atoms: C5_5  and  C6_6 
REMARK    2  A    between atoms: C5_5  and  N7_7 
ROOT
HETATM    1  C1  UNL     1     -33.333  16.310  -3.069  1.00 20.00     0.048 C 
HETATM    2  C2  UNL     1     -33.437  15.264  -4.172  1.00 20.00     0.273 C 
HETATM    3  C3  UNL     1     -34.733  17.043  -4.913  1.00 20.00     0.288 C 
HETATM    4  C4  UNL     1     -34.161  17.487  -3.574  1.00 20.00     0.087 C 
HETATM    5  N7  UNL     1     -34.722  15.583  -4.795  1.00 20.00     0.091 N 
HETATM    6 BR9  UNL     1     -33.077  19.083  -3.782  1.00 20.00    -0.089 Br
ENDROOT
BRANCH   5   7
HETATM    7  C5  UNL     1     -34.895  14.919  -6.079  1.00 20.00     0.303 C 
BRANCH   7   8
HETATM    8  C6  UNL     1     -34.282  15.723  -7.206  1.00 20.00     0.252 C 
HETATM    9  F8  UNL     1     -33.189  15.065  -7.677  1.00 20.00    -0.254 F 
ENDBRANCH   7   8
ENDBRANCH   5   7
TORSDOF 2
ENDMDL
MODEL 9
REMARK VINA RESULT:      -3.2      9.925     10.771
REMARK  2 active torsions:
REMARK  status: ('A' for Active; 'I' for Inactive)
REMARK    1  A    between atoms: C5_5  and  C6_6 
REMARK    2  A    between atoms: C5_5  and  N7_7 
ROOT
HETATM    1  C1  UNL     1     -42.573  13.550   7.832  1.00 20.00     0.048 C 
HETATM    2  C2  UNL     1     -42.078  12.581   6.766  1.00 20.00     0.273 C 
HETATM    3  C3  UNL     1     -40.377  14.146   6.983  1.00 20.00     0.288 C 
HETATM    4  C4  UNL     1     -41.440  14.558   7.992  1.00 20.00     0.087 C 
HETATM    5  N7  UNL     1     -41.154  13.406   5.987  1.00 20.00     0.091 N 
HETATM    6 BR9  UNL     1     -40.722  14.544   9.795  1.00 20.00    -0.089 Br
ENDROOT
BRANCH   5   7
HETATM    7  C5  UNL     1     -40.314  12.612   5.102  1.00 20.00     0.303 C 
BRANCH   7   8
HETATM    8  C6  UNL     1     -39.238  11.876   5.873  1.00 20.00     0.252 C 
HETATM    9  F8  UNL     1     -38.028  12.153   5.318  1.00 20.00    -0.254 F 
ENDBRANCH   7   8
ENDBRANCH   5   7
TORSDOF 2
ENDMDL
