MODEL 1
REMARK VINA RESULT:      -4.8      0.000      0.000
REMARK  4 active torsions:
REMARK  status: ('A' for Active; 'I' for Inactive)
REMARK    1  A    between atoms: C1_1  and  C4_4 
REMARK    2  A    between atoms: C1_1  and  C7_7 
REMARK    3  A    between atoms: C4_4  and  C5_5 
REMARK    4  A    between atoms: C5_5  and  C6_6 
ROOT
HETATM    1  C1  UNL     1     -32.751   7.853   4.305  1.00 20.00     0.130 C 
HETATM    2  O8  UNL     1     -32.191   8.804   4.852  1.00 20.00    -0.298 OA
ENDROOT
BRANCH   1   3
HETATM    3  C4  UNL     1     -34.094   7.325   4.792  1.00 20.00     0.081 C 
BRANCH   3   4
HETATM    4  C5  UNL     1     -34.062   6.806   6.229  1.00 20.00     0.038 C 
BRANCH   4   5
HETATM    5  C6  UNL     1     -34.463   5.341   6.331  1.00 20.00     0.222 C 
HETATM    6  F9  UNL     1     -35.066   4.961   5.173  1.00 20.00    -0.255 F 
ENDBRANCH   4   5
ENDBRANCH   3   4
ENDBRANCH   1   3
BRANCH   1   7
HETATM    7  C7  UNL     1     -32.163   7.175   3.068  1.00 20.00     0.047 C 
HETATM    8  C2  UNL     1     -32.862   5.841   2.823  1.00 20.00     0.017 C 
HETATM    9  C3  UNL     1     -32.271   8.076   1.841  1.00 20.00     0.017 C 
ENDBRANCH   1   7
TORSDOF 4
ENDMDL
MODEL 2
REMARK VINA RESULT:      -4.6      1.803      2.303
REMARK  4 active torsions:
REMARK  status: ('A' for Active; 'I' for Inactive)
REMARK    1  A    between atoms: C1_1  and  C4_4 
REMARK    2  A    between atoms: C1_1  and  C7_7 
REMARK    3  A    between atoms: C4_4  and  C5_5 
REMARK    4  A    between atoms: C5_5  and  C6_6 
ROOT
HETATM    1  C1  UNL     1     -33.166   6.144   3.306  1.00 20.00     0.130 C 
HETATM    2  O8  UNL     1     -32.891   5.091   2.730  1.00 20.00    -0.298 OA
ENDROOT
BRANCH   1   3
HETATM    3  C4  UNL     1     -34.444   6.303   4.119  1.00 20.00     0.081 C 
BRANCH   3   4
HETATM    4  C5  UNL     1     -34.726   5.126   5.051  1.00 20.00     0.038 C 
BRANCH   4   5
HETATM    5  C6  UNL     1     -34.396   5.439   6.504  1.00 20.00     0.222 C 
HETATM    6  F9  UNL     1     -34.506   6.778   6.709  1.00 20.00    -0.255 F 
ENDBRANCH   4   5
ENDBRANCH   3   4
ENDBRANCH   1   3
BRANCH   1   7
HETATM    7  C7  UNL     1     -32.217   7.342   3.292  1.00 20.00     0.047 C 
HETATM    8  C2  UNL     1     -32.230   8.003   1.918  1.00 20.00     0.017 C 
HETATM    9  C3  UNL     1     -32.583   8.349   4.380  1.00 20.00     0.017 C 
ENDBRANCH   1   7
TORSDOF 4
ENDMDL
MODEL 3
REMARK VINA RESULT:      -4.5      1.920      3.502
REMARK  4 active torsions:
REMARK  status: ('A' for Active; 'I' for Inactive)
REMARK    1  A    between atoms: C1_1  and  C4_4 
REMARK    2  A    between atoms: C1_1  and  C7_7 
REMARK    3  A    between atoms: C4_4  and  C5_5 
REMARK    4  A    between atoms: C5_5  and  C6_6 
ROOT
HETATM    1  C1  UNL     1     -33.936   6.855   5.718  1.00 20.00     0.130 C 
HETATM    2  O8  UNL     1     -33.326   6.833   6.787  1.00 20.00    -0.298 OA
ENDROOT
BRANCH   1   3
HETATM    3  C4  UNL     1     -33.750   7.982   4.711  1.00 20.00     0.081 C 
BRANCH   3   4
HETATM    4  C5  UNL     1     -32.322   8.095   4.177  1.00 20.00     0.038 C 
BRANCH   4   5
HETATM    5  C6  UNL     1     -32.184   7.559   2.759  1.00 20.00     0.222 C 
HETATM    6  F9  UNL     1     -32.495   6.236   2.749  1.00 20.00    -0.255 F 
ENDBRANCH   4   5
ENDBRANCH   3   4
ENDBRANCH   1   3
BRANCH   1   7
HETATM    7  C7  UNL     1     -34.879   5.725   5.304  1.00 20.00     0.047 C 
HETATM    8  C2  UNL     1     -35.779   6.187   4.163  1.00 20.00     0.017 C 
HETATM    9  C3  UNL     1     -34.100   4.474   4.907  1.00 20.00     0.017 C 
ENDBRANCH   1   7
TORSDOF 4
ENDMDL
MODEL 4
REMARK VINA RESULT:      -4.3      1.641      2.317
REMARK  4 active torsions:
REMARK  status: ('A' for Active; 'I' for Inactive)
REMARK    1  A    between atoms: C1_1  and  C4_4 
REMARK    2  A    between atoms: C1_1  and  C7_7 
REMARK    3  A    between atoms: C4_4  and  C5_5 
REMARK    4  A    between atoms: C5_5  and  C6_6 
ROOT
HETATM    1  C1  UNL     1     -33.701   7.241   5.218  1.00 20.00     0.130 C 
HETATM    2  O8  UNL     1     -33.330   7.150   6.388  1.00 20.00    -0.298 OA
ENDROOT
BRANCH   1   3
HETATM    3  C4  UNL     1     -34.891   6.451   4.690  1.00 20.00     0.081 C 
BRANCH   3   4
HETATM    4  C5  UNL     1     -34.889   4.984   5.119  1.00 20.00     0.038 C 
BRANCH   4   5
HETATM    5  C6  UNL     1     -33.756   4.190   4.485  1.00 20.00     0.222 C 
HETATM    6  F9  UNL     1     -33.573   4.616   3.207  1.00 20.00    -0.255 F 
ENDBRANCH   4   5
ENDBRANCH   3   4
ENDBRANCH   1   3
BRANCH   1   7
HETATM    7  C7  UNL     1     -33.028   8.195   4.231  1.00 20.00     0.047 C 
HETATM    8  C2  UNL     1     -32.142   9.183   4.982  1.00 20.00     0.017 C 
HETATM    9  C3  UNL     1     -32.220   7.429   3.187  1.00 20.00     0.017 C 
ENDBRANCH   1   7
TORSDOF 4
ENDMDL
MODEL 5
REMARK VINA RESULT:      -4.2      2.808      4.323
REMARK  4 active torsions:
REMARK  status: ('A' for Active; 'I' for Inactive)
REMARK    1  A    between atoms: C1_1  and  C4_4 
REMARK    2  A    between atoms: C1_1  and  C7_7 
REMARK    3  A    between atoms: C4_4  and  C5_5 
REMARK    4  A    between atoms: C5_5  and  C6_6 
ROOT
HETATM    1  C1  UNL     1     -33.126   6.485   3.650  1.00 20.00     0.130 C 
HETATM    2  O8  UNL     1     -33.031   5.551   2.854  1.00 20.00    -0.298 OA
ENDROOT
BRANCH   1   3
HETATM    3  C4  UNL     1     -32.194   7.688   3.590  1.00 20.00     0.081 C 
BRANCH   3   4
HETATM    4  C5  UNL     1     -32.686   8.796   2.660  1.00 20.00     0.038 C 
BRANCH   4   5
HETATM    5  C6  UNL     1     -32.278   8.569   1.212  1.00 20.00     0.222 C 
HETATM    6  F9  UNL     1     -32.741   9.595   0.451  1.00 20.00    -0.255 F 
ENDBRANCH   4   5
ENDBRANCH   3   4
ENDBRANCH   1   3
BRANCH   1   7
HETATM    7  C7  UNL     1     -34.220   6.526   4.717  1.00 20.00     0.047 C 
HETATM    8  C2  UNL     1     -34.699   5.113   5.029  1.00 20.00     0.017 C 
HETATM    9  C3  UNL     1     -33.730   7.224   5.983  1.00 20.00     0.017 C 
ENDBRANCH   1   7
TORSDOF 4
ENDMDL
MODEL 6
REMARK VINA RESULT:      -4.2      2.523      4.145
REMARK  4 active torsions:
REMARK  status: ('A' for Active; 'I' for Inactive)
REMARK    1  A    between atoms: C1_1  and  C4_4 
REMARK    2  A    between atoms: C1_1  and  C7_7 
REMARK    3  A    between atoms: C4_4  and  C5_5 
REMARK    4  A    between atoms: C5_5  and  C6_6 
ROOT
HETATM    1  C1  UNL     1     -33.672   7.421   4.792  1.00 20.00     0.130 C 
HETATM    2  O8  UNL     1     -33.774   8.401   5.530  1.00 20.00    -0.298 OA
ENDROOT
BRANCH   1   3
HETATM    3  C4  UNL     1     -32.602   7.337   3.712  1.00 20.00     0.081 C 
BRANCH   3   4
HETATM    4  C5  UNL     1     -32.431   8.633   2.920  1.00 20.00     0.038 C 
BRANCH   4   5
HETATM    5  C6  UNL     1     -32.329   8.392   1.420  1.00 20.00     0.222 C 
HETATM    6  F9  UNL     1     -32.636   9.541   0.761  1.00 20.00    -0.255 F 
ENDBRANCH   4   5
ENDBRANCH   3   4
ENDBRANCH   1   3
BRANCH   1   7
HETATM    7  C7  UNL     1     -34.577   6.199   4.947  1.00 20.00     0.047 C 
HETATM    8  C2  UNL     1     -34.125   5.092   4.001  1.00 20.00     0.017 C 
HETATM    9  C3  UNL     1     -34.594   5.704   6.391  1.00 20.00     0.017 C 
ENDBRANCH   1   7
TORSDOF 4
ENDMDL
MODEL 7
REMARK VINA RESULT:      -4.1      2.390      2.914
REMARK  4 active torsions:
REMARK  status: ('A' for Active; 'I' for Inactive)
REMARK    1  A    between atoms: C1_1  and  C4_4 
REMARK    2  A    between atoms: C1_1  and  C7_7 
REMARK    3  A    between atoms: C4_4  and  C5_5 
REMARK    4  A    between atoms: C5_5  and  C6_6 
ROOT
HETATM    1  C1  UNL     1     -34.159   5.049   4.118  1.00 20.00     0.130 C 
HETATM    2  O8  UNL     1     -33.945   3.898   4.501  1.00 20.00    -0.298 OA
ENDROOT
BRANCH   1   3
HETATM    3  C4  UNL     1     -35.071   5.994   4.889  1.00 20.00     0.081 C 
BRANCH   3   4
HETATM    4  C5  UNL     1     -34.655   6.192   6.346  1.00 20.00     0.038 C 
BRANCH   4   5
HETATM    5  C6  UNL     1     -33.616   7.291   6.514  1.00 20.00     0.222 C 
HETATM    6  F9  UNL     1     -33.989   8.374   5.782  1.00 20.00    -0.255 F 
ENDBRANCH   4   5
ENDBRANCH   3   4
ENDBRANCH   1   3
BRANCH   1   7
HETATM    7  C7  UNL     1     -33.479   5.624   2.876  1.00 20.00     0.047 C 
HETATM    8  C2  UNL     1     -32.560   6.776   3.270  1.00 20.00     0.017 C 
HETATM    9  C3  UNL     1     -32.704   4.547   2.122  1.00 20.00     0.017 C 
ENDBRANCH   1   7
TORSDOF 4
ENDMDL
MODEL 8
REMARK VINA RESULT:      -4.0      2.502      4.076
REMARK  4 active torsions:
REMARK  status: ('A' for Active; 'I' for Inactive)
REMARK    1  A    between atoms: C1_1  and  C4_4 
REMARK    2  A    between atoms: C1_1  and  C7_7 
REMARK    3  A    between atoms: C4_4  and  C5_5 
REMARK    4  A    between atoms: C5_5  and  C6_6 
ROOT
HETATM    1  C1  UNL     1     -34.932   5.650   4.639  1.00 20.00     0.130 C 
HETATM    2  O8  UNL     1     -35.917   6.066   4.029  1.00 20.00    -0.298 OA
ENDROOT
BRANCH   1   3
HETATM    3  C4  UNL     1     -33.899   4.748   3.977  1.00 20.00     0.081 C 
BRANCH   3   4
HETATM    4  C5  UNL     1     -33.215   5.387   2.769  1.00 20.00     0.038 C 
BRANCH   4   5
HETATM    5  C6  UNL     1     -32.534   6.705   3.112  1.00 20.00     0.222 C 
HETATM    6  F9  UNL     1     -32.175   7.335   1.962  1.00 20.00    -0.255 F 
ENDBRANCH   4   5
ENDBRANCH   3   4
ENDBRANCH   1   3
BRANCH   1   7
HETATM    7  C7  UNL     1     -34.650   6.057   6.086  1.00 20.00     0.047 C 
HETATM    8  C2  UNL     1     -33.724   5.038   6.743  1.00 20.00     0.017 C 
HETATM    9  C3  UNL     1     -34.051   7.459   6.158  1.00 20.00     0.017 C 
ENDBRANCH   1   7
TORSDOF 4
ENDMDL
MODEL 9
REMARK VINA RESULT:      -3.7      2.422      3.795
REMARK  4 active torsions:
REMARK  status: ('A' for Active; 'I' for Inactive)
REMARK    1  A    between atoms: C1_1  and  C4_4 
REMARK    2  A    between atoms: C1_1  and  C7_7 
REMARK    3  A    between atoms: C4_4  and  C5_5 
REMARK    4  A    between atoms: C5_5  and  C6_6 
ROOT
HETATM    1  C1  UNL     1     -33.345   5.961   3.710  1.00 20.00     0.130 C 
HETATM    2  O8  UNL     1     -33.370   4.840   3.201  1.00 20.00    -0.298 OA
ENDROOT
BRANCH   1   3
HETATM    3  C4  UNL     1     -32.305   7.000   3.311  1.00 20.00     0.081 C 
BRANCH   3   4
HETATM    4  C5  UNL     1     -32.772   8.441   3.513  1.00 20.00     0.038 C 
BRANCH   4   5
HETATM    5  C6  UNL     1     -32.206   9.067   4.780  1.00 20.00     0.222 C 
HETATM    6  F9  UNL     1     -33.212   9.249   5.676  1.00 20.00    -0.255 F 
ENDBRANCH   4   5
ENDBRANCH   3   4
ENDBRANCH   1   3
BRANCH   1   7
HETATM    7  C7  UNL     1     -34.389   6.405   4.734  1.00 20.00     0.047 C 
HETATM    8  C2  UNL     1     -35.749   5.811   4.383  1.00 20.00     0.017 C 
HETATM    9  C3  UNL     1     -33.975   6.012   6.149  1.00 20.00     0.017 C 
ENDBRANCH   1   7
TORSDOF 4
ENDMDL
