MODEL 1
REMARK VINA RESULT:      -4.3      0.000      0.000
REMARK  2 active torsions:
REMARK  status: ('A' for Active; 'I' for Inactive)
REMARK    1  A    between atoms: C4_4  and  C10_10 
REMARK    2  A    between atoms: C10_10  and  C11_11 
ROOT
HETATM    1  C1  UNL     1     -34.789  18.120  -3.645  1.00 20.00     0.007 C 
HETATM    2  C2  UNL     1     -34.869  18.598  -2.194  1.00 20.00     0.009 C 
HETATM    3  C3  UNL     1     -33.437  16.695  -2.196  1.00 20.00     0.015 C 
HETATM    4  C4  UNL     1     -33.787  16.957  -3.664  1.00 20.00     0.005 C 
HETATM    5  C5  UNL     1     -33.605  18.058  -1.509  1.00 20.00    -0.047 C 
HETATM    6  C6  UNL     1     -33.804  17.905  -0.000  1.00 20.00     0.015 C 
HETATM    7  C7  UNL     1     -32.398  18.976  -1.769  1.00 20.00     0.015 C 
ENDROOT
BRANCH   4   8
HETATM    8  C10 UNL     1     -34.324  15.720  -4.369  1.00 20.00     0.089 C 
HETATM    9 CL12 UNL     1     -33.048  14.460  -4.392  1.00 20.00    -0.124 Cl
BRANCH   8  10
HETATM   10  C11 UNL     1     -34.884  16.016  -5.784  1.00 20.00    -0.004 C 
HETATM   11  C8  UNL     1     -34.071  15.390  -6.922  1.00 20.00     0.011 C 
HETATM   12  C9  UNL     1     -36.356  15.606  -5.913  1.00 20.00     0.011 C 
ENDBRANCH   8  10
ENDBRANCH   4   8
TORSDOF 2
ENDMDL
MODEL 2
REMARK VINA RESULT:      -4.2      1.716      2.039
REMARK  2 active torsions:
REMARK  status: ('A' for Active; 'I' for Inactive)
REMARK    1  A    between atoms: C4_4  and  C10_10 
REMARK    2  A    between atoms: C10_10  and  C11_11 
ROOT
HETATM    1  C1  UNL     1     -33.759  19.013  -3.233  1.00 20.00     0.007 C 
HETATM    2  C2  UNL     1     -34.028  19.261  -1.747  1.00 20.00     0.009 C 
HETATM    3  C3  UNL     1     -33.454  16.959  -1.950  1.00 20.00     0.015 C 
HETATM    4  C4  UNL     1     -33.290  17.556  -3.351  1.00 20.00     0.005 C 
HETATM    5  C5  UNL     1     -33.276  18.151  -0.998  1.00 20.00    -0.047 C 
HETATM    6  C6  UNL     1     -33.900  17.873   0.371  1.00 20.00     0.015 C 
HETATM    7  C7  UNL     1     -31.793  18.512  -0.814  1.00 20.00     0.015 C 
ENDROOT
BRANCH   4   8
HETATM    8  C10 UNL     1     -34.046  16.772  -4.414  1.00 20.00     0.089 C 
HETATM    9 CL12 UNL     1     -35.706  17.436  -4.560  1.00 20.00    -0.124 Cl
BRANCH   8  10
HETATM   10  C11 UNL     1     -34.044  15.242  -4.164  1.00 20.00    -0.004 C 
HETATM   11  C8  UNL     1     -35.139  14.483  -4.921  1.00 20.00     0.011 C 
HETATM   12  C9  UNL     1     -32.677  14.615  -4.464  1.00 20.00     0.011 C 
ENDBRANCH   8  10
ENDBRANCH   4   8
TORSDOF 2
ENDMDL
MODEL 3
REMARK VINA RESULT:      -4.0      1.751      5.026
REMARK  2 active torsions:
REMARK  status: ('A' for Active; 'I' for Inactive)
REMARK    1  A    between atoms: C4_4  and  C10_10 
REMARK    2  A    between atoms: C10_10  and  C11_11 
ROOT
HETATM    1  C1  UNL     1     -33.362  15.501  -3.625  1.00 20.00     0.007 C 
HETATM    2  C2  UNL     1     -34.118  14.436  -4.422  1.00 20.00     0.009 C 
HETATM    3  C3  UNL     1     -35.154  16.519  -4.934  1.00 20.00     0.015 C 
HETATM    4  C4  UNL     1     -33.962  16.854  -4.032  1.00 20.00     0.005 C 
HETATM    5  C5  UNL     1     -34.777  15.183  -5.592  1.00 20.00    -0.047 C 
HETATM    6  C6  UNL     1     -36.013  14.444  -6.107  1.00 20.00     0.015 C 
HETATM    7  C7  UNL     1     -33.786  15.382  -6.751  1.00 20.00     0.015 C 
ENDROOT
BRANCH   4   8
HETATM    8  C10 UNL     1     -34.354  17.714  -2.839  1.00 20.00     0.089 C 
HETATM    9 CL12 UNL     1     -35.037  19.263  -3.434  1.00 20.00    -0.124 Cl
BRANCH   8  10
HETATM   10  C11 UNL     1     -33.194  17.931  -1.833  1.00 20.00    -0.004 C 
HETATM   11  C8  UNL     1     -32.440  19.251  -2.022  1.00 20.00     0.011 C 
HETATM   12  C9  UNL     1     -33.669  17.809  -0.380  1.00 20.00     0.011 C 
ENDBRANCH   8  10
ENDBRANCH   4   8
TORSDOF 2
ENDMDL
MODEL 4
REMARK VINA RESULT:      -3.9     11.560     12.693
REMARK  2 active torsions:
REMARK  status: ('A' for Active; 'I' for Inactive)
REMARK    1  A    between atoms: C4_4  and  C10_10 
REMARK    2  A    between atoms: C10_10  and  C11_11 
ROOT
HETATM    1  C1  UNL     1     -33.117   5.509   2.980  1.00 20.00     0.007 C 
HETATM    2  C2  UNL     1     -33.689   4.716   4.156  1.00 20.00     0.009 C 
HETATM    3  C3  UNL     1     -33.836   7.014   4.762  1.00 20.00     0.015 C 
HETATM    4  C4  UNL     1     -33.304   6.993   3.325  1.00 20.00     0.005 C 
HETATM    5  C5  UNL     1     -34.604   5.692   4.909  1.00 20.00    -0.047 C 
HETATM    6  C6  UNL     1     -34.763   5.297   6.378  1.00 20.00     0.015 C 
HETATM    7  C7  UNL     1     -35.993   5.769   4.254  1.00 20.00     0.015 C 
ENDROOT
BRANCH   4   8
HETATM    8  C10 UNL     1     -32.030   7.808   3.160  1.00 20.00     0.089 C 
HETATM    9 CL12 UNL     1     -31.758   8.775   4.647  1.00 20.00    -0.124 Cl
BRANCH   8  10
HETATM   10  C11 UNL     1     -32.024   8.683   1.881  1.00 20.00    -0.004 C 
HETATM   11  C8  UNL     1     -32.047   7.882   0.575  1.00 20.00     0.011 C 
HETATM   12  C9  UNL     1     -33.167   9.705   1.881  1.00 20.00     0.011 C 
ENDBRANCH   8  10
ENDBRANCH   4   8
TORSDOF 2
ENDMDL
MODEL 5
REMARK VINA RESULT:      -3.6     11.720     13.609
REMARK  2 active torsions:
REMARK  status: ('A' for Active; 'I' for Inactive)
REMARK    1  A    between atoms: C4_4  and  C10_10 
REMARK    2  A    between atoms: C10_10  and  C11_11 
ROOT
HETATM    1  C1  UNL     1     -40.391  15.422   7.277  1.00 20.00     0.007 C 
HETATM    2  C2  UNL     1     -41.135  16.257   8.320  1.00 20.00     0.009 C 
HETATM    3  C3  UNL     1     -41.674  13.982   8.773  1.00 20.00     0.015 C 
HETATM    4  C4  UNL     1     -40.654  13.952   7.630  1.00 20.00     0.005 C 
HETATM    5  C5  UNL     1     -41.402  15.308   9.498  1.00 20.00    -0.047 C 
HETATM    6  C6  UNL     1     -42.612  15.756  10.320  1.00 20.00     0.015 C 
HETATM    7  C7  UNL     1     -40.174  15.209  10.419  1.00 20.00     0.015 C 
ENDROOT
BRANCH   4   8
HETATM    8  C10 UNL     1     -41.132  13.131   6.441  1.00 20.00     0.089 C 
HETATM    9 CL12 UNL     1     -42.726  12.408   6.833  1.00 20.00    -0.124 Cl
BRANCH   8  10
HETATM   10  C11 UNL     1     -40.103  12.069   5.976  1.00 20.00    -0.004 C 
HETATM   11  C8  UNL     1     -39.735  12.161   4.492  1.00 20.00     0.011 C 
HETATM   12  C9  UNL     1     -38.828  12.097   6.828  1.00 20.00     0.011 C 
ENDBRANCH   8  10
ENDBRANCH   4   8
TORSDOF 2
ENDMDL
MODEL 6
REMARK VINA RESULT:      -3.5      1.306      4.797
REMARK  2 active torsions:
REMARK  status: ('A' for Active; 'I' for Inactive)
REMARK    1  A    between atoms: C4_4  and  C10_10 
REMARK    2  A    between atoms: C10_10  and  C11_11 
ROOT
HETATM    1  C1  UNL     1     -34.539  18.380  -5.594  1.00 20.00     0.007 C 
HETATM    2  C2  UNL     1     -34.993  17.715  -6.895  1.00 20.00     0.009 C 
HETATM    3  C3  UNL     1     -35.178  16.058  -5.194  1.00 20.00     0.015 C 
HETATM    4  C4  UNL     1     -34.755  17.346  -4.480  1.00 20.00     0.005 C 
HETATM    5  C5  UNL     1     -35.884  16.538  -6.471  1.00 20.00    -0.047 C 
HETATM    6  C6  UNL     1     -35.916  15.443  -7.538  1.00 20.00     0.015 C 
HETATM    7  C7  UNL     1     -37.320  17.006  -6.182  1.00 20.00     0.015 C 
ENDROOT
BRANCH   4   8
HETATM    8  C10 UNL     1     -33.528  17.153  -3.601  1.00 20.00     0.089 C 
HETATM    9 CL12 UNL     1     -32.915  15.480  -3.813  1.00 20.00    -0.124 Cl
BRANCH   8  10
HETATM   10  C11 UNL     1     -33.779  17.503  -2.112  1.00 20.00    -0.004 C 
HETATM   11  C8  UNL     1     -32.527  17.958  -1.356  1.00 20.00     0.011 C 
HETATM   12  C9  UNL     1     -34.890  18.548  -1.950  1.00 20.00     0.011 C 
ENDBRANCH   8  10
ENDBRANCH   4   8
TORSDOF 2
ENDMDL
MODEL 7
REMARK VINA RESULT:      -3.4     12.407     13.875
REMARK  2 active torsions:
REMARK  status: ('A' for Active; 'I' for Inactive)
REMARK    1  A    between atoms: C4_4  and  C10_10 
REMARK    2  A    between atoms: C10_10  and  C11_11 
ROOT
HETATM    1  C1  UNL     1     -41.965  15.243   6.240  1.00 20.00     0.007 C 
HETATM    2  C2  UNL     1     -41.585  14.031   5.387  1.00 20.00     0.009 C 
HETATM    3  C3  UNL     1     -40.560  13.703   7.512  1.00 20.00     0.015 C 
HETATM    4  C4  UNL     1     -41.391  14.984   7.641  1.00 20.00     0.005 C 
HETATM    5  C5  UNL     1     -41.240  12.914   6.382  1.00 20.00    -0.047 C 
HETATM    6  C6  UNL     1     -40.289  11.885   5.767  1.00 20.00     0.015 C 
HETATM    7  C7  UNL     1     -42.509  12.198   6.875  1.00 20.00     0.015 C 
ENDROOT
BRANCH   4   8
HETATM    8  C10 UNL     1     -40.582  16.155   8.178  1.00 20.00     0.089 C 
HETATM    9 CL12 UNL     1     -40.225  15.871   9.913  1.00 20.00    -0.124 Cl
BRANCH   8  10
HETATM   10  C11 UNL     1     -41.258  17.529   7.935  1.00 20.00    -0.004 C 
HETATM   11  C8  UNL     1     -41.634  18.277   9.218  1.00 20.00     0.011 C 
HETATM   12  C9  UNL     1     -40.404  18.434   7.039  1.00 20.00     0.011 C 
ENDBRANCH   8  10
ENDBRANCH   4   8
TORSDOF 2
ENDMDL
MODEL 8
REMARK VINA RESULT:      -3.4      1.673      4.572
REMARK  2 active torsions:
REMARK  status: ('A' for Active; 'I' for Inactive)
REMARK    1  A    between atoms: C4_4  and  C10_10 
REMARK    2  A    between atoms: C10_10  and  C11_11 
ROOT
HETATM    1  C1  UNL     1     -35.374  15.876  -5.642  1.00 20.00     0.007 C 
HETATM    2  C2  UNL     1     -36.893  15.919  -5.469  1.00 20.00     0.009 C 
HETATM    3  C3  UNL     1     -36.046  17.901  -4.457  1.00 20.00     0.015 C 
HETATM    4  C4  UNL     1     -34.836  17.200  -5.082  1.00 20.00     0.005 C 
HETATM    5  C5  UNL     1     -37.247  17.400  -5.273  1.00 20.00    -0.047 C 
HETATM    6  C6  UNL     1     -38.558  17.570  -4.502  1.00 20.00     0.015 C 
HETATM    7  C7  UNL     1     -37.357  18.127  -6.623  1.00 20.00     0.015 C 
ENDROOT
BRANCH   4   8
HETATM    8  C10 UNL     1     -33.695  17.008  -4.094  1.00 20.00     0.089 C 
HETATM    9 CL12 UNL     1     -33.583  15.271  -3.660  1.00 20.00    -0.124 Cl
BRANCH   8  10
HETATM   10  C11 UNL     1     -33.806  17.920  -2.845  1.00 20.00    -0.004 C 
HETATM   11  C8  UNL     1     -33.612  17.186  -1.515  1.00 20.00     0.011 C 
HETATM   12  C9  UNL     1     -32.848  19.114  -2.922  1.00 20.00     0.011 C 
ENDBRANCH   8  10
ENDBRANCH   4   8
TORSDOF 2
ENDMDL
MODEL 9
REMARK VINA RESULT:      -3.3     12.264     14.132
REMARK  2 active torsions:
REMARK  status: ('A' for Active; 'I' for Inactive)
REMARK    1  A    between atoms: C4_4  and  C10_10 
REMARK    2  A    between atoms: C10_10  and  C11_11 
ROOT
HETATM    1  C1  UNL     1     -40.395  15.252   8.154  1.00 20.00     0.007 C 
HETATM    2  C2  UNL     1     -40.736  16.191   9.312  1.00 20.00     0.009 C 
HETATM    3  C3  UNL     1     -42.284  14.385   9.435  1.00 20.00     0.015 C 
HETATM    4  C4  UNL     1     -41.324  14.037   8.292  1.00 20.00     0.005 C 
HETATM    5  C5  UNL     1     -41.478  15.327  10.342  1.00 20.00    -0.047 C 
HETATM    6  C6  UNL     1     -42.396  16.170  11.229  1.00 20.00     0.015 C 
HETATM    7  C7  UNL     1     -40.491  14.551  11.230  1.00 20.00     0.015 C 
ENDROOT
BRANCH   4   8
HETATM    8  C10 UNL     1     -42.052  13.695   7.000  1.00 20.00     0.089 C 
HETATM    9 CL12 UNL     1     -42.882  12.117   7.198  1.00 20.00    -0.124 Cl
BRANCH   8  10
HETATM   10  C11 UNL     1     -41.132  13.722   5.753  1.00 20.00    -0.004 C 
HETATM   11  C8  UNL     1     -40.366  12.417   5.511  1.00 20.00     0.011 C 
HETATM   12  C9  UNL     1     -41.899  14.115   4.485  1.00 20.00     0.011 C 
ENDBRANCH   8  10
ENDBRANCH   4   8
TORSDOF 2
ENDMDL
