MODEL 1
REMARK VINA RESULT:      -4.1      0.000      0.000
REMARK  1 active torsions:
REMARK  status: ('A' for Active; 'I' for Inactive)
REMARK    1  A    between atoms: C5_5  and  O9_9 
ROOT
HETATM    1  C1  UNL     1     -22.168  19.014  10.353  1.00 20.00     0.012 C 
HETATM    2  C2  UNL     1     -22.152  18.122  11.584  1.00 20.00     0.038 C 
HETATM    3  C3  UNL     1     -23.836  17.219  10.122  1.00 20.00     0.046 C 
HETATM    4  C4  UNL     1     -22.980  18.222   9.306  1.00 20.00    -0.045 C 
HETATM    5  C5  UNL     1     -23.548  17.504  11.603  1.00 20.00     0.055 C 
HETATM    6  C6  UNL     1     -22.035  17.463   8.361  1.00 20.00     0.015 C 
HETATM    7  C7  UNL     1     -23.862  19.163   8.476  1.00 20.00     0.015 C 
HETATM    8  C8  UNL     1     -24.597  18.425  12.224  1.00 20.00     0.045 C 
ENDROOT
BRANCH   5   9
HETATM    9  O9  UNL     1     -23.535  16.283  12.332  1.00 20.00    -0.390 OA
HETATM   10  H25 UNL     1     -22.624  16.154  12.636  1.00 20.00     0.210 HD
ENDBRANCH   5   9
TORSDOF 1
ENDMDL
MODEL 2
REMARK VINA RESULT:      -3.8     15.498     16.499
REMARK  1 active torsions:
REMARK  status: ('A' for Active; 'I' for Inactive)
REMARK    1  A    between atoms: C5_5  and  O9_9 
ROOT
HETATM    1  C1  UNL     1     -32.427   6.564   3.631  1.00 20.00     0.012 C 
HETATM    2  C2  UNL     1     -33.669   5.690   3.561  1.00 20.00     0.038 C 
HETATM    3  C3  UNL     1     -34.343   7.733   4.639  1.00 20.00     0.046 C 
HETATM    4  C4  UNL     1     -32.955   7.969   3.989  1.00 20.00    -0.045 C 
HETATM    5  C5  UNL     1     -34.544   6.212   4.698  1.00 20.00     0.055 C 
HETATM    6  C6  UNL     1     -33.104   8.823   2.720  1.00 20.00     0.015 C 
HETATM    7  C7  UNL     1     -31.999   8.679   4.956  1.00 20.00     0.015 C 
HETATM    8  C8  UNL     1     -34.155   5.635   6.059  1.00 20.00     0.045 C 
ENDROOT
BRANCH   5   9
HETATM    9  O9  UNL     1     -35.908   5.899   4.451  1.00 20.00    -0.390 OA
HETATM   10  H25 UNL     1     -36.433   6.571   4.913  1.00 20.00     0.210 HD
ENDBRANCH   5   9
TORSDOF 1
ENDMDL
MODEL 3
REMARK VINA RESULT:      -3.7     15.544     16.669
REMARK  1 active torsions:
REMARK  status: ('A' for Active; 'I' for Inactive)
REMARK    1  A    between atoms: C5_5  and  O9_9 
ROOT
HETATM    1  C1  UNL     1     -33.588   5.702   3.333  1.00 20.00     0.012 C 
HETATM    2  C2  UNL     1     -32.293   6.477   3.516  1.00 20.00     0.038 C 
HETATM    3  C3  UNL     1     -33.858   7.400   5.093  1.00 20.00     0.046 C 
HETATM    4  C4  UNL     1     -34.438   6.060   4.570  1.00 20.00    -0.045 C 
HETATM    5  C5  UNL     1     -32.748   7.806   4.114  1.00 20.00     0.055 C 
HETATM    6  C6  UNL     1     -34.302   4.971   5.645  1.00 20.00     0.015 C 
HETATM    7  C7  UNL     1     -35.918   6.202   4.191  1.00 20.00     0.015 C 
HETATM    8  C8  UNL     1     -33.246   8.793   3.058  1.00 20.00     0.045 C 
ENDROOT
BRANCH   5   9
HETATM    9  O9  UNL     1     -31.679   8.415   4.827  1.00 20.00    -0.390 OA
HETATM   10  H25 UNL     1     -32.078   9.093   5.394  1.00 20.00     0.210 HD
ENDBRANCH   5   9
TORSDOF 1
ENDMDL
MODEL 4
REMARK VINA RESULT:      -3.6     17.726     18.871
REMARK  1 active torsions:
REMARK  status: ('A' for Active; 'I' for Inactive)
REMARK    1  A    between atoms: C5_5  and  O9_9 
ROOT
HETATM    1  C1  UNL     1     -33.654  16.435  -3.190  1.00 20.00     0.012 C 
HETATM    2  C2  UNL     1     -33.067  15.353  -4.083  1.00 20.00     0.038 C 
HETATM    3  C3  UNL     1     -34.419  16.740  -5.509  1.00 20.00     0.046 C 
HETATM    4  C4  UNL     1     -34.210  17.491  -4.168  1.00 20.00    -0.045 C 
HETATM    5  C5  UNL     1     -34.047  15.273  -5.250  1.00 20.00     0.055 C 
HETATM    6  C6  UNL     1     -33.196  18.631  -4.355  1.00 20.00     0.015 C 
HETATM    7  C7  UNL     1     -35.526  18.078  -3.645  1.00 20.00     0.015 C 
HETATM    8  C8  UNL     1     -35.274  14.417  -4.937  1.00 20.00     0.045 C 
ENDROOT
BRANCH   5   9
HETATM    9  O9  UNL     1     -33.404  14.732  -6.396  1.00 20.00    -0.390 OA
HETATM   10  H25 UNL     1     -32.563  15.206  -6.489  1.00 20.00     0.210 HD
ENDBRANCH   5   9
TORSDOF 1
ENDMDL
MODEL 5
REMARK VINA RESULT:      -3.6     23.516     24.459
REMARK  1 active torsions:
REMARK  status: ('A' for Active; 'I' for Inactive)
REMARK    1  A    between atoms: C5_5  and  O9_9 
ROOT
HETATM    1  C1  UNL     1     -43.131   7.277   1.263  1.00 20.00     0.012 C 
HETATM    2  C2  UNL     1     -43.143   5.894   1.893  1.00 20.00     0.038 C 
HETATM    3  C3  UNL     1     -41.330   5.898   0.311  1.00 20.00     0.046 C 
HETATM    4  C4  UNL     1     -41.773   7.367   0.537  1.00 20.00    -0.045 C 
HETATM    5  C5  UNL     1     -42.465   5.013   0.847  1.00 20.00     0.055 C 
HETATM    6  C6  UNL     1     -40.746   8.099   1.415  1.00 20.00     0.015 C 
HETATM    7  C7  UNL     1     -41.915   8.118  -0.793  1.00 20.00     0.015 C 
HETATM    8  C8  UNL     1     -43.417   4.569  -0.263  1.00 20.00     0.045 C 
ENDROOT
BRANCH   5   9
HETATM    9  O9  UNL     1     -41.919   3.852   1.460  1.00 20.00    -0.390 OA
HETATM   10  H25 UNL     1     -42.670   3.285   1.692  1.00 20.00     0.210 HD
ENDBRANCH   5   9
TORSDOF 1
ENDMDL
MODEL 6
REMARK VINA RESULT:      -3.6     15.074     16.740
REMARK  1 active torsions:
REMARK  status: ('A' for Active; 'I' for Inactive)
REMARK    1  A    between atoms: C5_5  and  O9_9 
ROOT
HETATM    1  C1  UNL     1     -33.555  17.023  -1.558  1.00 20.00     0.012 C 
HETATM    2  C2  UNL     1     -33.300  16.883  -3.050  1.00 20.00     0.038 C 
HETATM    3  C3  UNL     1     -33.092  19.227  -2.550  1.00 20.00     0.046 C 
HETATM    4  C4  UNL     1     -33.074  18.447  -1.210  1.00 20.00    -0.045 C 
HETATM    5  C5  UNL     1     -33.644  18.262  -3.609  1.00 20.00     0.055 C 
HETATM    6  C6  UNL     1     -31.645  18.404  -0.645  1.00 20.00     0.015 C 
HETATM    7  C7  UNL     1     -33.998  19.096  -0.172  1.00 20.00     0.015 C 
HETATM    8  C8  UNL     1     -35.143  18.453  -3.834  1.00 20.00     0.045 C 
ENDROOT
BRANCH   5   9
HETATM    9  O9  UNL     1     -32.974  18.472  -4.845  1.00 20.00    -0.390 OA
HETATM   10  H25 UNL     1     -32.649  19.386  -4.829  1.00 20.00     0.210 HD
ENDBRANCH   5   9
TORSDOF 1
ENDMDL
MODEL 7
REMARK VINA RESULT:      -3.5     17.247     18.689
REMARK  1 active torsions:
REMARK  status: ('A' for Active; 'I' for Inactive)
REMARK    1  A    between atoms: C5_5  and  O9_9 
ROOT
HETATM    1  C1  UNL     1     -33.134  15.273  -4.123  1.00 20.00     0.012 C 
HETATM    2  C2  UNL     1     -33.493  16.215  -2.984  1.00 20.00     0.038 C 
HETATM    3  C3  UNL     1     -35.120  16.600  -4.714  1.00 20.00     0.046 C 
HETATM    4  C4  UNL     1     -34.371  15.283  -5.045  1.00 20.00    -0.045 C 
HETATM    5  C5  UNL     1     -34.267  17.337  -3.672  1.00 20.00     0.055 C 
HETATM    6  C6  UNL     1     -35.271  14.074  -4.743  1.00 20.00     0.015 C 
HETATM    7  C7  UNL     1     -33.952  15.234  -6.519  1.00 20.00     0.015 C 
HETATM    8  C8  UNL     1     -33.354  18.382  -4.313  1.00 20.00     0.045 C 
ENDROOT
BRANCH   5   9
HETATM    9  O9  UNL     1     -35.114  17.994  -2.737  1.00 20.00    -0.390 OA
HETATM   10  H25 UNL     1     -35.893  17.429  -2.628  1.00 20.00     0.210 HD
ENDBRANCH   5   9
TORSDOF 1
ENDMDL
MODEL 8
REMARK VINA RESULT:      -3.4     18.470     19.832
REMARK  1 active torsions:
REMARK  status: ('A' for Active; 'I' for Inactive)
REMARK    1  A    between atoms: C5_5  and  O9_9 
ROOT
HETATM    1  C1  UNL     1     -35.244  16.946  -5.216  1.00 20.00     0.012 C 
HETATM    2  C2  UNL     1     -34.020  16.590  -4.388  1.00 20.00     0.038 C 
HETATM    3  C3  UNL     1     -33.934  15.197  -6.347  1.00 20.00     0.046 C 
HETATM    4  C4  UNL     1     -34.979  16.315  -6.599  1.00 20.00    -0.045 C 
HETATM    5  C5  UNL     1     -33.681  15.170  -4.833  1.00 20.00     0.055 C 
HETATM    6  C6  UNL     1     -34.406  17.365  -7.564  1.00 20.00     0.015 C 
HETATM    7  C7  UNL     1     -36.273  15.746  -7.195  1.00 20.00     0.015 C 
HETATM    8  C8  UNL     1     -34.526  14.109  -4.129  1.00 20.00     0.045 C 
ENDROOT
BRANCH   5   9
HETATM    9  O9  UNL     1     -32.310  14.890  -4.582  1.00 20.00    -0.390 OA
HETATM   10  H25 UNL     1     -31.995  15.581  -3.978  1.00 20.00     0.210 HD
ENDBRANCH   5   9
TORSDOF 1
ENDMDL
MODEL 9
REMARK VINA RESULT:      -3.3     15.522     16.475
REMARK  1 active torsions:
REMARK  status: ('A' for Active; 'I' for Inactive)
REMARK    1  A    between atoms: C5_5  and  O9_9 
ROOT
HETATM    1  C1  UNL     1     -33.631   8.094   5.267  1.00 20.00     0.012 C 
HETATM    2  C2  UNL     1     -33.964   6.742   5.878  1.00 20.00     0.038 C 
HETATM    3  C3  UNL     1     -33.363   6.316   3.588  1.00 20.00     0.046 C 
HETATM    4  C4  UNL     1     -32.921   7.760   3.938  1.00 20.00    -0.045 C 
HETATM    5  C5  UNL     1     -34.358   5.888   4.676  1.00 20.00     0.055 C 
HETATM    6  C6  UNL     1     -31.396   7.815   4.119  1.00 20.00     0.015 C 
HETATM    7  C7  UNL     1     -33.326   8.750   2.840  1.00 20.00     0.015 C 
HETATM    8  C8  UNL     1     -35.809   6.105   4.244  1.00 20.00     0.045 C 
ENDROOT
BRANCH   5   9
HETATM    9  O9  UNL     1     -34.181   4.509   4.974  1.00 20.00    -0.390 OA
HETATM   10  H25 UNL     1     -35.051   4.093   4.879  1.00 20.00     0.210 HD
ENDBRANCH   5   9
TORSDOF 1
ENDMDL
