MODEL 1
REMARK VINA RESULT:      -4.0      0.000      0.000
REMARK  3 active torsions:
REMARK  status: ('A' for Active; 'I' for Inactive)
REMARK    1  A    between atoms: C2_2  and  C8_8 
REMARK    2  A    between atoms: C6_6  and  N9_9 
REMARK    3  A    between atoms: C8_8  and  N9_9 
ROOT
HETATM    1  N9  UNL     1     -34.368  15.271  -3.781  1.00 20.00     0.094 N 
HETATM    2  H25 UNL     1     -34.420  14.448  -3.176  1.00 20.00     0.316 HD
ENDROOT
BRANCH   1   3
HETATM    3  C6  UNL     1     -34.519  14.865  -5.167  1.00 20.00     0.246 C 
HETATM    4  C3  UNL     1     -34.506  16.016  -6.149  1.00 20.00     0.064 C 
HETATM    5  C4  UNL     1     -35.152  15.382  -7.363  1.00 20.00     0.170 C 
HETATM    6  O10 UNL     1     -36.102  14.425  -6.870  1.00 20.00    -0.389 OA
HETATM    7  C5  UNL     1     -35.865  14.228  -5.467  1.00 20.00     0.203 C 
ENDBRANCH   1   3
BRANCH   1   8
HETATM    8  C8  UNL     1     -33.089  15.939  -3.563  1.00 20.00     0.303 C 
BRANCH   8   9
HETATM    9  C2  UNL     1     -33.307  17.217  -2.805  1.00 20.00    -0.066 C 
HETATM   10  C1  UNL     1     -33.615  17.215  -1.499  1.00 20.00     0.015 C 
HETATM   11  C7  UNL     1     -33.203  18.499  -3.583  1.00 20.00     0.044 C 
ENDBRANCH   8   9
ENDBRANCH   1   8
TORSDOF 3
ENDMDL
MODEL 2
REMARK VINA RESULT:      -3.9     11.667     12.638
REMARK  3 active torsions:
REMARK  status: ('A' for Active; 'I' for Inactive)
REMARK    1  A    between atoms: C2_2  and  C8_8 
REMARK    2  A    between atoms: C6_6  and  N9_9 
REMARK    3  A    between atoms: C8_8  and  N9_9 
ROOT
HETATM    1  N9  UNL     1     -32.579   7.758   5.386  1.00 20.00     0.094 N 
HETATM    2  H25 UNL     1     -32.222   8.399   6.098  1.00 20.00     0.316 HD
ENDROOT
BRANCH   1   3
HETATM    3  C6  UNL     1     -32.113   8.180   4.077  1.00 20.00     0.246 C 
HETATM    4  C3  UNL     1     -33.000   9.210   3.413  1.00 20.00     0.064 C 
HETATM    5  C4  UNL     1     -32.579   9.080   1.965  1.00 20.00     0.170 C 
HETATM    6  O10 UNL     1     -32.224   7.703   1.762  1.00 20.00    -0.389 OA
HETATM    7  C5  UNL     1     -32.120   7.066   3.045  1.00 20.00     0.203 C 
ENDBRANCH   1   3
BRANCH   1   8
HETATM    8  C8  UNL     1     -34.036   7.743   5.449  1.00 20.00     0.303 C 
BRANCH   8   9
HETATM    9  C2  UNL     1     -34.525   6.327   5.561  1.00 20.00    -0.066 C 
HETATM   10  C1  UNL     1     -34.138   5.529   6.568  1.00 20.00     0.015 C 
HETATM   11  C7  UNL     1     -35.436   5.831   4.474  1.00 20.00     0.044 C 
ENDBRANCH   8   9
ENDBRANCH   1   8
TORSDOF 3
ENDMDL
MODEL 3
REMARK VINA RESULT:      -3.8      1.642      2.309
REMARK  3 active torsions:
REMARK  status: ('A' for Active; 'I' for Inactive)
REMARK    1  A    between atoms: C2_2  and  C8_8 
REMARK    2  A    between atoms: C6_6  and  N9_9 
REMARK    3  A    between atoms: C8_8  and  N9_9 
ROOT
HETATM    1  N9  UNL     1     -33.670  16.347  -2.320  1.00 20.00     0.094 N 
HETATM    2  H25 UNL     1     -32.817  16.037  -1.849  1.00 20.00     0.316 HD
ENDROOT
BRANCH   1   3
HETATM    3  C6  UNL     1     -33.525  16.170  -3.754  1.00 20.00     0.246 C 
HETATM    4  C3  UNL     1     -34.565  16.904  -4.571  1.00 20.00     0.064 C 
HETATM    5  C4  UNL     1     -34.481  16.170  -5.893  1.00 20.00     0.170 C 
HETATM    6  O10 UNL     1     -34.147  14.808  -5.586  1.00 20.00    -0.389 OA
HETATM    7  C5  UNL     1     -33.739  14.738  -4.210  1.00 20.00     0.203 C 
ENDBRANCH   1   3
BRANCH   1   8
HETATM    8  C8  UNL     1     -33.916  17.745  -1.982  1.00 20.00     0.303 C 
BRANCH   8   9
HETATM    9  C2  UNL     1     -33.217  18.088  -0.699  1.00 20.00    -0.066 C 
HETATM   10  C1  UNL     1     -33.874  18.125   0.471  1.00 20.00     0.015 C 
HETATM   11  C7  UNL     1     -31.755  18.426  -0.786  1.00 20.00     0.044 C 
ENDBRANCH   8   9
ENDBRANCH   1   8
TORSDOF 3
ENDMDL
MODEL 4
REMARK VINA RESULT:      -3.8     11.858     12.811
REMARK  3 active torsions:
REMARK  status: ('A' for Active; 'I' for Inactive)
REMARK    1  A    between atoms: C2_2  and  C8_8 
REMARK    2  A    between atoms: C6_6  and  N9_9 
REMARK    3  A    between atoms: C8_8  and  N9_9 
ROOT
HETATM    1  N9  UNL     1     -32.990   7.936   4.420  1.00 20.00     0.094 N 
HETATM    2  H25 UNL     1     -32.316   8.043   5.181  1.00 20.00     0.316 HD
ENDROOT
BRANCH   1   3
HETATM    3  C6  UNL     1     -34.029   7.003   4.818  1.00 20.00     0.246 C 
HETATM    4  C3  UNL     1     -33.941   6.569   6.265  1.00 20.00     0.064 C 
HETATM    5  C4  UNL     1     -34.771   5.302   6.249  1.00 20.00     0.170 C 
HETATM    6  O10 UNL     1     -34.589   4.708   4.955  1.00 20.00    -0.389 OA
HETATM    7  C5  UNL     1     -33.951   5.669   4.097  1.00 20.00     0.203 C 
ENDBRANCH   1   3
BRANCH   1   8
HETATM    8  C8  UNL     1     -32.289   7.470   3.228  1.00 20.00     0.303 C 
BRANCH   8   9
HETATM    9  C2  UNL     1     -32.429   8.482   2.127  1.00 20.00    -0.066 C 
HETATM   10  C1  UNL     1     -32.979   9.686   2.347  1.00 20.00     0.015 C 
HETATM   11  C7  UNL     1     -31.962   8.072   0.759  1.00 20.00     0.044 C 
ENDBRANCH   8   9
ENDBRANCH   1   8
TORSDOF 3
ENDMDL
MODEL 5
REMARK VINA RESULT:      -3.7     11.984     12.919
REMARK  3 active torsions:
REMARK  status: ('A' for Active; 'I' for Inactive)
REMARK    1  A    between atoms: C2_2  and  C8_8 
REMARK    2  A    between atoms: C6_6  and  N9_9 
REMARK    3  A    between atoms: C8_8  and  N9_9 
ROOT
HETATM    1  N9  UNL     1     -33.718   8.352   4.667  1.00 20.00     0.094 N 
HETATM    2  H25 UNL     1     -33.938   8.967   5.454  1.00 20.00     0.316 HD
ENDROOT
BRANCH   1   3
HETATM    3  C6  UNL     1     -33.666   6.976   5.128  1.00 20.00     0.246 C 
HETATM    4  C3  UNL     1     -34.556   6.034   4.347  1.00 20.00     0.064 C 
HETATM    5  C4  UNL     1     -34.677   4.870   5.308  1.00 20.00     0.170 C 
HETATM    6  O10 UNL     1     -34.629   5.424   6.632  1.00 20.00    -0.389 OA
HETATM    7  C5  UNL     1     -34.194   6.790   6.539  1.00 20.00     0.203 C 
ENDBRANCH   1   3
BRANCH   1   8
HETATM    8  C8  UNL     1     -32.444   8.764   4.086  1.00 20.00     0.303 C 
BRANCH   8   9
HETATM    9  C2  UNL     1     -32.478   8.567   2.598  1.00 20.00    -0.066 C 
HETATM   10  C1  UNL     1     -32.071   7.420   2.032  1.00 20.00     0.015 C 
HETATM   11  C7  UNL     1     -32.952   9.725   1.766  1.00 20.00     0.044 C 
ENDBRANCH   8   9
ENDBRANCH   1   8
TORSDOF 3
ENDMDL
MODEL 6
REMARK VINA RESULT:      -3.5      2.663      4.878
REMARK  3 active torsions:
REMARK  status: ('A' for Active; 'I' for Inactive)
REMARK    1  A    between atoms: C2_2  and  C8_8 
REMARK    2  A    between atoms: C6_6  and  N9_9 
REMARK    3  A    between atoms: C8_8  and  N9_9 
ROOT
HETATM    1  N9  UNL     1     -33.284  17.546  -4.382  1.00 20.00     0.094 N 
HETATM    2  H25 UNL     1     -32.513  16.878  -4.442  1.00 20.00     0.316 HD
ENDROOT
BRANCH   1   3
HETATM    3  C6  UNL     1     -33.338  18.107  -3.044  1.00 20.00     0.246 C 
HETATM    4  C3  UNL     1     -33.230  17.076  -1.942  1.00 20.00     0.064 C 
HETATM    5  C4  UNL     1     -33.795  17.838  -0.762  1.00 20.00     0.170 C 
HETATM    6  O10 UNL     1     -34.796  18.724  -1.285  1.00 20.00    -0.389 OA
HETATM    7  C5  UNL     1     -34.668  18.762  -2.716  1.00 20.00     0.203 C 
ENDBRANCH   1   3
BRANCH   1   8
HETATM    8  C8  UNL     1     -34.529  16.865  -4.720  1.00 20.00     0.303 C 
BRANCH   8   9
HETATM    9  C2  UNL     1     -34.228  15.492  -5.251  1.00 20.00    -0.066 C 
HETATM   10  C1  UNL     1     -34.137  15.254  -6.568  1.00 20.00     0.015 C 
HETATM   11  C7  UNL     1     -34.071  14.389  -4.242  1.00 20.00     0.044 C 
ENDBRANCH   8   9
ENDBRANCH   1   8
TORSDOF 3
ENDMDL
MODEL 7
REMARK VINA RESULT:      -3.5      3.602      5.802
REMARK  3 active torsions:
REMARK  status: ('A' for Active; 'I' for Inactive)
REMARK    1  A    between atoms: C2_2  and  C8_8 
REMARK    2  A    between atoms: C6_6  and  N9_9 
REMARK    3  A    between atoms: C8_8  and  N9_9 
ROOT
HETATM    1  N9  UNL     1     -32.916  18.065  -2.559  1.00 20.00     0.094 N 
HETATM    2  H25 UNL     1     -32.018  18.123  -3.043  1.00 20.00     0.316 HD
ENDROOT
BRANCH   1   3
HETATM    3  C6  UNL     1     -32.803  18.685  -1.251  1.00 20.00     0.246 C 
HETATM    4  C3  UNL     1     -31.465  18.463  -0.580  1.00 20.00     0.064 C 
HETATM    5  C4  UNL     1     -31.802  18.759   0.866  1.00 20.00     0.170 C 
HETATM    6  O10 UNL     1     -33.163  18.348   1.064  1.00 20.00    -0.389 OA
HETATM    7  C5  UNL     1     -33.756  18.103  -0.222  1.00 20.00     0.203 C 
ENDBRANCH   1   3
BRANCH   1   8
HETATM    8  C8  UNL     1     -33.304  16.663  -2.447  1.00 20.00     0.303 C 
BRANCH   8   9
HETATM    9  C2  UNL     1     -33.651  16.122  -3.805  1.00 20.00    -0.066 C 
HETATM   10  C1  UNL     1     -33.273  14.893  -4.189  1.00 20.00     0.015 C 
HETATM   11  C7  UNL     1     -34.408  17.033  -4.730  1.00 20.00     0.044 C 
ENDBRANCH   8   9
ENDBRANCH   1   8
TORSDOF 3
ENDMDL
MODEL 8
REMARK VINA RESULT:      -3.5     11.811     12.786
REMARK  3 active torsions:
REMARK  status: ('A' for Active; 'I' for Inactive)
REMARK    1  A    between atoms: C2_2  and  C8_8 
REMARK    2  A    between atoms: C6_6  and  N9_9 
REMARK    3  A    between atoms: C8_8  and  N9_9 
ROOT
HETATM    1  N9  UNL     1     -32.796   7.701   5.342  1.00 20.00     0.094 N 
HETATM    2  H25 UNL     1     -32.336   8.524   5.737  1.00 20.00     0.316 HD
ENDROOT
BRANCH   1   3
HETATM    3  C6  UNL     1     -33.050   7.919   3.929  1.00 20.00     0.246 C 
HETATM    4  C3  UNL     1     -32.137   7.133   3.013  1.00 20.00     0.064 C 
HETATM    5  C4  UNL     1     -32.282   7.900   1.716  1.00 20.00     0.170 C 
HETATM    6  O10 UNL     1     -32.492   9.275   2.072  1.00 20.00    -0.389 OA
HETATM    7  C5  UNL     1     -32.777   9.343   3.479  1.00 20.00     0.203 C 
ENDBRANCH   1   3
BRANCH   1   8
HETATM    8  C8  UNL     1     -34.037   7.457   6.071  1.00 20.00     0.303 C 
BRANCH   8   9
HETATM    9  C2  UNL     1     -34.522   6.063   5.795  1.00 20.00    -0.066 C 
HETATM   10  C1  UNL     1     -34.148   5.026   6.561  1.00 20.00     0.015 C 
HETATM   11  C7  UNL     1     -35.414   5.873   4.601  1.00 20.00     0.044 C 
ENDBRANCH   8   9
ENDBRANCH   1   8
TORSDOF 3
ENDMDL
MODEL 9
REMARK VINA RESULT:      -3.5     11.438     12.810
REMARK  3 active torsions:
REMARK  status: ('A' for Active; 'I' for Inactive)
REMARK    1  A    between atoms: C2_2  and  C8_8 
REMARK    2  A    between atoms: C6_6  and  N9_9 
REMARK    3  A    between atoms: C8_8  and  N9_9 
ROOT
HETATM    1  N9  UNL     1     -39.673  13.252   7.380  1.00 20.00     0.094 N 
HETATM    2  H25 UNL     1     -38.874  13.879   7.263  1.00 20.00     0.316 HD
ENDROOT
BRANCH   1   3
HETATM    3  C6  UNL     1     -39.818  12.424   6.196  1.00 20.00     0.246 C 
HETATM    4  C3  UNL     1     -38.507  12.088   5.519  1.00 20.00     0.064 C 
HETATM    5  C4  UNL     1     -38.978  11.685   4.138  1.00 20.00     0.170 C 
HETATM    6  O10 UNL     1     -40.142  12.476   3.853  1.00 20.00    -0.389 OA
HETATM    7  C5  UNL     1     -40.573  13.107   5.069  1.00 20.00     0.203 C 
ENDBRANCH   1   3
BRANCH   1   8
HETATM    8  C8  UNL     1     -40.871  14.052   7.615  1.00 20.00     0.303 C 
BRANCH   8   9
HETATM    9  C2  UNL     1     -40.507  15.306   8.357  1.00 20.00    -0.066 C 
HETATM   10  C1  UNL     1     -40.127  15.274   9.644  1.00 20.00     0.015 C 
HETATM   11  C7  UNL     1     -40.624  16.602   7.607  1.00 20.00     0.044 C 
ENDBRANCH   8   9
ENDBRANCH   1   8
TORSDOF 3
ENDMDL
