MODEL 1
REMARK VINA RESULT:      -3.6      0.000      0.000
REMARK  1 active torsions:
REMARK  status: ('A' for Active; 'I' for Inactive)
REMARK    1  A    between atoms: C7_7  and  N8_8 
ROOT
HETATM    1  C1  UNL     1     -32.621   5.858   2.462  1.00 20.00     0.048 C 
HETATM    2  C2  UNL     1     -33.735   5.586   3.466  1.00 20.00     0.274 C 
HETATM    3  C3  UNL     1     -32.932   7.691   4.025  1.00 20.00     0.288 C 
HETATM    4  C4  UNL     1     -32.118   7.254   2.816  1.00 20.00     0.087 C 
HETATM    5  N8  UNL     1     -33.346   6.413   4.609  1.00 20.00     0.093 N 
HETATM    6 BR9  UNL     1     -32.356   8.491   1.340  1.00 20.00    -0.089 Br
ENDROOT
BRANCH   5   7
HETATM    7  C7  UNL     1     -34.424   6.565   5.575  1.00 20.00     0.215 C 
HETATM    8  C5  UNL     1     -34.013   7.588   6.624  1.00 20.00     0.042 C 
HETATM    9  C6  UNL     1     -34.723   5.209   6.197  1.00 20.00     0.042 C 
ENDBRANCH   5   7
TORSDOF 1
ENDMDL
MODEL 2
REMARK VINA RESULT:      -3.4     12.245     13.149
REMARK  1 active torsions:
REMARK  status: ('A' for Active; 'I' for Inactive)
REMARK    1  A    between atoms: C7_7  and  N8_8 
ROOT
HETATM    1  C1  UNL     1     -33.559  18.412   0.685  1.00 20.00     0.048 C 
HETATM    2  C2  UNL     1     -33.867  17.747  -0.651  1.00 20.00     0.274 C 
HETATM    3  C3  UNL     1     -31.834  18.822  -0.975  1.00 20.00     0.288 C 
HETATM    4  C4  UNL     1     -32.210  19.092   0.474  1.00 20.00     0.087 C 
HETATM    5  N8  UNL     1     -33.137  18.586  -1.603  1.00 20.00     0.093 N 
HETATM    6 BR9  UNL     1     -30.863  18.385   1.679  1.00 20.00    -0.089 Br
ENDROOT
BRANCH   5   7
HETATM    7  C7  UNL     1     -33.019  17.963  -2.913  1.00 20.00     0.215 C 
HETATM    8  C5  UNL     1     -33.955  18.666  -3.885  1.00 20.00     0.042 C 
HETATM    9  C6  UNL     1     -33.346  16.483  -2.787  1.00 20.00     0.042 C 
ENDBRANCH   5   7
TORSDOF 1
ENDMDL
MODEL 3
REMARK VINA RESULT:      -3.4     12.174     12.922
REMARK  1 active torsions:
REMARK  status: ('A' for Active; 'I' for Inactive)
REMARK    1  A    between atoms: C7_7  and  N8_8 
ROOT
HETATM    1  C1  UNL     1     -33.373  15.083  -4.522  1.00 20.00     0.048 C 
HETATM    2  C2  UNL     1     -33.291  15.887  -3.231  1.00 20.00     0.274 C 
HETATM    3  C3  UNL     1     -34.770  17.068  -4.574  1.00 20.00     0.288 C 
HETATM    4  C4  UNL     1     -34.367  15.848  -5.389  1.00 20.00     0.087 C 
HETATM    5  N8  UNL     1     -33.628  17.240  -3.673  1.00 20.00     0.093 N 
HETATM    6 BR9  UNL     1     -35.919  14.763  -5.818  1.00 20.00    -0.089 Br
ENDROOT
BRANCH   5   7
HETATM    7  C7  UNL     1     -33.926  18.129  -2.560  1.00 20.00     0.215 C 
HETATM    8  C5  UNL     1     -33.668  17.396  -1.252  1.00 20.00     0.042 C 
HETATM    9  C6  UNL     1     -35.372  18.590  -2.671  1.00 20.00     0.042 C 
ENDBRANCH   5   7
TORSDOF 1
ENDMDL
MODEL 4
REMARK VINA RESULT:      -3.3     12.393     13.107
REMARK  1 active torsions:
REMARK  status: ('A' for Active; 'I' for Inactive)
REMARK    1  A    between atoms: C7_7  and  N8_8 
ROOT
HETATM    1  C1  UNL     1     -33.626  16.457  -3.647  1.00 20.00     0.048 C 
HETATM    2  C2  UNL     1     -33.328  16.743  -2.181  1.00 20.00     0.274 C 
HETATM    3  C3  UNL     1     -33.631  18.833  -3.145  1.00 20.00     0.288 C 
HETATM    4  C4  UNL     1     -33.853  17.831  -4.269  1.00 20.00     0.087 C 
HETATM    5  N8  UNL     1     -32.764  18.092  -2.226  1.00 20.00     0.093 N 
HETATM    6 BR9  UNL     1     -35.645  17.995  -4.995  1.00 20.00    -0.089 Br
ENDROOT
BRANCH   5   7
HETATM    7  C7  UNL     1     -32.694  18.708  -0.909  1.00 20.00     0.215 C 
HETATM    8  C5  UNL     1     -31.293  18.523  -0.345  1.00 20.00     0.042 C 
HETATM    9  C6  UNL     1     -33.750  18.076  -0.013  1.00 20.00     0.042 C 
ENDBRANCH   5   7
TORSDOF 1
ENDMDL
MODEL 5
REMARK VINA RESULT:      -3.3     12.392     13.488
REMARK  1 active torsions:
REMARK  status: ('A' for Active; 'I' for Inactive)
REMARK    1  A    between atoms: C7_7  and  N8_8 
ROOT
HETATM    1  C1  UNL     1     -33.288  16.481  -2.759  1.00 20.00     0.048 C 
HETATM    2  C2  UNL     1     -33.290  15.465  -3.894  1.00 20.00     0.274 C 
HETATM    3  C3  UNL     1     -34.450  17.294  -4.731  1.00 20.00     0.288 C 
HETATM    4  C4  UNL     1     -34.025  17.690  -3.324  1.00 20.00     0.087 C 
HETATM    5  N8  UNL     1     -34.487  15.832  -4.651  1.00 20.00     0.093 N 
HETATM    6 BR9  UNL     1     -32.887  19.262  -3.365  1.00 20.00    -0.089 Br
ENDROOT
BRANCH   5   7
HETATM    7  C7  UNL     1     -34.528  15.204  -5.963  1.00 20.00     0.215 C 
HETATM    8  C5  UNL     1     -34.317  16.267  -7.032  1.00 20.00     0.042 C 
HETATM    9  C6  UNL     1     -35.865  14.496  -6.129  1.00 20.00     0.042 C 
ENDBRANCH   5   7
TORSDOF 1
ENDMDL
MODEL 6
REMARK VINA RESULT:      -3.3     11.966     13.280
REMARK  1 active torsions:
REMARK  status: ('A' for Active; 'I' for Inactive)
REMARK    1  A    between atoms: C7_7  and  N8_8 
ROOT
HETATM    1  C1  UNL     1     -34.418  18.670  -3.434  1.00 20.00     0.048 C 
HETATM    2  C2  UNL     1     -35.127  17.650  -4.317  1.00 20.00     0.274 C 
HETATM    3  C3  UNL     1     -33.443  16.452  -3.258  1.00 20.00     0.288 C 
HETATM    4  C4  UNL     1     -33.332  17.870  -2.720  1.00 20.00     0.087 C 
HETATM    5  N8  UNL     1     -34.082  16.655  -4.561  1.00 20.00     0.093 N 
HETATM    6 BR9  UNL     1     -33.580  17.899  -0.795  1.00 20.00    -0.089 Br
ENDROOT
BRANCH   5   7
HETATM    7  C7  UNL     1     -34.611  15.421  -5.121  1.00 20.00     0.215 C 
HETATM    8  C5  UNL     1     -34.227  14.258  -4.217  1.00 20.00     0.042 C 
HETATM    9  C6  UNL     1     -34.064  15.244  -6.529  1.00 20.00     0.042 C 
ENDBRANCH   5   7
TORSDOF 1
ENDMDL
MODEL 7
REMARK VINA RESULT:      -3.2      2.533      3.778
REMARK  1 active torsions:
REMARK  status: ('A' for Active; 'I' for Inactive)
REMARK    1  A    between atoms: C7_7  and  N8_8 
ROOT
HETATM    1  C1  UNL     1     -34.074   4.714   3.815  1.00 20.00     0.048 C 
HETATM    2  C2  UNL     1     -32.866   5.396   3.186  1.00 20.00     0.274 C 
HETATM    3  C3  UNL     1     -33.811   7.011   4.560  1.00 20.00     0.288 C 
HETATM    4  C4  UNL     1     -34.673   5.770   4.738  1.00 20.00     0.087 C 
HETATM    5  N8  UNL     1     -33.238   6.810   3.227  1.00 20.00     0.093 N 
HETATM    6 BR9  UNL     1     -34.664   5.185   6.589  1.00 20.00    -0.089 Br
ENDROOT
BRANCH   5   7
HETATM    7  C7  UNL     1     -32.106   7.689   2.969  1.00 20.00     0.215 C 
HETATM    8  C5  UNL     1     -32.108   8.818   3.990  1.00 20.00     0.042 C 
HETATM    9  C6  UNL     1     -32.207   8.217   1.545  1.00 20.00     0.042 C 
ENDBRANCH   5   7
TORSDOF 1
ENDMDL
MODEL 8
REMARK VINA RESULT:      -3.2     11.972     13.240
REMARK  1 active torsions:
REMARK  status: ('A' for Active; 'I' for Inactive)
REMARK    1  A    between atoms: C7_7  and  N8_8 
ROOT
HETATM    1  C1  UNL     1     -34.350  18.099  -4.139  1.00 20.00     0.048 C 
HETATM    2  C2  UNL     1     -35.104  17.090  -4.995  1.00 20.00     0.274 C 
HETATM    3  C3  UNL     1     -33.497  15.840  -3.878  1.00 20.00     0.288 C 
HETATM    4  C4  UNL     1     -33.316  17.268  -3.386  1.00 20.00     0.087 C 
HETATM    5  N8  UNL     1     -34.111  16.033  -5.194  1.00 20.00     0.093 N 
HETATM    6 BR9  UNL     1     -33.579  17.375  -1.466  1.00 20.00    -0.089 Br
ENDROOT
BRANCH   5   7
HETATM    7  C7  UNL     1     -34.701  14.810  -5.718  1.00 20.00     0.215 C 
HETATM    8  C5  UNL     1     -35.760  15.169  -6.750  1.00 20.00     0.042 C 
HETATM    9  C6  UNL     1     -35.288  14.012  -4.563  1.00 20.00     0.042 C 
ENDBRANCH   5   7
TORSDOF 1
ENDMDL
MODEL 9
REMARK VINA RESULT:      -3.1     12.423     13.624
REMARK  1 active torsions:
REMARK  status: ('A' for Active; 'I' for Inactive)
REMARK    1  A    between atoms: C7_7  and  N8_8 
ROOT
HETATM    1  C1  UNL     1     -33.371  16.406  -2.729  1.00 20.00     0.048 C 
HETATM    2  C2  UNL     1     -33.533  15.787  -4.111  1.00 20.00     0.274 C 
HETATM    3  C3  UNL     1     -34.590  17.850  -4.256  1.00 20.00     0.288 C 
HETATM    4  C4  UNL     1     -34.042  17.772  -2.838  1.00 20.00     0.087 C 
HETATM    5  N8  UNL     1     -34.743  16.438  -4.615  1.00 20.00     0.093 N 
HETATM    6 BR9  UNL     1     -32.782  19.211  -2.506  1.00 20.00    -0.089 Br
ENDROOT
BRANCH   5   7
HETATM    7  C7  UNL     1     -34.923  16.244  -6.046  1.00 20.00     0.215 C 
HETATM    8  C5  UNL     1     -36.381  15.911  -6.325  1.00 20.00     0.042 C 
HETATM    9  C6  UNL     1     -33.992  15.134  -6.513  1.00 20.00     0.042 C 
ENDBRANCH   5   7
TORSDOF 1
ENDMDL
