MODEL 1
REMARK VINA RESULT:      -4.8      0.000      0.000
REMARK  1 active torsions:
REMARK  status: ('A' for Active; 'I' for Inactive)
REMARK    1  A    between atoms: C4_4  and  C8_8 
ROOT
HETATM    1  C1  UNL     1     -33.519   7.142   6.467  1.00 20.00     0.006 C 
HETATM    2  C2  UNL     1     -34.533   6.015   6.309  1.00 20.00     0.009 C 
HETATM    3  C3  UNL     1     -33.675   6.754   4.129  1.00 20.00     0.014 C 
HETATM    4  C4  UNL     1     -33.607   7.893   5.145  1.00 20.00     0.000 C 
HETATM    5  C5  UNL     1     -34.565   5.683   4.797  1.00 20.00    -0.047 C 
HETATM    6  C6  UNL     1     -34.012   4.279   4.528  1.00 20.00     0.015 C 
HETATM    7  C7  UNL     1     -36.003   5.765   4.264  1.00 20.00     0.015 C 
ENDROOT
BRANCH   4   8
HETATM    8  C8  UNL     1     -32.438   8.834   4.913  1.00 20.00     0.119 C 
HETATM    9 CL9  UNL     1     -32.241   9.160   3.178  1.00 20.00    -0.130 Cl
ENDBRANCH   4   8
TORSDOF 1
ENDMDL
MODEL 2
REMARK VINA RESULT:      -4.5      1.055      2.053
REMARK  1 active torsions:
REMARK  status: ('A' for Active; 'I' for Inactive)
REMARK    1  A    between atoms: C4_4  and  C8_8 
ROOT
HETATM    1  C1  UNL     1     -32.724   6.586   3.165  1.00 20.00     0.006 C 
HETATM    2  C2  UNL     1     -33.533   5.418   3.719  1.00 20.00     0.009 C 
HETATM    3  C3  UNL     1     -34.117   7.520   4.848  1.00 20.00     0.014 C 
HETATM    4  C4  UNL     1     -32.683   7.575   4.323  1.00 20.00     0.000 C 
HETATM    5  C5  UNL     1     -34.518   6.032   4.744  1.00 20.00    -0.047 C 
HETATM    6  C6  UNL     1     -35.968   5.897   4.265  1.00 20.00     0.015 C 
HETATM    7  C7  UNL     1     -34.373   5.336   6.105  1.00 20.00     0.015 C 
ENDROOT
BRANCH   4   8
HETATM    8  C8  UNL     1     -32.253   8.970   3.903  1.00 20.00     0.119 C 
HETATM    9 CL9  UNL     1     -32.729   9.283   2.221  1.00 20.00    -0.130 Cl
ENDBRANCH   4   8
TORSDOF 1
ENDMDL
MODEL 3
REMARK VINA RESULT:      -3.8     12.366     12.980
REMARK  1 active torsions:
REMARK  status: ('A' for Active; 'I' for Inactive)
REMARK    1  A    between atoms: C4_4  and  C8_8 
ROOT
HETATM    1  C1  UNL     1     -33.211  18.485   0.830  1.00 20.00     0.006 C 
HETATM    2  C2  UNL     1     -34.015  18.507  -0.466  1.00 20.00     0.009 C 
HETATM    3  C3  UNL     1     -31.627  18.131  -0.904  1.00 20.00     0.014 C 
HETATM    4  C4  UNL     1     -31.816  18.914   0.394  1.00 20.00     0.000 C 
HETATM    5  C5  UNL     1     -33.009  18.173  -1.595  1.00 20.00    -0.047 C 
HETATM    6  C6  UNL     1     -33.330  16.819  -2.239  1.00 20.00     0.015 C 
HETATM    7  C7  UNL     1     -33.040  19.262  -2.676  1.00 20.00     0.015 C 
ENDROOT
BRANCH   4   8
HETATM    8  C8  UNL     1     -30.748  18.617   1.432  1.00 20.00     0.119 C 
HETATM    9 CL9  UNL     1     -31.393  18.860   3.069  1.00 20.00    -0.130 Cl
ENDBRANCH   4   8
TORSDOF 1
ENDMDL
MODEL 4
REMARK VINA RESULT:      -3.7      2.234      3.979
REMARK  1 active torsions:
REMARK  status: ('A' for Active; 'I' for Inactive)
REMARK    1  A    between atoms: C4_4  and  C8_8 
ROOT
HETATM    1  C1  UNL     1     -32.783   5.795   3.370  1.00 20.00     0.006 C 
HETATM    2  C2  UNL     1     -32.188   7.134   2.952  1.00 20.00     0.009 C 
HETATM    3  C3  UNL     1     -33.846   7.417   4.742  1.00 20.00     0.014 C 
HETATM    4  C4  UNL     1     -34.155   6.167   3.919  1.00 20.00     0.000 C 
HETATM    5  C5  UNL     1     -32.797   8.187   3.910  1.00 20.00    -0.047 C 
HETATM    6  C6  UNL     1     -31.723   8.790   4.822  1.00 20.00     0.015 C 
HETATM    7  C7  UNL     1     -33.464   9.315   3.108  1.00 20.00     0.015 C 
ENDROOT
BRANCH   4   8
HETATM    8  C8  UNL     1     -34.793   5.056   4.734  1.00 20.00     0.119 C 
HETATM    9 CL9  UNL     1     -34.693   5.426   6.468  1.00 20.00    -0.130 Cl
ENDBRANCH   4   8
TORSDOF 1
ENDMDL
MODEL 5
REMARK VINA RESULT:      -3.5     12.437     13.378
REMARK  1 active torsions:
REMARK  status: ('A' for Active; 'I' for Inactive)
REMARK    1  A    between atoms: C4_4  and  C8_8 
ROOT
HETATM    1  C1  UNL     1     -33.035  15.497  -3.827  1.00 20.00     0.006 C 
HETATM    2  C2  UNL     1     -33.830  14.590  -4.760  1.00 20.00     0.009 C 
HETATM    3  C3  UNL     1     -34.424  16.951  -5.092  1.00 20.00     0.014 C 
HETATM    4  C4  UNL     1     -33.931  16.719  -3.665  1.00 20.00     0.000 C 
HETATM    5  C5  UNL     1     -34.662  15.534  -5.662  1.00 20.00    -0.047 C 
HETATM    6  C6  UNL     1     -34.199  15.455  -7.121  1.00 20.00     0.015 C 
HETATM    7  C7  UNL     1     -36.151  15.166  -5.589  1.00 20.00     0.015 C 
ENDROOT
BRANCH   4   8
HETATM    8  C8  UNL     1     -33.205  17.918  -3.080  1.00 20.00     0.119 C 
HETATM    9 CL9  UNL     1     -32.922  17.682  -1.343  1.00 20.00    -0.130 Cl
ENDBRANCH   4   8
TORSDOF 1
ENDMDL
MODEL 6
REMARK VINA RESULT:      -3.5      9.470     10.277
REMARK  1 active torsions:
REMARK  status: ('A' for Active; 'I' for Inactive)
REMARK    1  A    between atoms: C4_4  and  C8_8 
ROOT
HETATM    1  C1  UNL     1     -41.051  13.305   4.959  1.00 20.00     0.006 C 
HETATM    2  C2  UNL     1     -42.166  14.094   5.635  1.00 20.00     0.009 C 
HETATM    3  C3  UNL     1     -40.349  13.593   7.210  1.00 20.00     0.014 C 
HETATM    4  C4  UNL     1     -40.407  12.537   6.107  1.00 20.00     0.000 C 
HETATM    5  C5  UNL     1     -41.673  14.378   7.075  1.00 20.00    -0.047 C 
HETATM    6  C6  UNL     1     -41.435  15.877   7.292  1.00 20.00     0.015 C 
HETATM    7  C7  UNL     1     -42.703  13.881   8.099  1.00 20.00     0.015 C 
ENDROOT
BRANCH   4   8
HETATM    8  C8  UNL     1     -39.046  11.965   5.754  1.00 20.00     0.119 C 
HETATM    9 CL9  UNL     1     -38.947  11.633   4.012  1.00 20.00    -0.130 Cl
ENDBRANCH   4   8
TORSDOF 1
ENDMDL
MODEL 7
REMARK VINA RESULT:      -3.4     12.469     13.412
REMARK  1 active torsions:
REMARK  status: ('A' for Active; 'I' for Inactive)
REMARK    1  A    between atoms: C4_4  and  C8_8 
ROOT
HETATM    1  C1  UNL     1     -34.852  17.488  -4.080  1.00 20.00     0.006 C 
HETATM    2  C2  UNL     1     -35.247  16.897  -5.429  1.00 20.00     0.009 C 
HETATM    3  C3  UNL     1     -33.962  15.285  -4.093  1.00 20.00     0.014 C 
HETATM    4  C4  UNL     1     -33.593  16.716  -3.706  1.00 20.00     0.000 C 
HETATM    5  C5  UNL     1     -34.763  15.426  -5.407  1.00 20.00    -0.047 C 
HETATM    6  C6  UNL     1     -35.948  14.454  -5.423  1.00 20.00     0.015 C 
HETATM    7  C7  UNL     1     -33.866  15.143  -6.621  1.00 20.00     0.015 C 
ENDROOT
BRANCH   4   8
HETATM    8  C8  UNL     1     -33.216  16.861  -2.242  1.00 20.00     0.119 C 
HETATM    9 CL9  UNL     1     -32.525  18.468  -1.937  1.00 20.00    -0.130 Cl
ENDBRANCH   4   8
TORSDOF 1
ENDMDL
MODEL 8
REMARK VINA RESULT:      -3.4     12.234     13.670
REMARK  1 active torsions:
REMARK  status: ('A' for Active; 'I' for Inactive)
REMARK    1  A    between atoms: C4_4  and  C8_8 
ROOT
HETATM    1  C1  UNL     1     -33.738  15.336  -3.633  1.00 20.00     0.006 C 
HETATM    2  C2  UNL     1     -33.215  16.568  -2.903  1.00 20.00     0.009 C 
HETATM    3  C3  UNL     1     -34.888  17.179  -4.596  1.00 20.00     0.014 C 
HETATM    4  C4  UNL     1     -34.182  15.881  -4.985  1.00 20.00     0.000 C 
HETATM    5  C5  UNL     1     -34.033  17.764  -3.450  1.00 20.00    -0.047 C 
HETATM    6  C6  UNL     1     -34.930  18.364  -2.361  1.00 20.00     0.015 C 
HETATM    7  C7  UNL     1     -33.092  18.855  -3.980  1.00 20.00     0.015 C 
ENDROOT
BRANCH   4   8
HETATM    8  C8  UNL     1     -35.074  14.921  -5.753  1.00 20.00     0.119 C 
HETATM    9 CL9  UNL     1     -35.816  13.748  -4.646  1.00 20.00    -0.130 Cl
ENDBRANCH   4   8
TORSDOF 1
ENDMDL
MODEL 9
REMARK VINA RESULT:      -3.1      2.158      3.733
REMARK  1 active torsions:
REMARK  status: ('A' for Active; 'I' for Inactive)
REMARK    1  A    between atoms: C4_4  and  C8_8 
ROOT
HETATM    1  C1  UNL     1     -33.715   8.207   5.892  1.00 20.00     0.006 C 
HETATM    2  C2  UNL     1     -32.628   8.915   5.091  1.00 20.00     0.009 C 
HETATM    3  C3  UNL     1     -33.412   6.893   3.936  1.00 20.00     0.014 C 
HETATM    4  C4  UNL     1     -33.602   6.755   5.446  1.00 20.00     0.000 C 
HETATM    5  C5  UNL     1     -32.495   8.125   3.765  1.00 20.00    -0.047 C 
HETATM    6  C6  UNL     1     -32.948   8.972   2.570  1.00 20.00     0.015 C 
HETATM    7  C7  UNL     1     -31.039   7.690   3.548  1.00 20.00     0.015 C 
ENDROOT
BRANCH   4   8
HETATM    8  C8  UNL     1     -34.812   5.918   5.822  1.00 20.00     0.119 C 
HETATM    9 CL9  UNL     1     -35.849   5.657   4.405  1.00 20.00    -0.130 Cl
ENDBRANCH   4   8
TORSDOF 1
ENDMDL
