MODEL 1
REMARK VINA RESULT:      -3.9      0.000      0.000
REMARK  0 active torsions:
REMARK  status: ('A' for Active; 'I' for Inactive)
ROOT
HETATM    1  C1  UNL     1     -32.102   7.849   2.187  1.00 20.00     0.064 C 
HETATM    2  C2  UNL     1     -32.983   8.538   4.413  1.00 20.00     0.020 C 
HETATM    3  C3  UNL     1     -34.327   7.987   4.884  1.00 20.00     0.010 C 
HETATM    4  C4  UNL     1     -33.304   6.234   3.641  1.00 20.00     0.027 C 
HETATM    5  C5  UNL     1     -32.337   7.426   3.573  1.00 20.00     0.093 C 
HETATM    6  C6  UNL     1     -34.145   6.465   4.906  1.00 20.00    -0.046 C 
HETATM    7  C7  UNL     1     -33.392   6.007   6.167  1.00 20.00     0.015 C 
HETATM    8  C8  UNL     1     -35.489   5.737   4.832  1.00 20.00     0.015 C 
HETATM    9  N9  UNL     1     -31.916   8.184   1.092  1.00 20.00    -0.197 NA
ENDROOT
TORSDOF 0
ENDMDL
MODEL 2
REMARK VINA RESULT:      -3.9     11.321     12.377
REMARK  0 active torsions:
REMARK  status: ('A' for Active; 'I' for Inactive)
ROOT
HETATM    1  C1  UNL     1     -33.877  15.086  -3.938  1.00 20.00     0.064 C 
HETATM    2  C2  UNL     1     -34.463  17.499  -4.135  1.00 20.00     0.020 C 
HETATM    3  C3  UNL     1     -34.887  18.266  -2.884  1.00 20.00     0.010 C 
HETATM    4  C4  UNL     1     -33.242  16.703  -2.164  1.00 20.00     0.027 C 
HETATM    5  C5  UNL     1     -33.433  16.459  -3.668  1.00 20.00     0.093 C 
HETATM    6  C6  UNL     1     -33.693  18.153  -1.927  1.00 20.00    -0.046 C 
HETATM    7  C7  UNL     1     -32.582  19.150  -2.295  1.00 20.00     0.015 C 
HETATM    8  C8  UNL     1     -34.114  18.384  -0.474  1.00 20.00     0.015 C 
HETATM    9  N9  UNL     1     -34.229  14.001  -4.151  1.00 20.00    -0.197 NA
ENDROOT
TORSDOF 0
ENDMDL
MODEL 3
REMARK VINA RESULT:      -3.8     11.154     12.630
REMARK  0 active torsions:
REMARK  status: ('A' for Active; 'I' for Inactive)
ROOT
HETATM    1  C1  UNL     1     -33.497  16.626  -2.591  1.00 20.00     0.064 C 
HETATM    2  C2  UNL     1     -33.772  14.568  -3.967  1.00 20.00     0.020 C 
HETATM    3  C3  UNL     1     -35.035  14.400  -4.810  1.00 20.00     0.010 C 
HETATM    4  C4  UNL     1     -34.532  16.726  -4.846  1.00 20.00     0.027 C 
HETATM    5  C5  UNL     1     -33.468  16.074  -3.951  1.00 20.00     0.093 C 
HETATM    6  C6  UNL     1     -35.037  15.601  -5.764  1.00 20.00    -0.046 C 
HETATM    7  C7  UNL     1     -34.083  15.379  -6.950  1.00 20.00     0.015 C 
HETATM    8  C8  UNL     1     -36.441  15.893  -6.296  1.00 20.00     0.015 C 
HETATM    9  N9  UNL     1     -33.520  17.062  -1.516  1.00 20.00    -0.197 NA
ENDROOT
TORSDOF 0
ENDMDL
MODEL 4
REMARK VINA RESULT:      -3.8      1.772      2.578
REMARK  0 active torsions:
REMARK  status: ('A' for Active; 'I' for Inactive)
ROOT
HETATM    1  C1  UNL     1     -32.448   8.961   4.873  1.00 20.00     0.064 C 
HETATM    2  C2  UNL     1     -33.039   7.028   3.418  1.00 20.00     0.020 C 
HETATM    3  C3  UNL     1     -33.291   5.664   4.059  1.00 20.00     0.010 C 
HETATM    4  C4  UNL     1     -34.116   7.273   5.607  1.00 20.00     0.027 C 
HETATM    5  C5  UNL     1     -33.530   8.071   4.432  1.00 20.00     0.093 C 
HETATM    6  C6  UNL     1     -34.458   5.892   5.027  1.00 20.00    -0.046 C 
HETATM    7  C7  UNL     1     -35.806   5.916   4.288  1.00 20.00     0.015 C 
HETATM    8  C8  UNL     1     -34.502   4.818   6.117  1.00 20.00     0.015 C 
HETATM    9  N9  UNL     1     -31.592   9.664   5.221  1.00 20.00    -0.197 NA
ENDROOT
TORSDOF 0
ENDMDL
MODEL 5
REMARK VINA RESULT:      -3.8     15.156     16.097
REMARK  0 active torsions:
REMARK  status: ('A' for Active; 'I' for Inactive)
ROOT
HETATM    1  C1  UNL     1     -26.986  18.446  12.309  1.00 20.00     0.064 C 
HETATM    2  C2  UNL     1     -25.066  16.859  12.332  1.00 20.00     0.020 C 
HETATM    3  C3  UNL     1     -24.240  16.672  11.060  1.00 20.00     0.010 C 
HETATM    4  C4  UNL     1     -24.887  18.963  11.086  1.00 20.00     0.027 C 
HETATM    5  C5  UNL     1     -25.523  18.325  12.331  1.00 20.00     0.093 C 
HETATM    6  C6  UNL     1     -23.688  18.067  10.738  1.00 20.00    -0.046 C 
HETATM    7  C7  UNL     1     -22.468  18.403  11.612  1.00 20.00     0.015 C 
HETATM    8  C8  UNL     1     -23.300  18.191   9.264  1.00 20.00     0.015 C 
HETATM    9  N9  UNL     1     -28.143  18.541  12.292  1.00 20.00    -0.197 NA
ENDROOT
TORSDOF 0
ENDMDL
MODEL 6
REMARK VINA RESULT:      -3.4      9.172     10.688
REMARK  0 active torsions:
REMARK  status: ('A' for Active; 'I' for Inactive)
ROOT
HETATM    1  C1  UNL     1     -43.197   4.165  -1.892  1.00 20.00     0.064 C 
HETATM    2  C2  UNL     1     -43.091   4.271   0.595  1.00 20.00     0.020 C 
HETATM    3  C3  UNL     1     -41.965   5.061   1.258  1.00 20.00     0.010 C 
HETATM    4  C4  UNL     1     -42.511   6.250  -0.730  1.00 20.00     0.027 C 
HETATM    5  C5  UNL     1     -43.417   5.010  -0.711  1.00 20.00     0.093 C 
HETATM    6  C6  UNL     1     -42.127   6.494   0.738  1.00 20.00    -0.046 C 
HETATM    7  C7  UNL     1     -43.242   7.242   1.489  1.00 20.00     0.015 C 
HETATM    8  C8  UNL     1     -40.824   7.286   0.856  1.00 20.00     0.015 C 
HETATM    9  N9  UNL     1     -43.023   3.497  -2.825  1.00 20.00    -0.197 NA
ENDROOT
TORSDOF 0
ENDMDL
MODEL 7
REMARK VINA RESULT:      -3.3     10.197     11.544
REMARK  0 active torsions:
REMARK  status: ('A' for Active; 'I' for Inactive)
ROOT
HETATM    1  C1  UNL     1     -43.046  12.888   8.983  1.00 20.00     0.064 C 
HETATM    2  C2  UNL     1     -41.624  14.557   7.799  1.00 20.00     0.020 C 
HETATM    3  C3  UNL     1     -40.456  14.066   6.946  1.00 20.00     0.010 C 
HETATM    4  C4  UNL     1     -42.170  12.432   6.705  1.00 20.00     0.027 C 
HETATM    5  C5  UNL     1     -42.717  13.484   7.682  1.00 20.00     0.093 C 
HETATM    6  C6  UNL     1     -41.094  13.161   5.885  1.00 20.00    -0.046 C 
HETATM    7  C7  UNL     1     -41.721  13.984   4.747  1.00 20.00     0.015 C 
HETATM    8  C8  UNL     1     -40.075  12.184   5.294  1.00 20.00     0.015 C 
HETATM    9  N9  UNL     1     -43.306  12.418  10.012  1.00 20.00    -0.197 NA
ENDROOT
TORSDOF 0
ENDMDL
MODEL 8
REMARK VINA RESULT:      -3.3      9.213     10.459
REMARK  0 active torsions:
REMARK  status: ('A' for Active; 'I' for Inactive)
ROOT
HETATM    1  C1  UNL     1     -39.694  12.078   4.829  1.00 20.00     0.064 C 
HETATM    2  C2  UNL     1     -40.080  13.142   7.048  1.00 20.00     0.020 C 
HETATM    3  C3  UNL     1     -40.580  14.585   7.104  1.00 20.00     0.010 C 
HETATM    4  C4  UNL     1     -41.614  13.611   5.194  1.00 20.00     0.027 C 
HETATM    5  C5  UNL     1     -40.710  12.522   5.792  1.00 20.00     0.093 C 
HETATM    6  C6  UNL     1     -41.919  14.569   6.357  1.00 20.00    -0.046 C 
HETATM    7  C7  UNL     1     -43.052  14.026   7.243  1.00 20.00     0.015 C 
HETATM    8  C8  UNL     1     -42.298  15.963   5.854  1.00 20.00     0.015 C 
HETATM    9  N9  UNL     1     -38.891  11.727   4.069  1.00 20.00    -0.197 NA
ENDROOT
TORSDOF 0
ENDMDL
MODEL 9
REMARK VINA RESULT:      -3.3      2.358      3.599
REMARK  0 active torsions:
REMARK  status: ('A' for Active; 'I' for Inactive)
ROOT
HETATM    1  C1  UNL     1     -34.099   4.486   4.453  1.00 20.00     0.064 C 
HETATM    2  C2  UNL     1     -34.458   6.188   6.237  1.00 20.00     0.020 C 
HETATM    3  C3  UNL     1     -33.421   7.293   6.430  1.00 20.00     0.010 C 
HETATM    4  C4  UNL     1     -33.490   6.866   4.089  1.00 20.00     0.027 C 
HETATM    5  C5  UNL     1     -34.474   5.878   4.733  1.00 20.00     0.093 C 
HETATM    6  C6  UNL     1     -33.374   8.030   5.086  1.00 20.00    -0.046 C 
HETATM    7  C7  UNL     1     -34.552   9.009   4.939  1.00 20.00     0.015 C 
HETATM    8  C8  UNL     1     -32.061   8.795   4.910  1.00 20.00     0.015 C 
HETATM    9  N9  UNL     1     -33.802   3.386   4.233  1.00 20.00    -0.197 NA
ENDROOT
TORSDOF 0
ENDMDL
