MODEL 1
REMARK VINA RESULT:      -4.0      0.000      0.000
REMARK  3 active torsions:
REMARK  status: ('A' for Active; 'I' for Inactive)
REMARK    1  A    between atoms: C4_4  and  C5_5 
REMARK    2  A    between atoms: C6_6  and  C7_7 
REMARK    3  A    between atoms: C6_6  and  N8_8 
ROOT
HETATM    1  C1  UNL     1     -34.420   6.773   6.709  1.00 20.00     0.035 C 
HETATM    2  C2  UNL     1     -34.084   5.354   6.302  1.00 20.00     0.235 C 
HETATM    3  C3  UNL     1     -34.792   6.654   4.349  1.00 20.00     0.240 C 
HETATM    4  C4  UNL     1     -34.230   7.576   5.427  1.00 20.00     0.027 C 
HETATM    5  N8  UNL     1     -34.624   5.246   4.894  1.00 20.00    -0.068 N 
HETATM    6  H24 UNL     1     -35.569   4.839   4.968  1.00 20.00     0.280 HD
ENDROOT
BRANCH   5   7
HETATM    7  C6  UNL     1     -33.830   4.336   4.011  1.00 20.00     0.266 C 
BRANCH   7   8
HETATM    8  C7  UNL     1     -33.132   5.160   2.953  1.00 20.00     0.249 C 
HETATM    9  F9  UNL     1     -32.812   4.357   1.903  1.00 20.00    -0.254 F 
ENDBRANCH   7   8
ENDBRANCH   5   7
BRANCH   4  10
HETATM   10  C5  UNL     1     -32.765   7.928   5.172  1.00 20.00     0.121 C 
HETATM   11 CL10 UNL     1     -32.569   8.617   3.548  1.00 20.00    -0.130 Cl
ENDBRANCH   4  10
TORSDOF 3
ENDMDL
MODEL 2
REMARK VINA RESULT:      -3.8      1.556      1.826
REMARK  3 active torsions:
REMARK  status: ('A' for Active; 'I' for Inactive)
REMARK    1  A    between atoms: C4_4  and  C5_5 
REMARK    2  A    between atoms: C6_6  and  C7_7 
REMARK    3  A    between atoms: C6_6  and  N8_8 
ROOT
HETATM    1  C1  UNL     1     -34.660   4.987   6.039  1.00 20.00     0.035 C 
HETATM    2  C2  UNL     1     -33.766   4.357   4.992  1.00 20.00     0.235 C 
HETATM    3  C3  UNL     1     -34.674   6.481   4.172  1.00 20.00     0.240 C 
HETATM    4  C4  UNL     1     -34.636   6.472   5.697  1.00 20.00     0.027 C 
HETATM    5  N8  UNL     1     -34.052   5.163   3.744  1.00 20.00    -0.068 N 
HETATM    6  H24 UNL     1     -34.774   4.648   3.217  1.00 20.00     0.280 HD
ENDROOT
BRANCH   5   7
HETATM    7  C6  UNL     1     -32.872   5.305   2.835  1.00 20.00     0.266 C 
BRANCH   7   8
HETATM    8  C7  UNL     1     -32.645   6.771   2.546  1.00 20.00     0.249 C 
HETATM    9  F9  UNL     1     -31.575   7.206   3.264  1.00 20.00    -0.254 F 
ENDBRANCH   7   8
ENDBRANCH   5   7
BRANCH   4  10
HETATM   10  C5  UNL     1     -33.394   7.176   6.243  1.00 20.00     0.121 C 
HETATM   11 CL10 UNL     1     -33.139   8.719   5.404  1.00 20.00    -0.130 Cl
ENDBRANCH   4  10
TORSDOF 3
ENDMDL
MODEL 3
REMARK VINA RESULT:      -3.6      2.206      3.148
REMARK  3 active torsions:
REMARK  status: ('A' for Active; 'I' for Inactive)
REMARK    1  A    between atoms: C4_4  and  C5_5 
REMARK    2  A    between atoms: C6_6  and  C7_7 
REMARK    3  A    between atoms: C6_6  and  N8_8 
ROOT
HETATM    1  C1  UNL     1     -32.322   9.080   4.181  1.00 20.00     0.035 C 
HETATM    2  C2  UNL     1     -32.427   8.480   5.567  1.00 20.00     0.235 C 
HETATM    3  C3  UNL     1     -34.179   7.576   4.111  1.00 20.00     0.240 C 
HETATM    4  C4  UNL     1     -32.988   8.045   3.282  1.00 20.00     0.027 C 
HETATM    5  N8  UNL     1     -33.775   7.793   5.559  1.00 20.00    -0.068 N 
HETATM    6  H24 UNL     1     -34.451   8.459   5.962  1.00 20.00     0.280 HD
ENDROOT
BRANCH   5   7
HETATM    7  C6  UNL     1     -33.827   6.559   6.404  1.00 20.00     0.266 C 
BRANCH   7   8
HETATM    8  C7  UNL     1     -34.844   5.604   5.821  1.00 20.00     0.249 C 
HETATM    9  F9  UNL     1     -34.219   4.450   5.466  1.00 20.00    -0.254 F 
ENDBRANCH   7   8
ENDBRANCH   5   7
BRANCH   4  10
HETATM   10  C5  UNL     1     -32.049   6.894   2.924  1.00 20.00     0.121 C 
HETATM   11 CL10 UNL     1     -32.973   5.400   2.669  1.00 20.00    -0.130 Cl
ENDBRANCH   4  10
TORSDOF 3
ENDMDL
MODEL 4
REMARK VINA RESULT:      -3.5     13.147     13.859
REMARK  3 active torsions:
REMARK  status: ('A' for Active; 'I' for Inactive)
REMARK    1  A    between atoms: C4_4  and  C5_5 
REMARK    2  A    between atoms: C6_6  and  C7_7 
REMARK    3  A    between atoms: C6_6  and  N8_8 
ROOT
HETATM    1  C1  UNL     1     -36.028  14.382  -5.792  1.00 20.00     0.035 C 
HETATM    2  C2  UNL     1     -35.123  14.282  -4.583  1.00 20.00     0.235 C 
HETATM    3  C3  UNL     1     -33.877  15.140  -6.512  1.00 20.00     0.240 C 
HETATM    4  C4  UNL     1     -35.365  15.444  -6.660  1.00 20.00     0.027 C 
HETATM    5  N8  UNL     1     -33.736  14.468  -5.157  1.00 20.00    -0.068 N 
HETATM    6  H24 UNL     1     -33.356  13.524  -5.328  1.00 20.00     0.280 HD
ENDROOT
BRANCH   5   7
HETATM    7  C6  UNL     1     -32.785  15.153  -4.227  1.00 20.00     0.266 C 
BRANCH   7   8
HETATM    8  C7  UNL     1     -33.508  16.280  -3.524  1.00 20.00     0.249 C 
HETATM    9  F9  UNL     1     -33.570  16.007  -2.193  1.00 20.00    -0.254 F 
ENDBRANCH   7   8
ENDBRANCH   5   7
BRANCH   4  10
HETATM   10  C5  UNL     1     -35.707  16.863  -6.208  1.00 20.00     0.121 C 
HETATM   11 CL10 UNL     1     -34.401  17.983  -6.646  1.00 20.00    -0.130 Cl
ENDBRANCH   4  10
TORSDOF 3
ENDMDL
MODEL 5
REMARK VINA RESULT:      -3.5      2.505      3.451
REMARK  3 active torsions:
REMARK  status: ('A' for Active; 'I' for Inactive)
REMARK    1  A    between atoms: C4_4  and  C5_5 
REMARK    2  A    between atoms: C6_6  and  C7_7 
REMARK    3  A    between atoms: C6_6  and  N8_8 
ROOT
HETATM    1  C1  UNL     1     -34.148   4.363   3.983  1.00 20.00     0.035 C 
HETATM    2  C2  UNL     1     -32.874   5.018   3.492  1.00 20.00     0.235 C 
HETATM    3  C3  UNL     1     -34.546   6.720   4.054  1.00 20.00     0.240 C 
HETATM    4  C4  UNL     1     -34.807   5.439   4.838  1.00 20.00     0.027 C 
HETATM    5  N8  UNL     1     -33.276   6.458   3.262  1.00 20.00    -0.068 N 
HETATM    6  H24 UNL     1     -33.522   6.542   2.264  1.00 20.00     0.280 HD
ENDROOT
BRANCH   5   7
HETATM    7  C6  UNL     1     -32.177   7.440   3.520  1.00 20.00     0.266 C 
BRANCH   7   8
HETATM    8  C7  UNL     1     -32.777   8.734   4.017  1.00 20.00     0.249 C 
HETATM    9  F9  UNL     1     -32.147   9.106   5.164  1.00 20.00    -0.254 F 
ENDBRANCH   7   8
ENDBRANCH   5   7
BRANCH   4  10
HETATM   10  C5  UNL     1     -34.221   5.501   6.248  1.00 20.00     0.121 C 
HETATM   11 CL10 UNL     1     -34.189   7.177   6.831  1.00 20.00    -0.130 Cl
ENDBRANCH   4  10
TORSDOF 3
ENDMDL
MODEL 6
REMARK VINA RESULT:      -3.4      2.373      3.358
REMARK  3 active torsions:
REMARK  status: ('A' for Active; 'I' for Inactive)
REMARK    1  A    between atoms: C4_4  and  C5_5 
REMARK    2  A    between atoms: C6_6  and  C7_7 
REMARK    3  A    between atoms: C6_6  and  N8_8 
ROOT
HETATM    1  C1  UNL     1     -31.881   7.110   2.759  1.00 20.00     0.035 C 
HETATM    2  C2  UNL     1     -33.037   6.202   3.124  1.00 20.00     0.235 C 
HETATM    3  C3  UNL     1     -32.748   7.941   4.828  1.00 20.00     0.240 C 
HETATM    4  C4  UNL     1     -32.195   8.412   3.487  1.00 20.00     0.027 C 
HETATM    5  N8  UNL     1     -33.341   6.568   4.560  1.00 20.00    -0.068 N 
HETATM    6  H24 UNL     1     -32.828   5.899   5.153  1.00 20.00     0.280 HD
ENDROOT
BRANCH   5   7
HETATM    7  C6  UNL     1     -34.788   6.443   4.920  1.00 20.00     0.266 C 
BRANCH   7   8
HETATM    8  C7  UNL     1     -34.935   5.420   6.024  1.00 20.00     0.249 C 
HETATM    9  F9  UNL     1     -33.839   5.469   6.826  1.00 20.00    -0.254 F 
ENDBRANCH   7   8
ENDBRANCH   5   7
BRANCH   4  10
HETATM   10  C5  UNL     1     -33.198   9.278   2.726  1.00 20.00     0.121 C 
HETATM   11 CL10 UNL     1     -32.712   9.440   1.027  1.00 20.00    -0.130 Cl
ENDBRANCH   4  10
TORSDOF 3
ENDMDL
MODEL 7
REMARK VINA RESULT:      -3.3     12.905     13.572
REMARK  3 active torsions:
REMARK  status: ('A' for Active; 'I' for Inactive)
REMARK    1  A    between atoms: C4_4  and  C5_5 
REMARK    2  A    between atoms: C6_6  and  C7_7 
REMARK    3  A    between atoms: C6_6  and  N8_8 
ROOT
HETATM    1  C1  UNL     1     -32.741  19.043  -3.084  1.00 20.00     0.035 C 
HETATM    2  C2  UNL     1     -33.573  18.571  -4.259  1.00 20.00     0.235 C 
HETATM    3  C3  UNL     1     -32.931  16.671  -2.849  1.00 20.00     0.240 C 
HETATM    4  C4  UNL     1     -32.944  17.959  -2.033  1.00 20.00     0.027 C 
HETATM    5  N8  UNL     1     -33.402  17.068  -4.238  1.00 20.00    -0.068 N 
HETATM    6  H24 UNL     1     -32.634  16.847  -4.889  1.00 20.00     0.280 HD
ENDROOT
BRANCH   5   7
HETATM    7  C6  UNL     1     -34.604  16.318  -4.717  1.00 20.00     0.266 C 
BRANCH   7   8
HETATM    8  C7  UNL     1     -34.201  14.901  -5.054  1.00 20.00     0.249 C 
HETATM    9  F9  UNL     1     -34.551  14.082  -4.026  1.00 20.00    -0.254 F 
ENDBRANCH   7   8
ENDBRANCH   5   7
BRANCH   4  10
HETATM   10  C5  UNL     1     -34.250  18.134  -1.259  1.00 20.00     0.121 C 
HETATM   11 CL10 UNL     1     -33.953  18.030   0.487  1.00 20.00    -0.130 Cl
ENDBRANCH   4  10
TORSDOF 3
ENDMDL
MODEL 8
REMARK VINA RESULT:      -3.3     13.265     14.123
REMARK  3 active torsions:
REMARK  status: ('A' for Active; 'I' for Inactive)
REMARK    1  A    between atoms: C4_4  and  C5_5 
REMARK    2  A    between atoms: C6_6  and  C7_7 
REMARK    3  A    between atoms: C6_6  and  N8_8 
ROOT
HETATM    1  C1  UNL     1     -33.963  14.901  -5.608  1.00 20.00     0.035 C 
HETATM    2  C2  UNL     1     -33.560  15.462  -4.260  1.00 20.00     0.235 C 
HETATM    3  C3  UNL     1     -34.471  17.237  -5.684  1.00 20.00     0.240 C 
HETATM    4  C4  UNL     1     -35.019  15.878  -6.110  1.00 20.00     0.027 C 
HETATM    5  N8  UNL     1     -33.606  16.960  -4.467  1.00 20.00    -0.068 N 
HETATM    6  H24 UNL     1     -32.648  17.257  -4.706  1.00 20.00     0.280 HD
ENDROOT
BRANCH   5   7
HETATM    7  C6  UNL     1     -34.002  17.725  -3.244  1.00 20.00     0.266 C 
BRANCH   7   8
HETATM    8  C7  UNL     1     -33.106  17.320  -2.095  1.00 20.00     0.249 C 
HETATM    9  F9  UNL     1     -33.854  16.696  -1.146  1.00 20.00    -0.254 F 
ENDBRANCH   7   8
ENDBRANCH   5   7
BRANCH   4  10
HETATM   10  C5  UNL     1     -36.399  15.604  -5.512  1.00 20.00     0.121 C 
HETATM   11 CL10 UNL     1     -37.175  17.125  -5.027  1.00 20.00    -0.130 Cl
ENDBRANCH   4  10
TORSDOF 3
ENDMDL
MODEL 9
REMARK VINA RESULT:      -3.2     13.679     14.460
REMARK  3 active torsions:
REMARK  status: ('A' for Active; 'I' for Inactive)
REMARK    1  A    between atoms: C4_4  and  C5_5 
REMARK    2  A    between atoms: C6_6  and  C7_7 
REMARK    3  A    between atoms: C6_6  and  N8_8 
ROOT
HETATM    1  C1  UNL     1     -34.693  15.910  -7.356  1.00 20.00     0.035 C 
HETATM    2  C2  UNL     1     -34.033  15.069  -6.284  1.00 20.00     0.235 C 
HETATM    3  C3  UNL     1     -34.467  17.331  -5.446  1.00 20.00     0.240 C 
HETATM    4  C4  UNL     1     -35.436  16.985  -6.572  1.00 20.00     0.027 C 
HETATM    5  N8  UNL     1     -33.635  16.079  -5.230  1.00 20.00    -0.068 N 
HETATM    6  H24 UNL     1     -32.654  16.335  -5.418  1.00 20.00     0.280 HD
ENDROOT
BRANCH   5   7
HETATM    7  C6  UNL     1     -33.682  15.543  -3.834  1.00 20.00     0.266 C 
BRANCH   7   8
HETATM    8  C7  UNL     1     -33.279  16.636  -2.871  1.00 20.00     0.249 C 
HETATM    9  F9  UNL     1     -33.706  16.309  -1.622  1.00 20.00    -0.254 F 
ENDBRANCH   7   8
ENDBRANCH   5   7
BRANCH   4  10
HETATM   10  C5  UNL     1     -36.782  16.494  -6.040  1.00 20.00     0.121 C 
HETATM   11 CL10 UNL     1     -37.287  17.468  -4.645  1.00 20.00    -0.130 Cl
ENDBRANCH   4  10
TORSDOF 3
ENDMDL
