MODEL 1
REMARK VINA RESULT:      -4.4      0.000      0.000
REMARK  3 active torsions:
REMARK  status: ('A' for Active; 'I' for Inactive)
REMARK    1  A    between atoms: C5_5  and  C8_8 
REMARK    2  A    between atoms: C6_6  and  C9_9 
REMARK    3  A    between atoms: C8_8  and  C10_10 
ROOT
HETATM    1  C1  UNL     1     -33.665   7.352   5.749  1.00 20.00     0.131 C 
HETATM    2  C2  UNL     1     -33.030   8.698   5.474  1.00 20.00     0.079 C 
HETATM    3  C3  UNL     1     -32.123   8.623   4.255  1.00 20.00     0.012 C 
HETATM    4  C4  UNL     1     -33.422   6.656   3.363  1.00 20.00     0.017 C 
HETATM    5  C5  UNL     1     -34.368   6.693   4.567  1.00 20.00     0.058 C 
HETATM    6  C6  UNL     1     -32.857   8.047   3.036  1.00 20.00    -0.014 C 
HETATM    7  O11 UNL     1     -33.681   6.879   6.884  1.00 20.00    -0.298 OA
ENDROOT
BRANCH   5   8
HETATM    8  C8  UNL     1     -34.856   5.289   4.913  1.00 20.00     0.043 C 
BRANCH   8   9
HETATM    9  C10 UNL     1     -34.034   4.226   4.209  1.00 20.00     0.223 C 
HETATM   10  F12 UNL     1     -33.378   3.480   5.136  1.00 20.00    -0.255 F 
ENDBRANCH   8   9
ENDBRANCH   5   8
BRANCH   6  11
HETATM   11  C9  UNL     1     -31.922   7.978   1.829  1.00 20.00     0.000 C 
HETATM   12  C7  UNL     1     -32.432   8.799   0.690  1.00 20.00     0.005 C 
ENDBRANCH   6  11
TORSDOF 3
ENDMDL
MODEL 2
REMARK VINA RESULT:      -4.1     10.058     10.709
REMARK  3 active torsions:
REMARK  status: ('A' for Active; 'I' for Inactive)
REMARK    1  A    between atoms: C5_5  and  C8_8 
REMARK    2  A    between atoms: C6_6  and  C9_9 
REMARK    3  A    between atoms: C8_8  and  C10_10 
ROOT
HETATM    1  C1  UNL     1     -40.927  13.637   7.302  1.00 20.00     0.131 C 
HETATM    2  C2  UNL     1     -42.087  14.596   7.453  1.00 20.00     0.079 C 
HETATM    3  C3  UNL     1     -42.312  15.370   6.162  1.00 20.00     0.012 C 
HETATM    4  C4  UNL     1     -41.227  13.531   4.825  1.00 20.00     0.017 C 
HETATM    5  C5  UNL     1     -40.983  12.708   6.094  1.00 20.00     0.058 C 
HETATM    6  C6  UNL     1     -42.464  14.432   4.957  1.00 20.00    -0.014 C 
HETATM    7  O11 UNL     1     -40.050  13.563   8.162  1.00 20.00    -0.298 OA
ENDROOT
BRANCH   5   8
HETATM    8  C8  UNL     1     -39.710  11.877   5.962  1.00 20.00     0.043 C 
BRANCH   8   9
HETATM    9  C10 UNL     1     -39.269  11.763   4.515  1.00 20.00     0.223 C 
HETATM   10  F12 UNL     1     -37.911  11.762   4.459  1.00 20.00    -0.255 F 
ENDBRANCH   8   9
ENDBRANCH   5   8
BRANCH   6  11
HETATM   11  C9  UNL     1     -42.683  15.236   3.676  1.00 20.00     0.000 C 
HETATM   12  C7  UNL     1     -42.667  16.706   3.938  1.00 20.00     0.005 C 
ENDBRANCH   6  11
TORSDOF 3
ENDMDL
MODEL 3
REMARK VINA RESULT:      -4.1      2.284      3.796
REMARK  3 active torsions:
REMARK  status: ('A' for Active; 'I' for Inactive)
REMARK    1  A    between atoms: C5_5  and  C8_8 
REMARK    2  A    between atoms: C6_6  and  C9_9 
REMARK    3  A    between atoms: C8_8  and  C10_10 
ROOT
HETATM    1  C1  UNL     1     -32.526   8.501   3.307  1.00 20.00     0.131 C 
HETATM    2  C2  UNL     1     -32.514   9.295   4.595  1.00 20.00     0.079 C 
HETATM    3  C3  UNL     1     -33.547   8.748   5.569  1.00 20.00     0.012 C 
HETATM    4  C4  UNL     1     -33.457   6.489   4.455  1.00 20.00     0.017 C 
HETATM    5  C5  UNL     1     -32.409   6.988   3.455  1.00 20.00     0.058 C 
HETATM    6  C6  UNL     1     -33.372   7.240   5.794  1.00 20.00    -0.014 C 
HETATM    7  O11 UNL     1     -32.535   9.067   2.214  1.00 20.00    -0.298 OA
ENDROOT
BRANCH   5   8
HETATM    8  C8  UNL     1     -32.563   6.277   2.114  1.00 20.00     0.043 C 
BRANCH   8   9
HETATM    9  C10 UNL     1     -33.222   4.920   2.277  1.00 20.00     0.223 C 
HETATM   10  F12 UNL     1     -32.582   4.013   1.493  1.00 20.00    -0.255 F 
ENDBRANCH   8   9
ENDBRANCH   5   8
BRANCH   6  11
HETATM   11  C9  UNL     1     -34.424   6.717   6.771  1.00 20.00     0.000 C 
HETATM   12  C7  UNL     1     -34.842   5.322   6.437  1.00 20.00     0.005 C 
ENDBRANCH   6  11
TORSDOF 3
ENDMDL
MODEL 4
REMARK VINA RESULT:      -4.1     12.110     13.075
REMARK  3 active torsions:
REMARK  status: ('A' for Active; 'I' for Inactive)
REMARK    1  A    between atoms: C5_5  and  C8_8 
REMARK    2  A    between atoms: C6_6  and  C9_9 
REMARK    3  A    between atoms: C8_8  and  C10_10 
ROOT
HETATM    1  C1  UNL     1     -33.859  17.707  -4.180  1.00 20.00     0.131 C 
HETATM    2  C2  UNL     1     -33.253  19.050  -3.832  1.00 20.00     0.079 C 
HETATM    3  C3  UNL     1     -33.257  19.263  -2.325  1.00 20.00     0.012 C 
HETATM    4  C4  UNL     1     -33.293  16.773  -1.934  1.00 20.00     0.017 C 
HETATM    5  C5  UNL     1     -33.283  16.504  -3.442  1.00 20.00     0.058 C 
HETATM    6  C6  UNL     1     -32.591  18.095  -1.585  1.00 20.00    -0.014 C 
HETATM    7  O11 UNL     1     -34.700  17.604  -5.072  1.00 20.00    -0.298 OA
ENDROOT
BRANCH   5   8
HETATM    8  C8  UNL     1     -34.048  15.224  -3.766  1.00 20.00     0.043 C 
BRANCH   8   9
HETATM    9  C10 UNL     1     -33.322  14.391  -4.805  1.00 20.00     0.223 C 
HETATM   10  F12 UNL     1     -33.757  14.741  -6.045  1.00 20.00    -0.255 F 
ENDBRANCH   8   9
ENDBRANCH   5   8
BRANCH   6  11
HETATM   11  C9  UNL     1     -32.613  18.333  -0.075  1.00 20.00     0.000 C 
HETATM   12  C7  UNL     1     -31.244  18.596   0.461  1.00 20.00     0.005 C 
ENDBRANCH   6  11
TORSDOF 3
ENDMDL
MODEL 5
REMARK VINA RESULT:      -4.0     12.626     14.032
REMARK  3 active torsions:
REMARK  status: ('A' for Active; 'I' for Inactive)
REMARK    1  A    between atoms: C5_5  and  C8_8 
REMARK    2  A    between atoms: C6_6  and  C9_9 
REMARK    3  A    between atoms: C8_8  and  C10_10 
ROOT
HETATM    1  C1  UNL     1     -34.385  15.331  -5.820  1.00 20.00     0.131 C 
HETATM    2  C2  UNL     1     -33.734  14.516  -4.723  1.00 20.00     0.079 C 
HETATM    3  C3  UNL     1     -32.952  15.419  -3.779  1.00 20.00     0.012 C 
HETATM    4  C4  UNL     1     -34.400  17.386  -4.402  1.00 20.00     0.017 C 
HETATM    5  C5  UNL     1     -35.223  16.519  -5.359  1.00 20.00     0.058 C 
HETATM    6  C6  UNL     1     -33.821  16.564  -3.240  1.00 20.00    -0.014 C 
HETATM    7  O11 UNL     1     -34.308  14.984  -6.997  1.00 20.00    -0.298 OA
ENDROOT
BRANCH   5   8
HETATM    8  C8  UNL     1     -35.724  17.346  -6.539  1.00 20.00     0.043 C 
BRANCH   8   9
HETATM    9  C10 UNL     1     -34.795  18.507  -6.838  1.00 20.00     0.223 C 
HETATM   10  F12 UNL     1     -33.787  18.079  -7.642  1.00 20.00    -0.255 F 
ENDBRANCH   8   9
ENDBRANCH   5   8
BRANCH   6  11
HETATM   11  C9  UNL     1     -33.010  17.456  -2.301  1.00 20.00     0.000 C 
HETATM   12  C7  UNL     1     -33.701  17.647  -0.989  1.00 20.00     0.005 C 
ENDBRANCH   6  11
TORSDOF 3
ENDMDL
MODEL 6
REMARK VINA RESULT:      -3.9     11.946     13.345
REMARK  3 active torsions:
REMARK  status: ('A' for Active; 'I' for Inactive)
REMARK    1  A    between atoms: C5_5  and  C8_8 
REMARK    2  A    between atoms: C6_6  and  C9_9 
REMARK    3  A    between atoms: C8_8  and  C10_10 
ROOT
HETATM    1  C1  UNL     1     -34.749  14.700  -4.722  1.00 20.00     0.131 C 
HETATM    2  C2  UNL     1     -35.798  14.613  -5.809  1.00 20.00     0.079 C 
HETATM    3  C3  UNL     1     -36.760  15.789  -5.719  1.00 20.00     0.012 C 
HETATM    4  C4  UNL     1     -35.013  17.177  -4.548  1.00 20.00     0.017 C 
HETATM    5  C5  UNL     1     -34.004  16.027  -4.620  1.00 20.00     0.058 C 
HETATM    6  C6  UNL     1     -36.016  17.131  -5.711  1.00 20.00    -0.014 C 
HETATM    7  O11 UNL     1     -34.465  13.720  -4.036  1.00 20.00    -0.298 OA
ENDROOT
BRANCH   5   8
HETATM    8  C8  UNL     1     -33.067  16.056  -3.416  1.00 20.00     0.043 C 
BRANCH   8   9
HETATM    9  C10 UNL     1     -33.423  17.180  -2.462  1.00 20.00     0.223 C 
HETATM   10  F12 UNL     1     -33.752  16.655  -1.253  1.00 20.00    -0.255 F 
ENDBRANCH   8   9
ENDBRANCH   5   8
BRANCH   6  11
HETATM   11  C9  UNL     1     -37.005  18.292  -5.615  1.00 20.00     0.000 C 
HETATM   12  C7  UNL     1     -37.874  18.177  -4.405  1.00 20.00     0.005 C 
ENDBRANCH   6  11
TORSDOF 3
ENDMDL
MODEL 7
REMARK VINA RESULT:      -3.9     10.337     11.322
REMARK  3 active torsions:
REMARK  status: ('A' for Active; 'I' for Inactive)
REMARK    1  A    between atoms: C5_5  and  C8_8 
REMARK    2  A    between atoms: C6_6  and  C9_9 
REMARK    3  A    between atoms: C8_8  and  C10_10 
ROOT
HETATM    1  C1  UNL     1     -41.913  15.275   6.345  1.00 20.00     0.131 C 
HETATM    2  C2  UNL     1     -42.329  14.295   5.269  1.00 20.00     0.079 C 
HETATM    3  C3  UNL     1     -41.180  13.357   4.929  1.00 20.00     0.012 C 
HETATM    4  C4  UNL     1     -40.160  13.719   7.205  1.00 20.00     0.017 C 
HETATM    5  C5  UNL     1     -41.298  14.666   7.600  1.00 20.00     0.058 C 
HETATM    6  C6  UNL     1     -40.619  12.669   6.182  1.00 20.00    -0.014 C 
HETATM    7  O11 UNL     1     -42.152  16.477   6.233  1.00 20.00    -0.298 OA
ENDROOT
BRANCH   5   8
HETATM    8  C8  UNL     1     -40.796  15.741   8.560  1.00 20.00     0.043 C 
BRANCH   8   9
HETATM    9  C10 UNL     1     -40.104  15.130   9.764  1.00 20.00     0.223 C 
HETATM   10  F12 UNL     1     -40.917  14.197  10.324  1.00 20.00    -0.255 F 
ENDBRANCH   8   9
ENDBRANCH   5   8
BRANCH   6  11
HETATM   11  C9  UNL     1     -39.466  11.738   5.812  1.00 20.00     0.000 C 
HETATM   12  C7  UNL     1     -39.213  11.730   4.340  1.00 20.00     0.005 C 
ENDBRANCH   6  11
TORSDOF 3
ENDMDL
MODEL 8
REMARK VINA RESULT:      -3.9     15.445     16.549
REMARK  3 active torsions:
REMARK  status: ('A' for Active; 'I' for Inactive)
REMARK    1  A    between atoms: C5_5  and  C8_8 
REMARK    2  A    between atoms: C6_6  and  C9_9 
REMARK    3  A    between atoms: C8_8  and  C10_10 
ROOT
HETATM    1  C1  UNL     1     -24.205  19.215   8.556  1.00 20.00     0.131 C 
HETATM    2  C2  UNL     1     -25.333  19.242   9.564  1.00 20.00     0.079 C 
HETATM    3  C3  UNL     1     -25.126  18.171  10.626  1.00 20.00     0.012 C 
HETATM    4  C4  UNL     1     -22.641  18.180  10.205  1.00 20.00     0.017 C 
HETATM    5  C5  UNL     1     -22.794  19.263   9.132  1.00 20.00     0.058 C 
HETATM    6  C6  UNL     1     -23.739  18.276  11.275  1.00 20.00    -0.014 C 
HETATM    7  O11 UNL     1     -24.435  19.247   7.348  1.00 20.00    -0.298 OA
ENDROOT
BRANCH   5   8
HETATM    8  C8  UNL     1     -21.735  19.099   8.046  1.00 20.00     0.043 C 
BRANCH   8   9
HETATM    9  C10 UNL     1     -21.312  17.650   7.897  1.00 20.00     0.223 C 
HETATM   10  F12 UNL     1     -21.375  17.297   6.586  1.00 20.00    -0.255 F 
ENDBRANCH   8   9
ENDBRANCH   5   8
BRANCH   6  11
HETATM   11  C9  UNL     1     -23.557  17.187  12.332  1.00 20.00     0.000 C 
HETATM   12  C7  UNL     1     -24.563  16.094  12.176  1.00 20.00     0.005 C 
ENDBRANCH   6  11
TORSDOF 3
ENDMDL
MODEL 9
REMARK VINA RESULT:      -3.8     10.115     11.312
REMARK  3 active torsions:
REMARK  status: ('A' for Active; 'I' for Inactive)
REMARK    1  A    between atoms: C5_5  and  C8_8 
REMARK    2  A    between atoms: C6_6  and  C9_9 
REMARK    3  A    between atoms: C8_8  and  C10_10 
ROOT
HETATM    1  C1  UNL     1     -41.787  14.394   5.964  1.00 20.00     0.131 C 
HETATM    2  C2  UNL     1     -41.945  15.822   6.440  1.00 20.00     0.079 C 
HETATM    3  C3  UNL     1     -41.706  15.915   7.940  1.00 20.00     0.012 C 
HETATM    4  C4  UNL     1     -40.289  13.832   7.882  1.00 20.00     0.017 C 
HETATM    5  C5  UNL     1     -40.493  13.696   6.370  1.00 20.00     0.058 C 
HETATM    6  C6  UNL     1     -40.359  15.297   8.340  1.00 20.00    -0.014 C 
HETATM    7  O11 UNL     1     -42.619  13.879   5.220  1.00 20.00    -0.298 OA
ENDROOT
BRANCH   5   8
HETATM    8  C8  UNL     1     -40.491  12.228   5.955  1.00 20.00     0.043 C 
BRANCH   8   9
HETATM    9  C10 UNL     1     -39.456  11.956   4.880  1.00 20.00     0.223 C 
HETATM   10  F12 UNL     1     -38.214  12.177   5.387  1.00 20.00    -0.255 F 
ENDBRANCH   8   9
ENDBRANCH   5   8
BRANCH   6  11
HETATM   11  C9  UNL     1     -40.148  15.399   9.850  1.00 20.00     0.000 C 
HETATM   12  C7  UNL     1     -40.735  14.230  10.569  1.00 20.00     0.005 C 
ENDBRANCH   6  11
TORSDOF 3
ENDMDL
