MODEL 1
REMARK VINA RESULT:      -4.1      0.000      0.000
REMARK  4 active torsions:
REMARK  status: ('A' for Active; 'I' for Inactive)
REMARK    1  A    between atoms: C5_5  and  C6_6 
REMARK    2  A    between atoms: C6_6  and  C9_9 
REMARK    3  A    between atoms: C7_7  and  C8_8 
REMARK    4  A    between atoms: C7_7  and  N10_10 
ROOT
HETATM    1  C1  UNL     1     -33.841  18.744  -4.168  1.00 20.00     0.028 C 
HETATM    2  C2  UNL     1     -34.142  18.833  -2.675  1.00 20.00     0.008 C 
HETATM    3  C3  UNL     1     -34.034  17.331  -4.698  1.00 20.00     0.235 C 
HETATM    4  C4  UNL     1     -33.518  16.400  -2.427  1.00 20.00     0.239 C 
HETATM    5  C5  UNL     1     -33.317  17.814  -1.880  1.00 20.00     0.012 C 
HETATM    6  N10 UNL     1     -33.181  16.376  -3.900  1.00 20.00    -0.069 N 
HETATM    7  H30 UNL     1     -32.203  16.685  -3.995  1.00 20.00     0.280 HD
ENDROOT
BRANCH   6   8
HETATM    8  C7  UNL     1     -33.239  14.981  -4.460  1.00 20.00     0.266 C 
BRANCH   8   9
HETATM    9  C8  UNL     1     -34.657  14.681  -4.892  1.00 20.00     0.249 C 
HETATM   10  F11 UNL     1     -35.129  13.630  -4.170  1.00 20.00    -0.254 F 
ENDBRANCH   8   9
ENDBRANCH   6   8
BRANCH   5  11
HETATM   11  C6  UNL     1     -33.679  17.868  -0.398  1.00 20.00     0.021 C 
BRANCH  11  12
HETATM   12  C9  UNL     1     -32.657  18.621   0.444  1.00 20.00     0.115 C 
HETATM   13 CL12 UNL     1     -31.004  18.433  -0.183  1.00 20.00    -0.130 Cl
ENDBRANCH  11  12
ENDBRANCH   5  11
TORSDOF 4
ENDMDL
MODEL 2
REMARK VINA RESULT:      -3.8      2.000      2.965
REMARK  4 active torsions:
REMARK  status: ('A' for Active; 'I' for Inactive)
REMARK    1  A    between atoms: C5_5  and  C6_6 
REMARK    2  A    between atoms: C6_6  and  C9_9 
REMARK    3  A    between atoms: C7_7  and  C8_8 
REMARK    4  A    between atoms: C7_7  and  N10_10 
ROOT
HETATM    1  C1  UNL     1     -33.860  14.530  -4.384  1.00 20.00     0.028 C 
HETATM    2  C2  UNL     1     -32.997  15.627  -3.768  1.00 20.00     0.008 C 
HETATM    3  C3  UNL     1     -34.795  15.082  -5.450  1.00 20.00     0.235 C 
HETATM    4  C4  UNL     1     -34.796  17.313  -4.305  1.00 20.00     0.239 C 
HETATM    5  C5  UNL     1     -33.859  16.772  -3.223  1.00 20.00     0.012 C 
HETATM    6  N10 UNL     1     -35.637  16.184  -4.855  1.00 20.00    -0.069 N 
HETATM    7  H30 UNL     1     -36.160  15.780  -4.065  1.00 20.00     0.280 HD
ENDROOT
BRANCH   6   8
HETATM    8  C7  UNL     1     -36.666  16.684  -5.832  1.00 20.00     0.266 C 
BRANCH   8   9
HETATM    9  C8  UNL     1     -38.043  16.503  -5.234  1.00 20.00     0.249 C 
HETATM   10  F11 UNL     1     -38.161  15.233  -4.762  1.00 20.00    -0.254 F 
ENDBRANCH   8   9
ENDBRANCH   6   8
BRANCH   5  11
HETATM   11  C6  UNL     1     -32.979  17.891  -2.672  1.00 20.00     0.021 C 
BRANCH  11  12
HETATM   12  C9  UNL     1     -32.934  17.927  -1.151  1.00 20.00     0.115 C 
HETATM   13 CL12 UNL     1     -31.343  18.432  -0.540  1.00 20.00    -0.130 Cl
ENDBRANCH  11  12
ENDBRANCH   5  11
TORSDOF 4
ENDMDL
MODEL 3
REMARK VINA RESULT:      -3.8      3.929      5.903
REMARK  4 active torsions:
REMARK  status: ('A' for Active; 'I' for Inactive)
REMARK    1  A    between atoms: C5_5  and  C6_6 
REMARK    2  A    between atoms: C6_6  and  C9_9 
REMARK    3  A    between atoms: C7_7  and  C8_8 
REMARK    4  A    between atoms: C7_7  and  N10_10 
ROOT
HETATM    1  C1  UNL     1     -34.125  18.274   0.692  1.00 20.00     0.028 C 
HETATM    2  C2  UNL     1     -34.181  18.498  -0.816  1.00 20.00     0.008 C 
HETATM    3  C3  UNL     1     -32.948  18.999   1.326  1.00 20.00     0.235 C 
HETATM    4  C4  UNL     1     -31.681  18.846  -0.834  1.00 20.00     0.239 C 
HETATM    5  C5  UNL     1     -32.856  18.112  -1.484  1.00 20.00     0.012 C 
HETATM    6  N10 UNL     1     -31.670  18.563   0.651  1.00 20.00    -0.069 N 
HETATM    7  H30 UNL     1     -31.594  17.543   0.767  1.00 20.00     0.280 HD
ENDROOT
BRANCH   6   8
HETATM    8  C7  UNL     1     -30.460  19.156   1.319  1.00 20.00     0.266 C 
BRANCH   8   9
HETATM    9  C8  UNL     1     -30.420  18.702   2.761  1.00 20.00     0.249 C 
HETATM   10  F11 UNL     1     -29.185  18.204   3.038  1.00 20.00    -0.254 F 
ENDBRANCH   8   9
ENDBRANCH   6   8
BRANCH   5  11
HETATM   11  C6  UNL     1     -32.904  18.406  -2.981  1.00 20.00     0.021 C 
BRANCH  11  12
HETATM   12  C9  UNL     1     -33.778  17.432  -3.758  1.00 20.00     0.115 C 
HETATM   13 CL12 UNL     1     -33.501  15.746  -3.267  1.00 20.00    -0.130 Cl
ENDBRANCH  11  12
ENDBRANCH   5  11
TORSDOF 4
ENDMDL
MODEL 4
REMARK VINA RESULT:      -3.8      2.015      2.695
REMARK  4 active torsions:
REMARK  status: ('A' for Active; 'I' for Inactive)
REMARK    1  A    between atoms: C5_5  and  C6_6 
REMARK    2  A    between atoms: C6_6  and  C9_9 
REMARK    3  A    between atoms: C7_7  and  C8_8 
REMARK    4  A    between atoms: C7_7  and  N10_10 
ROOT
HETATM    1  C1  UNL     1     -33.528  16.249  -3.409  1.00 20.00     0.028 C 
HETATM    2  C2  UNL     1     -32.861  16.982  -2.250  1.00 20.00     0.008 C 
HETATM    3  C3  UNL     1     -34.465  17.160  -4.187  1.00 20.00     0.235 C 
HETATM    4  C4  UNL     1     -34.839  18.545  -2.130  1.00 20.00     0.239 C 
HETATM    5  C5  UNL     1     -33.902  17.636  -1.333  1.00 20.00     0.012 C 
HETATM    6  N10 UNL     1     -35.483  17.753  -3.244  1.00 20.00    -0.069 N 
HETATM    7  H30 UNL     1     -35.992  16.971  -2.809  1.00 20.00     0.280 HD
ENDROOT
BRANCH   6   8
HETATM    8  C7  UNL     1     -36.512  18.568  -3.981  1.00 20.00     0.266 C 
BRANCH   8   9
HETATM    9  C8  UNL     1     -37.022  17.770  -5.159  1.00 20.00     0.249 C 
HETATM   10  F11 UNL     1     -37.782  16.738  -4.704  1.00 20.00    -0.254 F 
ENDBRANCH   8   9
ENDBRANCH   6   8
BRANCH   5  11
HETATM   11  C6  UNL     1     -33.217  18.422  -0.218  1.00 20.00     0.021 C 
BRANCH  11  12
HETATM   12  C9  UNL     1     -31.721  18.597  -0.436  1.00 20.00     0.115 C 
HETATM   13 CL12 UNL     1     -30.790  18.318   1.052  1.00 20.00    -0.130 Cl
ENDBRANCH  11  12
ENDBRANCH   5  11
TORSDOF 4
ENDMDL
MODEL 5
REMARK VINA RESULT:      -3.7     11.611     12.562
REMARK  4 active torsions:
REMARK  status: ('A' for Active; 'I' for Inactive)
REMARK    1  A    between atoms: C5_5  and  C6_6 
REMARK    2  A    between atoms: C6_6  and  C9_9 
REMARK    3  A    between atoms: C7_7  and  C8_8 
REMARK    4  A    between atoms: C7_7  and  N10_10 
ROOT
HETATM    1  C1  UNL     1     -33.152   8.756   5.400  1.00 20.00     0.028 C 
HETATM    2  C2  UNL     1     -32.168   8.634   4.240  1.00 20.00     0.008 C 
HETATM    3  C3  UNL     1     -33.662   7.396   5.850  1.00 20.00     0.235 C 
HETATM    4  C4  UNL     1     -33.291   6.483   3.544  1.00 20.00     0.239 C 
HETATM    5  C5  UNL     1     -32.778   7.847   3.074  1.00 20.00     0.012 C 
HETATM    6  N10 UNL     1     -34.275   6.677   4.673  1.00 20.00    -0.069 N 
HETATM    7  H30 UNL     1     -35.039   7.268   4.316  1.00 20.00     0.280 HD
ENDROOT
BRANCH   6   8
HETATM    8  C7  UNL     1     -34.907   5.375   5.087  1.00 20.00     0.266 C 
BRANCH   8   9
HETATM    9  C8  UNL     1     -34.820   5.240   6.591  1.00 20.00     0.249 C 
HETATM   10  F11 UNL     1     -33.655   4.618   6.915  1.00 20.00    -0.254 F 
ENDBRANCH   8   9
ENDBRANCH   6   8
BRANCH   5  11
HETATM   11  C6  UNL     1     -31.760   7.674   1.950  1.00 20.00     0.021 C 
BRANCH  11  12
HETATM   12  C9  UNL     1     -32.158   8.383   0.663  1.00 20.00     0.115 C 
HETATM   13 CL12 UNL     1     -32.963   9.937   0.977  1.00 20.00    -0.130 Cl
ENDBRANCH  11  12
ENDBRANCH   5  11
TORSDOF 4
ENDMDL
MODEL 6
REMARK VINA RESULT:      -3.7      2.351      3.258
REMARK  4 active torsions:
REMARK  status: ('A' for Active; 'I' for Inactive)
REMARK    1  A    between atoms: C5_5  and  C6_6 
REMARK    2  A    between atoms: C6_6  and  C9_9 
REMARK    3  A    between atoms: C7_7  and  C8_8 
REMARK    4  A    between atoms: C7_7  and  N10_10 
ROOT
HETATM    1  C1  UNL     1     -33.943  14.543  -4.150  1.00 20.00     0.028 C 
HETATM    2  C2  UNL     1     -33.082  15.739  -3.757  1.00 20.00     0.008 C 
HETATM    3  C3  UNL     1     -34.902  14.887  -5.280  1.00 20.00     0.235 C 
HETATM    4  C4  UNL     1     -34.908  17.288  -4.555  1.00 20.00     0.239 C 
HETATM    5  C5  UNL     1     -33.947  16.957  -3.411  1.00 20.00     0.012 C 
HETATM    6  N10 UNL     1     -35.745  16.072  -4.878  1.00 20.00    -0.069 N 
HETATM    7  H30 UNL     1     -36.250  15.812  -4.019  1.00 20.00     0.280 HD
ENDROOT
BRANCH   6   8
HETATM    8  C7  UNL     1     -36.796  16.380  -5.909  1.00 20.00     0.266 C 
BRANCH   8   9
HETATM    9  C8  UNL     1     -36.301  15.935  -7.267  1.00 20.00     0.249 C 
HETATM   10  F11 UNL     1     -35.620  16.958  -7.851  1.00 20.00    -0.254 F 
ENDBRANCH   8   9
ENDBRANCH   6   8
BRANCH   5  11
HETATM   11  C6  UNL     1     -33.070  18.164  -3.087  1.00 20.00     0.021 C 
BRANCH  11  12
HETATM   12  C9  UNL     1     -32.573  18.176  -1.648  1.00 20.00     0.115 C 
HETATM   13 CL12 UNL     1     -33.822  17.635  -0.503  1.00 20.00    -0.130 Cl
ENDBRANCH  11  12
ENDBRANCH   5  11
TORSDOF 4
ENDMDL
MODEL 7
REMARK VINA RESULT:      -3.6      3.343      4.954
REMARK  4 active torsions:
REMARK  status: ('A' for Active; 'I' for Inactive)
REMARK    1  A    between atoms: C5_5  and  C6_6 
REMARK    2  A    between atoms: C6_6  and  C9_9 
REMARK    3  A    between atoms: C7_7  and  C8_8 
REMARK    4  A    between atoms: C7_7  and  N10_10 
ROOT
HETATM    1  C1  UNL     1     -34.464  18.920  -3.762  1.00 20.00     0.028 C 
HETATM    2  C2  UNL     1     -33.958  17.655  -4.448  1.00 20.00     0.008 C 
HETATM    3  C3  UNL     1     -33.689  19.218  -2.488  1.00 20.00     0.235 C 
HETATM    4  C4  UNL     1     -33.190  16.776  -2.211  1.00 20.00     0.239 C 
HETATM    5  C5  UNL     1     -33.970  16.460  -3.489  1.00 20.00     0.012 C 
HETATM    6  N10 UNL     1     -33.755  18.022  -1.570  1.00 20.00    -0.069 N 
HETATM    7  H30 UNL     1     -34.750  17.840  -1.374  1.00 20.00     0.280 HD
ENDROOT
BRANCH   6   8
HETATM    8  C7  UNL     1     -33.108  18.306  -0.242  1.00 20.00     0.266 C 
BRANCH   8   9
HETATM    9  C8  UNL     1     -31.801  19.029  -0.475  1.00 20.00     0.249 C 
HETATM   10  F11 UNL     1     -30.775  18.141  -0.372  1.00 20.00    -0.254 F 
ENDBRANCH   8   9
ENDBRANCH   6   8
BRANCH   5  11
HETATM   11  C6  UNL     1     -33.397  15.219  -4.169  1.00 20.00     0.021 C 
BRANCH  11  12
HETATM   12  C9  UNL     1     -33.966  14.979  -5.561  1.00 20.00     0.115 C 
HETATM   13 CL12 UNL     1     -35.681  14.512  -5.512  1.00 20.00    -0.130 Cl
ENDBRANCH  11  12
ENDBRANCH   5  11
TORSDOF 4
ENDMDL
MODEL 8
REMARK VINA RESULT:      -3.5     11.016     11.878
REMARK  4 active torsions:
REMARK  status: ('A' for Active; 'I' for Inactive)
REMARK    1  A    between atoms: C5_5  and  C6_6 
REMARK    2  A    between atoms: C6_6  and  C9_9 
REMARK    3  A    between atoms: C7_7  and  C8_8 
REMARK    4  A    between atoms: C7_7  and  N10_10 
ROOT
HETATM    1  C1  UNL     1     -32.579   8.628   4.635  1.00 20.00     0.028 C 
HETATM    2  C2  UNL     1     -33.496   7.424   4.824  1.00 20.00     0.008 C 
HETATM    3  C3  UNL     1     -32.503   9.053   3.177  1.00 20.00     0.235 C 
HETATM    4  C4  UNL     1     -33.004   6.704   2.456  1.00 20.00     0.239 C 
HETATM    5  C5  UNL     1     -33.080   6.260   3.918  1.00 20.00     0.012 C 
HETATM    6  N10 UNL     1     -32.063   7.881   2.335  1.00 20.00    -0.069 N 
HETATM    7  H30 UNL     1     -31.145   7.576   2.689  1.00 20.00     0.280 HD
ENDROOT
BRANCH   6   8
HETATM    8  C7  UNL     1     -31.852   8.277   0.899  1.00 20.00     0.266 C 
BRANCH   8   9
HETATM    9  C8  UNL     1     -32.723   9.472   0.583  1.00 20.00     0.249 C 
HETATM   10  F11 UNL     1     -33.526   9.172  -0.473  1.00 20.00    -0.254 F 
ENDBRANCH   8   9
ENDBRANCH   6   8
BRANCH   5  11
HETATM   11  C6  UNL     1     -34.047   5.088   4.069  1.00 20.00     0.021 C 
BRANCH  11  12
HETATM   12  C9  UNL     1     -35.201   5.380   5.018  1.00 20.00     0.115 C 
HETATM   13 CL12 UNL     1     -34.718   5.235   6.723  1.00 20.00    -0.130 Cl
ENDBRANCH  11  12
ENDBRANCH   5  11
TORSDOF 4
ENDMDL
MODEL 9
REMARK VINA RESULT:      -3.5      3.504      5.381
REMARK  4 active torsions:
REMARK  status: ('A' for Active; 'I' for Inactive)
REMARK    1  A    between atoms: C5_5  and  C6_6 
REMARK    2  A    between atoms: C6_6  and  C9_9 
REMARK    3  A    between atoms: C7_7  and  C8_8 
REMARK    4  A    between atoms: C7_7  and  N10_10 
ROOT
HETATM    1  C1  UNL     1     -33.354  14.819  -4.201  1.00 20.00     0.028 C 
HETATM    2  C2  UNL     1     -34.577  14.829  -5.113  1.00 20.00     0.008 C 
HETATM    3  C3  UNL     1     -33.287  16.068  -3.336  1.00 20.00     0.235 C 
HETATM    4  C4  UNL     1     -34.555  17.352  -5.077  1.00 20.00     0.239 C 
HETATM    5  C5  UNL     1     -34.628  16.105  -5.961  1.00 20.00     0.012 C 
HETATM    6  N10 UNL     1     -33.312  17.291  -4.220  1.00 20.00    -0.069 N 
HETATM    7  H30 UNL     1     -32.505  17.227  -4.856  1.00 20.00     0.280 HD
ENDROOT
BRANCH   6   8
HETATM    8  C7  UNL     1     -33.124  18.554  -3.425  1.00 20.00     0.266 C 
BRANCH   8   9
HETATM    9  C8  UNL     1     -33.026  18.203  -1.957  1.00 20.00     0.249 C 
HETATM   10  F11 UNL     1     -31.788  18.535  -1.501  1.00 20.00    -0.254 F 
ENDBRANCH   8   9
ENDBRANCH   6   8
BRANCH   5  11
HETATM   11  C6  UNL     1     -35.892  16.131  -6.816  1.00 20.00     0.021 C 
BRANCH  11  12
HETATM   12  C9  UNL     1     -36.987  17.021  -6.244  1.00 20.00     0.115 C 
HETATM   13 CL12 UNL     1     -38.051  16.137  -5.127  1.00 20.00    -0.130 Cl
ENDBRANCH  11  12
ENDBRANCH   5  11
TORSDOF 4
ENDMDL
