MODEL 1
REMARK VINA RESULT:      -3.8      0.000      0.000
REMARK  1 active torsions:
REMARK  status: ('A' for Active; 'I' for Inactive)
REMARK    1  A    between atoms: C5_5  and  O11_11 
ROOT
HETATM    1  C1  UNL     1     -35.178  14.117  -4.626  1.00 20.00     0.098 C 
HETATM    2  C2  UNL     1     -33.232  15.486  -3.902  1.00 20.00     0.054 C 
HETATM    3  C3  UNL     1     -33.579  16.657  -2.986  1.00 20.00     0.013 C 
HETATM    4  C4  UNL     1     -35.296  16.603  -4.648  1.00 20.00     0.062 C 
HETATM    5  C5  UNL     1     -34.420  15.353  -4.869  1.00 20.00     0.148 C 
HETATM    6  C6  UNL     1     -34.419  17.595  -3.862  1.00 20.00    -0.044 C 
HETATM    7  C7  UNL     1     -35.266  18.544  -3.009  1.00 20.00     0.015 C 
HETATM    8  C8  UNL     1     -33.534  18.428  -4.805  1.00 20.00     0.015 C 
HETATM    9  N10 UNL     1     -35.776  13.142  -4.434  1.00 20.00    -0.194 NA
ENDROOT
BRANCH   5  10
HETATM   10  O11 UNL     1     -33.918  15.340  -6.203  1.00 20.00    -0.370 OA
HETATM   11  C9  UNL     1     -34.958  15.525  -7.153  1.00 20.00     0.204 C 
ENDBRANCH   5  10
TORSDOF 1
ENDMDL
MODEL 2
REMARK VINA RESULT:      -3.6     13.373     14.384
REMARK  1 active torsions:
REMARK  status: ('A' for Active; 'I' for Inactive)
REMARK    1  A    between atoms: C5_5  and  O11_11 
ROOT
HETATM    1  C1  UNL     1     -41.086  14.147   9.441  1.00 20.00     0.098 C 
HETATM    2  C2  UNL     1     -42.709  13.410   7.707  1.00 20.00     0.054 C 
HETATM    3  C3  UNL     1     -42.176  12.359   6.736  1.00 20.00     0.013 C 
HETATM    4  C4  UNL     1     -40.384  13.907   7.066  1.00 20.00     0.062 C 
HETATM    5  C5  UNL     1     -41.508  14.310   8.042  1.00 20.00     0.148 C 
HETATM    6  C6  UNL     1     -41.067  13.080   5.959  1.00 20.00    -0.044 C 
HETATM    7  C7  UNL     1     -40.096  12.084   5.320  1.00 20.00     0.015 C 
HETATM    8  C8  UNL     1     -41.646  13.987   4.861  1.00 20.00     0.015 C 
HETATM    9  N10 UNL     1     -40.754  14.018  10.545  1.00 20.00    -0.194 NA
ENDROOT
BRANCH   5  10
HETATM   10  O11 UNL     1     -41.883  15.666   7.820  1.00 20.00    -0.370 OA
HETATM   11  C9  UNL     1     -40.745  16.505   7.676  1.00 20.00     0.204 C 
ENDBRANCH   5  10
TORSDOF 1
ENDMDL
MODEL 3
REMARK VINA RESULT:      -3.5      1.092      1.099
REMARK  1 active torsions:
REMARK  status: ('A' for Active; 'I' for Inactive)
REMARK    1  A    between atoms: C5_5  and  O11_11 
ROOT
HETATM    1  C1  UNL     1     -35.821  15.185  -5.219  1.00 20.00     0.098 C 
HETATM    2  C2  UNL     1     -33.526  15.616  -4.363  1.00 20.00     0.054 C 
HETATM    3  C3  UNL     1     -33.470  16.313  -3.006  1.00 20.00     0.013 C 
HETATM    4  C4  UNL     1     -35.234  17.383  -4.211  1.00 20.00     0.062 C 
HETATM    5  C5  UNL     1     -34.763  16.195  -5.072  1.00 20.00     0.148 C 
HETATM    6  C6  UNL     1     -34.065  17.703  -3.261  1.00 20.00    -0.044 C 
HETATM    7  C7  UNL     1     -34.554  18.348  -1.961  1.00 20.00     0.015 C 
HETATM    8  C8  UNL     1     -33.043  18.640  -3.928  1.00 20.00     0.015 C 
HETATM    9  N10 UNL     1     -36.656  14.388  -5.334  1.00 20.00    -0.194 NA
ENDROOT
BRANCH   5  10
HETATM   10  O11 UNL     1     -34.370  16.654  -6.363  1.00 20.00    -0.370 OA
HETATM   11  C9  UNL     1     -33.974  15.577  -7.201  1.00 20.00     0.204 C 
ENDBRANCH   5  10
TORSDOF 1
ENDMDL
MODEL 4
REMARK VINA RESULT:      -3.4     12.756     13.705
REMARK  1 active torsions:
REMARK  status: ('A' for Active; 'I' for Inactive)
REMARK    1  A    between atoms: C5_5  and  O11_11 
ROOT
HETATM    1  C1  UNL     1     -40.439  12.683   5.620  1.00 20.00     0.098 C 
HETATM    2  C2  UNL     1     -42.480  14.090   5.824  1.00 20.00     0.054 C 
HETATM    3  C3  UNL     1     -42.213  15.583   5.996  1.00 20.00     0.013 C 
HETATM    4  C4  UNL     1     -40.581  14.473   7.343  1.00 20.00     0.062 C 
HETATM    5  C5  UNL     1     -41.332  13.378   6.559  1.00 20.00     0.148 C 
HETATM    6  C6  UNL     1     -41.518  15.696   7.359  1.00 20.00    -0.044 C 
HETATM    7  C7  UNL     1     -40.734  17.006   7.478  1.00 20.00     0.015 C 
HETATM    8  C8  UNL     1     -42.527  15.611   8.515  1.00 20.00     0.015 C 
HETATM    9  N10 UNL     1     -39.735  12.135   4.879  1.00 20.00    -0.194 NA
ENDROOT
BRANCH   5  10
HETATM   10  O11 UNL     1     -41.893  12.430   7.462  1.00 20.00    -0.370 OA
HETATM   11  C9  UNL     1     -43.234  12.112   7.118  1.00 20.00     0.204 C 
ENDBRANCH   5  10
TORSDOF 1
ENDMDL
MODEL 5
REMARK VINA RESULT:      -3.4      2.627      3.258
REMARK  1 active torsions:
REMARK  status: ('A' for Active; 'I' for Inactive)
REMARK    1  A    between atoms: C5_5  and  O11_11 
ROOT
HETATM    1  C1  UNL     1     -35.998  17.796  -4.328  1.00 20.00     0.098 C 
HETATM    2  C2  UNL     1     -33.688  17.028  -3.816  1.00 20.00     0.054 C 
HETATM    3  C3  UNL     1     -33.445  16.659  -2.355  1.00 20.00     0.013 C 
HETATM    4  C4  UNL     1     -34.800  18.628  -2.311  1.00 20.00     0.062 C 
HETATM    5  C5  UNL     1     -34.690  18.194  -3.786  1.00 20.00     0.148 C 
HETATM    6  C6  UNL     1     -33.600  17.982  -1.593  1.00 20.00    -0.044 C 
HETATM    7  C7  UNL     1     -33.893  17.740  -0.110  1.00 20.00     0.015 C 
HETATM    8  C8  UNL     1     -32.340  18.855  -1.717  1.00 20.00     0.015 C 
HETATM    9  N10 UNL     1     -37.029  17.481  -4.754  1.00 20.00    -0.194 NA
ENDROOT
BRANCH   5  10
HETATM   10  O11 UNL     1     -34.164  19.262  -4.569  1.00 20.00    -0.370 OA
HETATM   11  C9  UNL     1     -33.990  18.877  -5.926  1.00 20.00     0.204 C 
ENDBRANCH   5  10
TORSDOF 1
ENDMDL
MODEL 6
REMARK VINA RESULT:      -3.3      1.958      2.874
REMARK  1 active torsions:
REMARK  status: ('A' for Active; 'I' for Inactive)
REMARK    1  A    between atoms: C5_5  and  O11_11 
ROOT
HETATM    1  C1  UNL     1     -34.147  14.694  -4.913  1.00 20.00     0.098 C 
HETATM    2  C2  UNL     1     -34.775  16.903  -5.871  1.00 20.00     0.054 C 
HETATM    3  C3  UNL     1     -36.046  17.514  -5.289  1.00 20.00     0.013 C 
HETATM    4  C4  UNL     1     -36.506  15.183  -5.542  1.00 20.00     0.062 C 
HETATM    5  C5  UNL     1     -35.015  15.383  -5.880  1.00 20.00     0.148 C 
HETATM    6  C6  UNL     1     -37.167  16.562  -5.725  1.00 20.00    -0.044 C 
HETATM    7  C7  UNL     1     -38.406  16.716  -4.838  1.00 20.00     0.015 C 
HETATM    8  C8  UNL     1     -37.569  16.798  -7.190  1.00 20.00     0.015 C 
HETATM    9  N10 UNL     1     -33.463  14.151  -4.150  1.00 20.00    -0.194 NA
ENDROOT
BRANCH   5  10
HETATM   10  O11 UNL     1     -34.742  14.891  -7.189  1.00 20.00    -0.370 OA
HETATM   11  C9  UNL     1     -33.900  15.776  -7.914  1.00 20.00     0.204 C 
ENDBRANCH   5  10
TORSDOF 1
ENDMDL
MODEL 7
REMARK VINA RESULT:      -3.3     12.909     13.856
REMARK  1 active torsions:
REMARK  status: ('A' for Active; 'I' for Inactive)
REMARK    1  A    between atoms: C5_5  and  O11_11 
ROOT
HETATM    1  C1  UNL     1     -41.613  13.868   5.119  1.00 20.00     0.098 C 
HETATM    2  C2  UNL     1     -42.711  13.750   7.348  1.00 20.00     0.054 C 
HETATM    3  C3  UNL     1     -42.615  15.028   8.177  1.00 20.00     0.013 C 
HETATM    4  C4  UNL     1     -40.476  14.764   7.143  1.00 20.00     0.062 C 
HETATM    5  C5  UNL     1     -41.393  13.670   6.559  1.00 20.00     0.148 C 
HETATM    6  C6  UNL     1     -41.119  15.179   8.480  1.00 20.00    -0.044 C 
HETATM    7  C7  UNL     1     -40.769  16.623   8.850  1.00 20.00     0.015 C 
HETATM    8  C8  UNL     1     -40.679  14.251   9.624  1.00 20.00     0.015 C 
HETATM    9  N10 UNL     1     -41.788  14.025   3.983  1.00 20.00    -0.194 NA
ENDROOT
BRANCH   5  10
HETATM   10  O11 UNL     1     -40.815  12.385   6.772  1.00 20.00    -0.370 OA
HETATM   11  C9  UNL     1     -39.530  12.285   6.174  1.00 20.00     0.204 C 
ENDBRANCH   5  10
TORSDOF 1
ENDMDL
MODEL 8
REMARK VINA RESULT:      -3.3      2.623      3.987
REMARK  1 active torsions:
REMARK  status: ('A' for Active; 'I' for Inactive)
REMARK    1  A    between atoms: C5_5  and  O11_11 
ROOT
HETATM    1  C1  UNL     1     -33.266  18.419  -3.717  1.00 20.00     0.098 C 
HETATM    2  C2  UNL     1     -33.764  15.998  -3.439  1.00 20.00     0.054 C 
HETATM    3  C3  UNL     1     -33.434  15.133  -4.653  1.00 20.00     0.013 C 
HETATM    4  C4  UNL     1     -34.396  17.138  -5.528  1.00 20.00     0.062 C 
HETATM    5  C5  UNL     1     -34.231  17.348  -4.009  1.00 20.00     0.148 C 
HETATM    6  C6  UNL     1     -34.401  15.613  -5.742  1.00 20.00    -0.044 C 
HETATM    7  C7  UNL     1     -33.898  15.238  -7.139  1.00 20.00     0.015 C 
HETATM    8  C8  UNL     1     -35.809  15.026  -5.545  1.00 20.00     0.015 C 
HETATM    9  N10 UNL     1     -32.505  19.263  -3.487  1.00 20.00    -0.194 NA
ENDROOT
BRANCH   5  10
HETATM   10  O11 UNL     1     -35.487  17.676  -3.423  1.00 20.00    -0.370 OA
HETATM   11  C9  UNL     1     -36.184  18.647  -4.192  1.00 20.00     0.204 C 
ENDBRANCH   5  10
TORSDOF 1
ENDMDL
MODEL 9
REMARK VINA RESULT:      -3.3     24.611     25.881
REMARK  1 active torsions:
REMARK  status: ('A' for Active; 'I' for Inactive)
REMARK    1  A    between atoms: C5_5  and  O11_11 
ROOT
HETATM    1  C1  UNL     1     -27.461  -1.032  10.607  1.00 20.00     0.098 C 
HETATM    2  C2  UNL     1     -25.709  -1.404  12.332  1.00 20.00     0.054 C 
HETATM    3  C3  UNL     1     -24.290  -1.534  11.785  1.00 20.00     0.013 C 
HETATM    4  C4  UNL     1     -25.684  -2.740  10.264  1.00 20.00     0.062 C 
HETATM    5  C5  UNL     1     -26.621  -2.040  11.269  1.00 20.00     0.148 C 
HETATM    6  C6  UNL     1     -24.312  -2.827  10.959  1.00 20.00    -0.044 C 
HETATM    7  C7  UNL     1     -23.167  -2.859   9.944  1.00 20.00     0.015 C 
HETATM    8  C8  UNL     1     -24.219  -4.071  11.857  1.00 20.00     0.015 C 
HETATM    9  N10 UNL     1     -28.124  -0.236  10.084  1.00 20.00    -0.194 NA
ENDROOT
BRANCH   5  10
HETATM   10  O11 UNL     1     -27.457  -3.001  11.907  1.00 20.00    -0.370 OA
HETATM   11  C9  UNL     1     -27.951  -3.959  10.981  1.00 20.00     0.204 C 
ENDBRANCH   5  10
TORSDOF 1
ENDMDL
