MODEL 1
REMARK VINA RESULT:      -3.7      0.000      0.000
REMARK  3 active torsions:
REMARK  status: ('A' for Active; 'I' for Inactive)
REMARK    1  A    between atoms: C2_2  and  C8_8 
REMARK    2  A    between atoms: C6_6  and  C8_8 
REMARK    3  A    between atoms: C8_8  and  N9_9 
ROOT
HETATM    1  C8  UNL     1     -34.063  16.966  -4.081  1.00 20.00     0.255 C 
ENDROOT
BRANCH   1   2
HETATM    2  C2  UNL     1     -33.418  15.633  -3.826  1.00 20.00    -0.001 C 
HETATM    3  C1  UNL     1     -33.932  14.465  -4.227  1.00 20.00     0.009 C 
ENDBRANCH   1   2
BRANCH   1   4
HETATM    4  C6  UNL     1     -34.070  17.831  -2.833  1.00 20.00     0.084 C 
HETATM    5  C4  UNL     1     -33.602  17.081  -1.590  1.00 20.00     0.018 C 
HETATM    6  C3  UNL     1     -33.181  18.139  -0.582  1.00 20.00     0.011 C 
HETATM    7  C5  UNL     1     -32.226  19.070  -1.311  1.00 20.00     0.074 C 
HETATM    8  S10 UNL     1     -32.912  19.232  -2.982  1.00 20.00    -0.162 SA
ENDBRANCH   1   4
BRANCH   1   9
HETATM    9  N9  UNL     1     -35.406  16.725  -4.551  1.00 20.00     0.088 N 
HETATM   10  C7  UNL     1     -36.202  17.950  -4.547  1.00 20.00     0.307 C 
HETATM   11  H25 UNL     1     -35.380  16.355  -5.506  1.00 20.00     0.316 HD
ENDBRANCH   1   9
TORSDOF 3
ENDMDL
MODEL 2
REMARK VINA RESULT:      -3.4      2.067      2.535
REMARK  3 active torsions:
REMARK  status: ('A' for Active; 'I' for Inactive)
REMARK    1  A    between atoms: C2_2  and  C8_8 
REMARK    2  A    between atoms: C6_6  and  C8_8 
REMARK    3  A    between atoms: C8_8  and  N9_9 
ROOT
HETATM    1  C8  UNL     1     -34.248  15.687  -5.531  1.00 20.00     0.255 C 
ENDROOT
BRANCH   1   2
HETATM    2  C2  UNL     1     -35.481  14.865  -5.785  1.00 20.00    -0.001 C 
HETATM    3  C1  UNL     1     -35.938  13.925  -4.949  1.00 20.00     0.009 C 
ENDBRANCH   1   2
BRANCH   1   4
HETATM    4  C6  UNL     1     -34.372  16.500  -4.254  1.00 20.00     0.084 C 
HETATM    5  C4  UNL     1     -33.350  16.100  -3.195  1.00 20.00     0.018 C 
HETATM    6  C3  UNL     1     -33.247  17.272  -2.232  1.00 20.00     0.011 C 
HETATM    7  C5  UNL     1     -33.012  18.509  -3.084  1.00 20.00     0.074 C 
HETATM    8  S10 UNL     1     -34.049  18.270  -4.554  1.00 20.00    -0.162 SA
ENDBRANCH   1   4
BRANCH   1   9
HETATM    9  N9  UNL     1     -34.046  16.546  -6.674  1.00 20.00     0.088 N 
HETATM   10  C7  UNL     1     -34.017  15.781  -7.918  1.00 20.00     0.307 C 
HETATM   11  H25 UNL     1     -34.803  17.234  -6.730  1.00 20.00     0.316 HD
ENDBRANCH   1   9
TORSDOF 3
ENDMDL
MODEL 3
REMARK VINA RESULT:      -3.4      1.938      2.437
REMARK  3 active torsions:
REMARK  status: ('A' for Active; 'I' for Inactive)
REMARK    1  A    between atoms: C2_2  and  C8_8 
REMARK    2  A    between atoms: C6_6  and  C8_8 
REMARK    3  A    between atoms: C8_8  and  N9_9 
ROOT
HETATM    1  C8  UNL     1     -33.673  18.273  -2.307  1.00 20.00     0.255 C 
ENDROOT
BRANCH   1   2
HETATM    2  C2  UNL     1     -33.300  17.333  -3.420  1.00 20.00    -0.001 C 
HETATM    3  C1  UNL     1     -33.353  16.000  -3.322  1.00 20.00     0.009 C 
ENDBRANCH   1   2
BRANCH   1   4
HETATM    4  C6  UNL     1     -32.991  17.893  -1.004  1.00 20.00     0.084 C 
HETATM    5  C4  UNL     1     -31.636  18.570  -0.827  1.00 20.00     0.018 C 
HETATM    6  C3  UNL     1     -31.323  18.521   0.661  1.00 20.00     0.011 C 
HETATM    7  C5  UNL     1     -32.546  19.071   1.376  1.00 20.00     0.074 C 
HETATM    8  S10 UNL     1     -33.964  18.432   0.441  1.00 20.00    -0.162 SA
ENDBRANCH   1   4
BRANCH   1   9
HETATM    9  N9  UNL     1     -35.109  18.244  -2.167  1.00 20.00     0.088 N 
HETATM   10  C7  UNL     1     -35.769  18.883  -3.304  1.00 20.00     0.307 C 
HETATM   11  H25 UNL     1     -35.434  17.275  -2.103  1.00 20.00     0.316 HD
ENDBRANCH   1   9
TORSDOF 3
ENDMDL
MODEL 4
REMARK VINA RESULT:      -3.4     11.912     13.011
REMARK  3 active torsions:
REMARK  status: ('A' for Active; 'I' for Inactive)
REMARK    1  A    between atoms: C2_2  and  C8_8 
REMARK    2  A    between atoms: C6_6  and  C8_8 
REMARK    3  A    between atoms: C8_8  and  N9_9 
ROOT
HETATM    1  C8  UNL     1     -32.508   7.630   3.911  1.00 20.00     0.255 C 
ENDROOT
BRANCH   1   2
HETATM    2  C2  UNL     1     -32.198   7.211   2.500  1.00 20.00    -0.001 C 
HETATM    3  C1  UNL     1     -32.159   8.054   1.462  1.00 20.00     0.009 C 
ENDBRANCH   1   2
BRANCH   1   4
HETATM    4  C6  UNL     1     -33.807   7.017   4.403  1.00 20.00     0.084 C 
HETATM    5  C4  UNL     1     -33.969   5.559   3.986  1.00 20.00     0.018 C 
HETATM    6  C3  UNL     1     -34.996   4.954   4.932  1.00 20.00     0.011 C 
HETATM    7  C5  UNL     1     -34.537   5.294   6.340  1.00 20.00     0.074 C 
HETATM    8  S10 UNL     1     -33.882   6.982   6.225  1.00 20.00    -0.162 SA
ENDBRANCH   1   4
BRANCH   1   9
HETATM    9  N9  UNL     1     -32.572   9.072   3.939  1.00 20.00     0.088 N 
HETATM   10  C7  UNL     1     -31.888   9.614   5.111  1.00 20.00     0.307 C 
HETATM   11  H25 UNL     1     -32.133   9.457   3.097  1.00 20.00     0.316 HD
ENDBRANCH   1   9
TORSDOF 3
ENDMDL
MODEL 5
REMARK VINA RESULT:      -3.4      1.992      4.002
REMARK  3 active torsions:
REMARK  status: ('A' for Active; 'I' for Inactive)
REMARK    1  A    between atoms: C2_2  and  C8_8 
REMARK    2  A    between atoms: C6_6  and  C8_8 
REMARK    3  A    between atoms: C8_8  and  N9_9 
ROOT
HETATM    1  C8  UNL     1     -34.312  17.774  -2.904  1.00 20.00     0.255 C 
ENDROOT
BRANCH   1   2
HETATM    2  C2  UNL     1     -33.665  17.228  -1.662  1.00 20.00    -0.001 C 
HETATM    3  C1  UNL     1     -33.650  17.866  -0.486  1.00 20.00     0.009 C 
ENDBRANCH   1   2
BRANCH   1   4
HETATM    4  C6  UNL     1     -33.968  16.939  -4.126  1.00 20.00     0.084 C 
HETATM    5  C4  UNL     1     -33.480  15.539  -3.767  1.00 20.00     0.018 C 
HETATM    6  C3  UNL     1     -33.664  14.688  -5.014  1.00 20.00     0.011 C 
HETATM    7  C5  UNL     1     -35.098  14.899  -5.471  1.00 20.00     0.074 C 
HETATM    8  S10 UNL     1     -35.431  16.658  -5.177  1.00 20.00    -0.162 SA
ENDBRANCH   1   4
BRANCH   1   9
HETATM    9  N9  UNL     1     -33.870  19.139  -3.069  1.00 20.00     0.088 N 
HETATM   10  C7  UNL     1     -32.921  19.263  -4.173  1.00 20.00     0.307 C 
HETATM   11  H25 UNL     1     -34.673  19.744  -3.259  1.00 20.00     0.316 HD
ENDBRANCH   1   9
TORSDOF 3
ENDMDL
MODEL 6
REMARK VINA RESULT:      -3.3      2.162      4.315
REMARK  3 active torsions:
REMARK  status: ('A' for Active; 'I' for Inactive)
REMARK    1  A    between atoms: C2_2  and  C8_8 
REMARK    2  A    between atoms: C6_6  and  C8_8 
REMARK    3  A    between atoms: C8_8  and  N9_9 
ROOT
HETATM    1  C8  UNL     1     -33.563  18.175  -0.284  1.00 20.00     0.255 C 
ENDROOT
BRANCH   1   2
HETATM    2  C2  UNL     1     -32.327  18.584   0.467  1.00 20.00    -0.001 C 
HETATM    3  C1  UNL     1     -31.089  18.512  -0.036  1.00 20.00     0.009 C 
ENDBRANCH   1   2
BRANCH   1   4
HETATM    4  C6  UNL     1     -33.300  18.064  -1.775  1.00 20.00     0.084 C 
HETATM    5  C4  UNL     1     -33.403  16.631  -2.289  1.00 20.00     0.018 C 
HETATM    6  C3  UNL     1     -33.626  16.728  -3.790  1.00 20.00     0.011 C 
HETATM    7  C5  UNL     1     -34.783  17.692  -3.992  1.00 20.00     0.074 C 
HETATM    8  S10 UNL     1     -34.540  18.986  -2.744  1.00 20.00    -0.162 SA
ENDBRANCH   1   4
BRANCH   1   9
HETATM    9  N9  UNL     1     -34.590  19.153  -0.011  1.00 20.00     0.088 N 
HETATM   10  C7  UNL     1     -34.855  19.263   1.422  1.00 20.00     0.307 C 
HETATM   11  H25 UNL     1     -34.299  20.070  -0.361  1.00 20.00     0.316 HD
ENDBRANCH   1   9
TORSDOF 3
ENDMDL
MODEL 7
REMARK VINA RESULT:      -3.2     12.428     13.132
REMARK  3 active torsions:
REMARK  status: ('A' for Active; 'I' for Inactive)
REMARK    1  A    between atoms: C2_2  and  C8_8 
REMARK    2  A    between atoms: C6_6  and  C8_8 
REMARK    3  A    between atoms: C8_8  and  N9_9 
ROOT
HETATM    1  C8  UNL     1     -41.530  13.176   6.400  1.00 20.00     0.255 C 
ENDROOT
BRANCH   1   2
HETATM    2  C2  UNL     1     -40.101  12.869   6.051  1.00 20.00    -0.001 C 
HETATM    3  C1  UNL     1     -39.665  11.659   5.682  1.00 20.00     0.009 C 
ENDBRANCH   1   2
BRANCH   1   4
HETATM    4  C6  UNL     1     -41.626  14.220   7.498  1.00 20.00     0.084 C 
HETATM    5  C4  UNL     1     -40.351  14.322   8.330  1.00 20.00     0.018 C 
HETATM    6  C3  UNL     1     -40.389  15.682   9.009  1.00 20.00     0.011 C 
HETATM    7  C5  UNL     1     -40.665  16.701   7.916  1.00 20.00     0.074 C 
HETATM    8  S10 UNL     1     -41.858  15.894   6.813  1.00 20.00    -0.162 SA
ENDBRANCH   1   4
BRANCH   1   9
HETATM    9  N9  UNL     1     -42.162  11.942   6.802  1.00 20.00     0.088 N 
HETATM   10  C7  UNL     1     -43.411  12.190   7.518  1.00 20.00     0.307 C 
HETATM   11  H25 UNL     1     -42.366  11.370   5.977  1.00 20.00     0.316 HD
ENDBRANCH   1   9
TORSDOF 3
ENDMDL
MODEL 8
REMARK VINA RESULT:      -3.2     12.069     13.183
REMARK  3 active torsions:
REMARK  status: ('A' for Active; 'I' for Inactive)
REMARK    1  A    between atoms: C2_2  and  C8_8 
REMARK    2  A    between atoms: C6_6  and  C8_8 
REMARK    3  A    between atoms: C8_8  and  N9_9 
ROOT
HETATM    1  C8  UNL     1     -33.093   7.952   3.874  1.00 20.00     0.255 C 
ENDROOT
BRANCH   1   2
HETATM    2  C2  UNL     1     -32.217   8.514   4.959  1.00 20.00    -0.001 C 
HETATM    3  C1  UNL     1     -31.873   9.803   5.050  1.00 20.00     0.009 C 
ENDBRANCH   1   2
BRANCH   1   4
HETATM    4  C6  UNL     1     -34.164   7.035   4.439  1.00 20.00     0.084 C 
HETATM    5  C4  UNL     1     -33.995   5.585   3.995  1.00 20.00     0.018 C 
HETATM    6  C3  UNL     1     -34.769   4.738   4.992  1.00 20.00     0.011 C 
HETATM    7  C5  UNL     1     -34.305   5.167   6.374  1.00 20.00     0.074 C 
HETATM    8  S10 UNL     1     -34.092   6.965   6.260  1.00 20.00    -0.162 SA
ENDBRANCH   1   4
BRANCH   1   9
HETATM    9  N9  UNL     1     -32.246   7.247   2.943  1.00 20.00     0.088 N 
HETATM   10  C7  UNL     1     -32.150   7.953   1.667  1.00 20.00     0.307 C 
HETATM   11  H25 UNL     1     -31.304   7.149   3.334  1.00 20.00     0.316 HD
ENDBRANCH   1   9
TORSDOF 3
ENDMDL
MODEL 9
REMARK VINA RESULT:      -3.2      2.768      4.470
REMARK  3 active torsions:
REMARK  status: ('A' for Active; 'I' for Inactive)
REMARK    1  A    between atoms: C2_2  and  C8_8 
REMARK    2  A    between atoms: C6_6  and  C8_8 
REMARK    3  A    between atoms: C8_8  and  N9_9 
ROOT
HETATM    1  C8  UNL     1     -33.914  15.052  -4.880  1.00 20.00     0.255 C 
ENDROOT
BRANCH   1   2
HETATM    2  C2  UNL     1     -33.248  16.044  -3.967  1.00 20.00    -0.001 C 
HETATM    3  C1  UNL     1     -33.535  16.173  -2.667  1.00 20.00     0.009 C 
ENDBRANCH   1   2
BRANCH   1   4
HETATM    4  C6  UNL     1     -34.896  15.731  -5.820  1.00 20.00     0.084 C 
HETATM    5  C4  UNL     1     -35.101  17.207  -5.496  1.00 20.00     0.018 C 
HETATM    6  C3  UNL     1     -35.663  17.849  -6.755  1.00 20.00     0.011 C 
HETATM    7  C5  UNL     1     -34.741  17.442  -7.893  1.00 20.00     0.074 C 
HETATM    8  S10 UNL     1     -34.290  15.721  -7.540  1.00 20.00    -0.162 SA
ENDBRANCH   1   4
BRANCH   1   9
HETATM    9  N9  UNL     1     -34.581  14.072  -4.056  1.00 20.00     0.088 N 
HETATM   10  C7  UNL     1     -35.847  13.648  -4.648  1.00 20.00     0.307 C 
HETATM   11  H25 UNL     1     -33.982  13.248  -3.941  1.00 20.00     0.316 HD
ENDBRANCH   1   9
TORSDOF 3
ENDMDL
