MODEL 1
REMARK VINA RESULT:      -5.3      0.000      0.000
REMARK  2 active torsions:
REMARK  status: ('A' for Active; 'I' for Inactive)
REMARK    1  A    between atoms: C3_3  and  C8_8 
REMARK    2  A    between atoms: C3_3  and  C9_9 
ROOT
HETATM    1  C1  UNL     1     -32.737   9.418   0.371  1.00 20.00     0.012 C 
HETATM    2  C2  UNL     1     -32.450   8.673   1.269  1.00 20.00    -0.110 C 
HETATM    3  C9  UNL     1     -32.098   7.758   2.361  1.00 20.00     0.172 C 
ENDROOT
BRANCH   3   4
HETATM    4  C3  UNL     1     -32.575   8.255   3.711  1.00 20.00     0.151 C 
HETATM    5  O10 UNL     1     -32.136   9.271   4.248  1.00 20.00    -0.296 OA
BRANCH   4   6
HETATM    6  C8  UNL     1     -33.632   7.431   4.376  1.00 20.00     0.117 C 
HETATM    7  C6  UNL     1     -33.436   7.440   5.889  1.00 20.00     0.023 C 
HETATM    8  C4  UNL     1     -34.484   6.612   6.628  1.00 20.00     0.002 C 
HETATM    9  C5  UNL     1     -34.479   5.143   6.212  1.00 20.00     0.010 C 
HETATM   10  C7  UNL     1     -34.758   4.941   4.729  1.00 20.00     0.075 C 
HETATM   11  S11 UNL     1     -33.512   5.753   3.689  1.00 20.00    -0.157 SA
ENDBRANCH   4   6
ENDBRANCH   3   4
TORSDOF 2
ENDMDL
MODEL 2
REMARK VINA RESULT:      -4.7      1.119      1.690
REMARK  2 active torsions:
REMARK  status: ('A' for Active; 'I' for Inactive)
REMARK    1  A    between atoms: C3_3  and  C8_8 
REMARK    2  A    between atoms: C3_3  and  C9_9 
ROOT
HETATM    1  C1  UNL     1     -32.767   9.490   0.223  1.00 20.00     0.012 C 
HETATM    2  C2  UNL     1     -32.457   8.647   1.020  1.00 20.00    -0.110 C 
HETATM    3  C9  UNL     1     -32.076   7.612   1.988  1.00 20.00     0.172 C 
ENDROOT
BRANCH   3   4
HETATM    4  C3  UNL     1     -32.407   8.002   3.415  1.00 20.00     0.151 C 
HETATM    5  O10 UNL     1     -32.315   9.154   3.838  1.00 20.00    -0.296 OA
BRANCH   4   6
HETATM    6  C8  UNL     1     -32.863   6.892   4.308  1.00 20.00     0.117 C 
HETATM    7  C6  UNL     1     -33.679   5.876   3.515  1.00 20.00     0.023 C 
HETATM    8  C4  UNL     1     -34.178   4.716   4.373  1.00 20.00     0.002 C 
HETATM    9  C5  UNL     1     -35.076   5.173   5.520  1.00 20.00     0.010 C 
HETATM   10  C7  UNL     1     -34.382   6.131   6.478  1.00 20.00     0.075 C 
HETATM   11  S11 UNL     1     -33.838   7.648   5.643  1.00 20.00    -0.157 SA
ENDBRANCH   4   6
ENDBRANCH   3   4
TORSDOF 2
ENDMDL
MODEL 3
REMARK VINA RESULT:      -4.5     11.707     12.226
REMARK  2 active torsions:
REMARK  status: ('A' for Active; 'I' for Inactive)
REMARK    1  A    between atoms: C3_3  and  C8_8 
REMARK    2  A    between atoms: C3_3  and  C9_9 
ROOT
HETATM    1  C1  UNL     1     -33.035  15.369  -4.065  1.00 20.00     0.012 C 
HETATM    2  C2  UNL     1     -33.292  16.094  -3.143  1.00 20.00    -0.110 C 
HETATM    3  C9  UNL     1     -33.612  16.975  -2.014  1.00 20.00     0.172 C 
ENDROOT
BRANCH   3   4
HETATM    4  C3  UNL     1     -32.904  18.312  -2.102  1.00 20.00     0.151 C 
HETATM    5  O10 UNL     1     -32.641  18.866  -3.169  1.00 20.00    -0.296 OA
BRANCH   4   6
HETATM    6  C8  UNL     1     -32.531  18.943  -0.798  1.00 20.00     0.117 C 
HETATM    7  C6  UNL     1     -31.169  18.436  -0.335  1.00 20.00     0.023 C 
HETATM    8  C4  UNL     1     -30.732  19.042   0.997  1.00 20.00     0.002 C 
HETATM    9  C5  UNL     1     -31.704  18.735   2.134  1.00 20.00     0.010 C 
HETATM   10  C7  UNL     1     -33.109  19.262   1.877  1.00 20.00     0.075 C 
HETATM   11  S11 UNL     1     -33.845  18.531   0.388  1.00 20.00    -0.157 SA
ENDBRANCH   4   6
ENDBRANCH   3   4
TORSDOF 2
ENDMDL
MODEL 4
REMARK VINA RESULT:      -4.3     11.966     12.832
REMARK  2 active torsions:
REMARK  status: ('A' for Active; 'I' for Inactive)
REMARK    1  A    between atoms: C3_3  and  C8_8 
REMARK    2  A    between atoms: C3_3  and  C9_9 
ROOT
HETATM    1  C1  UNL     1     -31.092  18.604  -0.122  1.00 20.00     0.012 C 
HETATM    2  C2  UNL     1     -32.112  18.250  -0.649  1.00 20.00    -0.110 C 
HETATM    3  C9  UNL     1     -33.359  17.815  -1.285  1.00 20.00     0.172 C 
ENDROOT
BRANCH   3   4
HETATM    4  C3  UNL     1     -33.355  18.038  -2.785  1.00 20.00     0.151 C 
HETATM    5  O10 UNL     1     -32.825  19.011  -3.319  1.00 20.00    -0.296 OA
BRANCH   4   6
HETATM    6  C8  UNL     1     -34.040  16.991  -3.605  1.00 20.00     0.117 C 
HETATM    7  C6  UNL     1     -33.168  15.744  -3.708  1.00 20.00     0.023 C 
HETATM    8  C4  UNL     1     -33.812  14.637  -4.539  1.00 20.00     0.002 C 
HETATM    9  C5  UNL     1     -34.102  15.067  -5.974  1.00 20.00     0.010 C 
HETATM   10  C7  UNL     1     -35.048  16.257  -6.062  1.00 20.00     0.075 C 
HETATM   11  S11 UNL     1     -34.370  17.723  -5.236  1.00 20.00    -0.157 SA
ENDBRANCH   4   6
ENDBRANCH   3   4
TORSDOF 2
ENDMDL
MODEL 5
REMARK VINA RESULT:      -4.2     11.865     12.624
REMARK  2 active torsions:
REMARK  status: ('A' for Active; 'I' for Inactive)
REMARK    1  A    between atoms: C3_3  and  C8_8 
REMARK    2  A    between atoms: C3_3  and  C9_9 
ROOT
HETATM    1  C1  UNL     1     -30.515  18.449   2.012  1.00 20.00     0.012 C 
HETATM    2  C2  UNL     1     -31.082  18.454   0.953  1.00 20.00    -0.110 C 
HETATM    3  C9  UNL     1     -31.769  18.462  -0.344  1.00 20.00     0.172 C 
ENDROOT
BRANCH   3   4
HETATM    4  C3  UNL     1     -33.269  18.295  -0.207  1.00 20.00     0.151 C 
HETATM    5  O10 UNL     1     -33.891  18.596   0.810  1.00 20.00    -0.296 OA
BRANCH   4   6
HETATM    6  C8  UNL     1     -33.977  17.732  -1.399  1.00 20.00     0.117 C 
HETATM    7  C6  UNL     1     -32.994  16.980  -2.292  1.00 20.00     0.023 C 
HETATM    8  C4  UNL     1     -33.657  16.383  -3.532  1.00 20.00     0.002 C 
HETATM    9  C5  UNL     1     -34.308  17.440  -4.420  1.00 20.00     0.010 C 
HETATM   10  C7  UNL     1     -35.396  18.232  -3.708  1.00 20.00     0.075 C 
HETATM   11  S11 UNL     1     -34.748  19.129  -2.269  1.00 20.00    -0.157 SA
ENDBRANCH   4   6
ENDBRANCH   3   4
TORSDOF 2
ENDMDL
MODEL 6
REMARK VINA RESULT:      -4.2     10.082     10.761
REMARK  2 active torsions:
REMARK  status: ('A' for Active; 'I' for Inactive)
REMARK    1  A    between atoms: C3_3  and  C8_8 
REMARK    2  A    between atoms: C3_3  and  C9_9 
ROOT
HETATM    1  C1  UNL     1     -38.957  11.673   3.638  1.00 20.00     0.012 C 
HETATM    2  C2  UNL     1     -39.124  11.826   4.817  1.00 20.00    -0.110 C 
HETATM    3  C9  UNL     1     -39.322  12.007   6.260  1.00 20.00     0.172 C 
ENDROOT
BRANCH   3   4
HETATM    4  C3  UNL     1     -40.638  12.685   6.585  1.00 20.00     0.151 C 
HETATM    5  O10 UNL     1     -41.714  12.089   6.615  1.00 20.00    -0.296 OA
BRANCH   4   6
HETATM    6  C8  UNL     1     -40.565  14.151   6.876  1.00 20.00     0.117 C 
HETATM    7  C6  UNL     1     -40.447  14.387   8.378  1.00 20.00     0.023 C 
HETATM    8  C4  UNL     1     -40.373  15.868   8.742  1.00 20.00     0.002 C 
HETATM    9  C5  UNL     1     -41.602  16.651   8.288  1.00 20.00     0.010 C 
HETATM   10  C7  UNL     1     -41.820  16.603   6.782  1.00 20.00     0.075 C 
HETATM   11  S11 UNL     1     -42.069  14.906   6.188  1.00 20.00    -0.157 SA
ENDBRANCH   4   6
ENDBRANCH   3   4
TORSDOF 2
ENDMDL
MODEL 7
REMARK VINA RESULT:      -4.1      1.585      2.082
REMARK  2 active torsions:
REMARK  status: ('A' for Active; 'I' for Inactive)
REMARK    1  A    between atoms: C3_3  and  C8_8 
REMARK    2  A    between atoms: C3_3  and  C9_9 
ROOT
HETATM    1  C1  UNL     1     -32.862   9.608   0.213  1.00 20.00     0.012 C 
HETATM    2  C2  UNL     1     -32.714   9.194   1.331  1.00 20.00    -0.110 C 
HETATM    3  C9  UNL     1     -32.531   8.697   2.699  1.00 20.00     0.172 C 
ENDROOT
BRANCH   3   4
HETATM    4  C3  UNL     1     -32.544   7.183   2.773  1.00 20.00     0.151 C 
HETATM    5  O10 UNL     1     -32.257   6.460   1.820  1.00 20.00    -0.296 OA
BRANCH   4   6
HETATM    6  C8  UNL     1     -32.928   6.594   4.093  1.00 20.00     0.117 C 
HETATM    7  C6  UNL     1     -34.019   5.544   3.907  1.00 20.00     0.023 C 
HETATM    8  C4  UNL     1     -34.459   4.906   5.223  1.00 20.00     0.002 C 
HETATM    9  C5  UNL     1     -35.019   5.923   6.214  1.00 20.00     0.010 C 
HETATM   10  C7  UNL     1     -34.016   7.005   6.591  1.00 20.00     0.075 C 
HETATM   11  S11 UNL     1     -33.484   7.967   5.147  1.00 20.00    -0.157 SA
ENDBRANCH   4   6
ENDBRANCH   3   4
TORSDOF 2
ENDMDL
MODEL 8
REMARK VINA RESULT:      -4.0     10.081     10.770
REMARK  2 active torsions:
REMARK  status: ('A' for Active; 'I' for Inactive)
REMARK    1  A    between atoms: C3_3  and  C8_8 
REMARK    2  A    between atoms: C3_3  and  C9_9 
ROOT
HETATM    1  C1  UNL     1     -38.915  11.670   3.957  1.00 20.00     0.012 C 
HETATM    2  C2  UNL     1     -39.648  11.898   4.880  1.00 20.00    -0.110 C 
HETATM    3  C9  UNL     1     -40.542  12.170   6.011  1.00 20.00     0.172 C 
ENDROOT
BRANCH   3   4
HETATM    4  C3  UNL     1     -41.277  13.488   5.867  1.00 20.00     0.151 C 
HETATM    5  O10 UNL     1     -41.666  13.927   4.785  1.00 20.00    -0.296 OA
BRANCH   4   6
HETATM    6  C8  UNL     1     -41.514  14.249   7.133  1.00 20.00     0.117 C 
HETATM    7  C6  UNL     1     -40.221  14.354   7.936  1.00 20.00     0.023 C 
HETATM    8  C4  UNL     1     -40.398  15.119   9.246  1.00 20.00     0.002 C 
HETATM    9  C5  UNL     1     -41.420  14.470  10.176  1.00 20.00     0.010 C 
HETATM   10  C7  UNL     1     -42.809  14.371   9.561  1.00 20.00     0.075 C 
HETATM   11  S11 UNL     1     -42.810  13.366   8.050  1.00 20.00    -0.157 SA
ENDBRANCH   4   6
ENDBRANCH   3   4
TORSDOF 2
ENDMDL
MODEL 9
REMARK VINA RESULT:      -4.0     12.098     13.280
REMARK  2 active torsions:
REMARK  status: ('A' for Active; 'I' for Inactive)
REMARK    1  A    between atoms: C3_3  and  C8_8 
REMARK    2  A    between atoms: C3_3  and  C9_9 
ROOT
HETATM    1  C1  UNL     1     -33.721  17.929  -0.388  1.00 20.00     0.012 C 
HETATM    2  C2  UNL     1     -33.556  17.318  -1.409  1.00 20.00    -0.110 C 
HETATM    3  C9  UNL     1     -33.351  16.567  -2.652  1.00 20.00     0.172 C 
ENDROOT
BRANCH   3   4
HETATM    4  C3  UNL     1     -33.723  17.368  -3.884  1.00 20.00     0.151 C 
HETATM    5  O10 UNL     1     -33.189  18.437  -4.179  1.00 20.00    -0.296 OA
BRANCH   4   6
HETATM    6  C8  UNL     1     -34.797  16.784  -4.746  1.00 20.00     0.117 C 
HETATM    7  C6  UNL     1     -34.585  15.283  -4.911  1.00 20.00     0.023 C 
HETATM    8  C4  UNL     1     -35.650  14.626  -5.787  1.00 20.00     0.002 C 
HETATM    9  C5  UNL     1     -35.692  15.203  -7.200  1.00 20.00     0.010 C 
HETATM   10  C7  UNL     1     -35.993  16.696  -7.227  1.00 20.00     0.075 C 
HETATM   11  S11 UNL     1     -34.734  17.656  -6.340  1.00 20.00    -0.157 SA
ENDBRANCH   4   6
ENDBRANCH   3   4
TORSDOF 2
ENDMDL
