MODEL 1
REMARK VINA RESULT:      -3.7      0.000      0.000
REMARK  5 active torsions:
REMARK  status: ('A' for Active; 'I' for Inactive)
REMARK    1  A    between atoms: C3_3  and  C4_4 
REMARK    2  A    between atoms: C3_3  and  N8_8 
REMARK    3  A    between atoms: C5_5  and  C7_7 
REMARK    4  A    between atoms: C6_6  and  C7_7 
REMARK    5  A    between atoms: C7_7  and  N8_8 
ROOT
HETATM    1  C7  UNL     1     -33.127   6.670   4.137  1.00 20.00     0.237 C 
ENDROOT
BRANCH   1   2
HETATM    2  C5  UNL     1     -32.726   6.346   2.694  1.00 20.00     0.150 C 
HETATM    3 CL10 UNL     1     -32.758   4.586   2.390  1.00 20.00    -0.128 Cl
ENDBRANCH   1   2
BRANCH   1   4
HETATM    4  C6  UNL     1     -32.627   8.068   4.581  1.00 20.00     0.011 C 
HETATM    5  C1  UNL     1     -33.544   8.754   5.599  1.00 20.00     0.012 C 
HETATM    6  C2  UNL     1     -32.410   8.990   3.376  1.00 20.00     0.012 C 
ENDBRANCH   1   4
BRANCH   1   7
HETATM    7  N8  UNL     1     -34.558   6.544   4.314  1.00 20.00     0.091 N 
HETATM    8  H25 UNL     1     -34.899   7.290   4.925  1.00 20.00     0.316 HD
BRANCH   7   9
HETATM    9  C3  UNL     1     -34.908   5.255   4.906  1.00 20.00     0.301 C 
BRANCH   9  10
HETATM   10  C4  UNL     1     -34.441   5.160   6.343  1.00 20.00     0.252 C 
HETATM   11  F9  UNL     1     -34.813   6.291   7.005  1.00 20.00    -0.254 F 
ENDBRANCH   9  10
ENDBRANCH   7   9
ENDBRANCH   1   7
TORSDOF 5
ENDMDL
MODEL 2
REMARK VINA RESULT:      -3.7      3.069      4.480
REMARK  5 active torsions:
REMARK  status: ('A' for Active; 'I' for Inactive)
REMARK    1  A    between atoms: C3_3  and  C4_4 
REMARK    2  A    between atoms: C3_3  and  N8_8 
REMARK    3  A    between atoms: C5_5  and  C7_7 
REMARK    4  A    between atoms: C6_6  and  C7_7 
REMARK    5  A    between atoms: C7_7  and  N8_8 
ROOT
HETATM    1  C7  UNL     1     -32.935   6.917   4.248  1.00 20.00     0.237 C 
ENDROOT
BRANCH   1   2
HETATM    2  C5  UNL     1     -33.817   7.915   5.006  1.00 20.00     0.150 C 
HETATM    3 CL10 UNL     1     -34.180   7.337   6.656  1.00 20.00    -0.128 Cl
ENDBRANCH   1   2
BRANCH   1   4
HETATM    4  C6  UNL     1     -33.768   5.795   3.578  1.00 20.00     0.011 C 
HETATM    5  C1  UNL     1     -34.334   4.775   4.572  1.00 20.00     0.012 C 
HETATM    6  C2  UNL     1     -32.959   5.070   2.497  1.00 20.00     0.012 C 
ENDBRANCH   1   4
BRANCH   1   7
HETATM    7  N8  UNL     1     -32.101   7.600   3.282  1.00 20.00     0.091 N 
HETATM    8  H25 UNL     1     -31.140   7.654   3.631  1.00 20.00     0.316 HD
BRANCH   7   9
HETATM    9  C3  UNL     1     -32.585   8.954   3.027  1.00 20.00     0.301 C 
BRANCH   9  10
HETATM   10  C4  UNL     1     -32.772   9.207   1.546  1.00 20.00     0.252 C 
HETATM   11  F9  UNL     1     -32.069   8.275   0.845  1.00 20.00    -0.254 F 
ENDBRANCH   9  10
ENDBRANCH   7   9
ENDBRANCH   1   7
TORSDOF 5
ENDMDL
MODEL 3
REMARK VINA RESULT:      -3.7      2.504      3.800
REMARK  5 active torsions:
REMARK  status: ('A' for Active; 'I' for Inactive)
REMARK    1  A    between atoms: C3_3  and  C4_4 
REMARK    2  A    between atoms: C3_3  and  N8_8 
REMARK    3  A    between atoms: C5_5  and  C7_7 
REMARK    4  A    between atoms: C6_6  and  C7_7 
REMARK    5  A    between atoms: C7_7  and  N8_8 
ROOT
HETATM    1  C7  UNL     1     -33.954   6.646   4.263  1.00 20.00     0.237 C 
ENDROOT
BRANCH   1   2
HETATM    2  C5  UNL     1     -33.957   5.205   3.741  1.00 20.00     0.150 C 
HETATM    3 CL10 UNL     1     -32.778   4.992   2.416  1.00 20.00    -0.128 Cl
ENDBRANCH   1   2
BRANCH   1   4
HETATM    4  C6  UNL     1     -34.386   6.727   5.749  1.00 20.00     0.011 C 
HETATM    5  C1  UNL     1     -33.372   7.445   6.645  1.00 20.00     0.012 C 
HETATM    6  C2  UNL     1     -34.686   5.336   6.318  1.00 20.00     0.012 C 
ENDBRANCH   1   4
BRANCH   1   7
HETATM    7  N8  UNL     1     -32.662   7.265   4.056  1.00 20.00     0.091 N 
HETATM    8  H25 UNL     1     -32.172   7.348   4.951  1.00 20.00     0.316 HD
BRANCH   7   9
HETATM    9  C3  UNL     1     -32.799   8.595   3.470  1.00 20.00     0.301 C 
BRANCH   9  10
HETATM   10  C4  UNL     1     -32.456   8.590   1.995  1.00 20.00     0.252 C 
HETATM   11  F9  UNL     1     -32.841   9.775   1.447  1.00 20.00    -0.254 F 
ENDBRANCH   9  10
ENDBRANCH   7   9
ENDBRANCH   1   7
TORSDOF 5
ENDMDL
MODEL 4
REMARK VINA RESULT:      -3.7      2.206      2.933
REMARK  5 active torsions:
REMARK  status: ('A' for Active; 'I' for Inactive)
REMARK    1  A    between atoms: C3_3  and  C4_4 
REMARK    2  A    between atoms: C3_3  and  N8_8 
REMARK    3  A    between atoms: C5_5  and  C7_7 
REMARK    4  A    between atoms: C6_6  and  C7_7 
REMARK    5  A    between atoms: C7_7  and  N8_8 
ROOT
HETATM    1  C7  UNL     1     -33.518   7.450   4.108  1.00 20.00     0.237 C 
ENDROOT
BRANCH   1   2
HETATM    2  C5  UNL     1     -32.856   8.039   5.358  1.00 20.00     0.150 C 
HETATM    3 CL10 UNL     1     -31.946   9.526   4.972  1.00 20.00    -0.128 Cl
ENDBRANCH   1   2
BRANCH   1   4
HETATM    4  C6  UNL     1     -32.480   6.850   3.127  1.00 20.00     0.011 C 
HETATM    5  C1  UNL     1     -32.186   7.746   1.919  1.00 20.00     0.012 C 
HETATM    6  C2  UNL     1     -32.906   5.458   2.648  1.00 20.00     0.012 C 
ENDBRANCH   1   4
BRANCH   1   7
HETATM    7  N8  UNL     1     -34.524   6.475   4.470  1.00 20.00     0.091 N 
HETATM    8  H25 UNL     1     -35.429   6.750   4.080  1.00 20.00     0.316 HD
BRANCH   7   9
HETATM    9  C3  UNL     1     -34.654   6.361   5.920  1.00 20.00     0.301 C 
BRANCH   9  10
HETATM   10  C4  UNL     1     -34.415   4.941   6.389  1.00 20.00     0.252 C 
HETATM   11  F9  UNL     1     -34.080   4.172   5.317  1.00 20.00    -0.254 F 
ENDBRANCH   9  10
ENDBRANCH   7   9
ENDBRANCH   1   7
TORSDOF 5
ENDMDL
MODEL 5
REMARK VINA RESULT:      -3.6      2.677      3.832
REMARK  5 active torsions:
REMARK  status: ('A' for Active; 'I' for Inactive)
REMARK    1  A    between atoms: C3_3  and  C4_4 
REMARK    2  A    between atoms: C3_3  and  N8_8 
REMARK    3  A    between atoms: C5_5  and  C7_7 
REMARK    4  A    between atoms: C6_6  and  C7_7 
REMARK    5  A    between atoms: C7_7  and  N8_8 
ROOT
HETATM    1  C7  UNL     1     -33.625   6.886   4.231  1.00 20.00     0.237 C 
ENDROOT
BRANCH   1   2
HETATM    2  C5  UNL     1     -33.967   5.465   3.769  1.00 20.00     0.150 C 
HETATM    3 CL10 UNL     1     -32.815   4.889   2.532  1.00 20.00    -0.128 Cl
ENDBRANCH   1   2
BRANCH   1   4
HETATM    4  C6  UNL     1     -33.605   7.007   5.776  1.00 20.00     0.011 C 
HETATM    5  C1  UNL     1     -34.532   6.011   6.481  1.00 20.00     0.012 C 
HETATM    6  C2  UNL     1     -33.936   8.433   6.227  1.00 20.00     0.012 C 
ENDBRANCH   1   4
BRANCH   1   7
HETATM    7  N8  UNL     1     -32.374   7.327   3.652  1.00 20.00     0.091 N 
HETATM    8  H25 UNL     1     -31.690   7.497   4.394  1.00 20.00     0.316 HD
BRANCH   7   9
HETATM    9  C3  UNL     1     -32.549   8.557   2.885  1.00 20.00     0.301 C 
BRANCH   9  10
HETATM   10  C4  UNL     1     -32.286   8.334   1.411  1.00 20.00     0.252 C 
HETATM   11  F9  UNL     1     -32.673   9.441   0.719  1.00 20.00    -0.254 F 
ENDBRANCH   9  10
ENDBRANCH   7   9
ENDBRANCH   1   7
TORSDOF 5
ENDMDL
MODEL 6
REMARK VINA RESULT:      -3.6     12.546     13.485
REMARK  5 active torsions:
REMARK  status: ('A' for Active; 'I' for Inactive)
REMARK    1  A    between atoms: C3_3  and  C4_4 
REMARK    2  A    between atoms: C3_3  and  N8_8 
REMARK    3  A    between atoms: C5_5  and  C7_7 
REMARK    4  A    between atoms: C6_6  and  C7_7 
REMARK    5  A    between atoms: C7_7  and  N8_8 
ROOT
HETATM    1  C7  UNL     1     -34.414  15.245  -5.876  1.00 20.00     0.237 C 
ENDROOT
BRANCH   1   2
HETATM    2  C5  UNL     1     -33.966  15.477  -7.324  1.00 20.00     0.150 C 
HETATM    3 CL10 UNL     1     -34.211  17.177  -7.814  1.00 20.00    -0.128 Cl
ENDBRANCH   1   2
BRANCH   1   4
HETATM    4  C6  UNL     1     -35.883  14.759  -5.793  1.00 20.00     0.011 C 
HETATM    5  C1  UNL     1     -36.898  15.896  -5.639  1.00 20.00     0.012 C 
HETATM    6  C2  UNL     1     -36.069  13.741  -4.661  1.00 20.00     0.012 C 
ENDBRANCH   1   4
BRANCH   1   7
HETATM    7  N8  UNL     1     -33.518  14.329  -5.203  1.00 20.00     0.091 N 
HETATM    8  H25 UNL     1     -34.059  13.607  -4.721  1.00 20.00     0.316 HD
BRANCH   7   9
HETATM    9  C3  UNL     1     -32.688  15.025  -4.223  1.00 20.00     0.301 C 
BRANCH   9  10
HETATM   10  C4  UNL     1     -33.407  16.219  -3.633  1.00 20.00     0.252 C 
HETATM   11  F9  UNL     1     -33.662  15.976  -2.318  1.00 20.00    -0.254 F 
ENDBRANCH   9  10
ENDBRANCH   7   9
ENDBRANCH   1   7
TORSDOF 5
ENDMDL
MODEL 7
REMARK VINA RESULT:      -3.5      9.530     10.573
REMARK  5 active torsions:
REMARK  status: ('A' for Active; 'I' for Inactive)
REMARK    1  A    between atoms: C3_3  and  C4_4 
REMARK    2  A    between atoms: C3_3  and  N8_8 
REMARK    3  A    between atoms: C5_5  and  C7_7 
REMARK    4  A    between atoms: C6_6  and  C7_7 
REMARK    5  A    between atoms: C7_7  and  N8_8 
ROOT
HETATM    1  C7  UNL     1     -40.535  13.512   7.078  1.00 20.00     0.237 C 
ENDROOT
BRANCH   1   2
HETATM    2  C5  UNL     1     -40.569  15.001   7.438  1.00 20.00     0.150 C 
HETATM    3 CL10 UNL     1     -40.112  15.269   9.143  1.00 20.00    -0.128 Cl
ENDBRANCH   1   2
BRANCH   1   4
HETATM    4  C6  UNL     1     -41.825  13.059   6.348  1.00 20.00     0.011 C 
HETATM    5  C1  UNL     1     -42.377  14.104   5.373  1.00 20.00     0.012 C 
HETATM    6  C2  UNL     1     -42.916  12.653   7.345  1.00 20.00     0.012 C 
ENDBRANCH   1   4
BRANCH   1   7
HETATM    7  N8  UNL     1     -39.354  13.198   6.303  1.00 20.00     0.091 N 
HETATM    8  H25 UNL     1     -39.319  13.790   5.469  1.00 20.00     0.316 HD
BRANCH   7   9
HETATM    9  C3  UNL     1     -39.350  11.798   5.885  1.00 20.00     0.301 C 
BRANCH   9  10
HETATM   10  C4  UNL     1     -39.010  11.659   4.417  1.00 20.00     0.252 C 
HETATM   11  F9  UNL     1     -39.797  12.505   3.697  1.00 20.00    -0.254 F 
ENDBRANCH   9  10
ENDBRANCH   7   9
ENDBRANCH   1   7
TORSDOF 5
ENDMDL
MODEL 8
REMARK VINA RESULT:      -3.4     12.599     13.684
REMARK  5 active torsions:
REMARK  status: ('A' for Active; 'I' for Inactive)
REMARK    1  A    between atoms: C3_3  and  C4_4 
REMARK    2  A    between atoms: C3_3  and  N8_8 
REMARK    3  A    between atoms: C5_5  and  C7_7 
REMARK    4  A    between atoms: C6_6  and  C7_7 
REMARK    5  A    between atoms: C7_7  and  N8_8 
ROOT
HETATM    1  C7  UNL     1     -34.545  16.641  -5.203  1.00 20.00     0.237 C 
ENDROOT
BRANCH   1   2
HETATM    2  C5  UNL     1     -34.650  17.418  -6.520  1.00 20.00     0.150 C 
HETATM    3 CL10 UNL     1     -34.077  16.438  -7.899  1.00 20.00    -0.128 Cl
ENDBRANCH   1   2
BRANCH   1   4
HETATM    4  C6  UNL     1     -34.511  15.109  -5.432  1.00 20.00     0.011 C 
HETATM    5  C1  UNL     1     -35.894  14.450  -5.385  1.00 20.00     0.012 C 
HETATM    6  C2  UNL     1     -33.574  14.417  -4.435  1.00 20.00     0.012 C 
ENDBRANCH   1   4
BRANCH   1   7
HETATM    7  N8  UNL     1     -33.401  17.084  -4.435  1.00 20.00     0.091 N 
HETATM    8  H25 UNL     1     -32.913  16.274  -4.044  1.00 20.00     0.316 HD
BRANCH   7   9
HETATM    9  C3  UNL     1     -33.805  17.962  -3.340  1.00 20.00     0.301 C 
BRANCH   9  10
HETATM   10  C4  UNL     1     -33.211  17.513  -2.022  1.00 20.00     0.252 C 
HETATM   11  F9  UNL     1     -33.657  16.258  -1.740  1.00 20.00    -0.254 F 
ENDBRANCH   9  10
ENDBRANCH   7   9
ENDBRANCH   1   7
TORSDOF 5
ENDMDL
MODEL 9
REMARK VINA RESULT:      -3.4     12.510     13.053
REMARK  5 active torsions:
REMARK  status: ('A' for Active; 'I' for Inactive)
REMARK    1  A    between atoms: C3_3  and  C4_4 
REMARK    2  A    between atoms: C3_3  and  N8_8 
REMARK    3  A    between atoms: C5_5  and  C7_7 
REMARK    4  A    between atoms: C6_6  and  C7_7 
REMARK    5  A    between atoms: C7_7  and  N8_8 
ROOT
HETATM    1  C7  UNL     1     -33.920  18.222  -2.300  1.00 20.00     0.237 C 
ENDROOT
BRANCH   1   2
HETATM    2  C5  UNL     1     -35.091  19.163  -1.994  1.00 20.00     0.150 C 
HETATM    3 CL10 UNL     1     -36.547  18.710  -2.924  1.00 20.00    -0.128 Cl
ENDBRANCH   1   2
BRANCH   1   4
HETATM    4  C6  UNL     1     -33.138  17.832  -1.019  1.00 20.00     0.011 C 
HETATM    5  C1  UNL     1     -33.944  18.013   0.271  1.00 20.00     0.012 C 
HETATM    6  C2  UNL     1     -31.817  18.603  -0.917  1.00 20.00     0.012 C 
ENDBRANCH   1   4
BRANCH   1   7
HETATM    7  N8  UNL     1     -34.376  17.050  -3.015  1.00 20.00     0.091 N 
HETATM    8  H25 UNL     1     -35.071  16.551  -2.454  1.00 20.00     0.316 HD
BRANCH   7   9
HETATM    9  C3  UNL     1     -33.269  16.143  -3.306  1.00 20.00     0.301 C 
BRANCH   9  10
HETATM   10  C4  UNL     1     -33.660  15.102  -4.334  1.00 20.00     0.252 C 
HETATM   11  F9  UNL     1     -34.298  14.076  -3.705  1.00 20.00    -0.254 F 
ENDBRANCH   9  10
ENDBRANCH   7   9
ENDBRANCH   1   7
TORSDOF 5
ENDMDL
