MODEL 1
REMARK VINA RESULT:      -4.1      0.000      0.000
REMARK  2 active torsions:
REMARK  status: ('A' for Active; 'I' for Inactive)
REMARK    1  A    between atoms: C1_1  and  C5_5 
REMARK    2  A    between atoms: C1_1  and  C11_11 
ROOT
HETATM    1  C2  UNL     1     -33.161  16.587  -2.997  1.00 20.00     0.013 C 
HETATM    2  C3  UNL     1     -34.159  16.445  -4.143  1.00 20.00     0.009 C 
HETATM    3  C4  UNL     1     -34.962  18.245  -2.792  1.00 20.00     0.021 C 
HETATM    4  C5  UNL     1     -33.762  17.635  -2.055  1.00 20.00     0.056 C 
HETATM    5  C6  UNL     1     -34.809  17.829  -4.266  1.00 20.00    -0.047 C 
HETATM    6  C7  UNL     1     -36.165  17.749  -4.971  1.00 20.00     0.015 C 
HETATM    7  C8  UNL     1     -33.903  18.807  -5.031  1.00 20.00     0.015 C 
ENDROOT
BRANCH   4   8
HETATM    8  C1  UNL     1     -32.751  18.678  -1.682  1.00 20.00     0.134 C 
HETATM    9  O12 UNL     1     -32.103  19.263  -2.549  1.00 20.00    -0.297 OA
BRANCH   8  10
HETATM   10  C11 UNL     1     -32.552  18.943  -0.193  1.00 20.00     0.047 C 
HETATM   11  C9  UNL     1     -33.635  18.232   0.610  1.00 20.00     0.017 C 
HETATM   12  C10 UNL     1     -31.162  18.504   0.260  1.00 20.00     0.017 C 
ENDBRANCH   8  10
ENDBRANCH   4   8
TORSDOF 2
ENDMDL
MODEL 2
REMARK VINA RESULT:      -4.1     10.882     12.778
REMARK  2 active torsions:
REMARK  status: ('A' for Active; 'I' for Inactive)
REMARK    1  A    between atoms: C1_1  and  C5_5 
REMARK    2  A    between atoms: C1_1  and  C11_11 
ROOT
HETATM    1  C2  UNL     1     -42.500  12.703   6.755  1.00 20.00     0.013 C 
HETATM    2  C3  UNL     1     -43.000  13.878   7.591  1.00 20.00     0.009 C 
HETATM    3  C4  UNL     1     -40.676  14.285   7.213  1.00 20.00     0.021 C 
HETATM    4  C5  UNL     1     -40.983  12.891   6.648  1.00 20.00     0.056 C 
HETATM    5  C6  UNL     1     -42.026  15.021   7.278  1.00 20.00    -0.047 C 
HETATM    6  C7  UNL     1     -42.036  16.081   8.381  1.00 20.00     0.015 C 
HETATM    7  C8  UNL     1     -42.362  15.691   5.936  1.00 20.00     0.015 C 
ENDROOT
BRANCH   4   8
HETATM    8  C1  UNL     1     -40.514  12.751   5.231  1.00 20.00     0.134 C 
HETATM    9  O12 UNL     1     -41.042  13.398   4.327  1.00 20.00    -0.297 OA
BRANCH   8  10
HETATM   10  C11 UNL     1     -39.387  11.755   4.973  1.00 20.00     0.047 C 
HETATM   11  C9  UNL     1     -39.050  11.725   3.487  1.00 20.00     0.017 C 
HETATM   12  C10 UNL     1     -38.152  12.099   5.803  1.00 20.00     0.017 C 
ENDBRANCH   8  10
ENDBRANCH   4   8
TORSDOF 2
ENDMDL
MODEL 3
REMARK VINA RESULT:      -3.8     12.187     13.708
REMARK  2 active torsions:
REMARK  status: ('A' for Active; 'I' for Inactive)
REMARK    1  A    between atoms: C1_1  and  C5_5 
REMARK    2  A    between atoms: C1_1  and  C11_11 
ROOT
HETATM    1  C2  UNL     1     -41.113  14.683   9.653  1.00 20.00     0.013 C 
HETATM    2  C3  UNL     1     -41.252  16.190   9.852  1.00 20.00     0.009 C 
HETATM    3  C4  UNL     1     -40.313  15.898   7.674  1.00 20.00     0.021 C 
HETATM    4  C5  UNL     1     -40.371  14.509   8.324  1.00 20.00     0.056 C 
HETATM    5  C6  UNL     1     -41.336  16.763   8.432  1.00 20.00    -0.047 C 
HETATM    6  C7  UNL     1     -40.951  18.244   8.403  1.00 20.00     0.015 C 
HETATM    7  C8  UNL     1     -42.748  16.600   7.845  1.00 20.00     0.015 C 
ENDROOT
BRANCH   4   8
HETATM    8  C1  UNL     1     -41.058  13.512   7.441  1.00 20.00     0.134 C 
HETATM    9  O12 UNL     1     -42.017  12.862   7.855  1.00 20.00    -0.297 OA
BRANCH   8  10
HETATM   10  C11 UNL     1     -40.490  13.327   6.037  1.00 20.00     0.047 C 
HETATM   11  C9  UNL     1     -40.016  11.890   5.853  1.00 20.00     0.017 C 
HETATM   12  C10 UNL     1     -41.522  13.699   4.976  1.00 20.00     0.017 C 
ENDBRANCH   8  10
ENDBRANCH   4   8
TORSDOF 2
ENDMDL
MODEL 4
REMARK VINA RESULT:      -3.7      2.185      3.377
REMARK  2 active torsions:
REMARK  status: ('A' for Active; 'I' for Inactive)
REMARK    1  A    between atoms: C1_1  and  C5_5 
REMARK    2  A    between atoms: C1_1  and  C11_11 
ROOT
HETATM    1  C2  UNL     1     -34.405  14.978  -6.197  1.00 20.00     0.013 C 
HETATM    2  C3  UNL     1     -35.270  15.625  -7.275  1.00 20.00     0.009 C 
HETATM    3  C4  UNL     1     -35.800  16.759  -5.239  1.00 20.00     0.021 C 
HETATM    4  C5  UNL     1     -34.861  15.602  -4.874  1.00 20.00     0.056 C 
HETATM    5  C6  UNL     1     -35.575  17.029  -6.738  1.00 20.00    -0.047 C 
HETATM    6  C7  UNL     1     -36.824  17.620  -7.396  1.00 20.00     0.015 C 
HETATM    7  C8  UNL     1     -34.391  17.984  -6.961  1.00 20.00     0.015 C 
ENDROOT
BRANCH   4   8
HETATM    8  C1  UNL     1     -33.693  16.072  -4.060  1.00 20.00     0.134 C 
HETATM    9  O12 UNL     1     -32.628  15.455  -4.075  1.00 20.00    -0.297 OA
BRANCH   8  10
HETATM   10  C11 UNL     1     -33.906  17.316  -3.203  1.00 20.00     0.047 C 
HETATM   11  C9  UNL     1     -33.595  17.002  -1.745  1.00 20.00     0.017 C 
HETATM   12  C10 UNL     1     -33.050  18.477  -3.703  1.00 20.00     0.017 C 
ENDBRANCH   8  10
ENDBRANCH   4   8
TORSDOF 2
ENDMDL
MODEL 5
REMARK VINA RESULT:      -3.6      1.525      4.466
REMARK  2 active torsions:
REMARK  status: ('A' for Active; 'I' for Inactive)
REMARK    1  A    between atoms: C1_1  and  C5_5 
REMARK    2  A    between atoms: C1_1  and  C11_11 
ROOT
HETATM    1  C2  UNL     1     -33.665  16.595  -3.016  1.00 20.00     0.013 C 
HETATM    2  C3  UNL     1     -33.449  17.056  -1.578  1.00 20.00     0.009 C 
HETATM    3  C4  UNL     1     -32.962  18.948  -2.954  1.00 20.00     0.021 C 
HETATM    4  C5  UNL     1     -33.204  17.760  -3.896  1.00 20.00     0.056 C 
HETATM    5  C6  UNL     1     -33.641  18.577  -1.624  1.00 20.00    -0.047 C 
HETATM    6  C7  UNL     1     -32.963  19.263  -0.436  1.00 20.00     0.015 C 
HETATM    7  C8  UNL     1     -35.132  18.953  -1.635  1.00 20.00     0.015 C 
ENDROOT
BRANCH   4   8
HETATM    8  C1  UNL     1     -34.222  18.086  -4.948  1.00 20.00     0.134 C 
HETATM    9  O12 UNL     1     -34.087  19.076  -5.667  1.00 20.00    -0.297 OA
BRANCH   8  10
HETATM   10  C11 UNL     1     -35.427  17.157  -5.053  1.00 20.00     0.047 C 
HETATM   11  C9  UNL     1     -36.713  17.950  -4.852  1.00 20.00     0.017 C 
HETATM   12  C10 UNL     1     -35.442  16.430  -6.396  1.00 20.00     0.017 C 
ENDBRANCH   8  10
ENDBRANCH   4   8
TORSDOF 2
ENDMDL
MODEL 6
REMARK VINA RESULT:      -3.6      2.158      3.541
REMARK  2 active torsions:
REMARK  status: ('A' for Active; 'I' for Inactive)
REMARK    1  A    between atoms: C1_1  and  C5_5 
REMARK    2  A    between atoms: C1_1  and  C11_11 
ROOT
HETATM    1  C2  UNL     1     -36.011  17.637  -4.961  1.00 20.00     0.013 C 
HETATM    2  C3  UNL     1     -36.733  16.903  -6.088  1.00 20.00     0.009 C 
HETATM    3  C4  UNL     1     -34.415  16.383  -6.346  1.00 20.00     0.021 C 
HETATM    4  C5  UNL     1     -34.517  17.425  -5.224  1.00 20.00     0.056 C 
HETATM    5  C6  UNL     1     -35.807  15.735  -6.447  1.00 20.00    -0.047 C 
HETATM    6  C7  UNL     1     -36.084  15.215  -7.860  1.00 20.00     0.015 C 
HETATM    7  C8  UNL     1     -35.956  14.574  -5.449  1.00 20.00     0.015 C 
ENDROOT
BRANCH   4   8
HETATM    8  C1  UNL     1     -33.801  16.977  -3.985  1.00 20.00     0.134 C 
HETATM    9  O12 UNL     1     -33.216  15.895  -3.954  1.00 20.00    -0.297 OA
BRANCH   8  10
HETATM   10  C11 UNL     1     -33.868  17.906  -2.776  1.00 20.00     0.047 C 
HETATM   11  C9  UNL     1     -33.586  17.120  -1.501  1.00 20.00     0.017 C 
HETATM   12  C10 UNL     1     -32.889  19.068  -2.926  1.00 20.00     0.017 C 
ENDBRANCH   8  10
ENDBRANCH   4   8
TORSDOF 2
ENDMDL
MODEL 7
REMARK VINA RESULT:      -3.6      2.192      4.956
REMARK  2 active torsions:
REMARK  status: ('A' for Active; 'I' for Inactive)
REMARK    1  A    between atoms: C1_1  and  C5_5 
REMARK    2  A    between atoms: C1_1  and  C11_11 
ROOT
HETATM    1  C2  UNL     1     -33.559  18.849  -4.594  1.00 20.00     0.013 C 
HETATM    2  C3  UNL     1     -32.905  18.840  -3.215  1.00 20.00     0.009 C 
HETATM    3  C4  UNL     1     -35.177  18.187  -2.868  1.00 20.00     0.021 C 
HETATM    4  C5  UNL     1     -35.047  18.582  -4.346  1.00 20.00     0.056 C 
HETATM    5  C6  UNL     1     -33.751  17.862  -2.390  1.00 20.00    -0.047 C 
HETATM    6  C7  UNL     1     -33.591  18.113  -0.889  1.00 20.00     0.015 C 
HETATM    7  C8  UNL     1     -33.379  16.402  -2.697  1.00 20.00     0.015 C 
ENDROOT
BRANCH   4   8
HETATM    8  C1  UNL     1     -35.568  17.509  -5.254  1.00 20.00     0.134 C 
HETATM    9  O12 UNL     1     -36.743  17.150  -5.192  1.00 20.00    -0.297 OA
BRANCH   8  10
HETATM   10  C11 UNL     1     -34.569  16.877  -6.219  1.00 20.00     0.047 C 
HETATM   11  C9  UNL     1     -34.581  15.361  -6.060  1.00 20.00     0.017 C 
HETATM   12  C10 UNL     1     -34.876  17.274  -7.661  1.00 20.00     0.017 C 
ENDBRANCH   8  10
ENDBRANCH   4   8
TORSDOF 2
ENDMDL
MODEL 8
REMARK VINA RESULT:      -3.6     12.184     13.981
REMARK  2 active torsions:
REMARK  status: ('A' for Active; 'I' for Inactive)
REMARK    1  A    between atoms: C1_1  and  C5_5 
REMARK    2  A    between atoms: C1_1  and  C11_11 
ROOT
HETATM    1  C2  UNL     1     -40.191  14.547   8.995  1.00 20.00     0.013 C 
HETATM    2  C3  UNL     1     -40.502  15.531  10.119  1.00 20.00     0.009 C 
HETATM    3  C4  UNL     1     -41.002  16.680   8.085  1.00 20.00     0.021 C 
HETATM    4  C5  UNL     1     -40.366  15.338   7.695  1.00 20.00     0.056 C 
HETATM    5  C6  UNL     1     -41.530  16.496   9.518  1.00 20.00    -0.047 C 
HETATM    6  C7  UNL     1     -41.564  17.823  10.280  1.00 20.00     0.015 C 
HETATM    7  C8  UNL     1     -42.941  15.883   9.518  1.00 20.00     0.015 C 
ENDROOT
BRANCH   4   8
HETATM    8  C1  UNL     1     -41.211  14.590   6.708  1.00 20.00     0.134 C 
HETATM    9  O12 UNL     1     -41.936  15.193   5.917  1.00 20.00    -0.297 OA
BRANCH   8  10
HETATM   10  C11 UNL     1     -41.149  13.067   6.762  1.00 20.00     0.047 C 
HETATM   11  C9  UNL     1     -42.556  12.493   6.876  1.00 20.00     0.017 C 
HETATM   12  C10 UNL     1     -40.430  12.505   5.538  1.00 20.00     0.017 C 
ENDBRANCH   8  10
ENDBRANCH   4   8
TORSDOF 2
ENDMDL
MODEL 9
REMARK VINA RESULT:      -3.6     12.208     13.567
REMARK  2 active torsions:
REMARK  status: ('A' for Active; 'I' for Inactive)
REMARK    1  A    between atoms: C1_1  and  C5_5 
REMARK    2  A    between atoms: C1_1  and  C11_11 
ROOT
HETATM    1  C2  UNL     1     -42.245  15.274   5.941  1.00 20.00     0.013 C 
HETATM    2  C3  UNL     1     -41.804  14.116   5.050  1.00 20.00     0.009 C 
HETATM    3  C4  UNL     1     -40.373  14.053   6.963  1.00 20.00     0.021 C 
HETATM    4  C5  UNL     1     -41.228  15.322   7.086  1.00 20.00     0.056 C 
HETATM    5  C6  UNL     1     -41.138  13.120   6.008  1.00 20.00    -0.047 C 
HETATM    6  C7  UNL     1     -40.190  12.178   5.264  1.00 20.00     0.015 C 
HETATM    7  C8  UNL     1     -42.184  12.284   6.763  1.00 20.00     0.015 C 
ENDROOT
BRANCH   4   8
HETATM    8  C1  UNL     1     -41.909  15.405   8.419  1.00 20.00     0.134 C 
HETATM    9  O12 UNL     1     -42.874  16.150   8.587  1.00 20.00    -0.297 OA
BRANCH   8  10
HETATM   10  C11 UNL     1     -41.328  14.553   9.544  1.00 20.00     0.047 C 
HETATM   11  C9  UNL     1     -40.494  15.424  10.477  1.00 20.00     0.017 C 
HETATM   12  C10 UNL     1     -42.435  13.837  10.314  1.00 20.00     0.017 C 
ENDBRANCH   8  10
ENDBRANCH   4   8
TORSDOF 2
ENDMDL
