MODEL 1
REMARK VINA RESULT:      -4.6      0.000      0.000
REMARK  0 active torsions:
REMARK  status: ('A' for Active; 'I' for Inactive)
ROOT
HETATM    1  C1  UNL     1     -22.420  17.730   8.930  1.00 20.00     0.064 C 
HETATM    2  C2  UNL     1     -22.221  18.477  11.290  1.00 20.00     0.020 C 
HETATM    3  C3  UNL     1     -23.334  18.499  12.332  1.00 20.00     0.010 C 
HETATM    4  C4  UNL     1     -24.423  18.488  10.204  1.00 20.00     0.027 C 
HETATM    5  C5  UNL     1     -22.920  18.674   9.939  1.00 20.00     0.093 C 
HETATM    6  C6  UNL     1     -24.542  17.884  11.615  1.00 20.00    -0.046 C 
HETATM    7  C7  UNL     1     -24.450  16.348  11.572  1.00 20.00     0.015 C 
HETATM    8  C8  UNL     1     -25.857  18.285  12.290  1.00 20.00     0.015 C 
HETATM    9  N9  UNL     1     -22.025  16.984   8.134  1.00 20.00    -0.197 NA
ENDROOT
TORSDOF 0
ENDMDL
MODEL 2
REMARK VINA RESULT:      -3.9     15.527     16.632
REMARK  0 active torsions:
REMARK  status: ('A' for Active; 'I' for Inactive)
ROOT
HETATM    1  C1  UNL     1     -32.738   8.342   2.821  1.00 20.00     0.064 C 
HETATM    2  C2  UNL     1     -32.848   5.861   2.858  1.00 20.00     0.020 C 
HETATM    3  C3  UNL     1     -33.600   5.001   3.868  1.00 20.00     0.010 C 
HETATM    4  C4  UNL     1     -33.262   7.117   4.927  1.00 20.00     0.027 C 
HETATM    5  C5  UNL     1     -32.460   7.138   3.616  1.00 20.00     0.093 C 
HETATM    6  C6  UNL     1     -34.321   6.010   4.769  1.00 20.00    -0.046 C 
HETATM    7  C7  UNL     1     -35.597   6.553   4.102  1.00 20.00     0.015 C 
HETATM    8  C8  UNL     1     -34.691   5.389   6.120  1.00 20.00     0.015 C 
HETATM    9  N9  UNL     1     -32.959   9.293   2.194  1.00 20.00    -0.197 NA
ENDROOT
TORSDOF 0
ENDMDL
MODEL 3
REMARK VINA RESULT:      -3.6     15.771     16.833
REMARK  0 active torsions:
REMARK  status: ('A' for Active; 'I' for Inactive)
ROOT
HETATM    1  C1  UNL     1     -32.051  18.243  -0.966  1.00 20.00     0.064 C 
HETATM    2  C2  UNL     1     -33.138  16.674  -2.556  1.00 20.00     0.020 C 
HETATM    3  C3  UNL     1     -34.153  17.035  -3.635  1.00 20.00     0.010 C 
HETATM    4  C4  UNL     1     -34.225  18.816  -2.042  1.00 20.00     0.027 C 
HETATM    5  C5  UNL     1     -33.336  17.713  -1.444  1.00 20.00     0.093 C 
HETATM    6  C6  UNL     1     -34.266  18.562  -3.560  1.00 20.00    -0.046 C 
HETATM    7  C7  UNL     1     -33.088  19.250  -4.271  1.00 20.00     0.015 C 
HETATM    8  C8  UNL     1     -35.578  19.057  -4.178  1.00 20.00     0.015 C 
HETATM    9  N9  UNL     1     -31.036  18.661  -0.590  1.00 20.00    -0.197 NA
ENDROOT
TORSDOF 0
ENDMDL
MODEL 4
REMARK VINA RESULT:      -3.5     15.321     16.348
REMARK  0 active torsions:
REMARK  status: ('A' for Active; 'I' for Inactive)
ROOT
HETATM    1  C1  UNL     1     -31.601  18.791  -0.882  1.00 20.00     0.064 C 
HETATM    2  C2  UNL     1     -34.076  18.678  -1.053  1.00 20.00     0.020 C 
HETATM    3  C3  UNL     1     -34.882  18.216  -2.263  1.00 20.00     0.010 C 
HETATM    4  C4  UNL     1     -32.732  18.837  -3.103  1.00 20.00     0.027 C 
HETATM    5  C5  UNL     1     -32.778  19.263  -1.626  1.00 20.00     0.093 C 
HETATM    6  C6  UNL     1     -33.825  17.767  -3.279  1.00 20.00    -0.046 C 
HETATM    7  C7  UNL     1     -33.287  16.364  -2.950  1.00 20.00     0.015 C 
HETATM    8  C8  UNL     1     -34.385  17.765  -4.704  1.00 20.00     0.015 C 
HETATM    9  N9  UNL     1     -30.672  18.418  -0.296  1.00 20.00    -0.197 NA
ENDROOT
TORSDOF 0
ENDMDL
MODEL 5
REMARK VINA RESULT:      -3.3     18.296     19.243
REMARK  0 active torsions:
REMARK  status: ('A' for Active; 'I' for Inactive)
ROOT
HETATM    1  C1  UNL     1     -34.992  13.998  -4.547  1.00 20.00     0.064 C 
HETATM    2  C2  UNL     1     -33.660  15.797  -3.470  1.00 20.00     0.020 C 
HETATM    3  C3  UNL     1     -33.584  17.256  -3.907  1.00 20.00     0.010 C 
HETATM    4  C4  UNL     1     -34.320  16.031  -5.823  1.00 20.00     0.027 C 
HETATM    5  C5  UNL     1     -33.935  14.998  -4.751  1.00 20.00     0.093 C 
HETATM    6  C6  UNL     1     -34.567  17.356  -5.080  1.00 20.00    -0.046 C 
HETATM    7  C7  UNL     1     -36.022  17.455  -4.588  1.00 20.00     0.015 C 
HETATM    8  C8  UNL     1     -34.258  18.565  -5.967  1.00 20.00     0.015 C 
HETATM    9  N9  UNL     1     -35.827  13.209  -4.385  1.00 20.00    -0.197 NA
ENDROOT
TORSDOF 0
ENDMDL
MODEL 6
REMARK VINA RESULT:      -3.3     18.082     19.017
REMARK  0 active torsions:
REMARK  status: ('A' for Active; 'I' for Inactive)
ROOT
HETATM    1  C1  UNL     1     -33.501  18.335  -4.330  1.00 20.00     0.064 C 
HETATM    2  C2  UNL     1     -33.230  15.983  -3.580  1.00 20.00     0.020 C 
HETATM    3  C3  UNL     1     -33.953  14.763  -4.140  1.00 20.00     0.010 C 
HETATM    4  C4  UNL     1     -35.295  16.652  -4.729  1.00 20.00     0.027 C 
HETATM    5  C5  UNL     1     -34.193  17.160  -3.784  1.00 20.00     0.093 C 
HETATM    6  C6  UNL     1     -34.791  15.314  -5.300  1.00 20.00    -0.046 C 
HETATM    7  C7  UNL     1     -33.936  15.533  -6.560  1.00 20.00     0.015 C 
HETATM    8  C8  UNL     1     -35.953  14.377  -5.644  1.00 20.00     0.015 C 
HETATM    9  N9  UNL     1     -32.954  19.263  -4.762  1.00 20.00    -0.197 NA
ENDROOT
TORSDOF 0
ENDMDL
MODEL 7
REMARK VINA RESULT:      -3.3     15.480     16.541
REMARK  0 active torsions:
REMARK  status: ('A' for Active; 'I' for Inactive)
ROOT
HETATM    1  C1  UNL     1     -33.505  18.382   0.133  1.00 20.00     0.064 C 
HETATM    2  C2  UNL     1     -32.519  19.201  -1.994  1.00 20.00     0.020 C 
HETATM    3  C3  UNL     1     -32.864  18.718  -3.399  1.00 20.00     0.010 C 
HETATM    4  C4  UNL     1     -33.535  16.966  -1.918  1.00 20.00     0.027 C 
HETATM    5  C5  UNL     1     -32.764  17.996  -1.076  1.00 20.00     0.093 C 
HETATM    6  C6  UNL     1     -33.994  17.703  -3.189  1.00 20.00    -0.046 C 
HETATM    7  C7  UNL     1     -35.347  18.403  -2.969  1.00 20.00     0.015 C 
HETATM    8  C8  UNL     1     -34.116  16.748  -4.380  1.00 20.00     0.015 C 
HETATM    9  N9  UNL     1     -34.091  18.687   1.087  1.00 20.00    -0.197 NA
ENDROOT
TORSDOF 0
ENDMDL
MODEL 8
REMARK VINA RESULT:      -3.2     15.132     16.372
REMARK  0 active torsions:
REMARK  status: ('A' for Active; 'I' for Inactive)
ROOT
HETATM    1  C1  UNL     1     -34.480   5.791   5.536  1.00 20.00     0.064 C 
HETATM    2  C2  UNL     1     -32.980   5.762   3.556  1.00 20.00     0.020 C 
HETATM    3  C3  UNL     1     -32.398   6.976   2.840  1.00 20.00     0.010 C 
HETATM    4  C4  UNL     1     -34.317   7.767   4.025  1.00 20.00     0.027 C 
HETATM    5  C5  UNL     1     -34.316   6.234   4.144  1.00 20.00     0.093 C 
HETATM    6  C6  UNL     1     -32.876   8.175   3.669  1.00 20.00    -0.046 C 
HETATM    7  C7  UNL     1     -32.022   8.362   4.934  1.00 20.00     0.015 C 
HETATM    8  C8  UNL     1     -32.844   9.469   2.850  1.00 20.00     0.015 C 
HETATM    9  N9  UNL     1     -34.608   5.442   6.635  1.00 20.00    -0.197 NA
ENDROOT
TORSDOF 0
ENDMDL
MODEL 9
REMARK VINA RESULT:      -3.2     18.235     19.626
REMARK  0 active torsions:
REMARK  status: ('A' for Active; 'I' for Inactive)
ROOT
HETATM    1  C1  UNL     1     -42.912  15.675   5.320  1.00 20.00     0.064 C 
HETATM    2  C2  UNL     1     -43.346  13.496   6.430  1.00 20.00     0.020 C 
HETATM    3  C3  UNL     1     -42.322  12.402   6.712  1.00 20.00     0.010 C 
HETATM    4  C4  UNL     1     -41.399  13.729   4.951  1.00 20.00     0.027 C 
HETATM    5  C5  UNL     1     -42.841  14.215   5.171  1.00 20.00     0.093 C 
HETATM    6  C6  UNL     1     -40.988  12.994   6.240  1.00 20.00    -0.046 C 
HETATM    7  C7  UNL     1     -40.406  13.970   7.276  1.00 20.00     0.015 C 
HETATM    8  C8  UNL     1     -39.958  11.896   5.957  1.00 20.00     0.015 C 
HETATM    9  N9  UNL     1     -42.967  16.828   5.437  1.00 20.00    -0.197 NA
ENDROOT
TORSDOF 0
ENDMDL
