MODEL 1
REMARK VINA RESULT:      -4.4      0.000      0.000
REMARK  0 active torsions:
REMARK  status: ('A' for Active; 'I' for Inactive)
ROOT
HETATM    1  C1  UNL     1     -32.071   8.270   1.639  1.00 20.00     0.088 C 
HETATM    2  C2  UNL     1     -33.047   7.169   3.545  1.00 20.00    -0.069 C 
HETATM    3  C3  UNL     1     -32.565   8.275   2.969  1.00 20.00     0.096 C 
HETATM    4  C4  UNL     1     -33.127   5.826   2.878  1.00 20.00     0.036 C 
HETATM    5  C5  UNL     1     -33.610   7.106   4.940  1.00 20.00     0.043 C 
HETATM    6  C6  UNL     1     -33.568   4.896   4.006  1.00 20.00     0.013 C 
HETATM    7  C7  UNL     1     -34.394   5.783   4.953  1.00 20.00    -0.044 C 
HETATM    8  C8  UNL     1     -35.827   5.976   4.423  1.00 20.00     0.015 C 
HETATM    9  C9  UNL     1     -34.461   5.185   6.361  1.00 20.00     0.015 C 
HETATM   10  N10 UNL     1     -31.667   8.271   0.551  1.00 20.00    -0.192 NA
ENDROOT
TORSDOF 0
ENDMDL
MODEL 2
REMARK VINA RESULT:      -4.3     11.805     12.832
REMARK  0 active torsions:
REMARK  status: ('A' for Active; 'I' for Inactive)
ROOT
HETATM    1  C1  UNL     1     -33.774  15.108  -5.537  1.00 20.00     0.088 C 
HETATM    2  C2  UNL     1     -33.796  16.378  -3.491  1.00 20.00    -0.069 C 
HETATM    3  C3  UNL     1     -33.414  15.297  -4.177  1.00 20.00     0.096 C 
HETATM    4  C4  UNL     1     -34.629  17.494  -4.055  1.00 20.00     0.036 C 
HETATM    5  C5  UNL     1     -33.430  16.656  -2.058  1.00 20.00     0.043 C 
HETATM    6  C6  UNL     1     -34.931  18.361  -2.834  1.00 20.00     0.013 C 
HETATM    7  C7  UNL     1     -33.730  18.156  -1.894  1.00 20.00    -0.044 C 
HETATM    8  C8  UNL     1     -32.530  19.018  -2.330  1.00 20.00     0.015 C 
HETATM    9  C9  UNL     1     -34.090  18.501  -0.446  1.00 20.00     0.015 C 
HETATM   10  N10 UNL     1     -34.067  14.949  -6.649  1.00 20.00    -0.192 NA
ENDROOT
TORSDOF 0
ENDMDL
MODEL 3
REMARK VINA RESULT:      -4.1     15.964     16.453
REMARK  0 active torsions:
REMARK  status: ('A' for Active; 'I' for Inactive)
ROOT
HETATM    1  C1  UNL     1     -21.716  17.643   7.702  1.00 20.00     0.088 C 
HETATM    2  C2  UNL     1     -23.223  17.568   9.578  1.00 20.00    -0.069 C 
HETATM    3  C3  UNL     1     -22.227  17.024   8.872  1.00 20.00     0.096 C 
HETATM    4  C4  UNL     1     -23.905  18.861   9.232  1.00 20.00     0.036 C 
HETATM    5  C5  UNL     1     -23.797  16.983  10.841  1.00 20.00     0.043 C 
HETATM    6  C6  UNL     1     -25.064  18.926  10.226  1.00 20.00     0.013 C 
HETATM    7  C7  UNL     1     -24.570  18.158  11.464  1.00 20.00    -0.044 C 
HETATM    8  C8  UNL     1     -23.650  19.036  12.332  1.00 20.00     0.015 C 
HETATM    9  C9  UNL     1     -25.742  17.667  12.320  1.00 20.00     0.015 C 
HETATM   10  N10 UNL     1     -21.295  18.144   6.744  1.00 20.00    -0.192 NA
ENDROOT
TORSDOF 0
ENDMDL
MODEL 4
REMARK VINA RESULT:      -4.1     11.915     12.999
REMARK  0 active torsions:
REMARK  status: ('A' for Active; 'I' for Inactive)
ROOT
HETATM    1  C1  UNL     1     -31.040  18.671   1.913  1.00 20.00     0.088 C 
HETATM    2  C2  UNL     1     -32.157  18.682  -0.220  1.00 20.00    -0.069 C 
HETATM    3  C3  UNL     1     -31.040  18.816   0.501  1.00 20.00     0.096 C 
HETATM    4  C4  UNL     1     -33.510  18.371   0.354  1.00 20.00     0.036 C 
HETATM    5  C5  UNL     1     -32.227  18.795  -1.719  1.00 20.00     0.043 C 
HETATM    6  C6  UNL     1     -34.445  18.511  -0.846  1.00 20.00     0.013 C 
HETATM    7  C7  UNL     1     -33.581  18.152  -2.068  1.00 20.00    -0.044 C 
HETATM    8  C8  UNL     1     -33.450  16.626  -2.226  1.00 20.00     0.015 C 
HETATM    9  C9  UNL     1     -34.165  18.738  -3.356  1.00 20.00     0.015 C 
HETATM   10  N10 UNL     1     -31.035  18.554   3.067  1.00 20.00    -0.192 NA
ENDROOT
TORSDOF 0
ENDMDL
MODEL 5
REMARK VINA RESULT:      -4.0     11.631     12.993
REMARK  0 active torsions:
REMARK  status: ('A' for Active; 'I' for Inactive)
ROOT
HETATM    1  C1  UNL     1     -32.865  18.782  -2.694  1.00 20.00     0.088 C 
HETATM    2  C2  UNL     1     -34.124  17.137  -3.922  1.00 20.00    -0.069 C 
HETATM    3  C3  UNL     1     -33.929  18.407  -3.555  1.00 20.00     0.096 C 
HETATM    4  C4  UNL     1     -33.268  15.983  -3.485  1.00 20.00     0.036 C 
HETATM    5  C5  UNL     1     -35.213  16.672  -4.851  1.00 20.00     0.043 C 
HETATM    6  C6  UNL     1     -34.016  14.764  -4.021  1.00 20.00     0.013 C 
HETATM    7  C7  UNL     1     -34.750  15.268  -5.276  1.00 20.00    -0.044 C 
HETATM    8  C8  UNL     1     -33.798  15.336  -6.485  1.00 20.00     0.015 C 
HETATM    9  C9  UNL     1     -35.937  14.367  -5.628  1.00 20.00     0.015 C 
HETATM   10  N10 UNL     1     -31.996  19.093  -1.991  1.00 20.00    -0.192 NA
ENDROOT
TORSDOF 0
ENDMDL
MODEL 6
REMARK VINA RESULT:      -3.9     11.874     13.067
REMARK  0 active torsions:
REMARK  status: ('A' for Active; 'I' for Inactive)
ROOT
HETATM    1  C1  UNL     1     -33.798  17.600  -1.367  1.00 20.00     0.088 C 
HETATM    2  C2  UNL     1     -33.790  16.545  -3.532  1.00 20.00    -0.069 C 
HETATM    3  C3  UNL     1     -33.405  16.563  -2.253  1.00 20.00     0.096 C 
HETATM    4  C4  UNL     1     -34.661  17.588  -4.173  1.00 20.00     0.036 C 
HETATM    5  C5  UNL     1     -33.434  15.466  -4.519  1.00 20.00     0.043 C 
HETATM    6  C6  UNL     1     -34.643  17.203  -5.652  1.00 20.00     0.013 C 
HETATM    7  C7  UNL     1     -34.440  15.678  -5.664  1.00 20.00    -0.044 C 
HETATM    8  C8  UNL     1     -35.763  14.940  -5.390  1.00 20.00     0.015 C 
HETATM    9  C9  UNL     1     -33.873  15.201  -7.004  1.00 20.00     0.015 C 
HETATM   10  N10 UNL     1     -34.117  18.446  -0.640  1.00 20.00    -0.192 NA
ENDROOT
TORSDOF 0
ENDMDL
MODEL 7
REMARK VINA RESULT:      -3.7      9.826     10.855
REMARK  0 active torsions:
REMARK  status: ('A' for Active; 'I' for Inactive)
ROOT
HETATM    1  C1  UNL     1     -39.282  12.029   4.487  1.00 20.00     0.088 C 
HETATM    2  C2  UNL     1     -40.428  13.192   6.256  1.00 20.00    -0.069 C 
HETATM    3  C3  UNL     1     -39.425  12.410   5.846  1.00 20.00     0.096 C 
HETATM    4  C4  UNL     1     -41.496  13.748   5.358  1.00 20.00     0.036 C 
HETATM    5  C5  UNL     1     -40.628  13.657   7.674  1.00 20.00     0.043 C 
HETATM    6  C6  UNL     1     -42.475  14.399   6.334  1.00 20.00     0.013 C 
HETATM    7  C7  UNL     1     -41.614  14.829   7.534  1.00 20.00    -0.044 C 
HETATM    8  C8  UNL     1     -40.876  16.150   7.243  1.00 20.00     0.015 C 
HETATM    9  C9  UNL     1     -42.463  15.002   8.797  1.00 20.00     0.015 C 
HETATM   10  N10 UNL     1     -39.160  11.714   3.377  1.00 20.00    -0.192 NA
ENDROOT
TORSDOF 0
ENDMDL
MODEL 8
REMARK VINA RESULT:      -3.6     12.141     13.374
REMARK  0 active torsions:
REMARK  status: ('A' for Active; 'I' for Inactive)
ROOT
HETATM    1  C1  UNL     1     -35.455  15.439  -6.470  1.00 20.00     0.088 C 
HETATM    2  C2  UNL     1     -34.354  16.921  -4.922  1.00 20.00    -0.069 C 
HETATM    3  C3  UNL     1     -34.949  16.713  -6.101  1.00 20.00     0.096 C 
HETATM    4  C4  UNL     1     -34.153  15.865  -3.873  1.00 20.00     0.036 C 
HETATM    5  C5  UNL     1     -33.820  18.247  -4.454  1.00 20.00     0.043 C 
HETATM    6  C6  UNL     1     -33.280  16.563  -2.832  1.00 20.00     0.013 C 
HETATM    7  C7  UNL     1     -33.649  18.053  -2.938  1.00 20.00    -0.044 C 
HETATM    8  C8  UNL     1     -34.958  18.357  -2.184  1.00 20.00     0.015 C 
HETATM    9  C9  UNL     1     -32.536  18.945  -2.380  1.00 20.00     0.015 C 
HETATM   10  N10 UNL     1     -35.869  14.400  -6.776  1.00 20.00    -0.192 NA
ENDROOT
TORSDOF 0
ENDMDL
MODEL 9
REMARK VINA RESULT:      -3.5     12.232     13.279
REMARK  0 active torsions:
REMARK  status: ('A' for Active; 'I' for Inactive)
ROOT
HETATM    1  C1  UNL     1     -32.979  18.654   0.668  1.00 20.00     0.088 C 
HETATM    2  C2  UNL     1     -34.021  18.234  -1.462  1.00 20.00    -0.069 C 
HETATM    3  C3  UNL     1     -34.006  18.871  -0.287  1.00 20.00     0.096 C 
HETATM    4  C4  UNL     1     -32.986  17.240  -1.905  1.00 20.00     0.036 C 
HETATM    5  C5  UNL     1     -35.061  18.433  -2.531  1.00 20.00     0.043 C 
HETATM    6  C6  UNL     1     -33.562  16.685  -3.206  1.00 20.00     0.013 C 
HETATM    7  C7  UNL     1     -34.408  17.832  -3.787  1.00 20.00    -0.044 C 
HETATM    8  C8  UNL     1     -33.522  18.866  -4.507  1.00 20.00     0.015 C 
HETATM    9  C9  UNL     1     -35.459  17.307  -4.770  1.00 20.00     0.015 C 
HETATM   10  N10 UNL     1     -32.142  18.480   1.452  1.00 20.00    -0.192 NA
ENDROOT
TORSDOF 0
ENDMDL
