MODEL 1
REMARK VINA RESULT:      -3.7      0.000      0.000
REMARK  4 active torsions:
REMARK  status: ('A' for Active; 'I' for Inactive)
REMARK    1  A    between atoms: C3_3  and  C5_5 
REMARK    2  A    between atoms: C3_3  and  N7_7 
REMARK    3  A    between atoms: C4_4  and  C6_6 
REMARK    4  A    between atoms: C4_4  and  N7_7 
ROOT
HETATM    1  C2  UNL     1     -32.589   8.857   5.227  1.00 20.00     0.310 C 
HETATM    2  N7  UNL     1     -33.016   7.462   5.321  1.00 20.00     0.087 N 
ENDROOT
BRANCH   2   3
HETATM    3  C3  UNL     1     -33.984   7.296   6.405  1.00 20.00     0.303 C 
BRANCH   3   4
HETATM    4  C5  UNL     1     -34.722   5.979   6.293  1.00 20.00     0.252 C 
HETATM    5  F8  UNL     1     -33.925   4.984   6.768  1.00 20.00    -0.254 F 
ENDBRANCH   3   4
ENDBRANCH   2   3
BRANCH   2   6
HETATM    6  C4  UNL     1     -33.588   7.016   4.052  1.00 20.00     0.291 C 
BRANCH   6   7
HETATM    7  C6  UNL     1     -32.518   6.487   3.095  1.00 20.00     0.106 C 
HETATM    8  C1  UNL     1     -32.888   5.153   2.457  1.00 20.00     0.028 C 
HETATM    9 CL9  UNL     1     -32.162   7.687   1.814  1.00 20.00    -0.124 Cl
ENDBRANCH   6   7
ENDBRANCH   2   6
TORSDOF 4
ENDMDL
MODEL 2
REMARK VINA RESULT:      -3.4      3.220      4.256
REMARK  4 active torsions:
REMARK  status: ('A' for Active; 'I' for Inactive)
REMARK    1  A    between atoms: C3_3  and  C5_5 
REMARK    2  A    between atoms: C3_3  and  N7_7 
REMARK    3  A    between atoms: C4_4  and  C6_6 
REMARK    4  A    between atoms: C4_4  and  N7_7 
ROOT
HETATM    1  C2  UNL     1     -32.613   6.482   3.037  1.00 20.00     0.310 C 
HETATM    2  N7  UNL     1     -32.560   7.575   4.007  1.00 20.00     0.087 N 
ENDROOT
BRANCH   2   3
HETATM    3  C3  UNL     1     -32.536   8.866   3.320  1.00 20.00     0.303 C 
BRANCH   3   4
HETATM    4  C5  UNL     1     -32.501   8.694   1.816  1.00 20.00     0.252 C 
HETATM    5  F8  UNL     1     -32.856   9.869   1.229  1.00 20.00    -0.254 F 
ENDBRANCH   3   4
ENDBRANCH   2   3
BRANCH   2   6
HETATM    6  C4  UNL     1     -33.699   7.503   4.921  1.00 20.00     0.291 C 
BRANCH   6   7
HETATM    7  C6  UNL     1     -34.279   6.090   5.003  1.00 20.00     0.106 C 
HETATM    8  C1  UNL     1     -34.390   5.568   6.431  1.00 20.00     0.028 C 
HETATM    9 CL9  UNL     1     -35.883   6.014   4.209  1.00 20.00    -0.124 Cl
ENDBRANCH   6   7
ENDBRANCH   2   6
TORSDOF 4
ENDMDL
MODEL 3
REMARK VINA RESULT:      -3.4      2.633      3.763
REMARK  4 active torsions:
REMARK  status: ('A' for Active; 'I' for Inactive)
REMARK    1  A    between atoms: C3_3  and  C5_5 
REMARK    2  A    between atoms: C3_3  and  N7_7 
REMARK    3  A    between atoms: C4_4  and  C6_6 
REMARK    4  A    between atoms: C4_4  and  N7_7 
ROOT
HETATM    1  C2  UNL     1     -32.929   5.353   2.627  1.00 20.00     0.310 C 
HETATM    2  N7  UNL     1     -32.945   6.335   3.711  1.00 20.00     0.087 N 
ENDROOT
BRANCH   2   3
HETATM    3  C3  UNL     1     -32.134   7.500   3.356  1.00 20.00     0.303 C 
BRANCH   3   4
HETATM    4  C5  UNL     1     -32.714   8.775   3.930  1.00 20.00     0.252 C 
HETATM    5  F8  UNL     1     -32.096   9.050   5.110  1.00 20.00    -0.254 F 
ENDBRANCH   3   4
ENDBRANCH   2   3
BRANCH   2   6
HETATM    6  C4  UNL     1     -34.316   6.740   4.014  1.00 20.00     0.291 C 
BRANCH   6   7
HETATM    7  C6  UNL     1     -34.795   6.184   5.356  1.00 20.00     0.106 C 
HETATM    8  C1  UNL     1     -34.393   4.731   5.583  1.00 20.00     0.028 C 
HETATM    9 CL9  UNL     1     -34.197   7.191   6.711  1.00 20.00    -0.124 Cl
ENDBRANCH   6   7
ENDBRANCH   2   6
TORSDOF 4
ENDMDL
MODEL 4
REMARK VINA RESULT:      -3.4      2.166      2.737
REMARK  4 active torsions:
REMARK  status: ('A' for Active; 'I' for Inactive)
REMARK    1  A    between atoms: C3_3  and  C5_5 
REMARK    2  A    between atoms: C3_3  and  N7_7 
REMARK    3  A    between atoms: C4_4  and  C6_6 
REMARK    4  A    between atoms: C4_4  and  N7_7 
ROOT
HETATM    1  C2  UNL     1     -34.505   6.665   6.743  1.00 20.00     0.310 C 
HETATM    2  N7  UNL     1     -33.970   6.372   5.413  1.00 20.00     0.087 N 
ENDROOT
BRANCH   2   3
HETATM    3  C3  UNL     1     -34.807   5.383   4.733  1.00 20.00     0.303 C 
BRANCH   3   4
HETATM    4  C5  UNL     1     -33.973   4.279   4.120  1.00 20.00     0.252 C 
HETATM    5  F8  UNL     1     -33.246   4.793   3.092  1.00 20.00    -0.254 F 
ENDBRANCH   3   4
ENDBRANCH   2   3
BRANCH   2   6
HETATM    6  C4  UNL     1     -33.877   7.596   4.619  1.00 20.00     0.291 C 
BRANCH   6   7
HETATM    7  C6  UNL     1     -32.433   7.916   4.227  1.00 20.00     0.106 C 
HETATM    8  C1  UNL     1     -32.207   7.922   2.720  1.00 20.00     0.028 C 
HETATM    9 CL9  UNL     1     -31.922   9.488   4.918  1.00 20.00    -0.124 Cl
ENDBRANCH   6   7
ENDBRANCH   2   6
TORSDOF 4
ENDMDL
MODEL 5
REMARK VINA RESULT:      -3.3      1.205      2.601
REMARK  4 active torsions:
REMARK  status: ('A' for Active; 'I' for Inactive)
REMARK    1  A    between atoms: C3_3  and  C5_5 
REMARK    2  A    between atoms: C3_3  and  N7_7 
REMARK    3  A    between atoms: C4_4  and  C6_6 
REMARK    4  A    between atoms: C4_4  and  N7_7 
ROOT
HETATM    1  C2  UNL     1     -33.253   5.029   2.929  1.00 20.00     0.310 C 
HETATM    2  N7  UNL     1     -33.987   5.923   3.824  1.00 20.00     0.087 N 
ENDROOT
BRANCH   2   3
HETATM    3  C3  UNL     1     -34.804   5.150   4.760  1.00 20.00     0.303 C 
BRANCH   3   4
HETATM    4  C5  UNL     1     -34.718   5.709   6.164  1.00 20.00     0.252 C 
HETATM    5  F8  UNL     1     -33.944   4.885   6.921  1.00 20.00    -0.254 F 
ENDBRANCH   3   4
ENDBRANCH   2   3
BRANCH   2   6
HETATM    6  C4  UNL     1     -33.062   6.791   4.550  1.00 20.00     0.291 C 
BRANCH   6   7
HETATM    7  C6  UNL     1     -32.952   8.176   3.908  1.00 20.00     0.106 C 
HETATM    8  C1  UNL     1     -32.231   9.190   4.787  1.00 20.00     0.028 C 
HETATM    9 CL9  UNL     1     -32.140   8.075   2.315  1.00 20.00    -0.124 Cl
ENDBRANCH   6   7
ENDBRANCH   2   6
TORSDOF 4
ENDMDL
MODEL 6
REMARK VINA RESULT:      -3.3      3.575      4.306
REMARK  4 active torsions:
REMARK  status: ('A' for Active; 'I' for Inactive)
REMARK    1  A    between atoms: C3_3  and  C5_5 
REMARK    2  A    between atoms: C3_3  and  N7_7 
REMARK    3  A    between atoms: C4_4  and  C6_6 
REMARK    4  A    between atoms: C4_4  and  N7_7 
ROOT
HETATM    1  C2  UNL     1     -32.174   8.997   4.664  1.00 20.00     0.310 C 
HETATM    2  N7  UNL     1     -32.970   8.224   3.711  1.00 20.00     0.087 N 
ENDROOT
BRANCH   2   3
HETATM    3  C3  UNL     1     -32.416   8.350   2.363  1.00 20.00     0.303 C 
BRANCH   3   4
HETATM    4  C5  UNL     1     -32.929   9.591   1.665  1.00 20.00     0.252 C 
HETATM    5  F8  UNL     1     -32.718   9.465   0.327  1.00 20.00    -0.254 F 
ENDBRANCH   3   4
ENDBRANCH   2   3
BRANCH   2   6
HETATM    6  C4  UNL     1     -33.027   6.820   4.112  1.00 20.00     0.291 C 
BRANCH   6   7
HETATM    7  C6  UNL     1     -34.329   6.484   4.841  1.00 20.00     0.106 C 
HETATM    8  C1  UNL     1     -34.703   5.009   4.755  1.00 20.00     0.028 C 
HETATM    9 CL9  UNL     1     -34.241   6.981   6.560  1.00 20.00    -0.124 Cl
ENDBRANCH   6   7
ENDBRANCH   2   6
TORSDOF 4
ENDMDL
MODEL 7
REMARK VINA RESULT:      -3.2      1.834      2.578
REMARK  4 active torsions:
REMARK  status: ('A' for Active; 'I' for Inactive)
REMARK    1  A    between atoms: C3_3  and  C5_5 
REMARK    2  A    between atoms: C3_3  and  N7_7 
REMARK    3  A    between atoms: C4_4  and  C6_6 
REMARK    4  A    between atoms: C4_4  and  N7_7 
ROOT
HETATM    1  C2  UNL     1     -32.856   5.423   2.998  1.00 20.00     0.310 C 
HETATM    2  N7  UNL     1     -34.067   5.827   3.712  1.00 20.00     0.087 N 
ENDROOT
BRANCH   2   3
HETATM    3  C3  UNL     1     -34.427   4.823   4.715  1.00 20.00     0.303 C 
BRANCH   3   4
HETATM    4  C5  UNL     1     -34.748   5.463   6.049  1.00 20.00     0.252 C 
HETATM    5  F8  UNL     1     -33.831   5.054   6.966  1.00 20.00    -0.254 F 
ENDBRANCH   3   4
ENDBRANCH   2   3
BRANCH   2   6
HETATM    6  C4  UNL     1     -33.878   7.132   4.341  1.00 20.00     0.291 C 
BRANCH   6   7
HETATM    7  C6  UNL     1     -32.591   7.813   3.873  1.00 20.00     0.106 C 
HETATM    8  C1  UNL     1     -32.762   8.597   2.577  1.00 20.00     0.028 C 
HETATM    9 CL9  UNL     1     -31.944   8.894   5.147  1.00 20.00    -0.124 Cl
ENDBRANCH   6   7
ENDBRANCH   2   6
TORSDOF 4
ENDMDL
MODEL 8
REMARK VINA RESULT:      -3.1     12.262     13.068
REMARK  4 active torsions:
REMARK  status: ('A' for Active; 'I' for Inactive)
REMARK    1  A    between atoms: C3_3  and  C5_5 
REMARK    2  A    between atoms: C3_3  and  N7_7 
REMARK    3  A    between atoms: C4_4  and  C6_6 
REMARK    4  A    between atoms: C4_4  and  N7_7 
ROOT
HETATM    1  C2  UNL     1     -33.156  18.817  -3.702  1.00 20.00     0.310 C 
HETATM    2  N7  UNL     1     -33.894  17.690  -3.132  1.00 20.00     0.087 N 
ENDROOT
BRANCH   2   3
HETATM    3  C3  UNL     1     -34.062  16.634  -4.130  1.00 20.00     0.303 C 
BRANCH   3   4
HETATM    4  C5  UNL     1     -33.186  15.438  -3.825  1.00 20.00     0.252 C 
HETATM    5  F8  UNL     1     -33.930  14.305  -3.938  1.00 20.00    -0.254 F 
ENDBRANCH   3   4
ENDBRANCH   2   3
BRANCH   2   6
HETATM    6  C4  UNL     1     -33.206  17.173  -1.951  1.00 20.00     0.291 C 
BRANCH   6   7
HETATM    7  C6  UNL     1     -32.944  18.268  -0.915  1.00 20.00     0.106 C 
HETATM    8  C1  UNL     1     -33.792  18.120   0.343  1.00 20.00     0.028 C 
HETATM    9 CL9  UNL     1     -31.210  18.318  -0.468  1.00 20.00    -0.124 Cl
ENDBRANCH   6   7
ENDBRANCH   2   6
TORSDOF 4
ENDMDL
MODEL 9
REMARK VINA RESULT:      -3.0      2.444      3.552
REMARK  4 active torsions:
REMARK  status: ('A' for Active; 'I' for Inactive)
REMARK    1  A    between atoms: C3_3  and  C5_5 
REMARK    2  A    between atoms: C3_3  and  N7_7 
REMARK    3  A    between atoms: C4_4  and  C6_6 
REMARK    4  A    between atoms: C4_4  and  N7_7 
ROOT
HETATM    1  C2  UNL     1     -32.312   9.133   5.195  1.00 20.00     0.310 C 
HETATM    2  N7  UNL     1     -32.898   8.427   4.056  1.00 20.00     0.087 N 
ENDROOT
BRANCH   2   3
HETATM    3  C3  UNL     1     -31.954   7.444   3.524  1.00 20.00     0.303 C 
BRANCH   3   4
HETATM    4  C5  UNL     1     -32.361   6.974   2.144  1.00 20.00     0.252 C 
HETATM    5  F8  UNL     1     -32.703   5.659   2.209  1.00 20.00    -0.254 F 
ENDBRANCH   3   4
ENDBRANCH   2   3
BRANCH   2   6
HETATM    6  C4  UNL     1     -34.147   7.775   4.447  1.00 20.00     0.291 C 
BRANCH   6   7
HETATM    7  C6  UNL     1     -33.902   6.539   5.313  1.00 20.00     0.106 C 
HETATM    8  C1  UNL     1     -34.354   6.717   6.758  1.00 20.00     0.028 C 
HETATM    9 CL9  UNL     1     -34.701   5.099   4.607  1.00 20.00    -0.124 Cl
ENDBRANCH   6   7
ENDBRANCH   2   6
TORSDOF 4
ENDMDL
