MODEL 1
REMARK VINA RESULT:      -3.9      0.000      0.000
REMARK  2 active torsions:
REMARK  status: ('A' for Active; 'I' for Inactive)
REMARK    1  A    between atoms: C5_5  and  C6_6 
REMARK    2  A    between atoms: C5_5  and  N7_7 
ROOT
HETATM    1  C1  UNL     1     -32.861   5.964   2.622  1.00 20.00     0.052 C 
HETATM    2  C2  UNL     1     -33.649   5.780   3.918  1.00 20.00     0.274 C 
HETATM    3  C3  UNL     1     -32.840   7.965   3.959  1.00 20.00     0.292 C 
HETATM    4  C4  UNL     1     -32.130   7.293   2.795  1.00 20.00     0.112 C 
HETATM    5  N7  UNL     1     -33.124   6.812   4.816  1.00 20.00     0.092 N 
HETATM    6 CL9  UNL     1     -32.164   8.285   1.329  1.00 20.00    -0.123 Cl
ENDROOT
BRANCH   5   7
HETATM    7  C5  UNL     1     -34.046   7.133   5.894  1.00 20.00     0.303 C 
BRANCH   7   8
HETATM    8  C6  UNL     1     -34.809   5.908   6.355  1.00 20.00     0.252 C 
HETATM    9  F8  UNL     1     -33.939   5.037   6.934  1.00 20.00    -0.254 F 
ENDBRANCH   7   8
ENDBRANCH   5   7
TORSDOF 2
ENDMDL
MODEL 2
REMARK VINA RESULT:      -3.7      3.344      4.127
REMARK  2 active torsions:
REMARK  status: ('A' for Active; 'I' for Inactive)
REMARK    1  A    between atoms: C5_5  and  C6_6 
REMARK    2  A    between atoms: C5_5  and  N7_7 
ROOT
HETATM    1  C1  UNL     1     -34.114   4.656   4.126  1.00 20.00     0.052 C 
HETATM    2  C2  UNL     1     -33.105   5.314   3.185  1.00 20.00     0.274 C 
HETATM    3  C3  UNL     1     -33.657   6.929   4.772  1.00 20.00     0.292 C 
HETATM    4  C4  UNL     1     -34.653   5.800   4.981  1.00 20.00     0.112 C 
HETATM    5  N7  UNL     1     -33.328   6.752   3.356  1.00 20.00     0.092 N 
HETATM    6 CL9  UNL     1     -34.812   5.357   6.689  1.00 20.00    -0.123 Cl
ENDROOT
BRANCH   5   7
HETATM    7  C5  UNL     1     -32.180   7.546   2.948  1.00 20.00     0.303 C 
BRANCH   7   8
HETATM    8  C6  UNL     1     -32.432   9.027   3.141  1.00 20.00     0.252 C 
HETATM    9  F8  UNL     1     -32.843   9.564   1.961  1.00 20.00    -0.254 F 
ENDBRANCH   7   8
ENDBRANCH   5   7
TORSDOF 2
ENDMDL
MODEL 3
REMARK VINA RESULT:      -3.6      2.507      3.490
REMARK  2 active torsions:
REMARK  status: ('A' for Active; 'I' for Inactive)
REMARK    1  A    between atoms: C5_5  and  C6_6 
REMARK    2  A    between atoms: C5_5  and  N7_7 
ROOT
HETATM    1  C1  UNL     1     -34.013   7.286   6.424  1.00 20.00     0.052 C 
HETATM    2  C2  UNL     1     -34.212   5.876   5.869  1.00 20.00     0.274 C 
HETATM    3  C3  UNL     1     -33.300   7.131   4.130  1.00 20.00     0.292 C 
HETATM    4  C4  UNL     1     -33.671   8.139   5.205  1.00 20.00     0.112 C 
HETATM    5  N7  UNL     1     -34.252   6.056   4.416  1.00 20.00     0.092 N 
HETATM    6 CL9  UNL     1     -32.361   9.288   5.524  1.00 20.00    -0.123 Cl
ENDROOT
BRANCH   5   7
HETATM    7  C5  UNL     1     -33.944   4.832   3.694  1.00 20.00     0.303 C 
BRANCH   7   8
HETATM    8  C6  UNL     1     -32.877   5.061   2.643  1.00 20.00     0.252 C 
HETATM    9  F8  UNL     1     -32.933   4.055   1.729  1.00 20.00    -0.254 F 
ENDBRANCH   7   8
ENDBRANCH   5   7
TORSDOF 2
ENDMDL
MODEL 4
REMARK VINA RESULT:      -3.6      1.528      1.634
REMARK  2 active torsions:
REMARK  status: ('A' for Active; 'I' for Inactive)
REMARK    1  A    between atoms: C5_5  and  C6_6 
REMARK    2  A    between atoms: C5_5  and  N7_7 
ROOT
HETATM    1  C1  UNL     1     -32.269   7.197   2.731  1.00 20.00     0.052 C 
HETATM    2  C2  UNL     1     -32.948   6.241   3.711  1.00 20.00     0.274 C 
HETATM    3  C3  UNL     1     -33.567   8.389   4.371  1.00 20.00     0.292 C 
HETATM    4  C4  UNL     1     -32.470   8.584   3.337  1.00 20.00     0.112 C 
HETATM    5  N7  UNL     1     -33.227   7.063   4.891  1.00 20.00     0.092 N 
HETATM    6 CL9  UNL     1     -32.903   9.801   2.125  1.00 20.00    -0.123 Cl
ENDROOT
BRANCH   5   7
HETATM    7  C5  UNL     1     -34.281   6.504   5.723  1.00 20.00     0.303 C 
BRANCH   7   8
HETATM    8  C6  UNL     1     -35.035   5.407   5.001  1.00 20.00     0.252 C 
HETATM    9  F8  UNL     1     -36.066   5.961   4.308  1.00 20.00    -0.254 F 
ENDBRANCH   7   8
ENDBRANCH   5   7
TORSDOF 2
ENDMDL
MODEL 5
REMARK VINA RESULT:      -3.6      1.288      1.818
REMARK  2 active torsions:
REMARK  status: ('A' for Active; 'I' for Inactive)
REMARK    1  A    between atoms: C5_5  and  C6_6 
REMARK    2  A    between atoms: C5_5  and  N7_7 
ROOT
HETATM    1  C1  UNL     1     -32.198   7.255   3.063  1.00 20.00     0.052 C 
HETATM    2  C2  UNL     1     -32.525   7.788   4.458  1.00 20.00     0.274 C 
HETATM    3  C3  UNL     1     -33.891   5.926   4.141  1.00 20.00     0.292 C 
HETATM    4  C4  UNL     1     -33.279   6.215   2.780  1.00 20.00     0.112 C 
HETATM    5  N7  UNL     1     -33.859   7.258   4.749  1.00 20.00     0.092 N 
HETATM    6 CL9  UNL     1     -32.634   4.754   2.014  1.00 20.00    -0.123 Cl
ENDROOT
BRANCH   5   7
HETATM    7  C5  UNL     1     -34.148   7.227   6.174  1.00 20.00     0.303 C 
BRANCH   7   8
HETATM    8  C6  UNL     1     -34.785   5.915   6.583  1.00 20.00     0.252 C 
HETATM    9  F8  UNL     1     -33.811   5.060   6.997  1.00 20.00    -0.254 F 
ENDBRANCH   7   8
ENDBRANCH   5   7
TORSDOF 2
ENDMDL
MODEL 6
REMARK VINA RESULT:      -3.4     12.102     12.961
REMARK  2 active torsions:
REMARK  status: ('A' for Active; 'I' for Inactive)
REMARK    1  A    between atoms: C5_5  and  C6_6 
REMARK    2  A    between atoms: C5_5  and  N7_7 
ROOT
HETATM    1  C1  UNL     1     -32.795  19.044  -2.400  1.00 20.00     0.052 C 
HETATM    2  C2  UNL     1     -33.263  18.409  -3.709  1.00 20.00     0.274 C 
HETATM    3  C3  UNL     1     -33.490  16.763  -2.075  1.00 20.00     0.292 C 
HETATM    4  C4  UNL     1     -32.702  17.882  -1.414  1.00 20.00     0.112 C 
HETATM    5  N7  UNL     1     -33.138  16.967  -3.481  1.00 20.00     0.092 N 
HETATM    6 CL9  UNL     1     -33.340  18.295   0.186  1.00 20.00    -0.123 Cl
ENDROOT
BRANCH   5   7
HETATM    7  C5  UNL     1     -33.971  16.187  -4.383  1.00 20.00     0.303 C 
BRANCH   7   8
HETATM    8  C6  UNL     1     -33.525  14.741  -4.440  1.00 20.00     0.252 C 
HETATM    9  F8  UNL     1     -34.423  13.974  -3.766  1.00 20.00    -0.254 F 
ENDBRANCH   7   8
ENDBRANCH   5   7
TORSDOF 2
ENDMDL
MODEL 7
REMARK VINA RESULT:      -3.4      3.482      4.541
REMARK  2 active torsions:
REMARK  status: ('A' for Active; 'I' for Inactive)
REMARK    1  A    between atoms: C5_5  and  C6_6 
REMARK    2  A    between atoms: C5_5  and  N7_7 
ROOT
HETATM    1  C1  UNL     1     -33.480   7.763   5.448  1.00 20.00     0.052 C 
HETATM    2  C2  UNL     1     -32.825   8.478   4.267  1.00 20.00     0.274 C 
HETATM    3  C3  UNL     1     -33.359   6.339   3.512  1.00 20.00     0.292 C 
HETATM    4  C4  UNL     1     -33.574   6.302   5.015  1.00 20.00     0.112 C 
HETATM    5  N7  UNL     1     -32.351   7.396   3.400  1.00 20.00     0.092 N 
HETATM    6 CL9  UNL     1     -35.124   5.562   5.450  1.00 20.00    -0.123 Cl
ENDROOT
BRANCH   5   7
HETATM    7  C5  UNL     1     -32.149   7.830   2.027  1.00 20.00     0.303 C 
BRANCH   7   8
HETATM    8  C6  UNL     1     -32.781   9.183   1.773  1.00 20.00     0.252 C 
HETATM    9  F8  UNL     1     -32.574   9.532   0.475  1.00 20.00    -0.254 F 
ENDBRANCH   7   8
ENDBRANCH   5   7
TORSDOF 2
ENDMDL
MODEL 8
REMARK VINA RESULT:      -3.4     12.393     12.926
REMARK  2 active torsions:
REMARK  status: ('A' for Active; 'I' for Inactive)
REMARK    1  A    between atoms: C5_5  and  C6_6 
REMARK    2  A    between atoms: C5_5  and  N7_7 
ROOT
HETATM    1  C1  UNL     1     -32.587  19.028   1.680  1.00 20.00     0.052 C 
HETATM    2  C2  UNL     1     -33.303  18.630   0.389  1.00 20.00     0.274 C 
HETATM    3  C3  UNL     1     -31.023  18.590  -0.096  1.00 20.00     0.292 C 
HETATM    4  C4  UNL     1     -31.134  19.251   1.268  1.00 20.00     0.112 C 
HETATM    5  N7  UNL     1     -32.331  18.914  -0.671  1.00 20.00     0.092 N 
HETATM    6 CL9  UNL     1     -29.985  18.575   2.434  1.00 20.00    -0.123 Cl
ENDROOT
BRANCH   5   7
HETATM    7  C5  UNL     1     -32.603  18.170  -1.890  1.00 20.00     0.303 C 
BRANCH   7   8
HETATM    8  C6  UNL     1     -33.637  17.086  -1.660  1.00 20.00     0.252 C 
HETATM    9  F8  UNL     1     -33.406  16.064  -2.527  1.00 20.00    -0.254 F 
ENDBRANCH   7   8
ENDBRANCH   5   7
TORSDOF 2
ENDMDL
MODEL 9
REMARK VINA RESULT:      -3.4     12.354     13.036
REMARK  2 active torsions:
REMARK  status: ('A' for Active; 'I' for Inactive)
REMARK    1  A    between atoms: C5_5  and  C6_6 
REMARK    2  A    between atoms: C5_5  and  N7_7 
ROOT
HETATM    1  C1  UNL     1     -34.745  17.878  -3.755  1.00 20.00     0.052 C 
HETATM    2  C2  UNL     1     -35.193  16.986  -4.913  1.00 20.00     0.274 C 
HETATM    3  C3  UNL     1     -33.614  15.754  -3.720  1.00 20.00     0.292 C 
HETATM    4  C4  UNL     1     -33.536  17.163  -3.157  1.00 20.00     0.112 C 
HETATM    5  N7  UNL     1     -34.102  16.021  -5.075  1.00 20.00     0.092 N 
HETATM    6 CL9  UNL     1     -33.545  17.176  -1.385  1.00 20.00    -0.123 Cl
ENDROOT
BRANCH   5   7
HETATM    7  C5  UNL     1     -34.525  14.812  -5.764  1.00 20.00     0.303 C 
BRANCH   7   8
HETATM    8  C6  UNL     1     -35.936  14.418  -5.377  1.00 20.00     0.252 C 
HETATM    9  F8  UNL     1     -35.879  13.399  -4.477  1.00 20.00    -0.254 F 
ENDBRANCH   7   8
ENDBRANCH   5   7
TORSDOF 2
ENDMDL
