MODEL 1
REMARK VINA RESULT:      -4.5      0.000      0.000
REMARK  2 active torsions:
REMARK  status: ('A' for Active; 'I' for Inactive)
REMARK    1  A    between atoms: C1_1  and  C5_5 
REMARK    2  A    between atoms: C6_6  and  C10_10 
ROOT
HETATM    1  C2  UNL     1     -35.400  17.075  -4.917  1.00 20.00     0.016 C 
HETATM    2  C3  UNL     1     -34.572  17.754  -3.827  1.00 20.00     0.005 C 
HETATM    3  C4  UNL     1     -33.020  15.754  -3.769  1.00 20.00     0.009 C 
HETATM    4  C5  UNL     1     -34.548  16.107  -5.733  1.00 20.00     0.090 C 
HETATM    5  C6  UNL     1     -33.852  16.738  -2.931  1.00 20.00    -0.014 C 
HETATM    6  C7  UNL     1     -33.843  15.052  -4.866  1.00 20.00    -0.004 C 
HETATM    7  C8  UNL     1     -34.793  14.014  -4.253  1.00 20.00     0.011 C 
ENDROOT
BRANCH   4   8
HETATM    8  C1  UNL     1     -35.419  15.452  -6.789  1.00 20.00     0.177 C 
HETATM    9  O11 UNL     1     -36.663  15.560  -6.605  1.00 20.00    -0.648 OA
HETATM   10  O12 UNL     1     -34.784  14.881  -7.719  1.00 20.00    -0.648 OA
ENDBRANCH   4   8
BRANCH   5  11
HETATM   11  C10 UNL     1     -32.967  17.456  -1.912  1.00 20.00     0.000 C 
HETATM   12  C9  UNL     1     -33.694  17.713  -0.634  1.00 20.00     0.005 C 
ENDBRANCH   5  11
TORSDOF 2
ENDMDL
MODEL 2
REMARK VINA RESULT:      -4.4      0.698      2.007
REMARK  2 active torsions:
REMARK  status: ('A' for Active; 'I' for Inactive)
REMARK    1  A    between atoms: C1_1  and  C5_5 
REMARK    2  A    between atoms: C6_6  and  C10_10 
ROOT
HETATM    1  C2  UNL     1     -33.835  15.147  -5.018  1.00 20.00     0.016 C 
HETATM    2  C3  UNL     1     -33.291  15.546  -3.646  1.00 20.00     0.005 C 
HETATM    3  C4  UNL     1     -34.710  17.644  -3.702  1.00 20.00     0.009 C 
HETATM    4  C5  UNL     1     -35.225  15.733  -5.250  1.00 20.00     0.090 C 
HETATM    5  C6  UNL     1     -33.309  17.066  -3.437  1.00 20.00    -0.014 C 
HETATM    6  C7  UNL     1     -35.267  17.260  -5.086  1.00 20.00    -0.004 C 
HETATM    7  C8  UNL     1     -34.538  18.027  -6.198  1.00 20.00     0.011 C 
ENDROOT
BRANCH   4   8
HETATM    8  C1  UNL     1     -35.711  15.320  -6.628  1.00 20.00     0.177 C 
HETATM    9  O11 UNL     1     -36.940  15.510  -6.845  1.00 20.00    -0.648 OA
HETATM   10  O12 UNL     1     -34.819  14.838  -7.381  1.00 20.00    -0.648 OA
ENDBRANCH   4   8
BRANCH   5  11
HETATM   11  C10 UNL     1     -32.843  17.417  -2.025  1.00 20.00     0.000 C 
HETATM   12  C9  UNL     1     -33.986  17.811  -1.149  1.00 20.00     0.005 C 
ENDBRANCH   5  11
TORSDOF 2
ENDMDL
MODEL 3
REMARK VINA RESULT:      -4.1      3.051      4.950
REMARK  2 active torsions:
REMARK  status: ('A' for Active; 'I' for Inactive)
REMARK    1  A    between atoms: C1_1  and  C5_5 
REMARK    2  A    between atoms: C6_6  and  C10_10 
ROOT
HETATM    1  C2  UNL     1     -33.456  15.995  -3.069  1.00 20.00     0.016 C 
HETATM    2  C3  UNL     1     -33.777  15.227  -4.351  1.00 20.00     0.005 C 
HETATM    3  C4  UNL     1     -34.527  17.385  -5.446  1.00 20.00     0.009 C 
HETATM    4  C5  UNL     1     -33.111  17.450  -3.371  1.00 20.00     0.090 C 
HETATM    5  C6  UNL     1     -34.876  15.912  -5.174  1.00 20.00    -0.014 C 
HETATM    6  C7  UNL     1     -34.211  18.175  -4.163  1.00 20.00    -0.004 C 
HETATM    7  C8  UNL     1     -35.490  18.436  -3.355  1.00 20.00     0.011 C 
ENDROOT
BRANCH   4   8
HETATM    8  C1  UNL     1     -32.815  18.169  -2.067  1.00 20.00     0.177 C 
HETATM    9  O11 UNL     1     -33.233  17.590  -1.026  1.00 20.00    -0.648 OA
HETATM   10  O12 UNL     1     -32.185  19.256  -2.192  1.00 20.00    -0.648 OA
ENDBRANCH   4   8
BRANCH   5  11
HETATM   11  C10 UNL     1     -35.106  15.164  -6.487  1.00 20.00     0.000 C 
HETATM   12  C9  UNL     1     -34.170  15.626  -7.555  1.00 20.00     0.005 C 
ENDBRANCH   5  11
TORSDOF 2
ENDMDL
MODEL 4
REMARK VINA RESULT:      -4.0      2.304      3.366
REMARK  2 active torsions:
REMARK  status: ('A' for Active; 'I' for Inactive)
REMARK    1  A    between atoms: C1_1  and  C5_5 
REMARK    2  A    between atoms: C6_6  and  C10_10 
ROOT
HETATM    1  C2  UNL     1     -35.263  18.690  -2.175  1.00 20.00     0.016 C 
HETATM    2  C3  UNL     1     -34.624  19.046  -0.834  1.00 20.00     0.005 C 
HETATM    3  C4  UNL     1     -32.449  17.997  -1.600  1.00 20.00     0.009 C 
HETATM    4  C5  UNL     1     -34.214  18.610  -3.281  1.00 20.00     0.090 C 
HETATM    5  C6  UNL     1     -33.483  18.088  -0.465  1.00 20.00    -0.014 C 
HETATM    6  C7  UNL     1     -33.077  17.628  -2.958  1.00 20.00    -0.004 C 
HETATM    7  C8  UNL     1     -33.502  16.154  -2.978  1.00 20.00     0.011 C 
ENDROOT
BRANCH   4   8
HETATM    8  C1  UNL     1     -34.898  18.241  -4.585  1.00 20.00     0.177 C 
HETATM    9  O11 UNL     1     -34.179  18.341  -5.618  1.00 20.00    -0.648 OA
HETATM   10  O12 UNL     1     -36.102  17.879  -4.467  1.00 20.00    -0.648 OA
ENDBRANCH   4   8
BRANCH   5  11
HETATM   11  C10 UNL     1     -32.813  18.529   0.836  1.00 20.00     0.000 C 
HETATM   12  C9  UNL     1     -31.329  18.612   0.691  1.00 20.00     0.005 C 
ENDBRANCH   5  11
TORSDOF 2
ENDMDL
MODEL 5
REMARK VINA RESULT:      -3.7     24.435     25.527
REMARK  2 active torsions:
REMARK  status: ('A' for Active; 'I' for Inactive)
REMARK    1  A    between atoms: C1_1  and  C5_5 
REMARK    2  A    between atoms: C6_6  and  C10_10 
ROOT
HETATM    1  C2  UNL     1     -26.022  -1.025  12.082  1.00 20.00     0.016 C 
HETATM    2  C3  UNL     1     -24.572  -1.416  11.797  1.00 20.00     0.005 C 
HETATM    3  C4  UNL     1     -25.372  -3.105  10.087  1.00 20.00     0.009 C 
HETATM    4  C5  UNL     1     -26.909  -1.276  10.866  1.00 20.00     0.090 C 
HETATM    5  C6  UNL     1     -24.452  -2.861  11.295  1.00 20.00    -0.014 C 
HETATM    6  C7  UNL     1     -26.839  -2.726  10.362  1.00 20.00    -0.004 C 
HETATM    7  C8  UNL     1     -27.497  -3.744  11.303  1.00 20.00     0.011 C 
ENDROOT
BRANCH   4   8
HETATM    8  C1  UNL     1     -28.336  -0.885  11.206  1.00 20.00     0.177 C 
HETATM    9  O11 UNL     1     -28.489  -0.327  12.328  1.00 20.00    -0.648 OA
HETATM   10  O12 UNL     1     -29.188  -1.169  10.319  1.00 20.00    -0.648 OA
ENDBRANCH   4   8
BRANCH   5  11
HETATM   11  C10 UNL     1     -23.001  -3.184  10.938  1.00 20.00     0.000 C 
HETATM   12  C9  UNL     1     -22.770  -3.121   9.464  1.00 20.00     0.005 C 
ENDBRANCH   5  11
TORSDOF 2
ENDMDL
MODEL 6
REMARK VINA RESULT:      -3.7     11.934     13.707
REMARK  2 active torsions:
REMARK  status: ('A' for Active; 'I' for Inactive)
REMARK    1  A    between atoms: C1_1  and  C5_5 
REMARK    2  A    between atoms: C6_6  and  C10_10 
ROOT
HETATM    1  C2  UNL     1     -41.047  14.524   7.916  1.00 20.00     0.016 C 
HETATM    2  C3  UNL     1     -39.951  13.563   7.457  1.00 20.00     0.005 C 
HETATM    3  C4  UNL     1     -41.026  13.443   5.166  1.00 20.00     0.009 C 
HETATM    4  C5  UNL     1     -41.616  15.312   6.739  1.00 20.00     0.090 C 
HETATM    5  C6  UNL     1     -40.430  12.636   6.332  1.00 20.00    -0.014 C 
HETATM    6  C7  UNL     1     -42.140  14.409   5.611  1.00 20.00    -0.004 C 
HETATM    7  C8  UNL     1     -43.417  13.638   5.973  1.00 20.00     0.011 C 
ENDROOT
BRANCH   4   8
HETATM    8  C1  UNL     1     -42.707  16.238   7.247  1.00 20.00     0.177 C 
HETATM    9  O11 UNL     1     -43.138  17.075   6.405  1.00 20.00    -0.648 OA
HETATM   10  O12 UNL     1     -43.043  16.051   8.449  1.00 20.00    -0.648 OA
ENDBRANCH   4   8
BRANCH   5  11
HETATM   11  C10 UNL     1     -39.283  11.753   5.841  1.00 20.00     0.000 C 
HETATM   12  C9  UNL     1     -39.183  11.757   4.351  1.00 20.00     0.005 C 
ENDBRANCH   5  11
TORSDOF 2
ENDMDL
MODEL 7
REMARK VINA RESULT:      -3.5     24.447     25.561
REMARK  2 active torsions:
REMARK  status: ('A' for Active; 'I' for Inactive)
REMARK    1  A    between atoms: C1_1  and  C5_5 
REMARK    2  A    between atoms: C6_6  and  C10_10 
ROOT
HETATM    1  C2  UNL     1     -27.411  -3.670  10.832  1.00 20.00     0.016 C 
HETATM    2  C3  UNL     1     -25.935  -3.562  11.212  1.00 20.00     0.005 C 
HETATM    3  C4  UNL     1     -26.301  -1.158  11.923  1.00 20.00     0.009 C 
HETATM    4  C5  UNL     1     -28.263  -2.706  11.654  1.00 20.00     0.090 C 
HETATM    5  C6  UNL     1     -25.417  -2.121  11.113  1.00 20.00    -0.014 C 
HETATM    6  C7  UNL     1     -27.792  -1.247  11.543  1.00 20.00    -0.004 C 
HETATM    7  C8  UNL     1     -28.043  -0.614  10.168  1.00 20.00     0.011 C 
ENDROOT
BRANCH   4   8
HETATM    8  C1  UNL     1     -29.713  -2.843  11.229  1.00 20.00     0.177 C 
HETATM    9  O11 UNL     1     -30.530  -2.112  11.854  1.00 20.00    -0.648 OA
HETATM   10  O12 UNL     1     -29.916  -3.674  10.300  1.00 20.00    -0.648 OA
ENDBRANCH   4   8
BRANCH   5  11
HETATM   11  C10 UNL     1     -23.965  -2.040  11.584  1.00 20.00     0.000 C 
HETATM   12  C9  UNL     1     -23.181  -3.237  11.161  1.00 20.00     0.005 C 
ENDBRANCH   5  11
TORSDOF 2
ENDMDL
MODEL 8
REMARK VINA RESULT:      -3.5      1.554      2.942
REMARK  2 active torsions:
REMARK  status: ('A' for Active; 'I' for Inactive)
REMARK    1  A    between atoms: C1_1  and  C5_5 
REMARK    2  A    between atoms: C6_6  and  C10_10 
ROOT
HETATM    1  C2  UNL     1     -35.802  15.219  -6.073  1.00 20.00     0.016 C 
HETATM    2  C3  UNL     1     -34.796  14.962  -4.952  1.00 20.00     0.005 C 
HETATM    3  C4  UNL     1     -34.972  17.389  -4.247  1.00 20.00     0.009 C 
HETATM    4  C5  UNL     1     -36.736  16.373  -5.719  1.00 20.00     0.090 C 
HETATM    5  C6  UNL     1     -34.017  16.228  -4.573  1.00 20.00    -0.014 C 
HETATM    6  C7  UNL     1     -35.985  17.668  -5.373  1.00 20.00    -0.004 C 
HETATM    7  C8  UNL     1     -35.297  18.329  -6.574  1.00 20.00     0.011 C 
ENDROOT
BRANCH   4   8
HETATM    8  C1  UNL     1     -37.703  16.594  -6.868  1.00 20.00     0.177 C 
HETATM    9  O11 UNL     1     -37.454  15.937  -7.917  1.00 20.00    -0.648 OA
HETATM   10  O12 UNL     1     -38.636  17.410  -6.625  1.00 20.00    -0.648 OA
ENDBRANCH   4   8
BRANCH   5  11
HETATM   11  C10 UNL     1     -33.087  15.952  -3.392  1.00 20.00     0.000 C 
HETATM   12  C9  UNL     1     -33.408  16.821  -2.222  1.00 20.00     0.005 C 
ENDBRANCH   5  11
TORSDOF 2
ENDMDL
MODEL 9
REMARK VINA RESULT:      -3.4     13.194     15.035
REMARK  2 active torsions:
REMARK  status: ('A' for Active; 'I' for Inactive)
REMARK    1  A    between atoms: C1_1  and  C5_5 
REMARK    2  A    between atoms: C6_6  and  C10_10 
ROOT
HETATM    1  C2  UNL     1     -42.853  13.843   7.841  1.00 20.00     0.016 C 
HETATM    2  C3  UNL     1     -42.315  12.965   6.711  1.00 20.00     0.005 C 
HETATM    3  C4  UNL     1     -39.951  13.639   7.325  1.00 20.00     0.009 C 
HETATM    4  C5  UNL     1     -41.827  13.990   8.960  1.00 20.00     0.090 C 
HETATM    5  C6  UNL     1     -40.965  13.469   6.182  1.00 20.00    -0.014 C 
HETATM    6  C7  UNL     1     -40.475  14.530   8.467  1.00 20.00    -0.004 C 
HETATM    7  C8  UNL     1     -40.513  16.002   8.035  1.00 20.00     0.011 C 
ENDROOT
BRANCH   4   8
HETATM    8  C1  UNL     1     -42.405  14.879  10.046  1.00 20.00     0.177 C 
HETATM    9  O11 UNL     1     -41.802  14.838  11.154  1.00 20.00    -0.648 OA
HETATM   10  O12 UNL     1     -43.417  15.549   9.699  1.00 20.00    -0.648 OA
ENDBRANCH   4   8
BRANCH   5  11
HETATM   11  C10 UNL     1     -40.419  12.518   5.118  1.00 20.00     0.000 C 
HETATM   12  C9  UNL     1     -39.213  11.783   5.602  1.00 20.00     0.005 C 
ENDBRANCH   5  11
TORSDOF 2
ENDMDL
