MODEL 1
REMARK VINA RESULT:      -4.7      0.000      0.000
REMARK  3 active torsions:
REMARK  status: ('A' for Active; 'I' for Inactive)
REMARK    1  A    between atoms: C2_2  and  C9_9 
REMARK    2  A    between atoms: C3_3  and  C6_6 
REMARK    3  A    between atoms: C7_7  and  C9_9 
ROOT
HETATM    1  C4  UNL     1     -32.481   9.343   3.872  1.00 20.00     0.016 C 
HETATM    2  C5  UNL     1     -32.797   9.019   5.346  1.00 20.00     0.007 C 
HETATM    3  C6  UNL     1     -31.948   7.898   3.733  1.00 20.00     0.091 C 
HETATM    4  C7  UNL     1     -32.853   7.522   4.946  1.00 20.00     0.004 C 
ENDROOT
BRANCH   4   5
HETATM    5  C9  UNL     1     -34.252   6.981   4.683  1.00 20.00     0.038 C 
BRANCH   5   6
HETATM    6  C2  UNL     1     -34.501   5.656   5.361  1.00 20.00    -0.093 C 
HETATM    7  C1  UNL     1     -34.833   5.585   6.659  1.00 20.00     0.014 C 
HETATM    8  C8  UNL     1     -34.325   4.418   4.529  1.00 20.00     0.042 C 
ENDBRANCH   5   6
ENDBRANCH   4   5
BRANCH   3   9
HETATM    9  C3  UNL     1     -32.239   7.217   2.445  1.00 20.00     0.177 C 
HETATM   10  O10 UNL     1     -32.413   5.969   2.522  1.00 20.00    -0.648 OA
HETATM   11  O11 UNL     1     -32.276   7.980   1.438  1.00 20.00    -0.648 OA
ENDBRANCH   3   9
TORSDOF 3
ENDMDL
MODEL 2
REMARK VINA RESULT:      -4.5      1.376      3.857
REMARK  3 active torsions:
REMARK  status: ('A' for Active; 'I' for Inactive)
REMARK    1  A    between atoms: C2_2  and  C9_9 
REMARK    2  A    between atoms: C3_3  and  C6_6 
REMARK    3  A    between atoms: C7_7  and  C9_9 
ROOT
HETATM    1  C4  UNL     1     -34.428   5.505   6.479  1.00 20.00     0.016 C 
HETATM    2  C5  UNL     1     -34.443   7.044   6.566  1.00 20.00     0.007 C 
HETATM    3  C6  UNL     1     -34.735   5.650   4.970  1.00 20.00     0.091 C 
HETATM    4  C7  UNL     1     -34.114   7.078   5.052  1.00 20.00     0.004 C 
ENDROOT
BRANCH   4   5
HETATM    5  C9  UNL     1     -32.639   7.260   4.721  1.00 20.00     0.038 C 
BRANCH   5   6
HETATM    6  C2  UNL     1     -32.412   8.229   3.585  1.00 20.00    -0.093 C 
HETATM    7  C1  UNL     1     -32.512   9.555   3.765  1.00 20.00     0.014 C 
HETATM    8  C8  UNL     1     -32.106   7.643   2.236  1.00 20.00     0.042 C 
ENDBRANCH   5   6
ENDBRANCH   4   5
BRANCH   3   9
HETATM    9  C3  UNL     1     -34.060   4.677   4.072  1.00 20.00     0.177 C 
HETATM   10  O10 UNL     1     -33.882   5.072   2.886  1.00 20.00    -0.648 OA
HETATM   11  O11 UNL     1     -33.753   3.579   4.615  1.00 20.00    -0.648 OA
ENDBRANCH   3   9
TORSDOF 3
ENDMDL
MODEL 3
REMARK VINA RESULT:      -4.5      2.249      3.795
REMARK  3 active torsions:
REMARK  status: ('A' for Active; 'I' for Inactive)
REMARK    1  A    between atoms: C2_2  and  C9_9 
REMARK    2  A    between atoms: C3_3  and  C6_6 
REMARK    3  A    between atoms: C7_7  and  C9_9 
ROOT
HETATM    1  C4  UNL     1     -33.988   7.609   6.710  1.00 20.00     0.016 C 
HETATM    2  C5  UNL     1     -33.712   8.683   5.639  1.00 20.00     0.007 C 
HETATM    3  C6  UNL     1     -34.689   6.780   5.609  1.00 20.00     0.091 C 
HETATM    4  C7  UNL     1     -33.835   7.569   4.569  1.00 20.00     0.004 C 
ENDROOT
BRANCH   4   5
HETATM    5  C9  UNL     1     -32.510   6.979   4.104  1.00 20.00     0.038 C 
BRANCH   5   6
HETATM    6  C2  UNL     1     -32.529   6.578   2.649  1.00 20.00    -0.093 C 
HETATM    7  C1  UNL     1     -32.803   5.320   2.273  1.00 20.00     0.014 C 
HETATM    8  C8  UNL     1     -32.192   7.640   1.642  1.00 20.00     0.042 C 
ENDBRANCH   5   6
ENDBRANCH   4   5
BRANCH   3   9
HETATM    9  C3  UNL     1     -34.480   5.310   5.668  1.00 20.00     0.177 C 
HETATM   10  O10 UNL     1     -33.807   4.900   6.655  1.00 20.00    -0.648 OA
HETATM   11  O11 UNL     1     -35.007   4.661   4.721  1.00 20.00    -0.648 OA
ENDBRANCH   3   9
TORSDOF 3
ENDMDL
MODEL 4
REMARK VINA RESULT:      -4.4     11.508     12.974
REMARK  3 active torsions:
REMARK  status: ('A' for Active; 'I' for Inactive)
REMARK    1  A    between atoms: C2_2  and  C9_9 
REMARK    2  A    between atoms: C3_3  and  C6_6 
REMARK    3  A    between atoms: C7_7  and  C9_9 
ROOT
HETATM    1  C4  UNL     1     -36.286  15.765  -7.058  1.00 20.00     0.016 C 
HETATM    2  C5  UNL     1     -34.898  16.414  -7.218  1.00 20.00     0.007 C 
HETATM    3  C6  UNL     1     -35.599  14.640  -6.250  1.00 20.00     0.091 C 
HETATM    4  C7  UNL     1     -34.457  15.656  -5.940  1.00 20.00     0.004 C 
ENDROOT
BRANCH   4   5
HETATM    5  C9  UNL     1     -34.526  16.472  -4.656  1.00 20.00     0.038 C 
BRANCH   5   6
HETATM    6  C2  UNL     1     -33.493  16.048  -3.640  1.00 20.00    -0.093 C 
HETATM    7  C1  UNL     1     -33.369  16.678  -2.462  1.00 20.00     0.014 C 
HETATM    8  C8  UNL     1     -32.584  14.914  -4.020  1.00 20.00     0.042 C 
ENDBRANCH   5   6
ENDBRANCH   4   5
BRANCH   3   9
HETATM    9  C3  UNL     1     -36.361  14.113  -5.088  1.00 20.00     0.177 C 
HETATM   10  O10 UNL     1     -37.480  14.660  -4.885  1.00 20.00    -0.648 OA
HETATM   11  O11 UNL     1     -35.786  13.184  -4.454  1.00 20.00    -0.648 OA
ENDBRANCH   3   9
TORSDOF 3
ENDMDL
MODEL 5
REMARK VINA RESULT:      -4.4      1.404      3.989
REMARK  3 active torsions:
REMARK  status: ('A' for Active; 'I' for Inactive)
REMARK    1  A    between atoms: C2_2  and  C9_9 
REMARK    2  A    between atoms: C3_3  and  C6_6 
REMARK    3  A    between atoms: C7_7  and  C9_9 
ROOT
HETATM    1  C4  UNL     1     -34.423   5.521   6.488  1.00 20.00     0.016 C 
HETATM    2  C5  UNL     1     -34.430   7.061   6.560  1.00 20.00     0.007 C 
HETATM    3  C6  UNL     1     -34.741   5.651   4.981  1.00 20.00     0.091 C 
HETATM    4  C7  UNL     1     -34.113   7.077   5.043  1.00 20.00     0.004 C 
ENDROOT
BRANCH   4   5
HETATM    5  C9  UNL     1     -32.639   7.249   4.699  1.00 20.00     0.038 C 
BRANCH   5   6
HETATM    6  C2  UNL     1     -32.422   8.122   3.486  1.00 20.00    -0.093 C 
HETATM    7  C1  UNL     1     -32.099   7.596   2.295  1.00 20.00     0.014 C 
HETATM    8  C8  UNL     1     -32.546   9.606   3.679  1.00 20.00     0.042 C 
ENDBRANCH   5   6
ENDBRANCH   4   5
BRANCH   3   9
HETATM    9  C3  UNL     1     -34.077   4.666   4.087  1.00 20.00     0.177 C 
HETATM   10  O10 UNL     1     -33.930   5.039   2.890  1.00 20.00    -0.648 OA
HETATM   11  O11 UNL     1     -33.747   3.583   4.645  1.00 20.00    -0.648 OA
ENDBRANCH   3   9
TORSDOF 3
ENDMDL
MODEL 6
REMARK VINA RESULT:      -4.4     11.521     13.006
REMARK  3 active torsions:
REMARK  status: ('A' for Active; 'I' for Inactive)
REMARK    1  A    between atoms: C2_2  and  C9_9 
REMARK    2  A    between atoms: C3_3  and  C6_6 
REMARK    3  A    between atoms: C7_7  and  C9_9 
ROOT
HETATM    1  C4  UNL     1     -36.337  15.773  -7.051  1.00 20.00     0.016 C 
HETATM    2  C5  UNL     1     -34.947  16.410  -7.246  1.00 20.00     0.007 C 
HETATM    3  C6  UNL     1     -35.638  14.635  -6.273  1.00 20.00     0.091 C 
HETATM    4  C7  UNL     1     -34.478  15.637  -5.987  1.00 20.00     0.004 C 
ENDROOT
BRANCH   4   5
HETATM    5  C9  UNL     1     -34.501  16.443  -4.695  1.00 20.00     0.038 C 
BRANCH   5   6
HETATM    6  C2  UNL     1     -33.443  16.001  -3.714  1.00 20.00    -0.093 C 
HETATM    7  C1  UNL     1     -32.619  14.977  -3.986  1.00 20.00     0.014 C 
HETATM    8  C8  UNL     1     -33.375  16.733  -2.404  1.00 20.00     0.042 C 
ENDBRANCH   5   6
ENDBRANCH   4   5
BRANCH   3   9
HETATM    9  C3  UNL     1     -36.371  14.106  -5.093  1.00 20.00     0.177 C 
HETATM   10  O10 UNL     1     -35.783  13.184  -4.462  1.00 20.00    -0.648 OA
HETATM   11  O11 UNL     1     -37.490  14.650  -4.876  1.00 20.00    -0.648 OA
ENDBRANCH   3   9
TORSDOF 3
ENDMDL
MODEL 7
REMARK VINA RESULT:      -4.2     10.116     10.977
REMARK  3 active torsions:
REMARK  status: ('A' for Active; 'I' for Inactive)
REMARK    1  A    between atoms: C2_2  and  C9_9 
REMARK    2  A    between atoms: C3_3  and  C6_6 
REMARK    3  A    between atoms: C7_7  and  C9_9 
ROOT
HETATM    1  C4  UNL     1     -43.059  14.568   6.930  1.00 20.00     0.016 C 
HETATM    2  C5  UNL     1     -43.266  13.313   6.059  1.00 20.00     0.007 C 
HETATM    3  C6  UNL     1     -41.974  13.780   7.699  1.00 20.00     0.091 C 
HETATM    4  C7  UNL     1     -41.823  12.886   6.430  1.00 20.00     0.004 C 
ENDROOT
BRANCH   4   5
HETATM    5  C9  UNL     1     -40.763  13.245   5.397  1.00 20.00     0.038 C 
BRANCH   5   6
HETATM    6  C2  UNL     1     -39.635  12.243   5.348  1.00 20.00    -0.093 C 
HETATM    7  C1  UNL     1     -38.987  11.863   6.460  1.00 20.00     0.014 C 
HETATM    8  C8  UNL     1     -39.244  11.718   3.997  1.00 20.00     0.042 C 
ENDBRANCH   5   6
ENDBRANCH   4   5
BRANCH   3   9
HETATM    9  C3  UNL     1     -40.777  14.556   8.117  1.00 20.00     0.177 C 
HETATM   10  O10 UNL     1     -40.666  15.698   7.592  1.00 20.00    -0.648 OA
HETATM   11  O11 UNL     1     -40.028  13.969   8.947  1.00 20.00    -0.648 OA
ENDBRANCH   3   9
TORSDOF 3
ENDMDL
MODEL 8
REMARK VINA RESULT:      -4.1     11.544     12.387
REMARK  3 active torsions:
REMARK  status: ('A' for Active; 'I' for Inactive)
REMARK    1  A    between atoms: C2_2  and  C9_9 
REMARK    2  A    between atoms: C3_3  and  C6_6 
REMARK    3  A    between atoms: C7_7  and  C9_9 
ROOT
HETATM    1  C4  UNL     1     -35.113  17.010  -4.469  1.00 20.00     0.016 C 
HETATM    2  C5  UNL     1     -34.667  18.286  -3.728  1.00 20.00     0.007 C 
HETATM    3  C6  UNL     1     -33.634  16.559  -4.453  1.00 20.00     0.091 C 
HETATM    4  C7  UNL     1     -33.435  17.495  -3.222  1.00 20.00     0.004 C 
ENDROOT
BRANCH   4   5
HETATM    5  C9  UNL     1     -33.579  16.912  -1.822  1.00 20.00     0.038 C 
BRANCH   5   6
HETATM    6  C2  UNL     1     -33.136  17.871  -0.743  1.00 20.00    -0.093 C 
HETATM    7  C1  UNL     1     -33.922  18.157   0.306  1.00 20.00     0.014 C 
HETATM    8  C8  UNL     1     -31.792  18.520  -0.914  1.00 20.00     0.042 C 
ENDBRANCH   5   6
ENDBRANCH   4   5
BRANCH   3   9
HETATM    9  C3  UNL     1     -33.398  15.108  -4.236  1.00 20.00     0.177 C 
HETATM   10  O10 UNL     1     -34.439  14.409  -4.084  1.00 20.00    -0.648 OA
HETATM   11  O11 UNL     1     -32.183  14.763  -4.233  1.00 20.00    -0.648 OA
ENDBRANCH   3   9
TORSDOF 3
ENDMDL
MODEL 9
REMARK VINA RESULT:      -4.0     12.131     13.785
REMARK  3 active torsions:
REMARK  status: ('A' for Active; 'I' for Inactive)
REMARK    1  A    between atoms: C2_2  and  C9_9 
REMARK    2  A    between atoms: C3_3  and  C6_6 
REMARK    3  A    between atoms: C7_7  and  C9_9 
ROOT
HETATM    1  C4  UNL     1     -36.511  17.268  -6.882  1.00 20.00     0.016 C 
HETATM    2  C5  UNL     1     -35.985  18.161  -5.741  1.00 20.00     0.007 C 
HETATM    3  C6  UNL     1     -35.057  16.786  -7.092  1.00 20.00     0.091 C 
HETATM    4  C7  UNL     1     -34.783  17.191  -5.612  1.00 20.00     0.004 C 
ENDROOT
BRANCH   4   5
HETATM    5  C9  UNL     1     -34.924  16.138  -4.521  1.00 20.00     0.038 C 
BRANCH   5   6
HETATM    6  C2  UNL     1     -33.627  15.871  -3.797  1.00 20.00    -0.093 C 
HETATM    7  C1  UNL     1     -32.769  14.931  -4.220  1.00 20.00     0.014 C 
HETATM    8  C8  UNL     1     -33.355  16.678  -2.559  1.00 20.00     0.042 C 
ENDBRANCH   5   6
ENDBRANCH   4   5
BRANCH   3   9
HETATM    9  C3  UNL     1     -34.890  15.350  -7.435  1.00 20.00     0.177 C 
HETATM   10  O10 UNL     1     -33.701  14.981  -7.646  1.00 20.00    -0.648 OA
HETATM   11  O11 UNL     1     -35.963  14.684  -7.470  1.00 20.00    -0.648 OA
ENDBRANCH   3   9
TORSDOF 3
ENDMDL
