MODEL 1
REMARK VINA RESULT:      -4.6      0.000      0.000
REMARK  3 active torsions:
REMARK  status: ('A' for Active; 'I' for Inactive)
REMARK    1  A    between atoms: C3_3  and  C7_7 
REMARK    2  A    between atoms: C6_6  and  C8_8 
REMARK    3  A    between atoms: C7_7  and  C8_8 
ROOT
HETATM    1  C1  UNL     1     -32.016   8.191   1.146  1.00 20.00     0.012 C 
HETATM    2  C2  UNL     1     -32.306   7.630   2.167  1.00 20.00    -0.117 C 
HETATM    3  C6  UNL     1     -32.656   6.937   3.416  1.00 20.00     0.098 C 
ENDROOT
BRANCH   3   4
HETATM    4  C8  UNL     1     -33.479   7.801   4.396  1.00 20.00     0.006 C 
HETATM    5  C5  UNL     1     -32.569   8.812   5.114  1.00 20.00     0.011 C 
BRANCH   4   6
HETATM    6  C7  UNL     1     -34.303   6.982   5.419  1.00 20.00     0.087 C 
HETATM    7  C4  UNL     1     -33.457   6.400   6.554  1.00 20.00     0.021 C 
BRANCH   6   8
HETATM    8  C3  UNL     1     -34.985   5.751   4.783  1.00 20.00     0.177 C 
HETATM    9  O9  UNL     1     -34.471   4.629   5.054  1.00 20.00    -0.648 OA
HETATM   10  O10 UNL     1     -35.988   6.020   4.063  1.00 20.00    -0.648 OA
ENDBRANCH   6   8
ENDBRANCH   4   6
ENDBRANCH   3   4
TORSDOF 3
ENDMDL
MODEL 2
REMARK VINA RESULT:      -4.5      1.155      1.940
REMARK  3 active torsions:
REMARK  status: ('A' for Active; 'I' for Inactive)
REMARK    1  A    between atoms: C3_3  and  C7_7 
REMARK    2  A    between atoms: C6_6  and  C8_8 
REMARK    3  A    between atoms: C7_7  and  C8_8 
ROOT
HETATM    1  C1  UNL     1     -32.519   8.640   0.898  1.00 20.00     0.012 C 
HETATM    2  C2  UNL     1     -32.245   8.204   1.982  1.00 20.00    -0.117 C 
HETATM    3  C6  UNL     1     -31.905   7.677   3.313  1.00 20.00     0.098 C 
ENDROOT
BRANCH   3   4
HETATM    4  C8  UNL     1     -32.757   6.461   3.735  1.00 20.00     0.006 C 
HETATM    5  C5  UNL     1     -33.035   5.554   2.524  1.00 20.00     0.011 C 
BRANCH   4   6
HETATM    6  C7  UNL     1     -34.075   6.834   4.454  1.00 20.00     0.087 C 
HETATM    7  C4  UNL     1     -33.957   8.086   5.326  1.00 20.00     0.021 C 
BRANCH   6   8
HETATM    8  C3  UNL     1     -34.551   5.736   5.430  1.00 20.00     0.177 C 
HETATM    9  O9  UNL     1     -34.927   4.650   4.905  1.00 20.00    -0.648 OA
HETATM   10  O10 UNL     1     -34.503   6.061   6.651  1.00 20.00    -0.648 OA
ENDBRANCH   6   8
ENDBRANCH   4   6
ENDBRANCH   3   4
TORSDOF 3
ENDMDL
MODEL 3
REMARK VINA RESULT:      -4.5      1.169      1.557
REMARK  3 active torsions:
REMARK  status: ('A' for Active; 'I' for Inactive)
REMARK    1  A    between atoms: C3_3  and  C7_7 
REMARK    2  A    between atoms: C6_6  and  C8_8 
REMARK    3  A    between atoms: C7_7  and  C8_8 
ROOT
HETATM    1  C1  UNL     1     -32.821   9.512   1.087  1.00 20.00     0.012 C 
HETATM    2  C2  UNL     1     -32.522   8.789   1.997  1.00 20.00    -0.117 C 
HETATM    3  C6  UNL     1     -32.148   7.903   3.111  1.00 20.00     0.098 C 
ENDROOT
BRANCH   3   4
HETATM    4  C8  UNL     1     -33.326   7.548   4.044  1.00 20.00     0.006 C 
HETATM    5  C5  UNL     1     -33.237   8.355   5.350  1.00 20.00     0.011 C 
BRANCH   4   6
HETATM    6  C7  UNL     1     -33.459   6.035   4.342  1.00 20.00     0.087 C 
HETATM    7  C4  UNL     1     -33.416   5.163   3.086  1.00 20.00     0.021 C 
BRANCH   6   8
HETATM    8  C3  UNL     1     -34.807   5.678   5.007  1.00 20.00     0.177 C 
HETATM    9  O9  UNL     1     -34.743   5.220   6.183  1.00 20.00    -0.648 OA
HETATM   10  O10 UNL     1     -35.821   5.892   4.284  1.00 20.00    -0.648 OA
ENDBRANCH   6   8
ENDBRANCH   4   6
ENDBRANCH   3   4
TORSDOF 3
ENDMDL
MODEL 4
REMARK VINA RESULT:      -4.1      1.412      2.221
REMARK  3 active torsions:
REMARK  status: ('A' for Active; 'I' for Inactive)
REMARK    1  A    between atoms: C3_3  and  C7_7 
REMARK    2  A    between atoms: C6_6  and  C8_8 
REMARK    3  A    between atoms: C7_7  and  C8_8 
ROOT
HETATM    1  C1  UNL     1     -32.590   9.099   2.317  1.00 20.00     0.012 C 
HETATM    2  C2  UNL     1     -32.603   8.582   3.400  1.00 20.00    -0.117 C 
HETATM    3  C6  UNL     1     -32.611   7.951   4.730  1.00 20.00     0.098 C 
ENDROOT
BRANCH   3   4
HETATM    4  C8  UNL     1     -33.967   7.317   5.108  1.00 20.00     0.006 C 
HETATM    5  C5  UNL     1     -33.852   6.561   6.442  1.00 20.00     0.011 C 
BRANCH   4   6
HETATM    6  C7  UNL     1     -34.563   6.404   4.010  1.00 20.00     0.087 C 
HETATM    7  C4  UNL     1     -35.954   5.866   4.357  1.00 20.00     0.021 C 
BRANCH   6   8
HETATM    8  C3  UNL     1     -33.716   5.136   3.766  1.00 20.00     0.177 C 
HETATM    9  O9  UNL     1     -32.814   5.231   2.887  1.00 20.00    -0.648 OA
HETATM   10  O10 UNL     1     -34.032   4.147   4.488  1.00 20.00    -0.648 OA
ENDBRANCH   6   8
ENDBRANCH   4   6
ENDBRANCH   3   4
TORSDOF 3
ENDMDL
MODEL 5
REMARK VINA RESULT:      -4.1     12.108     13.099
REMARK  3 active torsions:
REMARK  status: ('A' for Active; 'I' for Inactive)
REMARK    1  A    between atoms: C3_3  and  C7_7 
REMARK    2  A    between atoms: C6_6  and  C8_8 
REMARK    3  A    between atoms: C7_7  and  C8_8 
ROOT
HETATM    1  C1  UNL     1     -33.665  17.386  -1.461  1.00 20.00     0.012 C 
HETATM    2  C2  UNL     1     -33.501  16.678  -2.417  1.00 20.00    -0.117 C 
HETATM    3  C6  UNL     1     -33.296  15.805  -3.583  1.00 20.00     0.098 C 
ENDROOT
BRANCH   3   4
HETATM    4  C8  UNL     1     -34.043  16.276  -4.850  1.00 20.00     0.006 C 
HETATM    5  C5  UNL     1     -34.558  17.713  -4.665  1.00 20.00     0.011 C 
BRANCH   4   6
HETATM    6  C7  UNL     1     -35.188  15.336  -5.293  1.00 20.00     0.087 C 
HETATM    7  C4  UNL     1     -35.221  14.014  -4.522  1.00 20.00     0.021 C 
BRANCH   6   8
HETATM    8  C3  UNL     1     -35.069  14.910  -6.773  1.00 20.00     0.177 C 
HETATM    9  O9  UNL     1     -36.099  14.388  -7.286  1.00 20.00    -0.648 OA
HETATM   10  O10 UNL     1     -33.942  15.141  -7.296  1.00 20.00    -0.648 OA
ENDBRANCH   6   8
ENDBRANCH   4   6
ENDBRANCH   3   4
TORSDOF 3
ENDMDL
MODEL 6
REMARK VINA RESULT:      -4.1     11.702     12.961
REMARK  3 active torsions:
REMARK  status: ('A' for Active; 'I' for Inactive)
REMARK    1  A    between atoms: C3_3  and  C7_7 
REMARK    2  A    between atoms: C6_6  and  C8_8 
REMARK    3  A    between atoms: C7_7  and  C8_8 
ROOT
HETATM    1  C1  UNL     1     -33.684  17.353  -1.135  1.00 20.00     0.012 C 
HETATM    2  C2  UNL     1     -33.567  17.136  -2.310  1.00 20.00    -0.117 C 
HETATM    3  C6  UNL     1     -33.418  16.875  -3.750  1.00 20.00     0.098 C 
ENDROOT
BRANCH   3   4
HETATM    4  C8  UNL     1     -34.254  15.678  -4.254  1.00 20.00     0.006 C 
HETATM    5  C5  UNL     1     -33.363  14.436  -4.423  1.00 20.00     0.011 C 
BRANCH   4   6
HETATM    6  C7  UNL     1     -35.048  15.965  -5.550  1.00 20.00     0.087 C 
HETATM    7  C4  UNL     1     -35.966  17.185  -5.443  1.00 20.00     0.021 C 
BRANCH   6   8
HETATM    8  C3  UNL     1     -35.996  14.809  -5.935  1.00 20.00     0.177 C 
HETATM    9  O9  UNL     1     -36.848  14.475  -5.063  1.00 20.00    -0.648 OA
HETATM   10  O10 UNL     1     -35.803  14.334  -7.090  1.00 20.00    -0.648 OA
ENDBRANCH   6   8
ENDBRANCH   4   6
ENDBRANCH   3   4
TORSDOF 3
ENDMDL
MODEL 7
REMARK VINA RESULT:      -4.0      1.645      2.868
REMARK  3 active torsions:
REMARK  status: ('A' for Active; 'I' for Inactive)
REMARK    1  A    between atoms: C3_3  and  C7_7 
REMARK    2  A    between atoms: C6_6  and  C8_8 
REMARK    3  A    between atoms: C7_7  and  C8_8 
ROOT
HETATM    1  C1  UNL     1     -32.088   9.165   4.930  1.00 20.00     0.012 C 
HETATM    2  C2  UNL     1     -32.621   8.374   4.201  1.00 20.00    -0.117 C 
HETATM    3  C6  UNL     1     -33.276   7.411   3.302  1.00 20.00     0.098 C 
ENDROOT
BRANCH   3   4
HETATM    4  C8  UNL     1     -33.198   5.950   3.794  1.00 20.00     0.006 C 
HETATM    5  C5  UNL     1     -32.948   4.999   2.611  1.00 20.00     0.011 C 
BRANCH   4   6
HETATM    6  C7  UNL     1     -34.428   5.494   4.614  1.00 20.00     0.087 C 
HETATM    7  C4  UNL     1     -35.722   6.208   4.215  1.00 20.00     0.021 C 
BRANCH   6   8
HETATM    8  C3  UNL     1     -34.280   5.791   6.122  1.00 20.00     0.177 C 
HETATM    9  O9  UNL     1     -34.565   6.966   6.488  1.00 20.00    -0.648 OA
HETATM   10  O10 UNL     1     -33.890   4.808   6.814  1.00 20.00    -0.648 OA
ENDBRANCH   6   8
ENDBRANCH   4   6
ENDBRANCH   3   4
TORSDOF 3
ENDMDL
MODEL 8
REMARK VINA RESULT:      -3.9     11.765     13.107
REMARK  3 active torsions:
REMARK  status: ('A' for Active; 'I' for Inactive)
REMARK    1  A    between atoms: C3_3  and  C7_7 
REMARK    2  A    between atoms: C6_6  and  C8_8 
REMARK    3  A    between atoms: C7_7  and  C8_8 
ROOT
HETATM    1  C1  UNL     1     -33.122  17.469  -1.697  1.00 20.00     0.012 C 
HETATM    2  C2  UNL     1     -33.333  16.628  -2.526  1.00 20.00    -0.117 C 
HETATM    3  C6  UNL     1     -33.592  15.591  -3.537  1.00 20.00     0.098 C 
ENDROOT
BRANCH   3   4
HETATM    4  C8  UNL     1     -34.013  16.154  -4.912  1.00 20.00     0.006 C 
HETATM    5  C5  UNL     1     -35.221  17.094  -4.758  1.00 20.00     0.011 C 
BRANCH   4   6
HETATM    6  C7  UNL     1     -34.294  15.069  -5.979  1.00 20.00     0.087 C 
HETATM    7  C4  UNL     1     -34.092  15.562  -7.413  1.00 20.00     0.021 C 
BRANCH   6   8
HETATM    8  C3  UNL     1     -35.756  14.573  -5.951  1.00 20.00     0.177 C 
HETATM    9  O9  UNL     1     -36.479  14.916  -6.929  1.00 20.00    -0.648 OA
HETATM   10  O10 UNL     1     -36.053  13.872  -4.941  1.00 20.00    -0.648 OA
ENDBRANCH   6   8
ENDBRANCH   4   6
ENDBRANCH   3   4
TORSDOF 3
ENDMDL
MODEL 9
REMARK VINA RESULT:      -3.8      2.605      4.356
REMARK  3 active torsions:
REMARK  status: ('A' for Active; 'I' for Inactive)
REMARK    1  A    between atoms: C3_3  and  C7_7 
REMARK    2  A    between atoms: C6_6  and  C8_8 
REMARK    3  A    between atoms: C7_7  and  C8_8 
ROOT
HETATM    1  C1  UNL     1     -34.486   4.979   6.511  1.00 20.00     0.012 C 
HETATM    2  C2  UNL     1     -34.437   5.904   5.748  1.00 20.00    -0.117 C 
HETATM    3  C6  UNL     1     -34.380   7.042   4.818  1.00 20.00     0.098 C 
ENDROOT
BRANCH   3   4
HETATM    4  C8  UNL     1     -33.617   6.739   3.510  1.00 20.00     0.006 C 
HETATM    5  C5  UNL     1     -33.312   5.235   3.405  1.00 20.00     0.011 C 
BRANCH   4   6
HETATM    6  C7  UNL     1     -32.329   7.574   3.324  1.00 20.00     0.087 C 
HETATM    7  C4  UNL     1     -32.082   8.571   4.459  1.00 20.00     0.021 C 
BRANCH   6   8
HETATM    8  C3  UNL     1     -32.367   8.449   2.052  1.00 20.00     0.177 C 
HETATM    9  O9  UNL     1     -31.914   7.919   0.998  1.00 20.00    -0.648 OA
HETATM   10  O10 UNL     1     -32.855   9.603   2.223  1.00 20.00    -0.648 OA
ENDBRANCH   6   8
ENDBRANCH   4   6
ENDBRANCH   3   4
TORSDOF 3
ENDMDL
