MODEL 1
REMARK VINA RESULT:      -4.6      0.000      0.000
REMARK  5 active torsions:
REMARK  status: ('A' for Active; 'I' for Inactive)
REMARK    1  A    between atoms: C2_2  and  C6_6 
REMARK    2  A    between atoms: C3_3  and  C7_7 
REMARK    3  A    between atoms: C3_3  and  O10_10 
REMARK    4  A    between atoms: C6_6  and  C8_8 
REMARK    5  A    between atoms: C7_7  and  C8_8 
ROOT
HETATM    1  C1  UNL     1     -33.569  17.391  -1.250  1.00 20.00    -0.111 C 
HETATM    2  C2  UNL     1     -33.420  16.802  -2.286  1.00 20.00    -0.107 C 
HETATM    3  C4  UNL     1     -33.755  18.107   0.011  1.00 20.00     0.112 C 
ENDROOT
BRANCH   2   4
HETATM    4  C6  UNL     1     -33.231  16.082  -3.554  1.00 20.00     0.098 C 
BRANCH   4   5
HETATM    5  C8  UNL     1     -34.459  16.131  -4.486  1.00 20.00     0.002 C 
HETATM    6  C5  UNL     1     -34.434  17.374  -5.383  1.00 20.00     0.011 C 
BRANCH   5   7
HETATM    7  C7  UNL     1     -34.632  14.868  -5.343  1.00 20.00     0.115 C 
BRANCH   7   8
HETATM    8  C3  UNL     1     -35.906  14.123  -5.027  1.00 20.00     0.139 C 
HETATM    9  O9  UNL     1     -37.027  14.553  -5.268  1.00 20.00    -0.650 OA
BRANCH   8  10
HETATM   10  O10 UNL     1     -35.676  12.919  -4.449  1.00 20.00    -0.776 OA
HETATM   11  H22 UNL     1     -34.777  12.555  -4.588  1.00 20.00     0.167 HD
ENDBRANCH   8  10
ENDBRANCH   7   8
ENDBRANCH   5   7
ENDBRANCH   4   5
ENDBRANCH   2   4
TORSDOF 5
ENDMDL
MODEL 2
REMARK VINA RESULT:      -4.5     11.398     12.295
REMARK  5 active torsions:
REMARK  status: ('A' for Active; 'I' for Inactive)
REMARK    1  A    between atoms: C2_2  and  C6_6 
REMARK    2  A    between atoms: C3_3  and  C7_7 
REMARK    3  A    between atoms: C3_3  and  O10_10 
REMARK    4  A    between atoms: C6_6  and  C8_8 
REMARK    5  A    between atoms: C7_7  and  C8_8 
ROOT
HETATM    1  C1  UNL     1     -32.482   8.599   2.353  1.00 20.00    -0.111 C 
HETATM    2  C2  UNL     1     -32.673   8.510   3.535  1.00 20.00    -0.107 C 
HETATM    3  C4  UNL     1     -32.247   8.710   0.914  1.00 20.00     0.112 C 
ENDROOT
BRANCH   2   4
HETATM    4  C6  UNL     1     -32.910   8.397   4.982  1.00 20.00     0.098 C 
BRANCH   4   5
HETATM    5  C8  UNL     1     -33.478   7.029   5.413  1.00 20.00     0.002 C 
HETATM    6  C5  UNL     1     -34.202   7.121   6.761  1.00 20.00     0.011 C 
BRANCH   5   7
HETATM    7  C7  UNL     1     -34.399   6.387   4.365  1.00 20.00     0.115 C 
BRANCH   7   8
HETATM    8  C3  UNL     1     -33.813   5.130   3.771  1.00 20.00     0.139 C 
HETATM    9  O9  UNL     1     -33.107   5.111   2.770  1.00 20.00    -0.650 OA
BRANCH   8  10
HETATM   10  O10 UNL     1     -34.147   4.017   4.469  1.00 20.00    -0.776 OA
HETATM   11  H22 UNL     1     -35.032   3.646   4.264  1.00 20.00     0.167 HD
ENDBRANCH   8  10
ENDBRANCH   7   8
ENDBRANCH   5   7
ENDBRANCH   4   5
ENDBRANCH   2   4
TORSDOF 5
ENDMDL
MODEL 3
REMARK VINA RESULT:      -4.4     11.356     12.189
REMARK  5 active torsions:
REMARK  status: ('A' for Active; 'I' for Inactive)
REMARK    1  A    between atoms: C2_2  and  C6_6 
REMARK    2  A    between atoms: C3_3  and  C7_7 
REMARK    3  A    between atoms: C3_3  and  O10_10 
REMARK    4  A    between atoms: C6_6  and  C8_8 
REMARK    5  A    between atoms: C7_7  and  C8_8 
ROOT
HETATM    1  C1  UNL     1     -32.537   8.516   1.326  1.00 20.00    -0.111 C 
HETATM    2  C2  UNL     1     -32.493   7.725   2.227  1.00 20.00    -0.107 C 
HETATM    3  C4  UNL     1     -32.587   9.483   0.230  1.00 20.00     0.112 C 
ENDROOT
BRANCH   2   4
HETATM    4  C6  UNL     1     -32.443   6.752   3.329  1.00 20.00     0.098 C 
BRANCH   4   5
HETATM    5  C8  UNL     1     -32.880   7.331   4.690  1.00 20.00     0.002 C 
HETATM    6  C5  UNL     1     -32.574   8.830   4.787  1.00 20.00     0.011 C 
BRANCH   5   7
HETATM    7  C7  UNL     1     -34.358   7.075   5.023  1.00 20.00     0.115 C 
BRANCH   7   8
HETATM    8  C3  UNL     1     -34.589   5.708   5.619  1.00 20.00     0.139 C 
HETATM    9  O9  UNL     1     -34.131   5.345   6.695  1.00 20.00    -0.650 OA
BRANCH   8  10
HETATM   10  O10 UNL     1     -35.367   4.921   4.836  1.00 20.00    -0.776 OA
HETATM   11  H22 UNL     1     -34.927   4.117   4.486  1.00 20.00     0.167 HD
ENDBRANCH   8  10
ENDBRANCH   7   8
ENDBRANCH   5   7
ENDBRANCH   4   5
ENDBRANCH   2   4
TORSDOF 5
ENDMDL
MODEL 4
REMARK VINA RESULT:      -4.2      1.282      1.621
REMARK  5 active torsions:
REMARK  status: ('A' for Active; 'I' for Inactive)
REMARK    1  A    between atoms: C2_2  and  C6_6 
REMARK    2  A    between atoms: C3_3  and  C7_7 
REMARK    3  A    between atoms: C3_3  and  O10_10 
REMARK    4  A    between atoms: C6_6  and  C8_8 
REMARK    5  A    between atoms: C7_7  and  C8_8 
ROOT
HETATM    1  C1  UNL     1     -33.386  16.728  -2.330  1.00 20.00    -0.111 C 
HETATM    2  C2  UNL     1     -33.400  15.952  -3.246  1.00 20.00    -0.107 C 
HETATM    3  C4  UNL     1     -33.367  17.677  -1.217  1.00 20.00     0.112 C 
ENDROOT
BRANCH   2   4
HETATM    4  C6  UNL     1     -33.419  14.997  -4.364  1.00 20.00     0.098 C 
BRANCH   4   5
HETATM    5  C8  UNL     1     -34.600  15.200  -5.335  1.00 20.00     0.002 C 
HETATM    6  C5  UNL     1     -34.123  15.280  -6.790  1.00 20.00     0.011 C 
BRANCH   5   7
HETATM    7  C7  UNL     1     -35.698  14.134  -5.200  1.00 20.00     0.115 C 
BRANCH   7   8
HETATM    8  C3  UNL     1     -37.073  14.736  -5.039  1.00 20.00     0.139 C 
HETATM    9  O9  UNL     1     -37.464  15.721  -5.653  1.00 20.00    -0.650 OA
BRANCH   8  10
HETATM   10  O10 UNL     1     -37.834  14.065  -4.141  1.00 20.00    -0.776 OA
HETATM   11  H22 UNL     1     -38.524  14.602  -3.696  1.00 20.00     0.167 HD
ENDBRANCH   8  10
ENDBRANCH   7   8
ENDBRANCH   5   7
ENDBRANCH   4   5
ENDBRANCH   2   4
TORSDOF 5
ENDMDL
MODEL 5
REMARK VINA RESULT:      -4.0      3.040      4.609
REMARK  5 active torsions:
REMARK  status: ('A' for Active; 'I' for Inactive)
REMARK    1  A    between atoms: C2_2  and  C6_6 
REMARK    2  A    between atoms: C3_3  and  C7_7 
REMARK    3  A    between atoms: C3_3  and  O10_10 
REMARK    4  A    between atoms: C6_6  and  C8_8 
REMARK    5  A    between atoms: C7_7  and  C8_8 
ROOT
HETATM    1  C1  UNL     1     -30.580  18.641   1.493  1.00 20.00    -0.111 C 
HETATM    2  C2  UNL     1     -31.156  18.574   0.442  1.00 20.00    -0.107 C 
HETATM    3  C4  UNL     1     -29.880  18.720   2.775  1.00 20.00     0.112 C 
ENDROOT
BRANCH   2   4
HETATM    4  C6  UNL     1     -31.859  18.496  -0.847  1.00 20.00     0.098 C 
BRANCH   4   5
HETATM    5  C8  UNL     1     -33.232  17.798  -0.765  1.00 20.00     0.002 C 
HETATM    6  C5  UNL     1     -34.053  18.310   0.423  1.00 20.00     0.011 C 
BRANCH   5   7
HETATM    7  C7  UNL     1     -34.056  17.906  -2.058  1.00 20.00     0.115 C 
BRANCH   7   8
HETATM    8  C3  UNL     1     -33.498  17.056  -3.173  1.00 20.00     0.139 C 
HETATM    9  O9  UNL     1     -33.456  15.832  -3.145  1.00 20.00    -0.650 OA
BRANCH   8  10
HETATM   10  O10 UNL     1     -33.050  17.794  -4.218  1.00 20.00    -0.776 OA
HETATM   11  H22 UNL     1     -32.401  18.492  -3.987  1.00 20.00     0.167 HD
ENDBRANCH   8  10
ENDBRANCH   7   8
ENDBRANCH   5   7
ENDBRANCH   4   5
ENDBRANCH   2   4
TORSDOF 5
ENDMDL
MODEL 6
REMARK VINA RESULT:      -4.0      1.886      2.464
REMARK  5 active torsions:
REMARK  status: ('A' for Active; 'I' for Inactive)
REMARK    1  A    between atoms: C2_2  and  C6_6 
REMARK    2  A    between atoms: C3_3  and  C7_7 
REMARK    3  A    between atoms: C3_3  and  O10_10 
REMARK    4  A    between atoms: C6_6  and  C8_8 
REMARK    5  A    between atoms: C7_7  and  C8_8 
ROOT
HETATM    1  C1  UNL     1     -32.154  18.294  -0.648  1.00 20.00    -0.111 C 
HETATM    2  C2  UNL     1     -33.136  18.062  -1.298  1.00 20.00    -0.107 C 
HETATM    3  C4  UNL     1     -30.956  18.573   0.143  1.00 20.00     0.112 C 
ENDROOT
BRANCH   2   4
HETATM    4  C6  UNL     1     -34.341  17.783  -2.093  1.00 20.00     0.098 C 
BRANCH   4   5
HETATM    5  C8  UNL     1     -34.042  17.240  -3.505  1.00 20.00     0.002 C 
HETATM    6  C5  UNL     1     -33.514  18.341  -4.431  1.00 20.00     0.011 C 
BRANCH   5   7
HETATM    7  C7  UNL     1     -33.080  16.041  -3.513  1.00 20.00     0.115 C 
BRANCH   7   8
HETATM    8  C3  UNL     1     -33.572  14.910  -4.382  1.00 20.00     0.139 C 
HETATM    9  O9  UNL     1     -34.260  13.983  -3.974  1.00 20.00    -0.650 OA
BRANCH   8  10
HETATM   10  O10 UNL     1     -33.174  15.032  -5.672  1.00 20.00    -0.776 OA
HETATM   11  H22 UNL     1     -33.626  14.436  -6.306  1.00 20.00     0.167 HD
ENDBRANCH   8  10
ENDBRANCH   7   8
ENDBRANCH   5   7
ENDBRANCH   4   5
ENDBRANCH   2   4
TORSDOF 5
ENDMDL
MODEL 7
REMARK VINA RESULT:      -3.9      2.223      3.244
REMARK  5 active torsions:
REMARK  status: ('A' for Active; 'I' for Inactive)
REMARK    1  A    between atoms: C2_2  and  C6_6 
REMARK    2  A    between atoms: C3_3  and  C7_7 
REMARK    3  A    between atoms: C3_3  and  O10_10 
REMARK    4  A    between atoms: C6_6  and  C8_8 
REMARK    5  A    between atoms: C7_7  and  C8_8 
ROOT
HETATM    1  C1  UNL     1     -31.820  18.578   0.591  1.00 20.00    -0.111 C 
HETATM    2  C2  UNL     1     -32.816  18.351  -0.038  1.00 20.00    -0.107 C 
HETATM    3  C4  UNL     1     -30.605  18.858   1.356  1.00 20.00     0.112 C 
ENDROOT
BRANCH   2   4
HETATM    4  C6  UNL     1     -34.038  18.067  -0.807  1.00 20.00     0.098 C 
BRANCH   4   5
HETATM    5  C8  UNL     1     -33.782  17.794  -2.303  1.00 20.00     0.002 C 
HETATM    6  C5  UNL     1     -32.848  18.844  -2.914  1.00 20.00     0.011 C 
BRANCH   5   7
HETATM    7  C7  UNL     1     -33.243  16.383  -2.587  1.00 20.00     0.115 C 
BRANCH   7   8
HETATM    8  C3  UNL     1     -33.516  15.932  -4.001  1.00 20.00     0.139 C 
HETATM    9  O9  UNL     1     -34.528  16.220  -4.627  1.00 20.00    -0.650 OA
BRANCH   8  10
HETATM   10  O10 UNL     1     -32.514  15.175  -4.510  1.00 20.00    -0.776 OA
HETATM   11  H22 UNL     1     -32.389  14.304  -4.077  1.00 20.00     0.167 HD
ENDBRANCH   8  10
ENDBRANCH   7   8
ENDBRANCH   5   7
ENDBRANCH   4   5
ENDBRANCH   2   4
TORSDOF 5
ENDMDL
MODEL 8
REMARK VINA RESULT:      -3.7     10.513     11.196
REMARK  5 active torsions:
REMARK  status: ('A' for Active; 'I' for Inactive)
REMARK    1  A    between atoms: C2_2  and  C6_6 
REMARK    2  A    between atoms: C3_3  and  C7_7 
REMARK    3  A    between atoms: C3_3  and  O10_10 
REMARK    4  A    between atoms: C6_6  and  C8_8 
REMARK    5  A    between atoms: C7_7  and  C8_8 
ROOT
HETATM    1  C1  UNL     1     -33.996   6.684   5.888  1.00 20.00    -0.111 C 
HETATM    2  C2  UNL     1     -33.317   7.505   5.335  1.00 20.00    -0.107 C 
HETATM    3  C4  UNL     1     -34.822   5.685   6.565  1.00 20.00     0.112 C 
ENDROOT
BRANCH   2   4
HETATM    4  C6  UNL     1     -32.487   8.509   4.653  1.00 20.00     0.098 C 
BRANCH   4   5
HETATM    5  C8  UNL     1     -32.183   8.166   3.180  1.00 20.00     0.002 C 
HETATM    6  C5  UNL     1     -32.546   6.713   2.855  1.00 20.00     0.011 C 
BRANCH   5   7
HETATM    7  C7  UNL     1     -32.857   9.113   2.175  1.00 20.00     0.115 C 
BRANCH   7   8
HETATM    8  C3  UNL     1     -32.419   8.857   0.754  1.00 20.00     0.139 C 
HETATM    9  O9  UNL     1     -31.436   8.193   0.451  1.00 20.00    -0.650 OA
BRANCH   8  10
HETATM   10  O10 UNL     1     -33.237   9.439  -0.157  1.00 20.00    -0.776 OA
HETATM   11  H22 UNL     1     -32.780   9.903  -0.890  1.00 20.00     0.167 HD
ENDBRANCH   8  10
ENDBRANCH   7   8
ENDBRANCH   5   7
ENDBRANCH   4   5
ENDBRANCH   2   4
TORSDOF 5
ENDMDL
MODEL 9
REMARK VINA RESULT:      -3.7     12.226     13.217
REMARK  5 active torsions:
REMARK  status: ('A' for Active; 'I' for Inactive)
REMARK    1  A    between atoms: C2_2  and  C6_6 
REMARK    2  A    between atoms: C3_3  and  C7_7 
REMARK    3  A    between atoms: C3_3  and  O10_10 
REMARK    4  A    between atoms: C6_6  and  C8_8 
REMARK    5  A    between atoms: C7_7  and  C8_8 
ROOT
HETATM    1  C1  UNL     1     -32.775   5.390   2.462  1.00 20.00    -0.111 C 
HETATM    2  C2  UNL     1     -32.676   6.406   3.092  1.00 20.00    -0.107 C 
HETATM    3  C4  UNL     1     -32.892   4.152   1.692  1.00 20.00     0.112 C 
ENDROOT
BRANCH   2   4
HETATM    4  C6  UNL     1     -32.560   7.651   3.867  1.00 20.00     0.098 C 
BRANCH   4   5
HETATM    5  C8  UNL     1     -33.310   7.617   5.214  1.00 20.00     0.002 C 
HETATM    6  C5  UNL     1     -33.475   9.023   5.802  1.00 20.00     0.011 C 
BRANCH   5   7
HETATM    7  C7  UNL     1     -34.676   6.916   5.141  1.00 20.00     0.115 C 
BRANCH   7   8
HETATM    8  C3  UNL     1     -34.645   5.525   5.726  1.00 20.00     0.139 C 
HETATM    9  O9  UNL     1     -34.057   5.231   6.759  1.00 20.00    -0.650 OA
BRANCH   8  10
HETATM   10  O10 UNL     1     -35.346   4.632   4.985  1.00 20.00    -0.776 OA
HETATM   11  H22 UNL     1     -34.825   4.154   4.306  1.00 20.00     0.167 HD
ENDBRANCH   8  10
ENDBRANCH   7   8
ENDBRANCH   5   7
ENDBRANCH   4   5
ENDBRANCH   2   4
TORSDOF 5
ENDMDL
