MODEL 1
REMARK VINA RESULT:      -5.1      0.000      0.000
REMARK  5 active torsions:
REMARK  status: ('A' for Active; 'I' for Inactive)
REMARK    1  A    between atoms: C1_1  and  C4_4 
REMARK    2  A    between atoms: C1_1  and  C8_8 
REMARK    3  A    between atoms: C4_4  and  C5_5 
REMARK    4  A    between atoms: C5_5  and  C6_6 
REMARK    5  A    between atoms: C6_6  and  C7_7 
ROOT
HETATM    1  C1  UNL     1     -32.729   8.268   4.432  1.00 20.00     0.130 C 
HETATM    2  O9  UNL     1     -32.174   9.111   5.138  1.00 20.00    -0.298 OA
ENDROOT
BRANCH   1   3
HETATM    3  C4  UNL     1     -34.018   7.583   4.863  1.00 20.00     0.079 C 
BRANCH   3   4
HETATM    4  C5  UNL     1     -33.973   7.037   6.291  1.00 20.00     0.010 C 
BRANCH   4   5
HETATM    5  C6  UNL     1     -34.409   5.572   6.370  1.00 20.00     0.032 C 
BRANCH   5   6
HETATM    6  C7  UNL     1     -34.886   5.059   5.022  1.00 20.00     0.222 C 
HETATM    7  F10 UNL     1     -34.053   4.073   4.598  1.00 20.00    -0.255 F 
ENDBRANCH   5   6
ENDBRANCH   4   5
ENDBRANCH   3   4
ENDBRANCH   1   3
BRANCH   1   8
HETATM    8  C8  UNL     1     -32.132   7.816   3.099  1.00 20.00     0.047 C 
HETATM    9  C2  UNL     1     -32.533   8.783   1.992  1.00 20.00     0.017 C 
HETATM   10  C3  UNL     1     -32.565   6.391   2.758  1.00 20.00     0.017 C 
ENDBRANCH   1   8
TORSDOF 5
ENDMDL
MODEL 2
REMARK VINA RESULT:      -4.8      2.062      2.593
REMARK  5 active torsions:
REMARK  status: ('A' for Active; 'I' for Inactive)
REMARK    1  A    between atoms: C1_1  and  C4_4 
REMARK    2  A    between atoms: C1_1  and  C8_8 
REMARK    3  A    between atoms: C4_4  and  C5_5 
REMARK    4  A    between atoms: C5_5  and  C6_6 
REMARK    5  A    between atoms: C6_6  and  C7_7 
ROOT
HETATM    1  C1  UNL     1     -33.003   6.128   3.138  1.00 20.00     0.130 C 
HETATM    2  O9  UNL     1     -32.723   5.081   2.555  1.00 20.00    -0.298 OA
ENDROOT
BRANCH   1   3
HETATM    3  C4  UNL     1     -34.271   6.269   3.970  1.00 20.00     0.079 C 
BRANCH   3   4
HETATM    4  C5  UNL     1     -34.616   5.015   4.774  1.00 20.00     0.010 C 
BRANCH   4   5
HETATM    5  C6  UNL     1     -34.591   5.266   6.285  1.00 20.00     0.032 C 
BRANCH   5   6
HETATM    6  C7  UNL     1     -34.364   6.734   6.602  1.00 20.00     0.222 C 
HETATM    7  F10 UNL     1     -33.040   6.941   6.833  1.00 20.00    -0.255 F 
ENDBRANCH   5   6
ENDBRANCH   4   5
ENDBRANCH   3   4
ENDBRANCH   1   3
BRANCH   1   8
HETATM    8  C8  UNL     1     -32.125   7.374   3.023  1.00 20.00     0.047 C 
HETATM    9  C2  UNL     1     -32.580   8.429   4.023  1.00 20.00     0.017 C 
HETATM   10  C3  UNL     1     -32.145   7.932   1.601  1.00 20.00     0.017 C 
ENDBRANCH   1   8
TORSDOF 5
ENDMDL
MODEL 3
REMARK VINA RESULT:      -4.5      1.665      3.595
REMARK  5 active torsions:
REMARK  status: ('A' for Active; 'I' for Inactive)
REMARK    1  A    between atoms: C1_1  and  C4_4 
REMARK    2  A    between atoms: C1_1  and  C8_8 
REMARK    3  A    between atoms: C4_4  and  C5_5 
REMARK    4  A    between atoms: C5_5  and  C6_6 
REMARK    5  A    between atoms: C6_6  and  C7_7 
ROOT
HETATM    1  C1  UNL     1     -33.970   6.811   5.768  1.00 20.00     0.130 C 
HETATM    2  O9  UNL     1     -33.328   6.713   6.814  1.00 20.00    -0.298 OA
ENDROOT
BRANCH   1   3
HETATM    3  C4  UNL     1     -33.941   8.078   4.924  1.00 20.00     0.079 C 
BRANCH   3   4
HETATM    4  C5  UNL     1     -32.537   8.652   4.732  1.00 20.00     0.010 C 
BRANCH   4   5
HETATM    5  C6  UNL     1     -31.679   7.797   3.795  1.00 20.00     0.032 C 
BRANCH   5   6
HETATM    6  C7  UNL     1     -32.411   7.486   2.501  1.00 20.00     0.222 C 
HETATM    7  F10 UNL     1     -32.580   6.141   2.395  1.00 20.00    -0.255 F 
ENDBRANCH   5   6
ENDBRANCH   4   5
ENDBRANCH   3   4
ENDBRANCH   1   3
BRANCH   1   8
HETATM    8  C8  UNL     1     -34.882   5.687   5.274  1.00 20.00     0.047 C 
HETATM    9  C2  UNL     1     -34.045   4.504   4.804  1.00 20.00     0.017 C 
HETATM   10  C3  UNL     1     -35.804   6.176   4.158  1.00 20.00     0.017 C 
ENDBRANCH   1   8
TORSDOF 5
ENDMDL
MODEL 4
REMARK VINA RESULT:      -4.4      2.525      4.447
REMARK  5 active torsions:
REMARK  status: ('A' for Active; 'I' for Inactive)
REMARK    1  A    between atoms: C1_1  and  C4_4 
REMARK    2  A    between atoms: C1_1  and  C8_8 
REMARK    3  A    between atoms: C4_4  and  C5_5 
REMARK    4  A    between atoms: C5_5  and  C6_6 
REMARK    5  A    between atoms: C6_6  and  C7_7 
ROOT
HETATM    1  C1  UNL     1     -33.671   7.514   5.032  1.00 20.00     0.130 C 
HETATM    2  O9  UNL     1     -33.989   8.467   5.744  1.00 20.00    -0.298 OA
ENDROOT
BRANCH   1   3
HETATM    3  C4  UNL     1     -32.427   7.547   4.155  1.00 20.00     0.079 C 
BRANCH   3   4
HETATM    4  C5  UNL     1     -32.490   8.597   3.045  1.00 20.00     0.010 C 
BRANCH   4   5
HETATM    5  C6  UNL     1     -32.219   8.001   1.661  1.00 20.00     0.032 C 
BRANCH   5   6
HETATM    6  C7  UNL     1     -32.532   8.995   0.555  1.00 20.00     0.222 C 
HETATM    7  F10 UNL     1     -32.950  10.163   1.110  1.00 20.00    -0.255 F 
ENDBRANCH   5   6
ENDBRANCH   4   5
ENDBRANCH   3   4
ENDBRANCH   1   3
BRANCH   1   8
HETATM    8  C8  UNL     1     -34.532   6.254   4.942  1.00 20.00     0.047 C 
HETATM    9  C2  UNL     1     -34.620   5.581   6.306  1.00 20.00     0.017 C 
HETATM   10  C3  UNL     1     -33.983   5.286   3.894  1.00 20.00     0.017 C 
ENDBRANCH   1   8
TORSDOF 5
ENDMDL
MODEL 5
REMARK VINA RESULT:      -4.2      2.826      4.691
REMARK  5 active torsions:
REMARK  status: ('A' for Active; 'I' for Inactive)
REMARK    1  A    between atoms: C1_1  and  C4_4 
REMARK    2  A    between atoms: C1_1  and  C8_8 
REMARK    3  A    between atoms: C4_4  and  C5_5 
REMARK    4  A    between atoms: C5_5  and  C6_6 
REMARK    5  A    between atoms: C6_6  and  C7_7 
ROOT
HETATM    1  C1  UNL     1     -33.360   6.478   4.012  1.00 20.00     0.130 C 
HETATM    2  O9  UNL     1     -33.276   5.578   3.176  1.00 20.00    -0.298 OA
ENDROOT
BRANCH   1   3
HETATM    3  C4  UNL     1     -32.395   7.655   4.024  1.00 20.00     0.079 C 
BRANCH   3   4
HETATM    4  C5  UNL     1     -32.618   8.641   2.876  1.00 20.00     0.010 C 
BRANCH   4   5
HETATM    5  C6  UNL     1     -32.101   8.104   1.538  1.00 20.00     0.032 C 
BRANCH   5   6
HETATM    6  C7  UNL     1     -32.552   8.976   0.378  1.00 20.00     0.222 C 
HETATM    7  F10 UNL     1     -32.851  10.218   0.842  1.00 20.00    -0.255 F 
ENDBRANCH   5   6
ENDBRANCH   4   5
ENDBRANCH   3   4
ENDBRANCH   1   3
BRANCH   1   8
HETATM    8  C8  UNL     1     -34.407   6.447   5.127  1.00 20.00     0.047 C 
HETATM    9  C2  UNL     1     -33.918   7.251   6.325  1.00 20.00     0.017 C 
HETATM   10  C3  UNL     1     -34.733   5.011   5.534  1.00 20.00     0.017 C 
ENDBRANCH   1   8
TORSDOF 5
ENDMDL
MODEL 6
REMARK VINA RESULT:      -4.1      2.653      3.440
REMARK  5 active torsions:
REMARK  status: ('A' for Active; 'I' for Inactive)
REMARK    1  A    between atoms: C1_1  and  C4_4 
REMARK    2  A    between atoms: C1_1  and  C8_8 
REMARK    3  A    between atoms: C4_4  and  C5_5 
REMARK    4  A    between atoms: C5_5  and  C6_6 
REMARK    5  A    between atoms: C6_6  and  C7_7 
ROOT
HETATM    1  C1  UNL     1     -34.068   5.023   4.031  1.00 20.00     0.130 C 
HETATM    2  O9  UNL     1     -33.929   3.868   4.435  1.00 20.00    -0.298 OA
ENDROOT
BRANCH   1   3
HETATM    3  C4  UNL     1     -34.945   6.029   4.764  1.00 20.00     0.079 C 
BRANCH   3   4
HETATM    4  C5  UNL     1     -34.600   6.175   6.247  1.00 20.00     0.010 C 
BRANCH   4   5
HETATM    5  C6  UNL     1     -33.603   7.310   6.505  1.00 20.00     0.032 C 
BRANCH   5   6
HETATM    6  C7  UNL     1     -33.754   8.425   5.484  1.00 20.00     0.222 C 
HETATM    7  F10 UNL     1     -32.538   8.987   5.253  1.00 20.00    -0.255 F 
ENDBRANCH   5   6
ENDBRANCH   4   5
ENDBRANCH   3   4
ENDBRANCH   1   3
BRANCH   1   8
HETATM    8  C8  UNL     1     -33.414   5.508   2.738  1.00 20.00     0.047 C 
HETATM    9  C2  UNL     1     -32.750   4.341   2.018  1.00 20.00     0.017 C 
HETATM   10  C3  UNL     1     -32.402   6.619   3.016  1.00 20.00     0.017 C 
ENDBRANCH   1   8
TORSDOF 5
ENDMDL
MODEL 7
REMARK VINA RESULT:      -4.1      1.948      3.661
REMARK  5 active torsions:
REMARK  status: ('A' for Active; 'I' for Inactive)
REMARK    1  A    between atoms: C1_1  and  C4_4 
REMARK    2  A    between atoms: C1_1  and  C8_8 
REMARK    3  A    between atoms: C4_4  and  C5_5 
REMARK    4  A    between atoms: C5_5  and  C6_6 
REMARK    5  A    between atoms: C6_6  and  C7_7 
ROOT
HETATM    1  C1  UNL     1     -34.180   6.833   5.681  1.00 20.00     0.130 C 
HETATM    2  O9  UNL     1     -34.417   6.465   6.832  1.00 20.00    -0.298 OA
ENDROOT
BRANCH   1   3
HETATM    3  C4  UNL     1     -33.604   8.210   5.381  1.00 20.00     0.079 C 
BRANCH   3   4
HETATM    4  C5  UNL     1     -32.320   8.168   4.551  1.00 20.00     0.010 C 
BRANCH   4   5
HETATM    5  C6  UNL     1     -32.501   8.793   3.165  1.00 20.00     0.032 C 
BRANCH   5   6
HETATM    6  C7  UNL     1     -32.291   7.770   2.061  1.00 20.00     0.222 C 
HETATM    7  F10 UNL     1     -32.102   6.544   2.618  1.00 20.00    -0.255 F 
ENDBRANCH   5   6
ENDBRANCH   4   5
ENDBRANCH   3   4
ENDBRANCH   1   3
BRANCH   1   8
HETATM    8  C8  UNL     1     -34.498   5.953   4.472  1.00 20.00     0.047 C 
HETATM    9  C2  UNL     1     -35.974   6.072   4.113  1.00 20.00     0.017 C 
HETATM   10  C3  UNL     1     -34.121   4.496   4.739  1.00 20.00     0.017 C 
ENDBRANCH   1   8
TORSDOF 5
ENDMDL
MODEL 8
REMARK VINA RESULT:      -4.0      2.549      4.342
REMARK  5 active torsions:
REMARK  status: ('A' for Active; 'I' for Inactive)
REMARK    1  A    between atoms: C1_1  and  C4_4 
REMARK    2  A    between atoms: C1_1  and  C8_8 
REMARK    3  A    between atoms: C4_4  and  C5_5 
REMARK    4  A    between atoms: C5_5  and  C6_6 
REMARK    5  A    between atoms: C6_6  and  C7_7 
ROOT
HETATM    1  C1  UNL     1     -33.827   4.919   4.013  1.00 20.00     0.130 C 
HETATM    2  O9  UNL     1     -33.905   3.745   4.377  1.00 20.00    -0.298 OA
ENDROOT
BRANCH   1   3
HETATM    3  C4  UNL     1     -32.897   5.351   2.887  1.00 20.00     0.079 C 
BRANCH   3   4
HETATM    4  C5  UNL     1     -32.900   6.859   2.637  1.00 20.00     0.010 C 
BRANCH   4   5
HETATM    5  C6  UNL     1     -31.803   7.583   3.424  1.00 20.00     0.032 C 
BRANCH   5   6
HETATM    6  C7  UNL     1     -32.364   8.756   4.210  1.00 20.00     0.222 C 
HETATM    7  F10 UNL     1     -32.549   8.380   5.503  1.00 20.00    -0.255 F 
ENDBRANCH   5   6
ENDBRANCH   4   5
ENDBRANCH   3   4
ENDBRANCH   1   3
BRANCH   1   8
HETATM    8  C8  UNL     1     -34.619   6.030   4.703  1.00 20.00     0.047 C 
HETATM    9  C2  UNL     1     -34.601   5.824   6.213  1.00 20.00     0.017 C 
HETATM   10  C3  UNL     1     -36.054   6.088   4.182  1.00 20.00     0.017 C 
ENDBRANCH   1   8
TORSDOF 5
ENDMDL
MODEL 9
REMARK VINA RESULT:      -3.9      1.578      2.385
REMARK  5 active torsions:
REMARK  status: ('A' for Active; 'I' for Inactive)
REMARK    1  A    between atoms: C1_1  and  C4_4 
REMARK    2  A    between atoms: C1_1  and  C8_8 
REMARK    3  A    between atoms: C4_4  and  C5_5 
REMARK    4  A    between atoms: C5_5  and  C6_6 
REMARK    5  A    between atoms: C6_6  and  C7_7 
ROOT
HETATM    1  C1  UNL     1     -33.639   7.342   5.340  1.00 20.00     0.130 C 
HETATM    2  O9  UNL     1     -33.208   7.154   6.477  1.00 20.00    -0.298 OA
ENDROOT
BRANCH   1   3
HETATM    3  C4  UNL     1     -34.797   6.530   4.776  1.00 20.00     0.079 C 
BRANCH   3   4
HETATM    4  C5  UNL     1     -34.771   5.058   5.191  1.00 20.00     0.010 C 
BRANCH   4   5
HETATM    5  C6  UNL     1     -33.792   4.232   4.353  1.00 20.00     0.032 C 
BRANCH   5   6
HETATM    6  C7  UNL     1     -33.709   4.747   2.926  1.00 20.00     0.222 C 
HETATM    7  F10 UNL     1     -32.428   4.638   2.486  1.00 20.00    -0.255 F 
ENDBRANCH   5   6
ENDBRANCH   4   5
ENDBRANCH   3   4
ENDBRANCH   1   3
BRANCH   1   8
HETATM    8  C8  UNL     1     -33.007   8.367   4.398  1.00 20.00     0.047 C 
HETATM    9  C2  UNL     1     -32.207   7.656   3.313  1.00 20.00     0.017 C 
HETATM   10  C3  UNL     1     -32.124   9.349   5.167  1.00 20.00     0.017 C 
ENDBRANCH   1   8
TORSDOF 5
ENDMDL
