MODEL 1
REMARK VINA RESULT:      -3.8      0.000      0.000
REMARK  3 active torsions:
REMARK  status: ('A' for Active; 'I' for Inactive)
REMARK    1  A    between atoms: C6_6  and  C7_7 
REMARK    2  A    between atoms: C6_6  and  C8_8 
REMARK    3  A    between atoms: C7_7  and  N9_9 
ROOT
HETATM    1  C1  UNL     1     -34.276   5.975   3.784  1.00 20.00     0.050 C 
HETATM    2  C2  UNL     1     -34.184   7.818   5.494  1.00 20.00     0.050 C 
HETATM    3  C3  UNL     1     -32.771   6.167   3.561  1.00 20.00     0.274 C 
HETATM    4  C4  UNL     1     -32.682   7.945   5.209  1.00 20.00     0.274 C 
HETATM    5  C5  UNL     1     -34.724   6.423   5.177  1.00 20.00     0.085 C 
HETATM    6  N9  UNL     1     -32.287   7.521   3.860  1.00 20.00     0.088 N 
HETATM    7 CL11 UNL     1     -34.175   5.247   6.414  1.00 20.00    -0.125 Cl
ENDROOT
BRANCH   6   8
HETATM    8  C7  UNL     1     -32.681   8.488   2.838  1.00 20.00     0.275 C 
BRANCH   8   9
HETATM    9  C6  UNL     1     -32.227   8.015   1.458  1.00 20.00     0.061 C 
BRANCH   9  10
HETATM   10  C8  UNL     1     -32.574   9.030   0.382  1.00 20.00     0.223 C 
HETATM   11  F10 UNL     1     -32.925  10.204   0.970  1.00 20.00    -0.255 F 
ENDBRANCH   9  10
ENDBRANCH   8   9
ENDBRANCH   6   8
TORSDOF 3
ENDMDL
MODEL 2
REMARK VINA RESULT:      -3.7     11.332     12.137
REMARK  3 active torsions:
REMARK  status: ('A' for Active; 'I' for Inactive)
REMARK    1  A    between atoms: C6_6  and  C7_7 
REMARK    2  A    between atoms: C6_6  and  C8_8 
REMARK    3  A    between atoms: C7_7  and  N9_9 
ROOT
HETATM    1  C1  UNL     1     -35.289  16.734  -4.815  1.00 20.00     0.050 C 
HETATM    2  C2  UNL     1     -34.149  14.532  -4.395  1.00 20.00     0.050 C 
HETATM    3  C3  UNL     1     -33.972  17.434  -4.460  1.00 20.00     0.274 C 
HETATM    4  C4  UNL     1     -32.872  15.310  -4.053  1.00 20.00     0.274 C 
HETATM    5  C5  UNL     1     -35.075  15.310  -5.331  1.00 20.00     0.085 C 
HETATM    6  N9  UNL     1     -33.112  16.668  -3.549  1.00 20.00     0.088 N 
HETATM    7 CL11 UNL     1     -34.399  15.343  -6.990  1.00 20.00    -0.125 Cl
ENDROOT
BRANCH   6   8
HETATM    8  C7  UNL     1     -33.618  16.668  -2.177  1.00 20.00     0.275 C 
BRANCH   8   9
HETATM    9  C6  UNL     1     -32.946  17.773  -1.364  1.00 20.00     0.061 C 
BRANCH   9  10
HETATM   10  C8  UNL     1     -33.729  18.088  -0.102  1.00 20.00     0.223 C 
HETATM   11  F10 UNL     1     -32.873  18.154   0.951  1.00 20.00    -0.255 F 
ENDBRANCH   9  10
ENDBRANCH   8   9
ENDBRANCH   6   8
TORSDOF 3
ENDMDL
MODEL 3
REMARK VINA RESULT:      -3.4     11.291     12.222
REMARK  3 active torsions:
REMARK  status: ('A' for Active; 'I' for Inactive)
REMARK    1  A    between atoms: C6_6  and  C7_7 
REMARK    2  A    between atoms: C6_6  and  C8_8 
REMARK    3  A    between atoms: C7_7  and  N9_9 
ROOT
HETATM    1  C1  UNL     1     -33.608  16.366  -2.360  1.00 20.00     0.050 C 
HETATM    2  C2  UNL     1     -34.722  18.612  -2.553  1.00 20.00     0.050 C 
HETATM    3  C3  UNL     1     -33.200  16.490  -3.833  1.00 20.00     0.274 C 
HETATM    4  C4  UNL     1     -34.276  18.658  -4.020  1.00 20.00     0.274 C 
HETATM    5  C5  UNL     1     -33.819  17.726  -1.693  1.00 20.00     0.085 C 
HETATM    6  N9  UNL     1     -34.095  17.337  -4.634  1.00 20.00     0.088 N 
HETATM    7 CL11 UNL     1     -32.243  18.532  -1.409  1.00 20.00    -0.125 Cl
ENDROOT
BRANCH   6   8
HETATM    8  C7  UNL     1     -35.369  16.680  -4.921  1.00 20.00     0.275 C 
BRANCH   8   9
HETATM    9  C6  UNL     1     -35.141  15.421  -5.755  1.00 20.00     0.061 C 
BRANCH   9  10
HETATM   10  C8  UNL     1     -35.892  14.232  -5.183  1.00 20.00     0.223 C 
HETATM   11  F10 UNL     1     -35.154  13.671  -4.189  1.00 20.00    -0.255 F 
ENDBRANCH   9  10
ENDBRANCH   8   9
ENDBRANCH   6   8
TORSDOF 3
ENDMDL
MODEL 4
REMARK VINA RESULT:      -3.4     11.437     12.489
REMARK  3 active torsions:
REMARK  status: ('A' for Active; 'I' for Inactive)
REMARK    1  A    between atoms: C6_6  and  C7_7 
REMARK    2  A    between atoms: C6_6  and  C8_8 
REMARK    3  A    between atoms: C7_7  and  N9_9 
ROOT
HETATM    1  C1  UNL     1     -33.661  16.803  -1.784  1.00 20.00     0.050 C 
HETATM    2  C2  UNL     1     -33.846  19.261  -2.284  1.00 20.00     0.050 C 
HETATM    3  C3  UNL     1     -33.102  16.601  -3.197  1.00 20.00     0.274 C 
HETATM    4  C4  UNL     1     -33.280  18.973  -3.681  1.00 20.00     0.274 C 
HETATM    5  C5  UNL     1     -33.417  18.217  -1.252  1.00 20.00     0.085 C 
HETATM    6  N9  UNL     1     -33.543  17.613  -4.167  1.00 20.00     0.088 N 
HETATM    7 CL11 UNL     1     -31.689  18.432  -0.828  1.00 20.00    -0.125 Cl
ENDROOT
BRANCH   6   8
HETATM    8  C7  UNL     1     -34.938  17.427  -4.566  1.00 20.00     0.275 C 
BRANCH   8   9
HETATM    9  C6  UNL     1     -35.131  16.045  -5.187  1.00 20.00     0.061 C 
BRANCH   9  10
HETATM   10  C8  UNL     1     -34.512  15.967  -6.572  1.00 20.00     0.223 C 
HETATM   11  F10 UNL     1     -33.609  14.953  -6.602  1.00 20.00    -0.255 F 
ENDBRANCH   9  10
ENDBRANCH   8   9
ENDBRANCH   6   8
TORSDOF 3
ENDMDL
MODEL 5
REMARK VINA RESULT:      -3.4     10.139     11.137
REMARK  3 active torsions:
REMARK  status: ('A' for Active; 'I' for Inactive)
REMARK    1  A    between atoms: C6_6  and  C7_7 
REMARK    2  A    between atoms: C6_6  and  C8_8 
REMARK    3  A    between atoms: C7_7  and  N9_9 
ROOT
HETATM    1  C1  UNL     1     -42.363  15.964   6.317  1.00 20.00     0.050 C 
HETATM    2  C2  UNL     1     -40.302  15.519   7.689  1.00 20.00     0.050 C 
HETATM    3  C3  UNL     1     -42.789  14.512   6.566  1.00 20.00     0.274 C 
HETATM    4  C4  UNL     1     -40.800  14.082   7.889  1.00 20.00     0.274 C 
HETATM    5  C5  UNL     1     -41.442  16.501   7.414  1.00 20.00     0.085 C 
HETATM    6  N9  UNL     1     -41.670  13.592   6.813  1.00 20.00     0.088 N 
HETATM    7 CL11 UNL     1     -42.374  16.809   8.913  1.00 20.00    -0.125 Cl
ENDROOT
BRANCH   6   8
HETATM    8  C7  UNL     1     -40.924  13.287   5.594  1.00 20.00     0.275 C 
BRANCH   8   9
HETATM    9  C6  UNL     1     -40.142  11.986   5.763  1.00 20.00     0.061 C 
BRANCH   9  10
HETATM   10  C8  UNL     1     -39.220  11.736   4.582  1.00 20.00     0.223 C 
HETATM   11  F10 UNL     1     -37.938  11.995   4.951  1.00 20.00    -0.255 F 
ENDBRANCH   9  10
ENDBRANCH   8   9
ENDBRANCH   6   8
TORSDOF 3
ENDMDL
MODEL 6
REMARK VINA RESULT:      -3.3     11.496     12.543
REMARK  3 active torsions:
REMARK  status: ('A' for Active; 'I' for Inactive)
REMARK    1  A    between atoms: C6_6  and  C7_7 
REMARK    2  A    between atoms: C6_6  and  C8_8 
REMARK    3  A    between atoms: C7_7  and  N9_9 
ROOT
HETATM    1  C1  UNL     1     -32.922  17.173  -2.887  1.00 20.00     0.050 C 
HETATM    2  C2  UNL     1     -34.278  19.213  -3.458  1.00 20.00     0.050 C 
HETATM    3  C3  UNL     1     -33.711  17.069  -1.576  1.00 20.00     0.274 C 
HETATM    4  C4  UNL     1     -35.019  19.038  -2.126  1.00 20.00     0.274 C 
HETATM    5  C5  UNL     1     -33.702  17.898  -3.985  1.00 20.00     0.085 C 
HETATM    6  N9  UNL     1     -34.239  18.351  -1.090  1.00 20.00     0.088 N 
HETATM    7 CL11 UNL     1     -35.014  16.850  -4.612  1.00 20.00    -0.125 Cl
ENDROOT
BRANCH   6   8
HETATM    8  C7  UNL     1     -33.193  19.203  -0.528  1.00 20.00     0.275 C 
BRANCH   8   9
HETATM    9  C6  UNL     1     -32.672  18.610   0.780  1.00 20.00     0.061 C 
BRANCH   9  10
HETATM   10  C8  UNL     1     -31.155  18.529   0.788  1.00 20.00     0.223 C 
HETATM   11  F10 UNL     1     -30.723  18.129  -0.437  1.00 20.00    -0.255 F 
ENDBRANCH   9  10
ENDBRANCH   8   9
ENDBRANCH   6   8
TORSDOF 3
ENDMDL
MODEL 7
REMARK VINA RESULT:      -3.3     10.078     11.172
REMARK  3 active torsions:
REMARK  status: ('A' for Active; 'I' for Inactive)
REMARK    1  A    between atoms: C6_6  and  C7_7 
REMARK    2  A    between atoms: C6_6  and  C8_8 
REMARK    3  A    between atoms: C7_7  and  N9_9 
ROOT
HETATM    1  C1  UNL     1     -40.308  14.513   8.708  1.00 20.00     0.050 C 
HETATM    2  C2  UNL     1     -42.677  13.780   9.129  1.00 20.00     0.050 C 
HETATM    3  C3  UNL     1     -40.721  14.878   7.277  1.00 20.00     0.274 C 
HETATM    4  C4  UNL     1     -43.007  14.171   7.682  1.00 20.00     0.274 C 
HETATM    5  C5  UNL     1     -41.483  14.556   9.687  1.00 20.00     0.085 C 
HETATM    6  N9  UNL     1     -41.862  14.107   6.766  1.00 20.00     0.088 N 
HETATM    7 CL11 UNL     1     -41.947  16.253  10.028  1.00 20.00    -0.125 Cl
ENDROOT
BRANCH   6   8
HETATM    8  C7  UNL     1     -41.495  12.731   6.433  1.00 20.00     0.275 C 
BRANCH   8   9
HETATM    9  C6  UNL     1     -40.320  12.717   5.457  1.00 20.00     0.061 C 
BRANCH   9  10
HETATM   10  C8  UNL     1     -39.192  11.833   5.959  1.00 20.00     0.223 C 
HETATM   11  F10 UNL     1     -38.040  12.173   5.325  1.00 20.00    -0.255 F 
ENDBRANCH   9  10
ENDBRANCH   8   9
ENDBRANCH   6   8
TORSDOF 3
ENDMDL
MODEL 8
REMARK VINA RESULT:      -3.3     11.738     13.016
REMARK  3 active torsions:
REMARK  status: ('A' for Active; 'I' for Inactive)
REMARK    1  A    between atoms: C6_6  and  C7_7 
REMARK    2  A    between atoms: C6_6  and  C8_8 
REMARK    3  A    between atoms: C7_7  and  N9_9 
ROOT
HETATM    1  C1  UNL     1     -33.940  15.119  -6.322  1.00 20.00     0.050 C 
HETATM    2  C2  UNL     1     -34.674  17.491  -6.722  1.00 20.00     0.050 C 
HETATM    3  C3  UNL     1     -34.656  15.172  -4.967  1.00 20.00     0.274 C 
HETATM    4  C4  UNL     1     -35.364  17.461  -5.353  1.00 20.00     0.274 C 
HETATM    5  C5  UNL     1     -34.532  16.098  -7.337  1.00 20.00     0.085 C 
HETATM    6  N9  UNL     1     -34.764  16.522  -4.398  1.00 20.00     0.088 N 
HETATM    7 CL11 UNL     1     -36.123  15.508  -7.916  1.00 20.00    -0.125 Cl
ENDROOT
BRANCH   6   8
HETATM    8  C7  UNL     1     -33.488  17.005  -3.873  1.00 20.00     0.275 C 
BRANCH   8   9
HETATM    9  C6  UNL     1     -33.348  16.638  -2.397  1.00 20.00     0.061 C 
BRANCH   9  10
HETATM   10  C8  UNL     1     -33.908  17.728  -1.499  1.00 20.00     0.223 C 
HETATM   11  F10 UNL     1     -33.235  17.725  -0.319  1.00 20.00    -0.255 F 
ENDBRANCH   9  10
ENDBRANCH   8   9
ENDBRANCH   6   8
TORSDOF 3
ENDMDL
MODEL 9
REMARK VINA RESULT:      -3.3     11.664     12.643
REMARK  3 active torsions:
REMARK  status: ('A' for Active; 'I' for Inactive)
REMARK    1  A    between atoms: C6_6  and  C7_7 
REMARK    2  A    between atoms: C6_6  and  C8_8 
REMARK    3  A    between atoms: C7_7  and  N9_9 
ROOT
HETATM    1  C1  UNL     1     -36.024  17.132  -4.977  1.00 20.00     0.050 C 
HETATM    2  C2  UNL     1     -35.734  14.684  -5.478  1.00 20.00     0.050 C 
HETATM    3  C3  UNL     1     -34.506  17.296  -5.117  1.00 20.00     0.274 C 
HETATM    4  C4  UNL     1     -34.225  14.934  -5.601  1.00 20.00     0.274 C 
HETATM    5  C5  UNL     1     -36.561  15.938  -5.768  1.00 20.00     0.085 C 
HETATM    6  N9  UNL     1     -33.740  16.078  -4.819  1.00 20.00     0.088 N 
HETATM    7 CL11 UNL     1     -36.550  16.300  -7.524  1.00 20.00    -0.125 Cl
ENDROOT
BRANCH   6   8
HETATM    8  C7  UNL     1     -33.694  15.790  -3.387  1.00 20.00     0.275 C 
BRANCH   8   9
HETATM    9  C6  UNL     1     -32.991  16.923  -2.641  1.00 20.00     0.061 C 
BRANCH   9  10
HETATM   10  C8  UNL     1     -33.707  17.263  -1.345  1.00 20.00     0.223 C 
HETATM   11  F10 UNL     1     -32.947  18.132  -0.629  1.00 20.00    -0.255 F 
ENDBRANCH   9  10
ENDBRANCH   8   9
ENDBRANCH   6   8
TORSDOF 3
ENDMDL
