MODEL 1
REMARK VINA RESULT:      -3.8      0.000      0.000
REMARK  3 active torsions:
REMARK  status: ('A' for Active; 'I' for Inactive)
REMARK    1  A    between atoms: C6_6  and  C7_7 
REMARK    2  A    between atoms: C6_6  and  C8_8 
REMARK    3  A    between atoms: C7_7  and  N9_9 
ROOT
HETATM    1  C1  UNL     1     -35.074  14.205  -4.535  1.00 20.00     0.029 C 
HETATM    2  C2  UNL     1     -35.892  14.431  -5.801  1.00 20.00     0.023 C 
HETATM    3  C3  UNL     1     -33.687  14.814  -4.658  1.00 20.00     0.235 C 
HETATM    4  C4  UNL     1     -34.598  16.579  -6.216  1.00 20.00     0.254 C 
HETATM    5  C5  UNL     1     -35.967  15.902  -6.204  1.00 20.00     0.108 C 
HETATM    6  N9  UNL     1     -33.769  16.283  -4.988  1.00 20.00    -0.070 N 
HETATM    7 CL11 UNL     1     -37.129  16.786  -5.169  1.00 20.00    -0.123 Cl
HETATM    8  H27 UNL     1     -32.762  16.551  -5.264  1.00 20.00     0.279 HD
ENDROOT
BRANCH   6   9
HETATM    9  C7  UNL     1     -34.063  17.149  -3.793  1.00 20.00     0.237 C 
BRANCH   9  10
HETATM   10  C6  UNL     1     -33.270  16.637  -2.600  1.00 20.00     0.059 C 
BRANCH  10  11
HETATM   11  C8  UNL     1     -33.638  17.388  -1.332  1.00 20.00     0.223 C 
HETATM   12  F10 UNL     1     -32.501  17.776  -0.697  1.00 20.00    -0.255 F 
ENDBRANCH  10  11
ENDBRANCH   9  10
ENDBRANCH   6   9
TORSDOF 3
ENDMDL
MODEL 2
REMARK VINA RESULT:      -3.7      1.807      2.465
REMARK  3 active torsions:
REMARK  status: ('A' for Active; 'I' for Inactive)
REMARK    1  A    between atoms: C6_6  and  C7_7 
REMARK    2  A    between atoms: C6_6  and  C8_8 
REMARK    3  A    between atoms: C7_7  and  N9_9 
ROOT
HETATM    1  C1  UNL     1     -36.139  17.550  -6.566  1.00 20.00     0.029 C 
HETATM    2  C2  UNL     1     -36.342  16.259  -7.350  1.00 20.00     0.023 C 
HETATM    3  C3  UNL     1     -36.304  17.321  -5.072  1.00 20.00     0.235 C 
HETATM    4  C4  UNL     1     -35.494  14.945  -5.345  1.00 20.00     0.254 C 
HETATM    5  C5  UNL     1     -35.448  15.122  -6.862  1.00 20.00     0.108 C 
HETATM    6  N9  UNL     1     -35.368  16.244  -4.584  1.00 20.00    -0.070 N 
HETATM    7 CL11 UNL     1     -33.770  15.336  -7.447  1.00 20.00    -0.123 Cl
HETATM    8  H27 UNL     1     -35.719  16.016  -3.590  1.00 20.00     0.279 HD
ENDROOT
BRANCH   6   9
HETATM    9  C7  UNL     1     -33.959  16.727  -4.373  1.00 20.00     0.237 C 
BRANCH   9  10
HETATM   10  C6  UNL     1     -33.429  16.159  -3.064  1.00 20.00     0.059 C 
BRANCH  10  11
HETATM   11  C8  UNL     1     -33.214  17.255  -2.035  1.00 20.00     0.223 C 
HETATM   12  F10 UNL     1     -33.850  16.917  -0.883  1.00 20.00    -0.255 F 
ENDBRANCH  10  11
ENDBRANCH   9  10
ENDBRANCH   6   9
TORSDOF 3
ENDMDL
MODEL 3
REMARK VINA RESULT:      -3.6      1.049      1.186
REMARK  3 active torsions:
REMARK  status: ('A' for Active; 'I' for Inactive)
REMARK    1  A    between atoms: C6_6  and  C7_7 
REMARK    2  A    between atoms: C6_6  and  C8_8 
REMARK    3  A    between atoms: C7_7  and  N9_9 
ROOT
HETATM    1  C1  UNL     1     -35.537  14.693  -5.978  1.00 20.00     0.029 C 
HETATM    2  C2  UNL     1     -36.147  15.447  -7.153  1.00 20.00     0.023 C 
HETATM    3  C3  UNL     1     -34.083  15.084  -5.764  1.00 20.00     0.235 C 
HETATM    4  C4  UNL     1     -34.566  17.384  -6.689  1.00 20.00     0.254 C 
HETATM    5  C5  UNL     1     -35.995  16.961  -7.028  1.00 20.00     0.108 C 
HETATM    6  N9  UNL     1     -33.948  16.574  -5.573  1.00 20.00    -0.070 N 
HETATM    7 CL11 UNL     1     -37.172  17.624  -5.855  1.00 20.00    -0.123 Cl
HETATM    8  H27 UNL     1     -32.889  16.759  -5.653  1.00 20.00     0.279 HD
ENDROOT
BRANCH   6   9
HETATM    9  C7  UNL     1     -34.296  17.032  -4.182  1.00 20.00     0.237 C 
BRANCH   9  10
HETATM   10  C6  UNL     1     -33.391  16.325  -3.184  1.00 20.00     0.059 C 
BRANCH  10  11
HETATM   11  C8  UNL     1     -33.080  17.216  -1.994  1.00 20.00     0.223 C 
HETATM   12  F10 UNL     1     -33.878  16.864  -0.952  1.00 20.00    -0.255 F 
ENDBRANCH  10  11
ENDBRANCH   9  10
ENDBRANCH   6   9
TORSDOF 3
ENDMDL
MODEL 4
REMARK VINA RESULT:      -3.5     11.705     12.951
REMARK  3 active torsions:
REMARK  status: ('A' for Active; 'I' for Inactive)
REMARK    1  A    between atoms: C6_6  and  C7_7 
REMARK    2  A    between atoms: C6_6  and  C8_8 
REMARK    3  A    between atoms: C7_7  and  N9_9 
ROOT
HETATM    1  C1  UNL     1     -41.631  15.889   7.060  1.00 20.00     0.029 C 
HETATM    2  C2  UNL     1     -42.997  15.641   6.432  1.00 20.00     0.023 C 
HETATM    3  C3  UNL     1     -41.218  14.735   7.960  1.00 20.00     0.235 C 
HETATM    4  C4  UNL     1     -42.550  13.140   6.526  1.00 20.00     0.254 C 
HETATM    5  C5  UNL     1     -43.076  14.307   5.692  1.00 20.00     0.108 C 
HETATM    6  N9  UNL     1     -41.232  13.430   7.205  1.00 20.00    -0.070 N 
HETATM    7 CL11 UNL     1     -42.249  14.408   4.108  1.00 20.00    -0.123 Cl
HETATM    8  H27 UNL     1     -41.145  12.677   7.971  1.00 20.00     0.279 HD
ENDROOT
BRANCH   6   9
HETATM    9  C7  UNL     1     -40.013  13.222   6.348  1.00 20.00     0.237 C 
BRANCH   9  10
HETATM   10  C6  UNL     1     -40.026  11.802   5.799  1.00 20.00     0.059 C 
BRANCH  10  11
HETATM   11  C8  UNL     1     -39.306  11.721   4.465  1.00 20.00     0.223 C 
HETATM   12  F10 UNL     1     -37.970  11.867   4.668  1.00 20.00    -0.255 F 
ENDBRANCH  10  11
ENDBRANCH   9  10
ENDBRANCH   6   9
TORSDOF 3
ENDMDL
MODEL 5
REMARK VINA RESULT:      -3.5     12.096     13.307
REMARK  3 active torsions:
REMARK  status: ('A' for Active; 'I' for Inactive)
REMARK    1  A    between atoms: C6_6  and  C7_7 
REMARK    2  A    between atoms: C6_6  and  C8_8 
REMARK    3  A    between atoms: C7_7  and  N9_9 
ROOT
HETATM    1  C1  UNL     1     -42.566  13.588   8.349  1.00 20.00     0.029 C 
HETATM    2  C2  UNL     1     -43.021  15.008   8.034  1.00 20.00     0.023 C 
HETATM    3  C3  UNL     1     -42.518  12.732   7.093  1.00 20.00     0.235 C 
HETATM    4  C4  UNL     1     -42.008  14.784   5.713  1.00 20.00     0.254 C 
HETATM    5  C5  UNL     1     -42.182  15.672   6.944  1.00 20.00     0.108 C 
HETATM    6  N9  UNL     1     -41.632  13.359   6.046  1.00 20.00    -0.070 N 
HETATM    7 CL11 UNL     1     -40.604  16.209   7.595  1.00 20.00    -0.123 Cl
HETATM    8  H27 UNL     1     -41.844  12.801   5.148  1.00 20.00     0.279 HD
ENDROOT
BRANCH   6   9
HETATM    9  C7  UNL     1     -40.165  13.124   6.285  1.00 20.00     0.237 C 
BRANCH   9  10
HETATM   10  C6  UNL     1     -39.807  11.715   5.837  1.00 20.00     0.059 C 
BRANCH  10  11
HETATM   11  C8  UNL     1     -39.320  11.701   4.398  1.00 20.00     0.223 C 
HETATM   12  F10 UNL     1     -37.962  11.727   4.386  1.00 20.00    -0.255 F 
ENDBRANCH  10  11
ENDBRANCH   9  10
ENDBRANCH   6   9
TORSDOF 3
ENDMDL
MODEL 6
REMARK VINA RESULT:      -3.4     12.397     13.658
REMARK  3 active torsions:
REMARK  status: ('A' for Active; 'I' for Inactive)
REMARK    1  A    between atoms: C6_6  and  C7_7 
REMARK    2  A    between atoms: C6_6  and  C8_8 
REMARK    3  A    between atoms: C7_7  and  N9_9 
ROOT
HETATM    1  C1  UNL     1     -42.887  12.978   7.850  1.00 20.00     0.029 C 
HETATM    2  C2  UNL     1     -42.969  14.277   8.641  1.00 20.00     0.023 C 
HETATM    3  C3  UNL     1     -42.558  13.240   6.389  1.00 20.00     0.235 C 
HETATM    4  C4  UNL     1     -41.281  15.316   7.048  1.00 20.00     0.254 C 
HETATM    5  C5  UNL     1     -41.714  15.136   8.503  1.00 20.00     0.108 C 
HETATM    6  N9  UNL     1     -41.280  14.029   6.257  1.00 20.00    -0.070 N 
HETATM    7 CL11 UNL     1     -40.384  14.484   9.508  1.00 20.00    -0.123 Cl
HETATM    8  H27 UNL     1     -41.264  14.341   5.225  1.00 20.00     0.279 HD
ENDROOT
BRANCH   6   9
HETATM    9  C7  UNL     1     -40.040  13.189   6.405  1.00 20.00     0.237 C 
BRANCH   9  10
HETATM   10  C6  UNL     1     -40.170  11.951   5.530  1.00 20.00     0.059 C 
BRANCH  10  11
HETATM   11  C8  UNL     1     -38.987  11.815   4.588  1.00 20.00     0.223 C 
HETATM   12  F10 UNL     1     -37.839  12.046   5.276  1.00 20.00    -0.255 F 
ENDBRANCH  10  11
ENDBRANCH   9  10
ENDBRANCH   6   9
TORSDOF 3
ENDMDL
MODEL 7
REMARK VINA RESULT:      -3.3     12.424     13.986
REMARK  3 active torsions:
REMARK  status: ('A' for Active; 'I' for Inactive)
REMARK    1  A    between atoms: C6_6  and  C7_7 
REMARK    2  A    between atoms: C6_6  and  C8_8 
REMARK    3  A    between atoms: C7_7  and  N9_9 
ROOT
HETATM    1  C1  UNL     1     -41.970  16.343   7.821  1.00 20.00     0.029 C 
HETATM    2  C2  UNL     1     -42.170  15.861   9.253  1.00 20.00     0.023 C 
HETATM    3  C3  UNL     1     -40.528  16.164   7.373  1.00 20.00     0.235 C 
HETATM    4  C4  UNL     1     -40.296  14.176   8.913  1.00 20.00     0.254 C 
HETATM    5  C5  UNL     1     -41.699  14.424   9.466  1.00 20.00     0.108 C 
HETATM    6  N9  UNL     1     -40.091  14.728   7.522  1.00 20.00    -0.070 N 
HETATM    7 CL11 UNL     1     -42.883  13.261   8.798  1.00 20.00    -0.123 Cl
HETATM    8  H27 UNL     1     -39.021  14.760   7.393  1.00 20.00     0.279 HD
ENDROOT
BRANCH   6   9
HETATM    9  C7  UNL     1     -40.567  13.840   6.405  1.00 20.00     0.237 C 
BRANCH   9  10
HETATM   10  C6  UNL     1     -39.750  12.556   6.407  1.00 20.00     0.059 C 
BRANCH  10  11
HETATM   11  C8  UNL     1     -39.593  12.000   5.003  1.00 20.00     0.223 C 
HETATM   12  F10 UNL     1     -38.272  11.927   4.697  1.00 20.00    -0.255 F 
ENDBRANCH  10  11
ENDBRANCH   9  10
ENDBRANCH   6   9
TORSDOF 3
ENDMDL
MODEL 8
REMARK VINA RESULT:      -3.2     11.848     12.722
REMARK  3 active torsions:
REMARK  status: ('A' for Active; 'I' for Inactive)
REMARK    1  A    between atoms: C6_6  and  C7_7 
REMARK    2  A    between atoms: C6_6  and  C8_8 
REMARK    3  A    between atoms: C7_7  and  N9_9 
ROOT
HETATM    1  C1  UNL     1     -34.382   6.859   6.607  1.00 20.00     0.029 C 
HETATM    2  C2  UNL     1     -34.857   5.479   6.169  1.00 20.00     0.023 C 
HETATM    3  C3  UNL     1     -33.021   7.189   6.015  1.00 20.00     0.235 C 
HETATM    4  C4  UNL     1     -33.543   5.748   4.008  1.00 20.00     0.254 C 
HETATM    5  C5  UNL     1     -34.857   5.306   4.651  1.00 20.00     0.108 C 
HETATM    6  N9  UNL     1     -33.047   7.084   4.511  1.00 20.00    -0.070 N 
HETATM    7 CL11 UNL     1     -36.261   6.139   3.917  1.00 20.00    -0.123 Cl
HETATM    8  H27 UNL     1     -32.008   7.117   4.223  1.00 20.00     0.279 HD
ENDROOT
BRANCH   6   9
HETATM    9  C7  UNL     1     -33.651   8.285   3.837  1.00 20.00     0.237 C 
BRANCH   9  10
HETATM   10  C6  UNL     1     -32.554   9.061   3.123  1.00 20.00     0.059 C 
BRANCH  10  11
HETATM   11  C8  UNL     1     -32.520   8.730   1.641  1.00 20.00     0.223 C 
HETATM   12  F10 UNL     1     -32.863   9.835   0.929  1.00 20.00    -0.255 F 
ENDBRANCH  10  11
ENDBRANCH   9  10
ENDBRANCH   6   9
TORSDOF 3
ENDMDL
MODEL 9
REMARK VINA RESULT:      -3.2     24.731     25.556
REMARK  3 active torsions:
REMARK  status: ('A' for Active; 'I' for Inactive)
REMARK    1  A    between atoms: C6_6  and  C7_7 
REMARK    2  A    between atoms: C6_6  and  C8_8 
REMARK    3  A    between atoms: C7_7  and  N9_9 
ROOT
HETATM    1  C1  UNL     1     -26.504  -0.439  11.587  1.00 20.00     0.029 C 
HETATM    2  C2  UNL     1     -27.844  -1.045  11.986  1.00 20.00     0.023 C 
HETATM    3  C3  UNL     1     -25.344  -1.301  12.059  1.00 20.00     0.235 C 
HETATM    4  C4  UNL     1     -26.796  -3.358  11.871  1.00 20.00     0.254 C 
HETATM    5  C5  UNL     1     -28.004  -2.490  11.521  1.00 20.00     0.108 C 
HETATM    6  N9  UNL     1     -25.472  -2.710  11.539  1.00 20.00    -0.070 N 
HETATM    7 CL11 UNL     1     -28.376  -2.558   9.772  1.00 20.00    -0.123 Cl
HETATM    8  H27 UNL     1     -24.743  -3.270  12.102  1.00 20.00     0.279 HD
ENDROOT
BRANCH   6   9
HETATM    9  C7  UNL     1     -25.027  -2.863  10.110  1.00 20.00     0.237 C 
BRANCH   9  10
HETATM   10  C6  UNL     1     -23.506  -2.876  10.061  1.00 20.00     0.059 C 
BRANCH  10  11
HETATM   11  C8  UNL     1     -23.002  -3.419   8.735  1.00 20.00     0.223 C 
HETATM   12  F10 UNL     1     -23.523  -2.678   7.722  1.00 20.00    -0.255 F 
ENDBRANCH  10  11
ENDBRANCH   9  10
ENDBRANCH   6   9
TORSDOF 3
ENDMDL
