MODEL 1
REMARK VINA RESULT:      -4.1      0.000      0.000
REMARK  2 active torsions:
REMARK  status: ('A' for Active; 'I' for Inactive)
REMARK    1  A    between atoms: C4_4  and  C6_6 
REMARK    2  A    between atoms: C5_5  and  C8_8 
ROOT
HETATM    1  C3  UNL     1     -32.261   6.980   3.293  1.00 20.00     0.016 A 
HETATM    2  C5  UNL     1     -33.176   8.062   2.792  1.00 20.00     0.009 A 
HETATM    3  C6  UNL     1     -33.146   7.723   4.282  1.00 20.00    -0.035 A 
HETATM    4  C7  UNL     1     -32.450   8.672   5.229  1.00 20.00     0.016 C 
ENDROOT
BRANCH   3   5
HETATM    5  C4  UNL     1     -34.358   7.023   4.913  1.00 20.00    -0.006 A 
HETATM    6  C1  UNL     1     -34.431   5.531   5.092  1.00 20.00     0.006 A 
HETATM    7  C2  UNL     1     -34.325   6.428   6.294  1.00 20.00     0.006 A 
ENDBRANCH   3   5
BRANCH   2   8
HETATM    8  C8  UNL     1     -32.616   9.327   2.238  1.00 20.00     0.120 C 
HETATM    9 CL9  UNL     1     -32.732   9.359   0.457  1.00 20.00    -0.130 Cl
ENDBRANCH   2   8
TORSDOF 2
ENDMDL
MODEL 2
REMARK VINA RESULT:      -3.7     10.871     11.576
REMARK  2 active torsions:
REMARK  status: ('A' for Active; 'I' for Inactive)
REMARK    1  A    between atoms: C4_4  and  C6_6 
REMARK    2  A    between atoms: C5_5  and  C8_8 
ROOT
HETATM    1  C3  UNL     1     -32.543  15.427  -4.079  1.00 20.00     0.016 A 
HETATM    2  C5  UNL     1     -33.959  14.965  -3.889  1.00 20.00     0.009 A 
HETATM    3  C6  UNL     1     -33.565  16.387  -3.491  1.00 20.00    -0.035 A 
HETATM    4  C7  UNL     1     -33.999  17.534  -4.372  1.00 20.00     0.016 C 
ENDROOT
BRANCH   3   5
HETATM    5  C4  UNL     1     -33.511  16.758  -2.002  1.00 20.00    -0.006 A 
HETATM    6  C1  UNL     1     -32.622  17.849  -1.469  1.00 20.00     0.006 A 
HETATM    7  C2  UNL     1     -34.115  18.022  -1.457  1.00 20.00     0.006 A 
ENDBRANCH   3   5
BRANCH   2   8
HETATM    8  C8  UNL     1     -34.819  14.662  -5.067  1.00 20.00     0.120 C 
HETATM    9 CL9  UNL     1     -36.199  13.625  -4.612  1.00 20.00    -0.130 Cl
ENDBRANCH   2   8
TORSDOF 2
ENDMDL
MODEL 3
REMARK VINA RESULT:      -3.7      9.720     10.431
REMARK  2 active torsions:
REMARK  status: ('A' for Active; 'I' for Inactive)
REMARK    1  A    between atoms: C4_4  and  C6_6 
REMARK    2  A    between atoms: C5_5  and  C8_8 
ROOT
HETATM    1  C3  UNL     1     -41.884  13.760   5.269  1.00 20.00     0.016 A 
HETATM    2  C5  UNL     1     -42.455  12.911   6.368  1.00 20.00     0.009 A 
HETATM    3  C6  UNL     1     -40.944  13.120   6.278  1.00 20.00    -0.035 A 
HETATM    4  C7  UNL     1     -40.279  14.050   7.265  1.00 20.00     0.016 C 
ENDROOT
BRANCH   3   5
HETATM    5  C4  UNL     1     -40.050  11.942   5.864  1.00 20.00    -0.006 A 
HETATM    6  C1  UNL     1     -39.474  11.807   4.481  1.00 20.00     0.006 A 
HETATM    7  C2  UNL     1     -38.569  12.082   5.650  1.00 20.00     0.006 A 
ENDBRANCH   3   5
BRANCH   2   8
HETATM    8  C8  UNL     1     -43.296  13.523   7.436  1.00 20.00     0.120 C 
HETATM    9 CL9  UNL     1     -43.417  12.451   8.857  1.00 20.00    -0.130 Cl
ENDBRANCH   2   8
TORSDOF 2
ENDMDL
MODEL 4
REMARK VINA RESULT:      -3.7      2.429      3.616
REMARK  2 active torsions:
REMARK  status: ('A' for Active; 'I' for Inactive)
REMARK    1  A    between atoms: C4_4  and  C6_6 
REMARK    2  A    between atoms: C5_5  and  C8_8 
ROOT
HETATM    1  C3  UNL     1     -35.453   6.166   4.473  1.00 20.00     0.016 A 
HETATM    2  C5  UNL     1     -34.078   5.788   4.000  1.00 20.00     0.009 A 
HETATM    3  C6  UNL     1     -34.289   6.227   5.448  1.00 20.00    -0.035 A 
HETATM    4  C7  UNL     1     -34.263   5.180   6.536  1.00 20.00     0.016 C 
ENDROOT
BRANCH   3   5
HETATM    5  C4  UNL     1     -33.733   7.584   5.905  1.00 20.00    -0.006 A 
HETATM    6  C1  UNL     1     -32.627   8.296   5.174  1.00 20.00     0.006 A 
HETATM    7  C2  UNL     1     -34.019   8.867   5.175  1.00 20.00     0.006 A 
ENDBRANCH   3   5
BRANCH   2   8
HETATM    8  C8  UNL     1     -33.772   4.381   3.616  1.00 20.00     0.120 C 
HETATM    9 CL9  UNL     1     -32.751   4.317   2.154  1.00 20.00    -0.130 Cl
ENDBRANCH   2   8
TORSDOF 2
ENDMDL
MODEL 5
REMARK VINA RESULT:      -3.7      1.236      1.999
REMARK  2 active torsions:
REMARK  status: ('A' for Active; 'I' for Inactive)
REMARK    1  A    between atoms: C4_4  and  C6_6 
REMARK    2  A    between atoms: C5_5  and  C8_8 
ROOT
HETATM    1  C3  UNL     1     -33.968   8.420   4.412  1.00 20.00     0.016 A 
HETATM    2  C5  UNL     1     -32.530   7.986   4.396  1.00 20.00     0.009 A 
HETATM    3  C6  UNL     1     -33.625   6.971   4.720  1.00 20.00    -0.035 A 
HETATM    4  C7  UNL     1     -34.002   5.950   3.673  1.00 20.00     0.016 C 
ENDROOT
BRANCH   3   5
HETATM    5  C4  UNL     1     -33.746   6.435   6.154  1.00 20.00    -0.006 A 
HETATM    6  C1  UNL     1     -35.069   6.096   6.785  1.00 20.00     0.006 A 
HETATM    7  C2  UNL     1     -34.088   5.003   6.461  1.00 20.00     0.006 A 
ENDBRANCH   3   5
BRANCH   2   8
HETATM    8  C8  UNL     1     -31.761   7.969   3.119  1.00 20.00     0.120 C 
HETATM    9 CL9  UNL     1     -32.568   8.950   1.866  1.00 20.00    -0.130 Cl
ENDBRANCH   2   8
TORSDOF 2
ENDMDL
MODEL 6
REMARK VINA RESULT:      -3.7      9.419     10.180
REMARK  2 active torsions:
REMARK  status: ('A' for Active; 'I' for Inactive)
REMARK    1  A    between atoms: C4_4  and  C6_6 
REMARK    2  A    between atoms: C5_5  and  C8_8 
ROOT
HETATM    1  C3  UNL     1     -42.415  12.450   6.823  1.00 20.00     0.016 A 
HETATM    2  C5  UNL     1     -41.425  13.394   7.443  1.00 20.00     0.009 A 
HETATM    3  C6  UNL     1     -41.165  12.832   6.046  1.00 20.00    -0.035 A 
HETATM    4  C7  UNL     1     -41.362  13.735   4.852  1.00 20.00     0.016 C 
ENDROOT
BRANCH   3   5
HETATM    5  C4  UNL     1     -40.033  11.812   5.850  1.00 20.00    -0.006 A 
HETATM    6  C1  UNL     1     -39.411  11.538   4.508  1.00 20.00     0.006 A 
HETATM    7  C2  UNL     1     -38.610  12.218   5.585  1.00 20.00     0.006 A 
ENDBRANCH   3   5
BRANCH   2   8
HETATM    8  C8  UNL     1     -41.791  14.817   7.689  1.00 20.00     0.120 C 
HETATM    9 CL9  UNL     1     -40.344  15.810   8.016  1.00 20.00    -0.130 Cl
ENDBRANCH   2   8
TORSDOF 2
ENDMDL
MODEL 7
REMARK VINA RESULT:      -3.6     15.056     15.912
REMARK  2 active torsions:
REMARK  status: ('A' for Active; 'I' for Inactive)
REMARK    1  A    between atoms: C4_4  and  C6_6 
REMARK    2  A    between atoms: C5_5  and  C8_8 
ROOT
HETATM    1  C3  UNL     1     -23.840  17.203  10.509  1.00 20.00     0.016 A 
HETATM    2  C5  UNL     1     -23.790  18.621  10.015  1.00 20.00     0.009 A 
HETATM    3  C6  UNL     1     -23.803  18.340  11.517  1.00 20.00    -0.035 A 
HETATM    4  C7  UNL     1     -22.522  18.508  12.299  1.00 20.00     0.016 C 
ENDROOT
BRANCH   3   5
HETATM    5  C4  UNL     1     -25.057  18.693  12.332  1.00 20.00    -0.006 A 
HETATM    6  C1  UNL     1     -26.322  19.199  11.696  1.00 20.00     0.006 A 
HETATM    7  C2  UNL     1     -26.293  17.837  12.332  1.00 20.00     0.006 A 
ENDBRANCH   3   5
BRANCH   2   8
HETATM    8  C8  UNL     1     -22.587  19.127   9.296  1.00 20.00     0.120 C 
HETATM    9 CL9  UNL     1     -21.895  17.873   8.231  1.00 20.00    -0.130 Cl
ENDBRANCH   2   8
TORSDOF 2
ENDMDL
MODEL 8
REMARK VINA RESULT:      -3.6     11.046     11.703
REMARK  2 active torsions:
REMARK  status: ('A' for Active; 'I' for Inactive)
REMARK    1  A    between atoms: C4_4  and  C6_6 
REMARK    2  A    between atoms: C5_5  and  C8_8 
ROOT
HETATM    1  C3  UNL     1     -32.587  18.413  -2.225  1.00 20.00     0.016 A 
HETATM    2  C5  UNL     1     -33.238  17.066  -2.361  1.00 20.00     0.009 A 
HETATM    3  C6  UNL     1     -33.867  18.126  -1.457  1.00 20.00    -0.035 A 
HETATM    4  C7  UNL     1     -35.112  18.838  -1.930  1.00 20.00     0.016 C 
ENDROOT
BRANCH   3   5
HETATM    5  C4  UNL     1     -33.828  17.927   0.065  1.00 20.00    -0.006 A 
HETATM    6  C1  UNL     1     -33.008  18.799   0.977  1.00 20.00     0.006 A 
HETATM    7  C2  UNL     1     -34.509  18.863   1.025  1.00 20.00     0.006 A 
ENDBRANCH   3   5
BRANCH   2   8
HETATM    8  C8  UNL     1     -33.841  16.647  -3.658  1.00 20.00     0.120 C 
HETATM    9 CL9  UNL     1     -33.709  14.882  -3.892  1.00 20.00    -0.130 Cl
ENDBRANCH   2   8
TORSDOF 2
ENDMDL
MODEL 9
REMARK VINA RESULT:      -3.5     11.191     11.979
REMARK  2 active torsions:
REMARK  status: ('A' for Active; 'I' for Inactive)
REMARK    1  A    between atoms: C4_4  and  C6_6 
REMARK    2  A    between atoms: C5_5  and  C8_8 
ROOT
HETATM    1  C3  UNL     1     -34.312  18.052  -1.556  1.00 20.00     0.016 A 
HETATM    2  C5  UNL     1     -32.878  17.738  -1.238  1.00 20.00     0.009 A 
HETATM    3  C6  UNL     1     -33.429  17.445  -2.634  1.00 20.00    -0.035 A 
HETATM    4  C7  UNL     1     -33.036  18.352  -3.775  1.00 20.00     0.016 C 
ENDROOT
BRANCH   3   5
HETATM    5  C4  UNL     1     -33.629  15.984  -3.066  1.00 20.00    -0.006 A 
HETATM    6  C1  UNL     1     -34.266  15.606  -4.375  1.00 20.00     0.006 A 
HETATM    7  C2  UNL     1     -32.805  15.336  -4.143  1.00 20.00     0.006 A 
ENDBRANCH   3   5
BRANCH   2   8
HETATM    8  C8  UNL     1     -31.908  18.835  -0.965  1.00 20.00     0.120 C 
HETATM    9 CL9  UNL     1     -30.904  18.468   0.465  1.00 20.00    -0.130 Cl
ENDBRANCH   2   8
TORSDOF 2
ENDMDL
