MODEL 1
REMARK VINA RESULT:      -4.3      0.000      0.000
REMARK  3 active torsions:
REMARK  status: ('A' for Active; 'I' for Inactive)
REMARK    1  A    between atoms: C2_2  and  C6_6 
REMARK    2  A    between atoms: C3_3  and  C7_7 
REMARK    3  A    between atoms: C6_6  and  O8_8 
ROOT
HETATM    1  C1  UNL     1     -35.320   5.966   4.402  1.00 20.00     0.017 A 
HETATM    2  C2  UNL     1     -33.907   5.514   4.168  1.00 20.00     0.018 A 
HETATM    3  C3  UNL     1     -34.177   6.709   5.073  1.00 20.00    -0.038 A 
HETATM    4  C4  UNL     1     -33.978   6.510   6.553  1.00 20.00     0.015 C 
ENDROOT
BRANCH   2   5
HETATM    5  C6  UNL     1     -33.288   5.650   2.820  1.00 20.00     0.169 C 
BRANCH   5   6
HETATM    6  O8  UNL     1     -32.637   4.431   2.460  1.00 20.00    -0.400 OA
HETATM    7  H22 UNL     1     -33.095   4.097   1.674  1.00 20.00     0.209 HD
ENDBRANCH   5   6
ENDBRANCH   2   5
BRANCH   3   8
HETATM    8  C7  UNL     1     -33.862   8.103   4.596  1.00 20.00     0.005 C 
HETATM    9  C5  UNL     1     -32.473   8.536   4.966  1.00 20.00     0.006 C 
ENDBRANCH   3   8
TORSDOF 3
ENDMDL
MODEL 2
REMARK VINA RESULT:      -4.1      1.804      2.703
REMARK  3 active torsions:
REMARK  status: ('A' for Active; 'I' for Inactive)
REMARK    1  A    between atoms: C2_2  and  C6_6 
REMARK    2  A    between atoms: C3_3  and  C7_7 
REMARK    3  A    between atoms: C6_6  and  O8_8 
ROOT
HETATM    1  C1  UNL     1     -34.795   7.584   4.880  1.00 20.00     0.017 A 
HETATM    2  C2  UNL     1     -33.998   6.798   5.881  1.00 20.00     0.018 A 
HETATM    3  C3  UNL     1     -33.299   7.414   4.676  1.00 20.00    -0.038 A 
HETATM    4  C4  UNL     1     -32.413   8.606   4.931  1.00 20.00     0.015 C 
ENDROOT
BRANCH   2   5
HETATM    5  C6  UNL     1     -34.209   5.331   6.025  1.00 20.00     0.169 C 
BRANCH   5   6
HETATM    6  O8  UNL     1     -35.393   4.940   5.329  1.00 20.00    -0.400 OA
HETATM    7  H22 UNL     1     -35.101   4.454   4.542  1.00 20.00     0.209 HD
ENDBRANCH   5   6
ENDBRANCH   2   5
BRANCH   3   8
HETATM    8  C7  UNL     1     -32.834   6.537   3.544  1.00 20.00     0.005 C 
HETATM    9  C5  UNL     1     -32.171   7.320   2.447  1.00 20.00     0.006 C 
ENDBRANCH   3   8
TORSDOF 3
ENDMDL
MODEL 3
REMARK VINA RESULT:      -4.0      1.639      3.056
REMARK  3 active torsions:
REMARK  status: ('A' for Active; 'I' for Inactive)
REMARK    1  A    between atoms: C2_2  and  C6_6 
REMARK    2  A    between atoms: C3_3  and  C7_7 
REMARK    3  A    between atoms: C6_6  and  O8_8 
ROOT
HETATM    1  C1  UNL     1     -34.060   6.683   6.230  1.00 20.00     0.017 A 
HETATM    2  C2  UNL     1     -33.889   7.647   5.091  1.00 20.00     0.018 A 
HETATM    3  C3  UNL     1     -34.279   6.203   4.805  1.00 20.00    -0.038 A 
HETATM    4  C4  UNL     1     -35.695   5.951   4.356  1.00 20.00     0.015 C 
ENDROOT
BRANCH   2   5
HETATM    5  C6  UNL     1     -32.542   8.195   4.767  1.00 20.00     0.169 C 
BRANCH   5   6
HETATM    6  O8  UNL     1     -32.547   8.749   3.451  1.00 20.00    -0.400 OA
HETATM    7  H22 UNL     1     -32.945   8.080   2.874  1.00 20.00     0.209 HD
ENDBRANCH   5   6
ENDBRANCH   2   5
BRANCH   3   8
HETATM    8  C7  UNL     1     -33.272   5.251   4.216  1.00 20.00     0.005 C 
HETATM    9  C5  UNL     1     -33.272   5.272   2.715  1.00 20.00     0.006 C 
ENDBRANCH   3   8
TORSDOF 3
ENDMDL
MODEL 4
REMARK VINA RESULT:      -3.8     12.127     13.012
REMARK  3 active torsions:
REMARK  status: ('A' for Active; 'I' for Inactive)
REMARK    1  A    between atoms: C2_2  and  C6_6 
REMARK    2  A    between atoms: C3_3  and  C7_7 
REMARK    3  A    between atoms: C6_6  and  O8_8 
ROOT
HETATM    1  C1  UNL     1     -34.299  15.064  -6.238  1.00 20.00     0.017 A 
HETATM    2  C2  UNL     1     -35.556  15.028  -5.417  1.00 20.00     0.018 A 
HETATM    3  C3  UNL     1     -34.376  15.873  -4.955  1.00 20.00    -0.038 A 
HETATM    4  C4  UNL     1     -34.515  17.369  -5.071  1.00 20.00     0.015 C 
ENDROOT
BRANCH   2   5
HETATM    5  C6  UNL     1     -35.966  13.774  -4.726  1.00 20.00     0.169 C 
BRANCH   5   6
HETATM    6  O8  UNL     1     -37.310  13.895  -4.258  1.00 20.00    -0.400 OA
HETATM    7  H22 UNL     1     -37.870  13.455  -4.916  1.00 20.00     0.209 HD
ENDBRANCH   5   6
ENDBRANCH   2   5
BRANCH   3   8
HETATM    8  C7  UNL     1     -33.540  15.426  -3.785  1.00 20.00     0.005 C 
HETATM    9  C5  UNL     1     -33.382  16.501  -2.748  1.00 20.00     0.006 C 
ENDBRANCH   3   8
TORSDOF 3
ENDMDL
MODEL 5
REMARK VINA RESULT:      -3.6      2.116      3.461
REMARK  3 active torsions:
REMARK  status: ('A' for Active; 'I' for Inactive)
REMARK    1  A    between atoms: C2_2  and  C6_6 
REMARK    2  A    between atoms: C3_3  and  C7_7 
REMARK    3  A    between atoms: C6_6  and  O8_8 
ROOT
HETATM    1  C1  UNL     1     -34.238   8.028   4.692  1.00 20.00     0.017 A 
HETATM    2  C2  UNL     1     -33.184   7.397   5.556  1.00 20.00     0.018 A 
HETATM    3  C3  UNL     1     -33.235   7.072   4.069  1.00 20.00    -0.038 A 
HETATM    4  C4  UNL     1     -32.150   7.654   3.201  1.00 20.00     0.015 C 
ENDROOT
BRANCH   2   5
HETATM    5  C6  UNL     1     -33.566   6.413   6.608  1.00 20.00     0.169 C 
BRANCH   5   6
HETATM    6  O8  UNL     1     -34.988   6.332   6.704  1.00 20.00    -0.400 OA
HETATM    7  H22 UNL     1     -35.246   5.510   6.259  1.00 20.00     0.209 HD
ENDBRANCH   5   6
ENDBRANCH   2   5
BRANCH   3   8
HETATM    8  C7  UNL     1     -33.732   5.727   3.607  1.00 20.00     0.005 C 
HETATM    9  C5  UNL     1     -32.864   5.131   2.537  1.00 20.00     0.006 C 
ENDBRANCH   3   8
TORSDOF 3
ENDMDL
MODEL 6
REMARK VINA RESULT:      -3.6     12.294     12.706
REMARK  3 active torsions:
REMARK  status: ('A' for Active; 'I' for Inactive)
REMARK    1  A    between atoms: C2_2  and  C6_6 
REMARK    2  A    between atoms: C3_3  and  C7_7 
REMARK    3  A    between atoms: C6_6  and  O8_8 
ROOT
HETATM    1  C1  UNL     1     -33.984  18.892  -1.763  1.00 20.00     0.017 A 
HETATM    2  C2  UNL     1     -33.867  17.399  -1.657  1.00 20.00     0.018 A 
HETATM    3  C3  UNL     1     -33.139  18.286  -0.656  1.00 20.00    -0.038 A 
HETATM    4  C4  UNL     1     -33.683  18.327   0.749  1.00 20.00     0.015 C 
ENDROOT
BRANCH   2   5
HETATM    5  C6  UNL     1     -33.154  16.624  -2.711  1.00 20.00     0.169 C 
BRANCH   5   6
HETATM    6  O8  UNL     1     -33.963  15.527  -3.138  1.00 20.00    -0.400 OA
HETATM    7  H22 UNL     1     -34.687  15.907  -3.659  1.00 20.00     0.209 HD
ENDBRANCH   5   6
ENDBRANCH   2   5
BRANCH   3   8
HETATM    8  C7  UNL     1     -31.644  18.448  -0.738  1.00 20.00     0.005 C 
HETATM    9  C5  UNL     1     -30.998  18.501   0.617  1.00 20.00     0.006 C 
ENDBRANCH   3   8
TORSDOF 3
ENDMDL
MODEL 7
REMARK VINA RESULT:      -3.5     12.547     13.711
REMARK  3 active torsions:
REMARK  status: ('A' for Active; 'I' for Inactive)
REMARK    1  A    between atoms: C2_2  and  C6_6 
REMARK    2  A    between atoms: C3_3  and  C7_7 
REMARK    3  A    between atoms: C6_6  and  O8_8 
ROOT
HETATM    1  C1  UNL     1     -34.112  19.018  -1.552  1.00 20.00     0.017 A 
HETATM    2  C2  UNL     1     -32.612  19.003  -1.487  1.00 20.00     0.018 A 
HETATM    3  C3  UNL     1     -33.333  18.115  -2.493  1.00 20.00    -0.038 A 
HETATM    4  C4  UNL     1     -33.249  18.512  -3.944  1.00 20.00     0.015 C 
ENDROOT
BRANCH   2   5
HETATM    5  C6  UNL     1     -31.918  18.458  -0.286  1.00 20.00     0.169 C 
BRANCH   5   6
HETATM    6  O8  UNL     1     -30.511  18.673  -0.400  1.00 20.00    -0.400 OA
HETATM    7  H22 UNL     1     -30.111  17.801  -0.542  1.00 20.00     0.209 HD
ENDBRANCH   5   6
ENDBRANCH   2   5
BRANCH   3   8
HETATM    8  C7  UNL     1     -33.408  16.627  -2.269  1.00 20.00     0.005 C 
HETATM    9  C5  UNL     1     -33.423  15.854  -3.556  1.00 20.00     0.006 C 
ENDBRANCH   3   8
TORSDOF 3
ENDMDL
MODEL 8
REMARK VINA RESULT:      -3.5     15.825     16.873
REMARK  3 active torsions:
REMARK  status: ('A' for Active; 'I' for Inactive)
REMARK    1  A    between atoms: C2_2  and  C6_6 
REMARK    2  A    between atoms: C3_3  and  C7_7 
REMARK    3  A    between atoms: C6_6  and  O8_8 
ROOT
HETATM    1  C1  UNL     1     -24.200  16.358  11.866  1.00 20.00     0.017 A 
HETATM    2  C2  UNL     1     -25.053  17.477  11.341  1.00 20.00     0.018 A 
HETATM    3  C3  UNL     1     -23.536  17.619  11.340  1.00 20.00    -0.038 A 
HETATM    4  C4  UNL     1     -22.840  17.546  10.006  1.00 20.00     0.015 C 
ENDROOT
BRANCH   2   5
HETATM    5  C6  UNL     1     -25.932  18.249  12.263  1.00 20.00     0.169 C 
BRANCH   5   6
HETATM    6  O8  UNL     1     -27.014  18.826  11.533  1.00 20.00    -0.400 OA
HETATM    7  H22 UNL     1     -27.178  18.242  10.777  1.00 20.00     0.209 HD
ENDBRANCH   5   6
ENDBRANCH   2   5
BRANCH   3   8
HETATM    8  C7  UNL     1     -22.863  18.531  12.332  1.00 20.00     0.005 C 
HETATM    9  C5  UNL     1     -21.366  18.494  12.220  1.00 20.00     0.006 C 
ENDBRANCH   3   8
TORSDOF 3
ENDMDL
MODEL 9
REMARK VINA RESULT:      -3.4     12.180     13.231
REMARK  3 active torsions:
REMARK  status: ('A' for Active; 'I' for Inactive)
REMARK    1  A    between atoms: C2_2  and  C6_6 
REMARK    2  A    between atoms: C3_3  and  C7_7 
REMARK    3  A    between atoms: C6_6  and  O8_8 
ROOT
HETATM    1  C1  UNL     1     -33.547  16.664  -2.239  1.00 20.00     0.017 A 
HETATM    2  C2  UNL     1     -33.180  16.096  -3.580  1.00 20.00     0.018 A 
HETATM    3  C3  UNL     1     -33.788  17.489  -3.491  1.00 20.00    -0.038 A 
HETATM    4  C4  UNL     1     -32.873  18.656  -3.754  1.00 20.00     0.015 C 
ENDROOT
BRANCH   2   5
HETATM    5  C6  UNL     1     -33.923  14.927  -4.129  1.00 20.00     0.169 C 
BRANCH   5   6
HETATM    6  O8  UNL     1     -33.001  13.935  -4.582  1.00 20.00    -0.400 OA
HETATM    7  H22 UNL     1     -32.967  14.012  -5.548  1.00 20.00     0.209 HD
ENDBRANCH   5   6
ENDBRANCH   2   5
BRANCH   3   8
HETATM    8  C7  UNL     1     -35.213  17.719  -3.924  1.00 20.00     0.005 C 
HETATM    9  C5  UNL     1     -35.924  18.713  -3.052  1.00 20.00     0.006 C 
ENDBRANCH   3   8
TORSDOF 3
ENDMDL
