MODEL 1
REMARK VINA RESULT:      -4.1      0.000      0.000
REMARK  1 active torsions:
REMARK  status: ('A' for Active; 'I' for Inactive)
REMARK    1  A    between atoms: C6_6  and  C8_8 
ROOT
HETATM    1  C1  UNL     1     -33.983   5.851   3.994  1.00 20.00     0.036 C 
HETATM    2  C2  UNL     1     -33.220   7.113   6.030  1.00 20.00     0.036 C 
HETATM    3  C3  UNL     1     -33.881   8.450   3.894  1.00 20.00     0.016 A 
HETATM    4  C4  UNL     1     -35.203   5.430   4.809  1.00 20.00     0.168 C 
HETATM    5  C5  UNL     1     -34.487   6.622   6.721  1.00 20.00     0.168 C 
HETATM    6  C6  UNL     1     -32.462   7.981   3.711  1.00 20.00     0.005 A 
HETATM    7  C7  UNL     1     -33.433   7.153   4.533  1.00 20.00    -0.032 A 
HETATM    8  O9  UNL     1     -34.877   5.349   6.198  1.00 20.00    -0.391 OA
ENDROOT
BRANCH   6   9
HETATM    9  C8  UNL     1     -31.979   7.553   2.368  1.00 20.00     0.090 C 
HETATM   10 BR10 UNL     1     -32.518   8.844   1.006  1.00 20.00    -0.096 Br
ENDBRANCH   6   9
TORSDOF 1
ENDMDL
MODEL 2
REMARK VINA RESULT:      -3.8     12.510     13.366
REMARK  1 active torsions:
REMARK  status: ('A' for Active; 'I' for Inactive)
REMARK    1  A    between atoms: C6_6  and  C8_8 
ROOT
HETATM    1  C1  UNL     1     -33.137  18.769  -3.597  1.00 20.00     0.036 C 
HETATM    2  C2  UNL     1     -33.277  16.279  -3.278  1.00 20.00     0.036 C 
HETATM    3  C3  UNL     1     -34.080  17.843  -1.355  1.00 20.00     0.016 A 
HETATM    4  C4  UNL     1     -34.193  18.610  -4.688  1.00 20.00     0.168 C 
HETATM    5  C5  UNL     1     -34.329  16.270  -4.382  1.00 20.00     0.168 C 
HETATM    6  C6  UNL     1     -32.583  17.725  -1.244  1.00 20.00     0.005 A 
HETATM    7  C7  UNL     1     -33.252  17.633  -2.604  1.00 20.00    -0.032 A 
HETATM    8  O9  UNL     1     -34.083  17.329  -5.312  1.00 20.00    -0.391 OA
ENDROOT
BRANCH   6   9
HETATM    9  C8  UNL     1     -31.765  18.900  -0.830  1.00 20.00     0.090 C 
HETATM   10 BR10 UNL     1     -31.002  18.608   0.943  1.00 20.00    -0.096 Br
ENDBRANCH   6   9
TORSDOF 1
ENDMDL
MODEL 3
REMARK VINA RESULT:      -3.6     12.076     13.129
REMARK  1 active torsions:
REMARK  status: ('A' for Active; 'I' for Inactive)
REMARK    1  A    between atoms: C6_6  and  C8_8 
ROOT
HETATM    1  C1  UNL     1     -33.423  16.592  -2.251  1.00 20.00     0.036 C 
HETATM    2  C2  UNL     1     -34.946  18.359  -3.191  1.00 20.00     0.036 C 
HETATM    3  C3  UNL     1     -32.643  19.075  -2.205  1.00 20.00     0.016 A 
HETATM    4  C4  UNL     1     -33.298  16.054  -3.675  1.00 20.00     0.168 C 
HETATM    5  C5  UNL     1     -34.724  17.721  -4.558  1.00 20.00     0.168 C 
HETATM    6  C6  UNL     1     -33.600  18.929  -1.053  1.00 20.00     0.005 A 
HETATM    7  C7  UNL     1     -33.767  18.065  -2.289  1.00 20.00    -0.032 A 
HETATM    8  O9  UNL     1     -34.490  16.316  -4.419  1.00 20.00    -0.391 OA
ENDROOT
BRANCH   6   9
HETATM    9  C8  UNL     1     -33.130  18.382   0.251  1.00 20.00     0.090 C 
HETATM   10 BR10 UNL     1     -31.206  18.645   0.447  1.00 20.00    -0.096 Br
ENDBRANCH   6   9
TORSDOF 1
ENDMDL
MODEL 4
REMARK VINA RESULT:      -3.4     10.060     10.919
REMARK  1 active torsions:
REMARK  status: ('A' for Active; 'I' for Inactive)
REMARK    1  A    between atoms: C6_6  and  C8_8 
ROOT
HETATM    1  C1  UNL     1     -40.423  14.119   8.050  1.00 20.00     0.036 C 
HETATM    2  C2  UNL     1     -41.933  15.174   6.339  1.00 20.00     0.036 C 
HETATM    3  C3  UNL     1     -42.126  12.613   6.781  1.00 20.00     0.016 A 
HETATM    4  C4  UNL     1     -41.167  14.941   9.099  1.00 20.00     0.168 C 
HETATM    5  C5  UNL     1     -42.591  15.927   7.489  1.00 20.00     0.168 C 
HETATM    6  C6  UNL     1     -40.979  12.821   5.828  1.00 20.00     0.005 A 
HETATM    7  C7  UNL     1     -41.316  13.891   6.851  1.00 20.00    -0.032 A 
HETATM    8  O9  UNL     1     -41.643  16.165   8.534  1.00 20.00    -0.391 OA
ENDROOT
BRANCH   6   9
HETATM    9  C8  UNL     1     -39.757  11.974   5.927  1.00 20.00     0.090 C 
HETATM   10 BR10 UNL     1     -38.994  11.668   4.156  1.00 20.00    -0.096 Br
ENDBRANCH   6   9
TORSDOF 1
ENDMDL
MODEL 5
REMARK VINA RESULT:      -3.3     12.949     13.664
REMARK  1 active torsions:
REMARK  status: ('A' for Active; 'I' for Inactive)
REMARK    1  A    between atoms: C6_6  and  C8_8 
ROOT
HETATM    1  C1  UNL     1     -26.171  -1.153  11.412  1.00 20.00     0.036 C 
HETATM    2  C2  UNL     1     -27.796  -2.421   9.972  1.00 20.00     0.036 C 
HETATM    3  C3  UNL     1     -26.079  -3.754  11.408  1.00 20.00     0.016 A 
HETATM    4  C4  UNL     1     -27.375  -0.697  12.233  1.00 20.00     0.168 C 
HETATM    5  C5  UNL     1     -28.901  -1.895  10.882  1.00 20.00     0.168 C 
HETATM    6  C6  UNL     1     -25.374  -3.322  10.150  1.00 20.00     0.005 A 
HETATM    7  C7  UNL     1     -26.486  -2.465  10.727  1.00 20.00    -0.032 A 
HETATM    8  O9  UNL     1     -28.542  -0.616  11.411  1.00 20.00    -0.391 OA
ENDROOT
BRANCH   6   9
HETATM    9  C8  UNL     1     -23.942  -2.913  10.192  1.00 20.00     0.090 C 
HETATM   10 BR10 UNL     1     -23.110  -3.160   8.444  1.00 20.00    -0.096 Br
ENDBRANCH   6   9
TORSDOF 1
ENDMDL
MODEL 6
REMARK VINA RESULT:      -3.3     12.144     13.428
REMARK  1 active torsions:
REMARK  status: ('A' for Active; 'I' for Inactive)
REMARK    1  A    between atoms: C6_6  and  C8_8 
ROOT
HETATM    1  C1  UNL     1     -33.398  16.387  -3.245  1.00 20.00     0.036 C 
HETATM    2  C2  UNL     1     -33.232  18.723  -4.161  1.00 20.00     0.036 C 
HETATM    3  C3  UNL     1     -35.413  17.359  -4.576  1.00 20.00     0.016 A 
HETATM    4  C4  UNL     1     -33.368  17.014  -1.854  1.00 20.00     0.168 C 
HETATM    5  C5  UNL     1     -33.219  19.210  -2.717  1.00 20.00     0.168 C 
HETATM    6  C6  UNL     1     -34.410  16.931  -5.614  1.00 20.00     0.005 A 
HETATM    7  C7  UNL     1     -33.935  17.386  -4.246  1.00 20.00    -0.032 A 
HETATM    8  O9  UNL     1     -32.616  18.230  -1.866  1.00 20.00    -0.391 OA
ENDROOT
BRANCH   6   9
HETATM    9  C8  UNL     1     -34.343  15.509  -6.054  1.00 20.00     0.090 C 
HETATM   10 BR10 UNL     1     -35.966  14.557  -5.534  1.00 20.00    -0.096 Br
ENDBRANCH   6   9
TORSDOF 1
ENDMDL
MODEL 7
REMARK VINA RESULT:      -3.3     12.179     13.451
REMARK  1 active torsions:
REMARK  status: ('A' for Active; 'I' for Inactive)
REMARK    1  A    between atoms: C6_6  and  C8_8 
ROOT
HETATM    1  C1  UNL     1     -35.777  16.949  -4.941  1.00 20.00     0.036 C 
HETATM    2  C2  UNL     1     -34.330  15.425  -6.322  1.00 20.00     0.036 C 
HETATM    3  C3  UNL     1     -34.136  15.335  -3.725  1.00 20.00     0.016 A 
HETATM    4  C4  UNL     1     -36.973  16.151  -5.457  1.00 20.00     0.168 C 
HETATM    5  C5  UNL     1     -35.609  14.715  -6.749  1.00 20.00     0.168 C 
HETATM    6  C6  UNL     1     -33.293  16.489  -4.199  1.00 20.00     0.005 A 
HETATM    7  C7  UNL     1     -34.534  16.088  -4.977  1.00 20.00    -0.032 A 
HETATM    8  O9  UNL     1     -36.707  15.634  -6.762  1.00 20.00    -0.391 OA
ENDROOT
BRANCH   6   9
HETATM    9  C8  UNL     1     -33.219  17.744  -3.400  1.00 20.00     0.090 C 
HETATM   10 BR10 UNL     1     -33.561  17.373  -1.514  1.00 20.00    -0.096 Br
ENDBRANCH   6   9
TORSDOF 1
ENDMDL
MODEL 8
REMARK VINA RESULT:      -3.2      0.956      1.891
REMARK  1 active torsions:
REMARK  status: ('A' for Active; 'I' for Inactive)
REMARK    1  A    between atoms: C6_6  and  C8_8 
ROOT
HETATM    1  C1  UNL     1     -33.920   7.931   5.041  1.00 20.00     0.036 C 
HETATM    2  C2  UNL     1     -34.116   5.719   3.861  1.00 20.00     0.036 C 
HETATM    3  C3  UNL     1     -31.852   7.004   3.762  1.00 20.00     0.016 A 
HETATM    4  C4  UNL     1     -34.087   7.160   6.348  1.00 20.00     0.168 C 
HETATM    5  C5  UNL     1     -34.264   5.080   5.237  1.00 20.00     0.168 C 
HETATM    6  C6  UNL     1     -32.750   7.593   2.707  1.00 20.00     0.005 A 
HETATM    7  C7  UNL     1     -33.350   7.019   3.978  1.00 20.00    -0.032 A 
HETATM    8  O9  UNL     1     -34.888   5.993   6.145  1.00 20.00    -0.391 OA
ENDROOT
BRANCH   6   9
HETATM    9  C8  UNL     1     -32.720   9.056   2.424  1.00 20.00     0.090 C 
HETATM   10 BR10 UNL     1     -32.769   9.380   0.500  1.00 20.00    -0.096 Br
ENDBRANCH   6   9
TORSDOF 1
ENDMDL
MODEL 9
REMARK VINA RESULT:      -3.2     12.226     13.258
REMARK  1 active torsions:
REMARK  status: ('A' for Active; 'I' for Inactive)
REMARK    1  A    between atoms: C6_6  and  C8_8 
ROOT
HETATM    1  C1  UNL     1     -33.325  16.329  -3.050  1.00 20.00     0.036 C 
HETATM    2  C2  UNL     1     -35.179  17.780  -3.933  1.00 20.00     0.036 C 
HETATM    3  C3  UNL     1     -32.789  18.791  -3.703  1.00 20.00     0.016 A 
HETATM    4  C4  UNL     1     -33.478  15.496  -4.321  1.00 20.00     0.168 C 
HETATM    5  C5  UNL     1     -35.216  16.866  -5.152  1.00 20.00     0.168 C 
HETATM    6  C6  UNL     1     -33.440  18.864  -2.348  1.00 20.00     0.005 A 
HETATM    7  C7  UNL     1     -33.804  17.742  -3.303  1.00 20.00    -0.032 A 
HETATM    8  O9  UNL     1     -34.827  15.538  -4.790  1.00 20.00    -0.391 OA
ENDROOT
BRANCH   6   9
HETATM    9  C8  UNL     1     -32.636  18.638  -1.114  1.00 20.00     0.090 C 
HETATM   10 BR10 UNL     1     -33.807  18.290   0.409  1.00 20.00    -0.096 Br
ENDBRANCH   6   9
TORSDOF 1
ENDMDL
