MODEL 1
REMARK VINA RESULT:      -4.2      0.000      0.000
REMARK  2 active torsions:
REMARK  status: ('A' for Active; 'I' for Inactive)
REMARK    1  A    between atoms: C2_2  and  C6_6 
REMARK    2  A    between atoms: C7_7  and  C10_10 
ROOT
HETATM    1  C1  UNL     1     -33.546  16.713  -1.803  1.00 20.00     0.022 A 
HETATM    2  C2  UNL     1     -33.427  16.957  -3.201  1.00 20.00    -0.040 A 
HETATM    3  C3  UNL     1     -33.693  17.880  -1.085  1.00 20.00    -0.020 A 
HETATM    4  C4  UNL     1     -33.487  18.301  -3.499  1.00 20.00    -0.014 A 
HETATM    5  C8  UNL     1     -33.845  18.048   0.377  1.00 20.00     0.056 C 
HETATM    6  C9  UNL     1     -33.404  18.964  -4.820  1.00 20.00     0.057 C 
HETATM    7  S11 UNL     1     -33.686  19.262  -2.096  1.00 20.00    -0.100 SA
ENDROOT
BRANCH   2   8
HETATM    8  C6  UNL     1     -33.254  15.862  -4.229  1.00 20.00     0.025 A 
HETATM    9  C5  UNL     1     -33.966  14.538  -4.056  1.00 20.00     0.016 A 
HETATM   10  C7  UNL     1     -34.411  15.485  -5.131  1.00 20.00     0.004 A 
BRANCH  10  11
HETATM   11  C10 UNL     1     -34.164  15.160  -6.565  1.00 20.00     0.090 C 
HETATM   12 BR12 UNL     1     -34.594  16.691  -7.696  1.00 20.00    -0.096 Br
ENDBRANCH  10  11
ENDBRANCH   2   8
TORSDOF 2
ENDMDL
MODEL 2
REMARK VINA RESULT:      -3.6      3.226      5.133
REMARK  2 active torsions:
REMARK  status: ('A' for Active; 'I' for Inactive)
REMARK    1  A    between atoms: C2_2  and  C6_6 
REMARK    2  A    between atoms: C7_7  and  C10_10 
ROOT
HETATM    1  C1  UNL     1     -30.883  18.786   0.918  1.00 20.00     0.022 A 
HETATM    2  C2  UNL     1     -32.291  18.924   0.752  1.00 20.00    -0.040 A 
HETATM    3  C3  UNL     1     -30.510  18.848   2.243  1.00 20.00    -0.020 A 
HETATM    4  C4  UNL     1     -32.940  19.087   1.956  1.00 20.00    -0.014 A 
HETATM    5  C8  UNL     1     -29.152  18.747   2.823  1.00 20.00     0.056 C 
HETATM    6  C9  UNL     1     -34.387  19.262   2.215  1.00 20.00     0.057 C 
HETATM    7  S11 UNL     1     -31.854  19.073   3.280  1.00 20.00    -0.100 SA
ENDROOT
BRANCH   2   8
HETATM    8  C6  UNL     1     -32.980  18.894  -0.593  1.00 20.00     0.025 A 
HETATM    9  C5  UNL     1     -32.175  19.048  -1.864  1.00 20.00     0.016 A 
HETATM   10  C7  UNL     1     -32.774  17.716  -1.521  1.00 20.00     0.004 A 
BRANCH  10  11
HETATM   11  C10 UNL     1     -33.916  17.181  -2.314  1.00 20.00     0.090 C 
HETATM   12 BR12 UNL     1     -33.282  15.910  -3.653  1.00 20.00    -0.096 Br
ENDBRANCH  10  11
ENDBRANCH   2   8
TORSDOF 2
ENDMDL
MODEL 3
REMARK VINA RESULT:      -3.5      1.764      2.018
REMARK  2 active torsions:
REMARK  status: ('A' for Active; 'I' for Inactive)
REMARK    1  A    between atoms: C2_2  and  C6_6 
REMARK    2  A    between atoms: C7_7  and  C10_10 
ROOT
HETATM    1  C1  UNL     1     -32.694  17.692  -1.364  1.00 20.00     0.022 A 
HETATM    2  C2  UNL     1     -33.639  17.705  -2.431  1.00 20.00    -0.040 A 
HETATM    3  C3  UNL     1     -33.111  18.457  -0.297  1.00 20.00    -0.020 A 
HETATM    4  C4  UNL     1     -34.740  18.478  -2.138  1.00 20.00    -0.014 A 
HETATM    5  C8  UNL     1     -32.418  18.697   0.988  1.00 20.00     0.056 C 
HETATM    6  C9  UNL     1     -35.934  18.748  -2.971  1.00 20.00     0.057 C 
HETATM    7  S11 UNL     1     -34.634  19.186  -0.583  1.00 20.00    -0.100 SA
ENDROOT
BRANCH   2   8
HETATM    8  C6  UNL     1     -33.444  16.953  -3.728  1.00 20.00     0.025 A 
HETATM    9  C5  UNL     1     -32.614  15.688  -3.757  1.00 20.00     0.016 A 
HETATM   10  C7  UNL     1     -34.102  15.603  -3.925  1.00 20.00     0.004 A 
BRANCH  10  11
HETATM   11  C10 UNL     1     -34.688  15.244  -5.247  1.00 20.00     0.090 C 
HETATM   12 BR12 UNL     1     -36.195  14.025  -5.018  1.00 20.00    -0.096 Br
ENDBRANCH  10  11
ENDBRANCH   2   8
TORSDOF 2
ENDMDL
MODEL 4
REMARK VINA RESULT:      -3.5      3.245      5.244
REMARK  2 active torsions:
REMARK  status: ('A' for Active; 'I' for Inactive)
REMARK    1  A    between atoms: C2_2  and  C6_6 
REMARK    2  A    between atoms: C7_7  and  C10_10 
ROOT
HETATM    1  C1  UNL     1     -34.584  17.877  -5.419  1.00 20.00     0.022 A 
HETATM    2  C2  UNL     1     -34.086  16.919  -4.489  1.00 20.00    -0.040 A 
HETATM    3  C3  UNL     1     -35.282  17.284  -6.448  1.00 20.00    -0.020 A 
HETATM    4  C4  UNL     1     -34.423  15.631  -4.843  1.00 20.00    -0.014 A 
HETATM    5  C8  UNL     1     -35.948  17.929  -7.601  1.00 20.00     0.056 C 
HETATM    6  C9  UNL     1     -34.101  14.363  -4.149  1.00 20.00     0.057 C 
HETATM    7  S11 UNL     1     -35.335  15.579  -6.290  1.00 20.00    -0.100 SA
ENDROOT
BRANCH   2   8
HETATM    8  C6  UNL     1     -33.283  17.286  -3.262  1.00 20.00     0.025 A 
HETATM    9  C5  UNL     1     -32.968  18.735  -2.963  1.00 20.00     0.016 A 
HETATM   10  C7  UNL     1     -33.954  17.997  -2.106  1.00 20.00     0.004 A 
BRANCH  10  11
HETATM   11  C10 UNL     1     -33.604  17.637  -0.703  1.00 20.00     0.090 C 
HETATM   12 BR12 UNL     1     -32.012  18.608  -0.125  1.00 20.00    -0.096 Br
ENDBRANCH  10  11
ENDBRANCH   2   8
TORSDOF 2
ENDMDL
MODEL 5
REMARK VINA RESULT:      -3.4     12.551     13.293
REMARK  2 active torsions:
REMARK  status: ('A' for Active; 'I' for Inactive)
REMARK    1  A    between atoms: C2_2  and  C6_6 
REMARK    2  A    between atoms: C7_7  and  C10_10 
ROOT
HETATM    1  C1  UNL     1     -41.902  15.855   6.419  1.00 20.00     0.022 A 
HETATM    2  C2  UNL     1     -41.256  15.046   7.398  1.00 20.00    -0.040 A 
HETATM    3  C3  UNL     1     -41.890  17.189   6.762  1.00 20.00    -0.020 A 
HETATM    4  C4  UNL     1     -40.775  15.793   8.451  1.00 20.00    -0.014 A 
HETATM    5  C8  UNL     1     -42.453  18.336   6.016  1.00 20.00     0.056 C 
HETATM    6  C9  UNL     1     -40.049  15.337   9.658  1.00 20.00     0.057 C 
HETATM    7  S11 UNL     1     -41.103  17.462   8.258  1.00 20.00    -0.100 SA
ENDROOT
BRANCH   2   8
HETATM    8  C6  UNL     1     -41.120  13.545   7.284  1.00 20.00     0.025 A 
HETATM    9  C5  UNL     1     -42.160  12.741   6.534  1.00 20.00     0.016 A 
HETATM   10  C7  UNL     1     -40.792  12.916   5.946  1.00 20.00     0.004 A 
BRANCH  10  11
HETATM   11  C10 UNL     1     -39.854  11.760   5.874  1.00 20.00     0.090 C 
HETATM   12 BR12 UNL     1     -38.998  11.683   4.122  1.00 20.00    -0.096 Br
ENDBRANCH  10  11
ENDBRANCH   2   8
TORSDOF 2
ENDMDL
MODEL 6
REMARK VINA RESULT:      -3.3     12.587     13.677
REMARK  2 active torsions:
REMARK  status: ('A' for Active; 'I' for Inactive)
REMARK    1  A    between atoms: C2_2  and  C6_6 
REMARK    2  A    between atoms: C7_7  and  C10_10 
ROOT
HETATM    1  C1  UNL     1     -41.084  16.246   7.315  1.00 20.00     0.022 A 
HETATM    2  C2  UNL     1     -41.255  14.969   7.922  1.00 20.00    -0.040 A 
HETATM    3  C3  UNL     1     -41.038  17.259   8.247  1.00 20.00    -0.020 A 
HETATM    4  C4  UNL     1     -41.332  15.055   9.295  1.00 20.00    -0.014 A 
HETATM    5  C8  UNL     1     -40.874  18.712   8.020  1.00 20.00     0.056 C 
HETATM    6  C9  UNL     1     -41.506  13.968  10.285  1.00 20.00     0.057 C 
HETATM    7  S11 UNL     1     -41.200  16.670   9.847  1.00 20.00    -0.100 SA
ENDROOT
BRANCH   2   8
HETATM    8  C6  UNL     1     -41.339  13.677   7.141  1.00 20.00     0.025 A 
HETATM    9  C5  UNL     1     -41.654  13.701   5.662  1.00 20.00     0.016 A 
HETATM   10  C7  UNL     1     -40.272  13.341   6.120  1.00 20.00     0.004 A 
BRANCH  10  11
HETATM   11  C10 UNL     1     -39.780  11.941   5.987  1.00 20.00     0.090 C 
HETATM   12 BR12 UNL     1     -39.040  11.643   4.207  1.00 20.00    -0.096 Br
ENDBRANCH  10  11
ENDBRANCH   2   8
TORSDOF 2
ENDMDL
MODEL 7
REMARK VINA RESULT:      -3.1      2.381      3.464
REMARK  2 active torsions:
REMARK  status: ('A' for Active; 'I' for Inactive)
REMARK    1  A    between atoms: C2_2  and  C6_6 
REMARK    2  A    between atoms: C7_7  and  C10_10 
ROOT
HETATM    1  C1  UNL     1     -31.410  18.312  -0.326  1.00 20.00     0.022 A 
HETATM    2  C2  UNL     1     -32.664  18.460  -0.986  1.00 20.00    -0.040 A 
HETATM    3  C3  UNL     1     -31.470  18.708   0.992  1.00 20.00    -0.020 A 
HETATM    4  C4  UNL     1     -33.634  18.964  -0.147  1.00 20.00    -0.014 A 
HETATM    5  C8  UNL     1     -30.390  18.709   2.003  1.00 20.00     0.056 C 
HETATM    6  C9  UNL     1     -35.054  19.263  -0.443  1.00 20.00     0.057 C 
HETATM    7  S11 UNL     1     -33.032  19.258   1.428  1.00 20.00    -0.100 SA
ENDROOT
BRANCH   2   8
HETATM    8  C6  UNL     1     -32.892  18.103  -2.437  1.00 20.00     0.025 A 
HETATM    9  C5  UNL     1     -33.298  16.696  -2.819  1.00 20.00     0.016 A 
HETATM   10  C7  UNL     1     -34.294  17.813  -2.932  1.00 20.00     0.004 A 
BRANCH  10  11
HETATM   11  C10 UNL     1     -34.728  18.297  -4.273  1.00 20.00     0.090 C 
HETATM   12 BR12 UNL     1     -36.588  17.813  -4.605  1.00 20.00    -0.096 Br
ENDBRANCH  10  11
ENDBRANCH   2   8
TORSDOF 2
ENDMDL
MODEL 8
REMARK VINA RESULT:      -3.1     18.831     20.604
REMARK  2 active torsions:
REMARK  status: ('A' for Active; 'I' for Inactive)
REMARK    1  A    between atoms: C2_2  and  C6_6 
REMARK    2  A    between atoms: C7_7  and  C10_10 
ROOT
HETATM    1  C1  UNL     1     -39.748  -3.160  -4.565  1.00 20.00     0.022 A 
HETATM    2  C2  UNL     1     -40.785  -2.464  -5.251  1.00 20.00    -0.040 A 
HETATM    3  C3  UNL     1     -38.876  -3.776  -5.435  1.00 20.00    -0.020 A 
HETATM    4  C4  UNL     1     -40.665  -2.575  -6.619  1.00 20.00    -0.014 A 
HETATM    5  C8  UNL     1     -37.681  -4.590  -5.118  1.00 20.00     0.056 C 
HETATM    6  C9  UNL     1     -41.530  -2.005  -7.676  1.00 20.00     0.057 C 
HETATM    7  S11 UNL     1     -39.309  -3.517  -7.072  1.00 20.00    -0.100 SA
ENDROOT
BRANCH   2   8
HETATM    8  C6  UNL     1     -41.882  -1.696  -4.550  1.00 20.00     0.025 A 
HETATM    9  C5  UNL     1     -41.871  -1.559  -3.043  1.00 20.00     0.016 A 
HETATM   10  C7  UNL     1     -41.573  -0.364  -3.899  1.00 20.00     0.004 A 
BRANCH  10  11
HETATM   11  C10 UNL     1     -42.552   0.756  -3.989  1.00 20.00     0.090 C 
HETATM   12 BR12 UNL     1     -41.630   2.475  -3.948  1.00 20.00    -0.096 Br
ENDBRANCH  10  11
ENDBRANCH   2   8
TORSDOF 2
ENDMDL
MODEL 9
REMARK VINA RESULT:      -3.1     12.233     14.142
REMARK  2 active torsions:
REMARK  status: ('A' for Active; 'I' for Inactive)
REMARK    1  A    between atoms: C2_2  and  C6_6 
REMARK    2  A    between atoms: C7_7  and  C10_10 
ROOT
HETATM    1  C1  UNL     1     -40.340  13.359   6.904  1.00 20.00     0.022 A 
HETATM    2  C2  UNL     1     -41.268  14.389   7.234  1.00 20.00    -0.040 A 
HETATM    3  C3  UNL     1     -40.438  12.979   5.584  1.00 20.00    -0.020 A 
HETATM    4  C4  UNL     1     -42.040  14.756   6.154  1.00 20.00    -0.014 A 
HETATM    5  C8  UNL     1     -39.657  11.951   4.861  1.00 20.00     0.056 C 
HETATM    6  C9  UNL     1     -43.108  15.778   6.080  1.00 20.00     0.057 C 
HETATM    7  S11 UNL     1     -41.645  13.862   4.748  1.00 20.00    -0.100 SA
ENDROOT
BRANCH   2   8
HETATM    8  C6  UNL     1     -41.384  14.999   8.613  1.00 20.00     0.025 A 
HETATM    9  C5  UNL     1     -40.179  15.048   9.526  1.00 20.00     0.016 A 
HETATM   10  C7  UNL     1     -40.699  16.315   8.915  1.00 20.00     0.004 A 
BRANCH  10  11
HETATM   11  C10 UNL     1     -41.379  17.333   9.765  1.00 20.00     0.090 C 
HETATM   12 BR12 UNL     1     -41.973  18.842   8.681  1.00 20.00    -0.096 Br
ENDBRANCH  10  11
ENDBRANCH   2   8
TORSDOF 2
ENDMDL
