MODEL 1
REMARK VINA RESULT:      -4.6      0.000      0.000
REMARK  1 active torsions:
REMARK  status: ('A' for Active; 'I' for Inactive)
REMARK    1  A    between atoms: C5_5  and  C10_10 
ROOT
HETATM    1  C1  UNL     1     -33.889   5.338   6.822  1.00 20.00     0.002 C 
HETATM    2  C2  UNL     1     -33.336   6.736   6.575  1.00 20.00     0.011 C 
HETATM    3  C3  UNL     1     -35.062   5.249   5.857  1.00 20.00     0.010 C 
HETATM    4  C4  UNL     1     -33.884   8.510   4.769  1.00 20.00     0.017 A 
HETATM    5  C5  UNL     1     -32.621   7.844   4.315  1.00 20.00     0.009 A 
HETATM    6  C6  UNL     1     -33.649   7.046   5.116  1.00 20.00    -0.028 A 
HETATM    7  C7  UNL     1     -34.539   5.920   4.557  1.00 20.00    -0.040 C 
HETATM    8  C8  UNL     1     -33.725   4.890   3.752  1.00 20.00     0.015 C 
HETATM    9  C9  UNL     1     -35.738   6.386   3.727  1.00 20.00     0.015 C 
ENDROOT
BRANCH   5  10
HETATM   10  C10 UNL     1     -32.367   7.708   2.854  1.00 20.00     0.120 C 
HETATM   11 CL11 UNL     1     -32.770   9.213   1.982  1.00 20.00    -0.130 Cl
ENDBRANCH   5  10
TORSDOF 1
ENDMDL
MODEL 2
REMARK VINA RESULT:      -3.9     12.222     13.631
REMARK  1 active torsions:
REMARK  status: ('A' for Active; 'I' for Inactive)
REMARK    1  A    between atoms: C5_5  and  C10_10 
ROOT
HETATM    1  C1  UNL     1     -33.843  16.228  -4.600  1.00 20.00     0.002 C 
HETATM    2  C2  UNL     1     -33.410  16.018  -3.154  1.00 20.00     0.011 C 
HETATM    3  C3  UNL     1     -34.840  17.372  -4.505  1.00 20.00     0.010 C 
HETATM    4  C4  UNL     1     -33.864  17.389  -1.004  1.00 20.00     0.017 A 
HETATM    5  C5  UNL     1     -32.484  17.769  -1.444  1.00 20.00     0.009 A 
HETATM    6  C6  UNL     1     -33.530  17.383  -2.490  1.00 20.00    -0.028 A 
HETATM    7  C7  UNL     1     -34.201  18.353  -3.481  1.00 20.00    -0.040 C 
HETATM    8  C8  UNL     1     -33.170  19.236  -4.208  1.00 20.00     0.015 C 
HETATM    9  C9  UNL     1     -35.304  19.234  -2.890  1.00 20.00     0.015 C 
ENDROOT
BRANCH   5  10
HETATM   10  C10 UNL     1     -32.000  19.150  -1.173  1.00 20.00     0.120 C 
HETATM   11 CL11 UNL     1     -31.042  19.219   0.332  1.00 20.00    -0.130 Cl
ENDBRANCH   5  10
TORSDOF 1
ENDMDL
MODEL 3
REMARK VINA RESULT:      -3.7     12.480     13.932
REMARK  1 active torsions:
REMARK  status: ('A' for Active; 'I' for Inactive)
REMARK    1  A    between atoms: C5_5  and  C10_10 
ROOT
HETATM    1  C1  UNL     1     -33.369  17.262  -2.634  1.00 20.00     0.002 C 
HETATM    2  C2  UNL     1     -33.364  15.897  -3.311  1.00 20.00     0.011 C 
HETATM    3  C3  UNL     1     -33.469  18.232  -3.802  1.00 20.00     0.010 C 
HETATM    4  C4  UNL     1     -33.776  15.191  -5.768  1.00 20.00     0.017 A 
HETATM    5  C5  UNL     1     -35.059  14.915  -5.045  1.00 20.00     0.009 A 
HETATM    6  C6  UNL     1     -34.170  16.073  -4.591  1.00 20.00    -0.028 A 
HETATM    7  C7  UNL     1     -34.495  17.569  -4.763  1.00 20.00    -0.040 C 
HETATM    8  C8  UNL     1     -35.920  17.907  -4.287  1.00 20.00     0.015 C 
HETATM    9  C9  UNL     1     -34.280  18.127  -6.172  1.00 20.00     0.015 C 
ENDROOT
BRANCH   5  10
HETATM   10  C10 UNL     1     -36.343  15.050  -5.786  1.00 20.00     0.120 C 
HETATM   11 CL11 UNL     1     -36.062  15.275  -7.535  1.00 20.00    -0.130 Cl
ENDBRANCH   5  10
TORSDOF 1
ENDMDL
MODEL 4
REMARK VINA RESULT:      -3.6     12.425     14.059
REMARK  1 active torsions:
REMARK  status: ('A' for Active; 'I' for Inactive)
REMARK    1  A    between atoms: C5_5  and  C10_10 
ROOT
HETATM    1  C1  UNL     1     -33.342  16.553  -2.721  1.00 20.00     0.002 C 
HETATM    2  C2  UNL     1     -33.708  15.503  -3.763  1.00 20.00     0.011 C 
HETATM    3  C3  UNL     1     -33.228  17.832  -3.536  1.00 20.00     0.010 C 
HETATM    4  C4  UNL     1     -34.366  15.711  -6.258  1.00 20.00     0.017 A 
HETATM    5  C5  UNL     1     -35.653  15.532  -5.513  1.00 20.00     0.009 A 
HETATM    6  C6  UNL     1     -34.483  16.251  -4.840  1.00 20.00    -0.028 A 
HETATM    7  C7  UNL     1     -34.420  17.758  -4.531  1.00 20.00    -0.040 C 
HETATM    8  C8  UNL     1     -35.695  18.255  -3.825  1.00 20.00     0.015 C 
HETATM    9  C9  UNL     1     -34.115  18.659  -5.730  1.00 20.00     0.015 C 
ENDROOT
BRANCH   5  10
HETATM   10  C10 UNL     1     -36.883  16.186  -6.037  1.00 20.00     0.120 C 
HETATM   11 CL11 UNL     1     -38.269  15.940  -4.938  1.00 20.00    -0.130 Cl
ENDBRANCH   5  10
TORSDOF 1
ENDMDL
MODEL 5
REMARK VINA RESULT:      -3.6     12.392     14.020
REMARK  1 active torsions:
REMARK  status: ('A' for Active; 'I' for Inactive)
REMARK    1  A    between atoms: C5_5  and  C10_10 
ROOT
HETATM    1  C1  UNL     1     -33.001  15.536  -3.772  1.00 20.00     0.002 C 
HETATM    2  C2  UNL     1     -33.713  16.884  -3.791  1.00 20.00     0.011 C 
HETATM    3  C3  UNL     1     -34.065  14.570  -4.269  1.00 20.00     0.010 C 
HETATM    4  C4  UNL     1     -36.014  17.601  -4.737  1.00 20.00     0.017 A 
HETATM    5  C5  UNL     1     -35.004  18.032  -5.756  1.00 20.00     0.009 A 
HETATM    6  C6  UNL     1     -34.741  16.785  -4.911  1.00 20.00    -0.028 A 
HETATM    7  C7  UNL     1     -34.764  15.335  -5.428  1.00 20.00    -0.040 C 
HETATM    8  C8  UNL     1     -33.932  15.169  -6.713  1.00 20.00     0.015 C 
HETATM    9  C9  UNL     1     -36.158  14.738  -5.641  1.00 20.00     0.015 C 
ENDROOT
BRANCH   5  10
HETATM   10  C10 UNL     1     -35.393  18.036  -7.193  1.00 20.00     0.120 C 
HETATM   11 CL11 UNL     1     -37.154  17.815  -7.390  1.00 20.00    -0.130 Cl
ENDBRANCH   5  10
TORSDOF 1
ENDMDL
MODEL 6
REMARK VINA RESULT:      -3.4     11.966     13.713
REMARK  1 active torsions:
REMARK  status: ('A' for Active; 'I' for Inactive)
REMARK    1  A    between atoms: C5_5  and  C10_10 
ROOT
HETATM    1  C1  UNL     1     -37.191  15.354  -5.447  1.00 20.00     0.002 C 
HETATM    2  C2  UNL     1     -36.738  16.791  -5.219  1.00 20.00     0.011 C 
HETATM    3  C3  UNL     1     -36.043  14.744  -6.236  1.00 20.00     0.010 C 
HETATM    4  C4  UNL     1     -34.478  17.973  -5.664  1.00 20.00     0.017 A 
HETATM    5  C5  UNL     1     -34.492  17.663  -4.199  1.00 20.00     0.009 A 
HETATM    6  C6  UNL     1     -35.216  16.735  -5.174  1.00 20.00    -0.028 A 
HETATM    7  C7  UNL     1     -34.767  15.312  -5.554  1.00 20.00    -0.040 C 
HETATM    8  C8  UNL     1     -34.440  14.462  -4.313  1.00 20.00     0.015 C 
HETATM    9  C9  UNL     1     -33.604  15.236  -6.547  1.00 20.00     0.015 C 
ENDROOT
BRANCH   5  10
HETATM   10  C10 UNL     1     -33.203  17.364  -3.517  1.00 20.00     0.120 C 
HETATM   11 CL11 UNL     1     -33.465  16.864  -1.823  1.00 20.00    -0.130 Cl
ENDBRANCH   5  10
TORSDOF 1
ENDMDL
MODEL 7
REMARK VINA RESULT:      -3.4      9.926     11.334
REMARK  1 active torsions:
REMARK  status: ('A' for Active; 'I' for Inactive)
REMARK    1  A    between atoms: C5_5  and  C10_10 
ROOT
HETATM    1  C1  UNL     1     -42.992  16.039   6.003  1.00 20.00     0.002 C 
HETATM    2  C2  UNL     1     -42.892  14.608   5.488  1.00 20.00     0.011 C 
HETATM    3  C3  UNL     1     -42.835  15.882   7.508  1.00 20.00     0.010 C 
HETATM    4  C4  UNL     1     -42.255  12.394   6.670  1.00 20.00     0.017 A 
HETATM    5  C5  UNL     1     -41.025  12.829   5.932  1.00 20.00     0.009 A 
HETATM    6  C6  UNL     1     -41.991  13.881   6.478  1.00 20.00    -0.028 A 
HETATM    7  C7  UNL     1     -41.710  14.821   7.665  1.00 20.00    -0.040 C 
HETATM    8  C8  UNL     1     -40.342  15.516   7.537  1.00 20.00     0.015 C 
HETATM    9  C9  UNL     1     -41.830  14.179   9.050  1.00 20.00     0.015 C 
ENDROOT
BRANCH   5  10
HETATM   10  C10 UNL     1     -39.691  12.500   6.505  1.00 20.00     0.120 C 
HETATM   11 CL11 UNL     1     -38.525  12.065   5.225  1.00 20.00    -0.130 Cl
ENDBRANCH   5  10
TORSDOF 1
ENDMDL
MODEL 8
REMARK VINA RESULT:      -3.4     10.305     11.459
REMARK  1 active torsions:
REMARK  status: ('A' for Active; 'I' for Inactive)
REMARK    1  A    between atoms: C5_5  and  C10_10 
ROOT
HETATM    1  C1  UNL     1     -41.029  12.499   5.950  1.00 20.00     0.002 C 
HETATM    2  C2  UNL     1     -40.018  13.250   6.809  1.00 20.00     0.011 C 
HETATM    3  C3  UNL     1     -42.285  12.499   6.807  1.00 20.00     0.010 C 
HETATM    4  C4  UNL     1     -40.283  14.574   9.018  1.00 20.00     0.017 A 
HETATM    5  C5  UNL     1     -40.241  15.603   7.930  1.00 20.00     0.009 A 
HETATM    6  C6  UNL     1     -40.837  14.225   7.644  1.00 20.00    -0.028 A 
HETATM    7  C7  UNL     1     -42.331  13.928   7.417  1.00 20.00    -0.040 C 
HETATM    8  C8  UNL     1     -42.960  14.892   6.393  1.00 20.00     0.015 C 
HETATM    9  C9  UNL     1     -43.191  13.895   8.683  1.00 20.00     0.015 C 
ENDROOT
BRANCH   5  10
HETATM   10  C10 UNL     1     -41.016  16.862   8.104  1.00 20.00     0.120 C 
HETATM   11 CL11 UNL     1     -40.394  18.159   7.046  1.00 20.00    -0.130 Cl
ENDBRANCH   5  10
TORSDOF 1
ENDMDL
MODEL 9
REMARK VINA RESULT:      -3.3     10.306     11.639
REMARK  1 active torsions:
REMARK  status: ('A' for Active; 'I' for Inactive)
REMARK    1  A    between atoms: C5_5  and  C10_10 
ROOT
HETATM    1  C1  UNL     1     -42.630  14.729   4.650  1.00 20.00     0.002 C 
HETATM    2  C2  UNL     1     -42.327  15.718   5.769  1.00 20.00     0.011 C 
HETATM    3  C3  UNL     1     -41.522  13.695   4.786  1.00 20.00     0.010 C 
HETATM    4  C4  UNL     1     -40.632  15.639   7.724  1.00 20.00     0.017 A 
HETATM    5  C5  UNL     1     -41.952  15.253   8.317  1.00 20.00     0.009 A 
HETATM    6  C6  UNL     1     -41.646  14.903   6.861  1.00 20.00    -0.028 A 
HETATM    7  C7  UNL     1     -41.383  13.485   6.320  1.00 20.00    -0.040 C 
HETATM    8  C8  UNL     1     -42.453  12.482   6.789  1.00 20.00     0.015 C 
HETATM    9  C9  UNL     1     -39.990  12.921   6.614  1.00 20.00     0.015 C 
ENDROOT
BRANCH   5  10
HETATM   10  C10 UNL     1     -41.975  14.290   9.452  1.00 20.00     0.120 C 
HETATM   11 CL11 UNL     1     -40.422  14.287  10.331  1.00 20.00    -0.130 Cl
ENDBRANCH   5  10
TORSDOF 1
ENDMDL
