MODEL 1
REMARK VINA RESULT:      -4.4      0.000      0.000
REMARK  0 active torsions:
REMARK  status: ('A' for Active; 'I' for Inactive)
ROOT
HETATM    1  C1  UNL     1     -35.002   5.419   6.148  1.00 20.00     0.006 C 
HETATM    2  C2  UNL     1     -33.544   5.896   6.023  1.00 20.00     0.038 C 
HETATM    3  C3  UNL     1     -35.104   5.518   4.616  1.00 20.00     0.038 C 
HETATM    4  C4  UNL     1     -31.984   8.479   4.561  1.00 20.00     0.046 C 
HETATM    5  C5  UNL     1     -32.939   6.375   3.508  1.00 20.00     0.058 C 
HETATM    6  C6  UNL     1     -33.368   8.899   5.056  1.00 20.00     0.170 C 
HETATM    7  C7  UNL     1     -32.061   7.618   3.303  1.00 20.00     0.087 C 
HETATM    8  C8  UNL     1     -33.939   6.553   4.658  1.00 20.00     0.062 C 
HETATM    9  O9  UNL     1     -34.371   7.933   4.737  1.00 20.00    -0.380 OA
HETATM   10 CL10 UNL     1     -32.692   8.599   1.935  1.00 20.00    -0.125 Cl
ENDROOT
TORSDOF 0
ENDMDL
MODEL 2
REMARK VINA RESULT:      -3.7      2.088      3.631
REMARK  0 active torsions:
REMARK  status: ('A' for Active; 'I' for Inactive)
ROOT
HETATM    1  C1  UNL     1     -32.464   9.343   4.473  1.00 20.00     0.006 C 
HETATM    2  C2  UNL     1     -33.813   8.634   4.264  1.00 20.00     0.038 C 
HETATM    3  C3  UNL     1     -31.776   8.031   4.060  1.00 20.00     0.038 C 
HETATM    4  C4  UNL     1     -35.213   5.784   5.339  1.00 20.00     0.046 C 
HETATM    5  C5  UNL     1     -33.442   6.128   3.554  1.00 20.00     0.058 C 
HETATM    6  C6  UNL     1     -34.293   6.366   6.412  1.00 20.00     0.170 C 
HETATM    7  C7  UNL     1     -34.430   5.144   4.197  1.00 20.00     0.087 C 
HETATM    8  C8  UNL     1     -33.068   7.278   4.499  1.00 20.00     0.062 C 
HETATM    9  O9  UNL     1     -33.048   6.811   5.871  1.00 20.00    -0.380 OA
HETATM   10 CL10 UNL     1     -33.553   3.695   4.798  1.00 20.00    -0.125 Cl
ENDROOT
TORSDOF 0
ENDMDL
MODEL 3
REMARK VINA RESULT:      -3.6      9.523     10.530
REMARK  0 active torsions:
REMARK  status: ('A' for Active; 'I' for Inactive)
ROOT
HETATM    1  C1  UNL     1     -39.382  12.117   4.772  1.00 20.00     0.006 C 
HETATM    2  C2  UNL     1     -40.569  13.094   4.824  1.00 20.00     0.038 C 
HETATM    3  C3  UNL     1     -40.053  11.331   5.910  1.00 20.00     0.038 C 
HETATM    4  C4  UNL     1     -42.095  14.886   7.211  1.00 20.00     0.046 C 
HETATM    5  C5  UNL     1     -42.256  12.401   6.719  1.00 20.00     0.058 C 
HETATM    6  C6  UNL     1     -40.600  14.765   7.505  1.00 20.00     0.170 C 
HETATM    7  C7  UNL     1     -42.844  13.588   7.497  1.00 20.00     0.087 C 
HETATM    8  C8  UNL     1     -40.799  12.642   6.304  1.00 20.00     0.062 C 
HETATM    9  O9  UNL     1     -40.117  13.436   7.307  1.00 20.00    -0.380 OA
HETATM   10 CL10 UNL     1     -42.812  13.245   9.261  1.00 20.00    -0.125 Cl
ENDROOT
TORSDOF 0
ENDMDL
MODEL 4
REMARK VINA RESULT:      -3.4     11.982     12.917
REMARK  0 active torsions:
REMARK  status: ('A' for Active; 'I' for Inactive)
ROOT
HETATM    1  C1  UNL     1     -32.689  17.795  -1.840  1.00 20.00     0.006 C 
HETATM    2  C2  UNL     1     -33.823  16.783  -2.077  1.00 20.00     0.038 C 
HETATM    3  C3  UNL     1     -32.954  18.336  -3.255  1.00 20.00     0.038 C 
HETATM    4  C4  UNL     1     -34.572  14.533  -4.447  1.00 20.00     0.046 C 
HETATM    5  C5  UNL     1     -34.820  17.059  -4.496  1.00 20.00     0.058 C 
HETATM    6  C6  UNL     1     -33.057  14.652  -4.280  1.00 20.00     0.170 C 
HETATM    7  C7  UNL     1     -35.163  15.731  -5.185  1.00 20.00     0.087 C 
HETATM    8  C8  UNL     1     -33.570  16.950  -3.612  1.00 20.00     0.062 C 
HETATM    9  O9  UNL     1     -32.629  16.012  -4.190  1.00 20.00    -0.380 OA
HETATM   10 CL10 UNL     1     -34.576  15.747  -6.884  1.00 20.00    -0.125 Cl
ENDROOT
TORSDOF 0
ENDMDL
MODEL 5
REMARK VINA RESULT:      -3.4     12.137     13.263
REMARK  0 active torsions:
REMARK  status: ('A' for Active; 'I' for Inactive)
ROOT
HETATM    1  C1  UNL     1     -33.112  18.557  -2.047  1.00 20.00     0.006 C 
HETATM    2  C2  UNL     1     -32.887  18.250  -3.538  1.00 20.00     0.038 C 
HETATM    3  C3  UNL     1     -33.536  17.089  -1.869  1.00 20.00     0.038 C 
HETATM    4  C4  UNL     1     -34.702  16.885  -6.004  1.00 20.00     0.046 C 
HETATM    5  C5  UNL     1     -33.508  15.750  -4.073  1.00 20.00     0.058 C 
HETATM    6  C6  UNL     1     -35.603  17.654  -5.038  1.00 20.00     0.170 C 
HETATM    7  C7  UNL     1     -34.229  15.559  -5.415  1.00 20.00     0.087 C 
HETATM    8  C8  UNL     1     -33.898  17.065  -3.385  1.00 20.00     0.062 C 
HETATM    9  O9  UNL     1     -35.281  17.389  -3.673  1.00 20.00    -0.380 OA
HETATM   10 CL10 UNL     1     -35.629  14.451  -5.210  1.00 20.00    -0.125 Cl
ENDROOT
TORSDOF 0
ENDMDL
MODEL 6
REMARK VINA RESULT:      -3.3     12.041     13.281
REMARK  0 active torsions:
REMARK  status: ('A' for Active; 'I' for Inactive)
ROOT
HETATM    1  C1  UNL     1     -36.238  15.919  -7.136  1.00 20.00     0.006 C 
HETATM    2  C2  UNL     1     -34.730  15.954  -6.833  1.00 20.00     0.038 C 
HETATM    3  C3  UNL     1     -36.453  16.766  -5.871  1.00 20.00     0.038 C 
HETATM    4  C4  UNL     1     -32.801  15.242  -4.185  1.00 20.00     0.046 C 
HETATM    5  C5  UNL     1     -34.263  17.274  -4.606  1.00 20.00     0.058 C 
HETATM    6  C6  UNL     1     -34.017  14.317  -4.226  1.00 20.00     0.170 C 
HETATM    7  C7  UNL     1     -33.167  16.652  -3.729  1.00 20.00     0.087 C 
HETATM    8  C8  UNL     1     -35.099  16.212  -5.334  1.00 20.00     0.062 C 
HETATM    9  O9  UNL     1     -35.224  15.025  -4.513  1.00 20.00    -0.380 OA
HETATM   10 CL10 UNL     1     -33.697  16.616  -2.012  1.00 20.00    -0.125 Cl
ENDROOT
TORSDOF 0
ENDMDL
MODEL 7
REMARK VINA RESULT:      -3.3     10.225     11.409
REMARK  0 active torsions:
REMARK  status: ('A' for Active; 'I' for Inactive)
ROOT
HETATM    1  C1  UNL     1     -41.412  15.931   9.905  1.00 20.00     0.006 C 
HETATM    2  C2  UNL     1     -41.960  15.849   8.470  1.00 20.00     0.038 C 
HETATM    3  C3  UNL     1     -40.205  15.105   9.430  1.00 20.00     0.038 C 
HETATM    4  C4  UNL     1     -42.574  13.389   6.277  1.00 20.00     0.046 C 
HETATM    5  C5  UNL     1     -40.356  14.425   6.947  1.00 20.00     0.058 C 
HETATM    6  C6  UNL     1     -42.818  12.906   7.706  1.00 20.00     0.170 C 
HETATM    7  C7  UNL     1     -41.087  13.507   5.957  1.00 20.00     0.087 C 
HETATM    8  C8  UNL     1     -41.103  14.553   8.281  1.00 20.00     0.062 C 
HETATM    9  O9  UNL     1     -41.779  13.311   8.598  1.00 20.00    -0.380 OA
HETATM   10 CL10 UNL     1     -40.335  11.875   5.958  1.00 20.00    -0.125 Cl
ENDROOT
TORSDOF 0
ENDMDL
MODEL 8
REMARK VINA RESULT:      -3.3     12.096     13.115
REMARK  0 active torsions:
REMARK  status: ('A' for Active; 'I' for Inactive)
ROOT
HETATM    1  C1  UNL     1     -34.299  15.769  -5.215  1.00 20.00     0.006 C 
HETATM    2  C2  UNL     1     -34.973  16.692  -4.185  1.00 20.00     0.038 C 
HETATM    3  C3  UNL     1     -33.217  15.479  -4.162  1.00 20.00     0.038 C 
HETATM    4  C4  UNL     1     -33.994  19.262  -2.268  1.00 20.00     0.046 C 
HETATM    5  C5  UNL     1     -33.570  16.778  -1.962  1.00 20.00     0.058 C 
HETATM    6  C6  UNL     1     -33.234  19.262  -3.594  1.00 20.00     0.170 C 
HETATM    7  C7  UNL     1     -33.499  18.172  -1.322  1.00 20.00     0.087 C 
HETATM    8  C8  UNL     1     -33.577  16.841  -3.495  1.00 20.00     0.062 C 
HETATM    9  O9  UNL     1     -32.775  17.958  -3.953  1.00 20.00    -0.380 OA
HETATM   10 CL10 UNL     1     -31.813  18.531  -0.813  1.00 20.00    -0.125 Cl
ENDROOT
TORSDOF 0
ENDMDL
MODEL 9
REMARK VINA RESULT:      -3.2     10.582     11.584
REMARK  0 active torsions:
REMARK  status: ('A' for Active; 'I' for Inactive)
ROOT
HETATM    1  C1  UNL     1     -40.762  12.171   6.142  1.00 20.00     0.006 C 
HETATM    2  C2  UNL     1     -40.408  13.668   6.196  1.00 20.00     0.038 C 
HETATM    3  C3  UNL     1     -42.152  12.540   6.686  1.00 20.00     0.038 C 
HETATM    4  C4  UNL     1     -40.537  16.078   8.522  1.00 20.00     0.046 C 
HETATM    5  C5  UNL     1     -42.421  15.061   7.158  1.00 20.00     0.058 C 
HETATM    6  C6  UNL     1     -40.230  14.727   9.168  1.00 20.00     0.170 C 
HETATM    7  C7  UNL     1     -42.000  16.195   8.104  1.00 20.00     0.087 C 
HETATM    8  C8  UNL     1     -41.516  13.829   7.289  1.00 20.00     0.062 C 
HETATM    9  O9  UNL     1     -41.062  13.684   8.658  1.00 20.00    -0.380 OA
HETATM   10 CL10 UNL     1     -43.050  16.204   9.562  1.00 20.00    -0.125 Cl
ENDROOT
TORSDOF 0
ENDMDL
