MODEL 1
REMARK VINA RESULT:      -4.7      0.000      0.000
REMARK  2 active torsions:
REMARK  status: ('A' for Active; 'I' for Inactive)
REMARK    1  A    between atoms: C3_3  and  C9_9 
REMARK    2  A    between atoms: C4_4  and  C10_10 
ROOT
HETATM    1  C1  UNL     1     -32.501   8.696   5.137  1.00 20.00     0.131 C 
HETATM    2  C2  UNL     1     -33.242   7.737   6.086  1.00 20.00     0.084 C 
HETATM    3  C3  UNL     1     -33.227   8.121   3.897  1.00 20.00     0.060 C 
HETATM    4  C4  UNL     1     -34.210   7.435   4.909  1.00 20.00     0.011 C 
HETATM    5  O11 UNL     1     -31.668   9.561   5.300  1.00 20.00    -0.298 OA
ENDROOT
BRANCH   4   6
HETATM    6  C10 UNL     1     -34.570   5.973   4.713  1.00 20.00    -0.047 C 
HETATM    7  C6  UNL     1     -34.529   5.232   6.064  1.00 20.00     0.015 C 
HETATM    8  C7  UNL     1     -33.569   5.306   3.749  1.00 20.00     0.015 C 
HETATM    9  C8  UNL     1     -35.988   5.853   4.122  1.00 20.00     0.015 C 
ENDBRANCH   4   6
BRANCH   3  10
HETATM   10  C9  UNL     1     -32.351   7.267   2.998  1.00 20.00     0.008 C 
HETATM   11  C5  UNL     1     -32.137   7.899   1.657  1.00 20.00     0.006 C 
ENDBRANCH   3  10
TORSDOF 2
ENDMDL
MODEL 2
REMARK VINA RESULT:      -4.1     10.162     11.042
REMARK  2 active torsions:
REMARK  status: ('A' for Active; 'I' for Inactive)
REMARK    1  A    between atoms: C3_3  and  C9_9 
REMARK    2  A    between atoms: C4_4  and  C10_10 
ROOT
HETATM    1  C1  UNL     1     -40.558  14.059   8.242  1.00 20.00     0.131 C 
HETATM    2  C2  UNL     1     -41.831  14.888   7.998  1.00 20.00     0.084 C 
HETATM    3  C3  UNL     1     -40.351  13.824   6.726  1.00 20.00     0.060 C 
HETATM    4  C4  UNL     1     -41.414  14.956   6.503  1.00 20.00     0.011 C 
HETATM    5  O11 UNL     1     -39.955  13.719   9.237  1.00 20.00    -0.298 OA
ENDROOT
BRANCH   4   6
HETATM    6  C10 UNL     1     -42.530  14.733   5.498  1.00 20.00    -0.047 C 
HETATM    7  C6  UNL     1     -41.938  14.414   4.112  1.00 20.00     0.015 C 
HETATM    8  C7  UNL     1     -43.403  15.998   5.388  1.00 20.00     0.015 C 
HETATM    9  C8  UNL     1     -43.416  13.553   5.945  1.00 20.00     0.015 C 
ENDBRANCH   4   6
BRANCH   3  10
HETATM   10  C9  UNL     1     -40.647  12.408   6.265  1.00 20.00     0.008 C 
HETATM   11  C5  UNL     1     -39.517  11.828   5.472  1.00 20.00     0.006 C 
ENDBRANCH   3  10
TORSDOF 2
ENDMDL
MODEL 3
REMARK VINA RESULT:      -4.0     11.786     13.472
REMARK  2 active torsions:
REMARK  status: ('A' for Active; 'I' for Inactive)
REMARK    1  A    between atoms: C3_3  and  C9_9 
REMARK    2  A    between atoms: C4_4  and  C10_10 
ROOT
HETATM    1  C1  UNL     1     -33.432  14.737  -4.625  1.00 20.00     0.131 C 
HETATM    2  C2  UNL     1     -34.118  15.210  -5.919  1.00 20.00     0.084 C 
HETATM    3  C3  UNL     1     -34.211  15.765  -3.768  1.00 20.00     0.060 C 
HETATM    4  C4  UNL     1     -35.137  15.961  -5.019  1.00 20.00     0.011 C 
HETATM    5  O11 UNL     1     -32.601  13.892  -4.375  1.00 20.00    -0.298 OA
ENDROOT
BRANCH   4   6
HETATM    6  C10 UNL     1     -35.493  17.369  -5.462  1.00 20.00    -0.047 C 
HETATM    7  C6  UNL     1     -34.223  18.118  -5.911  1.00 20.00     0.015 C 
HETATM    8  C7  UNL     1     -36.143  18.142  -4.298  1.00 20.00     0.015 C 
HETATM    9  C8  UNL     1     -36.484  17.317  -6.642  1.00 20.00     0.015 C 
ENDBRANCH   4   6
BRANCH   3  10
HETATM   10  C9  UNL     1     -33.371  16.924  -3.262  1.00 20.00     0.008 C 
HETATM   11  C5  UNL     1     -33.506  17.111  -1.783  1.00 20.00     0.006 C 
ENDBRANCH   3  10
TORSDOF 2
ENDMDL
MODEL 4
REMARK VINA RESULT:      -4.0     10.695     11.634
REMARK  2 active torsions:
REMARK  status: ('A' for Active; 'I' for Inactive)
REMARK    1  A    between atoms: C3_3  and  C9_9 
REMARK    2  A    between atoms: C4_4  and  C10_10 
ROOT
HETATM    1  C1  UNL     1     -42.089  14.465   4.498  1.00 20.00     0.131 C 
HETATM    2  C2  UNL     1     -42.489  15.670   5.368  1.00 20.00     0.084 C 
HETATM    3  C3  UNL     1     -41.807  13.588   5.742  1.00 20.00     0.060 C 
HETATM    4  C4  UNL     1     -42.558  14.688   6.569  1.00 20.00     0.011 C 
HETATM    5  O11 UNL     1     -42.018  14.280   3.303  1.00 20.00    -0.298 OA
ENDROOT
BRANCH   4   6
HETATM    6  C10 UNL     1     -41.942  15.188   7.864  1.00 20.00    -0.047 C 
HETATM    7  C6  UNL     1     -40.552  15.794   7.589  1.00 20.00     0.015 C 
HETATM    8  C7  UNL     1     -41.790  14.024   8.862  1.00 20.00     0.015 C 
HETATM    9  C8  UNL     1     -42.842  16.271   8.493  1.00 20.00     0.015 C 
ENDBRANCH   4   6
BRANCH   3  10
HETATM   10  C9  UNL     1     -40.334  13.323   6.000  1.00 20.00     0.008 C 
HETATM   11  C5  UNL     1     -40.004  11.864   5.922  1.00 20.00     0.006 C 
ENDBRANCH   3  10
TORSDOF 2
ENDMDL
MODEL 5
REMARK VINA RESULT:      -4.0     11.850     13.883
REMARK  2 active torsions:
REMARK  status: ('A' for Active; 'I' for Inactive)
REMARK    1  A    between atoms: C3_3  and  C9_9 
REMARK    2  A    between atoms: C4_4  and  C10_10 
ROOT
HETATM    1  C1  UNL     1     -35.700  14.082  -4.973  1.00 20.00     0.131 C 
HETATM    2  C2  UNL     1     -36.047  14.520  -6.407  1.00 20.00     0.084 C 
HETATM    3  C3  UNL     1     -35.178  15.493  -4.607  1.00 20.00     0.060 C 
HETATM    4  C4  UNL     1     -35.870  15.986  -5.925  1.00 20.00     0.011 C 
HETATM    5  O11 UNL     1     -35.796  13.037  -4.368  1.00 20.00    -0.298 OA
ENDROOT
BRANCH   4   6
HETATM    6  C10 UNL     1     -35.104  16.899  -6.865  1.00 20.00    -0.047 C 
HETATM    7  C6  UNL     1     -36.058  17.497  -7.917  1.00 20.00     0.015 C 
HETATM    8  C7  UNL     1     -33.998  16.106  -7.589  1.00 20.00     0.015 C 
HETATM    9  C8  UNL     1     -34.454  18.050  -6.071  1.00 20.00     0.015 C 
ENDBRANCH   4   6
BRANCH   3  10
HETATM   10  C9  UNL     1     -33.668  15.585  -4.468  1.00 20.00     0.008 C 
HETATM   11  C5  UNL     1     -33.262  16.190  -3.159  1.00 20.00     0.006 C 
ENDBRANCH   3  10
TORSDOF 2
ENDMDL
MODEL 6
REMARK VINA RESULT:      -4.0     11.708     13.620
REMARK  2 active torsions:
REMARK  status: ('A' for Active; 'I' for Inactive)
REMARK    1  A    between atoms: C3_3  and  C9_9 
REMARK    2  A    between atoms: C4_4  and  C10_10 
ROOT
HETATM    1  C1  UNL     1     -34.014  15.045  -4.069  1.00 20.00     0.131 C 
HETATM    2  C2  UNL     1     -33.485  16.064  -3.044  1.00 20.00     0.084 C 
HETATM    3  C3  UNL     1     -34.314  16.156  -5.105  1.00 20.00     0.060 C 
HETATM    4  C4  UNL     1     -33.445  17.099  -4.201  1.00 20.00     0.011 C 
HETATM    5  O11 UNL     1     -34.148  13.840  -4.064  1.00 20.00    -0.298 OA
ENDROOT
BRANCH   4   6
HETATM    6  C10 UNL     1     -33.967  18.484  -3.863  1.00 20.00    -0.047 C 
HETATM    7  C6  UNL     1     -32.913  19.263  -3.052  1.00 20.00     0.015 C 
HETATM    8  C7  UNL     1     -35.257  18.374  -3.027  1.00 20.00     0.015 C 
HETATM    9  C8  UNL     1     -34.276  19.263  -5.157  1.00 20.00     0.015 C 
ENDBRANCH   4   6
BRANCH   3  10
HETATM   10  C9  UNL     1     -35.791  16.448  -5.300  1.00 20.00     0.008 C 
HETATM   11  C5  UNL     1     -36.201  16.334  -6.736  1.00 20.00     0.006 C 
ENDBRANCH   3  10
TORSDOF 2
ENDMDL
MODEL 7
REMARK VINA RESULT:      -3.8      1.592      2.765
REMARK  2 active torsions:
REMARK  status: ('A' for Active; 'I' for Inactive)
REMARK    1  A    between atoms: C3_3  and  C9_9 
REMARK    2  A    between atoms: C4_4  and  C10_10 
ROOT
HETATM    1  C1  UNL     1     -32.451   7.114   2.381  1.00 20.00     0.131 C 
HETATM    2  C2  UNL     1     -33.460   5.972   2.598  1.00 20.00     0.084 C 
HETATM    3  C3  UNL     1     -32.366   7.403   3.900  1.00 20.00     0.060 C 
HETATM    4  C4  UNL     1     -33.090   6.027   4.105  1.00 20.00     0.011 C 
HETATM    5  O11 UNL     1     -31.930   7.599   1.401  1.00 20.00    -0.298 OA
ENDROOT
BRANCH   4   6
HETATM    6  C10 UNL     1     -34.257   5.944   5.072  1.00 20.00    -0.047 C 
HETATM    7  C6  UNL     1     -34.373   4.516   5.642  1.00 20.00     0.015 C 
HETATM    8  C7  UNL     1     -35.571   6.298   4.348  1.00 20.00     0.015 C 
HETATM    9  C8  UNL     1     -34.049   6.930   6.238  1.00 20.00     0.015 C 
ENDBRANCH   4   6
BRANCH   3  10
HETATM   10  C9  UNL     1     -33.050   8.688   4.332  1.00 20.00     0.008 C 
HETATM   11  C5  UNL     1     -32.110   9.611   5.045  1.00 20.00     0.006 C 
ENDBRANCH   3  10
TORSDOF 2
ENDMDL
MODEL 8
REMARK VINA RESULT:      -3.8     12.111     13.195
REMARK  2 active torsions:
REMARK  status: ('A' for Active; 'I' for Inactive)
REMARK    1  A    between atoms: C3_3  and  C9_9 
REMARK    2  A    between atoms: C4_4  and  C10_10 
ROOT
HETATM    1  C1  UNL     1     -35.394  18.246  -3.784  1.00 20.00     0.131 C 
HETATM    2  C2  UNL     1     -35.919  17.300  -4.879  1.00 20.00     0.084 C 
HETATM    3  C3  UNL     1     -33.996  17.581  -3.800  1.00 20.00     0.060 C 
HETATM    4  C4  UNL     1     -34.442  16.898  -5.140  1.00 20.00     0.011 C 
HETATM    5  O11 UNL     1     -35.886  19.155  -3.153  1.00 20.00    -0.298 OA
ENDROOT
BRANCH   4   6
HETATM    6  C10 UNL     1     -34.188  15.414  -5.333  1.00 20.00    -0.047 C 
HETATM    7  C6  UNL     1     -35.440  14.607  -4.936  1.00 20.00     0.015 C 
HETATM    8  C7  UNL     1     -33.005  14.961  -4.456  1.00 20.00     0.015 C 
HETATM    9  C8  UNL     1     -33.856  15.122  -6.810  1.00 20.00     0.015 C 
ENDBRANCH   4   6
BRANCH   3  10
HETATM   10  C9  UNL     1     -33.695  16.727  -2.581  1.00 20.00     0.008 C 
HETATM   11  C5  UNL     1     -32.962  17.495  -1.526  1.00 20.00     0.006 C 
ENDBRANCH   3  10
TORSDOF 2
ENDMDL
MODEL 9
REMARK VINA RESULT:      -3.7     12.146     14.315
REMARK  2 active torsions:
REMARK  status: ('A' for Active; 'I' for Inactive)
REMARK    1  A    between atoms: C3_3  and  C9_9 
REMARK    2  A    between atoms: C4_4  and  C10_10 
ROOT
HETATM    1  C1  UNL     1     -35.972  15.298  -6.785  1.00 20.00     0.131 C 
HETATM    2  C2  UNL     1     -36.420  16.769  -6.856  1.00 20.00     0.084 C 
HETATM    3  C3  UNL     1     -35.362  15.492  -5.376  1.00 20.00     0.060 C 
HETATM    4  C4  UNL     1     -36.143  16.852  -5.330  1.00 20.00     0.011 C 
HETATM    5  O11 UNL     1     -36.059  14.356  -7.542  1.00 20.00    -0.298 OA
ENDROOT
BRANCH   4   6
HETATM    6  C10 UNL     1     -35.421  18.103  -4.861  1.00 20.00    -0.047 C 
HETATM    7  C6  UNL     1     -36.423  19.262  -4.698  1.00 20.00     0.015 C 
HETATM    8  C7  UNL     1     -34.348  18.512  -5.889  1.00 20.00     0.015 C 
HETATM    9  C8  UNL     1     -34.737  17.840  -3.505  1.00 20.00     0.015 C 
ENDBRANCH   4   6
BRANCH   3  10
HETATM   10  C9  UNL     1     -33.844  15.492  -5.345  1.00 20.00     0.008 C 
HETATM   11  C5  UNL     1     -33.305  14.604  -4.266  1.00 20.00     0.006 C 
ENDBRANCH   3  10
TORSDOF 2
ENDMDL
