MODEL 1
REMARK VINA RESULT:      -4.0      0.000      0.000
REMARK  2 active torsions:
REMARK  status: ('A' for Active; 'I' for Inactive)
REMARK    1  A    between atoms: C4_4  and  C8_8 
REMARK    2  A    between atoms: C8_8  and  O9_9 
ROOT
HETATM    1  C1  UNL     1     -32.684  15.025  -4.289  1.00 20.00     0.018 A 
HETATM    2  C2  UNL     1     -34.159  17.120  -4.724  1.00 20.00     0.025 C 
HETATM    3  C3  UNL     1     -33.340  16.696  -2.416  1.00 20.00     0.084 C 
HETATM    4  C4  UNL     1     -34.059  14.634  -3.825  1.00 20.00     0.019 A 
HETATM    5  C5  UNL     1     -35.206  17.916  -3.952  1.00 20.00     0.044 C 
HETATM    6  C6  UNL     1     -33.620  16.090  -3.766  1.00 20.00    -0.025 A 
HETATM    7  C7  UNL     1     -35.519  19.256  -4.593  1.00 20.00     0.021 C 
HETATM    8  S10 UNL     1     -34.470  18.122  -2.301  1.00 20.00    -0.164 SA
ENDROOT
BRANCH   4   9
HETATM    9  C8  UNL     1     -35.066  14.131  -4.801  1.00 20.00     0.169 C 
BRANCH   9  10
HETATM   10  O9  UNL     1     -35.587  12.878  -4.359  1.00 20.00    -0.400 OA
HETATM   11  H24 UNL     1     -36.281  13.082  -3.714  1.00 20.00     0.209 HD
ENDBRANCH   9  10
ENDBRANCH   4   9
TORSDOF 2
ENDMDL
MODEL 2
REMARK VINA RESULT:      -3.6      1.383      1.578
REMARK  2 active torsions:
REMARK  status: ('A' for Active; 'I' for Inactive)
REMARK    1  A    between atoms: C4_4  and  C8_8 
REMARK    2  A    between atoms: C8_8  and  O9_9 
ROOT
HETATM    1  C1  UNL     1     -34.033  15.137  -6.081  1.00 20.00     0.018 A 
HETATM    2  C2  UNL     1     -34.589  17.331  -4.803  1.00 20.00     0.025 C 
HETATM    3  C3  UNL     1     -33.013  15.714  -3.766  1.00 20.00     0.084 C 
HETATM    4  C4  UNL     1     -35.051  14.738  -5.049  1.00 20.00     0.019 A 
HETATM    5  C5  UNL     1     -34.741  17.755  -3.347  1.00 20.00     0.044 C 
HETATM    6  C6  UNL     1     -34.110  15.902  -4.780  1.00 20.00    -0.025 A 
HETATM    7  C7  UNL     1     -34.771  19.263  -3.172  1.00 20.00     0.021 C 
HETATM    8  S10 UNL     1     -33.296  17.016  -2.522  1.00 20.00    -0.164 SA
ENDROOT
BRANCH   4   9
HETATM    9  C8  UNL     1     -36.505  14.917  -5.321  1.00 20.00     0.169 C 
BRANCH   9  10
HETATM   10  O9  UNL     1     -37.265  14.018  -4.513  1.00 20.00    -0.400 OA
HETATM   11  H24 UNL     1     -37.509  14.507  -3.714  1.00 20.00     0.209 HD
ENDBRANCH   9  10
ENDBRANCH   4   9
TORSDOF 2
ENDMDL
MODEL 3
REMARK VINA RESULT:      -3.4      2.768      3.322
REMARK  2 active torsions:
REMARK  status: ('A' for Active; 'I' for Inactive)
REMARK    1  A    between atoms: C4_4  and  C8_8 
REMARK    2  A    between atoms: C8_8  and  O9_9 
ROOT
HETATM    1  C1  UNL     1     -34.209  14.590  -4.013  1.00 20.00     0.018 A 
HETATM    2  C2  UNL     1     -35.540  16.453  -5.242  1.00 20.00     0.025 C 
HETATM    3  C3  UNL     1     -33.910  15.100  -6.540  1.00 20.00     0.084 C 
HETATM    4  C4  UNL     1     -33.256  15.749  -4.110  1.00 20.00     0.019 A 
HETATM    5  C5  UNL     1     -35.281  17.428  -6.385  1.00 20.00     0.044 C 
HETATM    6  C6  UNL     1     -34.331  15.557  -5.169  1.00 20.00    -0.025 A 
HETATM    7  C7  UNL     1     -36.549  18.091  -6.894  1.00 20.00     0.021 C 
HETATM    8  S10 UNL     1     -34.504  16.401  -7.670  1.00 20.00    -0.164 SA
ENDROOT
BRANCH   4   9
HETATM    9  C8  UNL     1     -33.299  16.842  -3.100  1.00 20.00     0.169 C 
BRANCH   9  10
HETATM   10  O9  UNL     1     -33.782  16.335  -1.855  1.00 20.00    -0.400 OA
HETATM   11  H24 UNL     1     -34.738  16.216  -1.960  1.00 20.00     0.209 HD
ENDBRANCH   9  10
ENDBRANCH   4   9
TORSDOF 2
ENDMDL
MODEL 4
REMARK VINA RESULT:      -3.4     12.471     13.197
REMARK  2 active torsions:
REMARK  status: ('A' for Active; 'I' for Inactive)
REMARK    1  A    between atoms: C4_4  and  C8_8 
REMARK    2  A    between atoms: C8_8  and  O9_9 
ROOT
HETATM    1  C1  UNL     1     -41.895  12.628   6.273  1.00 20.00     0.018 A 
HETATM    2  C2  UNL     1     -40.986  13.848   8.381  1.00 20.00     0.025 C 
HETATM    3  C3  UNL     1     -41.734  15.213   6.445  1.00 20.00     0.084 C 
HETATM    4  C4  UNL     1     -40.479  12.997   5.928  1.00 20.00     0.019 A 
HETATM    5  C5  UNL     1     -40.195  15.119   8.669  1.00 20.00     0.044 C 
HETATM    6  C6  UNL     1     -41.273  13.855   6.902  1.00 20.00    -0.025 A 
HETATM    7  C7  UNL     1     -40.213  15.504  10.138  1.00 20.00     0.021 C 
HETATM    8  S10 UNL     1     -41.005  16.381   7.638  1.00 20.00    -0.164 SA
ENDROOT
BRANCH   4   9
HETATM    9  C8  UNL     1     -39.351  12.121   6.353  1.00 20.00     0.169 C 
BRANCH   9  10
HETATM   10  O9  UNL     1     -38.172  12.459   5.623  1.00 20.00    -0.400 OA
HETATM   11  H24 UNL     1     -38.299  13.363   5.300  1.00 20.00     0.209 HD
ENDBRANCH   9  10
ENDBRANCH   4   9
TORSDOF 2
ENDMDL
MODEL 5
REMARK VINA RESULT:      -3.4      1.597      1.920
REMARK  2 active torsions:
REMARK  status: ('A' for Active; 'I' for Inactive)
REMARK    1  A    between atoms: C4_4  and  C8_8 
REMARK    2  A    between atoms: C8_8  and  O9_9 
ROOT
HETATM    1  C1  UNL     1     -34.168  15.492  -6.291  1.00 20.00     0.018 A 
HETATM    2  C2  UNL     1     -36.196  17.056  -5.845  1.00 20.00     0.025 C 
HETATM    3  C3  UNL     1     -34.115  17.398  -4.530  1.00 20.00     0.084 C 
HETATM    4  C4  UNL     1     -34.812  14.948  -5.046  1.00 20.00     0.019 A 
HETATM    5  C5  UNL     1     -36.792  17.779  -4.643  1.00 20.00     0.044 C 
HETATM    6  C6  UNL     1     -34.910  16.431  -5.368  1.00 20.00    -0.025 A 
HETATM    7  C7  UNL     1     -37.824  18.822  -5.034  1.00 20.00     0.021 C 
HETATM    8  S10 UNL     1     -35.353  18.537  -3.828  1.00 20.00    -0.164 SA
ENDROOT
BRANCH   4   9
HETATM    9  C8  UNL     1     -35.972  14.018  -5.146  1.00 20.00     0.169 C 
BRANCH   9  10
HETATM   10  O9  UNL     1     -35.725  12.847  -4.368  1.00 20.00    -0.400 OA
HETATM   11  H24 UNL     1     -35.131  13.115  -3.650  1.00 20.00     0.209 HD
ENDBRANCH   9  10
ENDBRANCH   4   9
TORSDOF 2
ENDMDL
MODEL 6
REMARK VINA RESULT:      -3.4      2.190      3.242
REMARK  2 active torsions:
REMARK  status: ('A' for Active; 'I' for Inactive)
REMARK    1  A    between atoms: C4_4  and  C8_8 
REMARK    2  A    between atoms: C8_8  and  O9_9 
ROOT
HETATM    1  C1  UNL     1     -36.032  17.313  -6.354  1.00 20.00     0.018 A 
HETATM    2  C2  UNL     1     -34.815  17.004  -4.078  1.00 20.00     0.025 C 
HETATM    3  C3  UNL     1     -34.254  18.984  -5.471  1.00 20.00     0.084 C 
HETATM    4  C4  UNL     1     -34.687  16.740  -6.707  1.00 20.00     0.019 A 
HETATM    5  C5  UNL     1     -33.432  17.305  -3.513  1.00 20.00     0.044 C 
HETATM    6  C6  UNL     1     -34.845  17.599  -5.462  1.00 20.00    -0.025 A 
HETATM    7  C7  UNL     1     -33.375  17.189  -2.000  1.00 20.00     0.021 C 
HETATM    8  S10 UNL     1     -33.094  19.006  -4.065  1.00 20.00    -0.164 SA
ENDROOT
BRANCH   4   9
HETATM    9  C8  UNL     1     -34.461  15.268  -6.652  1.00 20.00     0.169 C 
BRANCH   9  10
HETATM   10  O9  UNL     1     -33.182  14.952  -7.202  1.00 20.00    -0.400 OA
HETATM   11  H24 UNL     1     -32.526  15.225  -6.544  1.00 20.00     0.209 HD
ENDBRANCH   9  10
ENDBRANCH   4   9
TORSDOF 2
ENDMDL
MODEL 7
REMARK VINA RESULT:      -3.4      3.318      4.598
REMARK  2 active torsions:
REMARK  status: ('A' for Active; 'I' for Inactive)
REMARK    1  A    between atoms: C4_4  and  C8_8 
REMARK    2  A    between atoms: C8_8  and  O9_9 
ROOT
HETATM    1  C1  UNL     1     -31.856  18.889  -1.053  1.00 20.00     0.018 A 
HETATM    2  C2  UNL     1     -32.879  16.955  -2.456  1.00 20.00     0.025 C 
HETATM    3  C3  UNL     1     -32.923  19.258  -3.389  1.00 20.00     0.084 C 
HETATM    4  C4  UNL     1     -33.340  18.996  -0.838  1.00 20.00     0.019 A 
HETATM    5  C5  UNL     1     -34.036  16.790  -3.436  1.00 20.00     0.044 C 
HETATM    6  C6  UNL     1     -32.799  18.426  -2.140  1.00 20.00    -0.025 A 
HETATM    7  C7  UNL     1     -33.979  15.481  -4.201  1.00 20.00     0.021 C 
HETATM    8  S10 UNL     1     -33.875  18.221  -4.548  1.00 20.00    -0.164 SA
ENDROOT
BRANCH   4   9
HETATM    9  C8  UNL     1     -34.010  18.159   0.196  1.00 20.00     0.169 C 
BRANCH   9  10
HETATM   10  O9  UNL     1     -33.220  18.130   1.385  1.00 20.00    -0.400 OA
HETATM   11  H24 UNL     1     -32.301  18.264   1.107  1.00 20.00     0.209 HD
ENDBRANCH   9  10
ENDBRANCH   4   9
TORSDOF 2
ENDMDL
MODEL 8
REMARK VINA RESULT:      -3.3     17.481     18.389
REMARK  2 active torsions:
REMARK  status: ('A' for Active; 'I' for Inactive)
REMARK    1  A    between atoms: C4_4  and  C8_8 
REMARK    2  A    between atoms: C8_8  and  O9_9 
ROOT
HETATM    1  C1  UNL     1     -21.650  18.502  10.924  1.00 20.00     0.018 A 
HETATM    2  C2  UNL     1     -24.102  19.163  11.476  1.00 20.00     0.025 C 
HETATM    3  C3  UNL     1     -23.403  16.800  11.799  1.00 20.00     0.084 C 
HETATM    4  C4  UNL     1     -22.450  18.055   9.732  1.00 20.00     0.019 A 
HETATM    5  C5  UNL     1     -25.472  18.499  11.397  1.00 20.00     0.044 C 
HETATM    6  C6  UNL     1     -23.096  18.103  11.108  1.00 20.00    -0.025 A 
HETATM    7  C7  UNL     1     -26.542  19.261  12.157  1.00 20.00     0.021 C 
HETATM    8  S10 UNL     1     -25.199  16.845  12.106  1.00 20.00    -0.164 SA
ENDROOT
BRANCH   4   9
HETATM    9  C8  UNL     1     -22.782  19.020   8.647  1.00 20.00     0.169 C 
BRANCH   9  10
HETATM   10  O9  UNL     1     -22.534  18.424   7.374  1.00 20.00    -0.400 OA
HETATM   11  H24 UNL     1     -21.912  17.697   7.527  1.00 20.00     0.209 HD
ENDBRANCH   9  10
ENDBRANCH   4   9
TORSDOF 2
ENDMDL
MODEL 9
REMARK VINA RESULT:      -3.2      2.491      3.439
REMARK  2 active torsions:
REMARK  status: ('A' for Active; 'I' for Inactive)
REMARK    1  A    between atoms: C4_4  and  C8_8 
REMARK    2  A    between atoms: C8_8  and  O9_9 
ROOT
HETATM    1  C1  UNL     1     -35.723  16.867  -6.988  1.00 20.00     0.018 A 
HETATM    2  C2  UNL     1     -34.632  17.004  -4.633  1.00 20.00     0.025 C 
HETATM    3  C3  UNL     1     -33.983  15.138  -6.140  1.00 20.00     0.084 C 
HETATM    4  C4  UNL     1     -36.477  15.870  -6.152  1.00 20.00     0.019 A 
HETATM    5  C5  UNL     1     -34.135  16.016  -3.584  1.00 20.00     0.044 C 
HETATM    6  C6  UNL     1     -35.022  16.184  -5.835  1.00 20.00    -0.025 A 
HETATM    7  C7  UNL     1     -33.292  16.673  -2.506  1.00 20.00     0.021 C 
HETATM    8  S10 UNL     1     -33.170  14.807  -4.543  1.00 20.00    -0.164 SA
ENDROOT
BRANCH   4   9
HETATM    9  C8  UNL     1     -37.608  16.316  -5.292  1.00 20.00     0.169 C 
BRANCH   9  10
HETATM   10  O9  UNL     1     -38.214  15.187  -4.662  1.00 20.00    -0.400 OA
HETATM   11  H24 UNL     1     -39.096  15.096  -5.054  1.00 20.00     0.209 HD
ENDBRANCH   9  10
ENDBRANCH   4   9
TORSDOF 2
ENDMDL
