MODEL 1
REMARK VINA RESULT:      -3.9      0.000      0.000
REMARK  1 active torsions:
REMARK  status: ('A' for Active; 'I' for Inactive)
REMARK    1  A    between atoms: C4_4  and  C8_8 
ROOT
HETATM    1  C1  UNL     1     -33.443   8.069   4.600  1.00 20.00     0.136 C 
HETATM    2  C2  UNL     1     -32.594   7.727   3.361  1.00 20.00     0.084 C 
HETATM    3  C3  UNL     1     -32.746   6.231   3.751  1.00 20.00     0.004 C 
HETATM    4  C4  UNL     1     -33.913   6.588   4.757  1.00 20.00     0.020 C 
HETATM    5  C5  UNL     1     -33.022   5.276   2.603  1.00 20.00     0.011 C 
HETATM    6  C6  UNL     1     -35.348   6.372   4.282  1.00 20.00     0.024 C 
HETATM    7  O9  UNL     1     -33.661   9.096   5.207  1.00 20.00    -0.297 OA
ENDROOT
BRANCH   4   8
HETATM    8  C8  UNL     1     -33.695   6.019   6.157  1.00 20.00     0.013 C 
HETATM    9  C7  UNL     1     -34.796   5.088   6.552  1.00 20.00     0.006 C 
ENDBRANCH   4   8
TORSDOF 1
ENDMDL
MODEL 2
REMARK VINA RESULT:      -3.8      1.790      3.040
REMARK  1 active torsions:
REMARK  status: ('A' for Active; 'I' for Inactive)
REMARK    1  A    between atoms: C4_4  and  C8_8 
ROOT
HETATM    1  C1  UNL     1     -34.471   5.818   6.207  1.00 20.00     0.136 C 
HETATM    2  C2  UNL     1     -33.845   7.201   6.466  1.00 20.00     0.084 C 
HETATM    3  C3  UNL     1     -33.362   7.187   4.990  1.00 20.00     0.004 C 
HETATM    4  C4  UNL     1     -34.333   5.983   4.660  1.00 20.00     0.020 C 
HETATM    5  C5  UNL     1     -33.519   8.495   4.233  1.00 20.00     0.011 C 
HETATM    6  C6  UNL     1     -35.661   6.308   3.982  1.00 20.00     0.024 C 
HETATM    7  O9  UNL     1     -34.906   4.948   6.931  1.00 20.00    -0.297 OA
ENDROOT
BRANCH   4   8
HETATM    8  C8  UNL     1     -33.627   4.813   3.978  1.00 20.00     0.013 C 
HETATM    9  C7  UNL     1     -33.098   5.195   2.634  1.00 20.00     0.006 C 
ENDBRANCH   4   8
TORSDOF 1
ENDMDL
MODEL 3
REMARK VINA RESULT:      -3.7      9.196     10.487
REMARK  1 active torsions:
REMARK  status: ('A' for Active; 'I' for Inactive)
REMARK    1  A    between atoms: C4_4  and  C8_8 
ROOT
HETATM    1  C1  UNL     1     -42.852   4.959  -0.767  1.00 20.00     0.136 C 
HETATM    2  C2  UNL     1     -43.417   4.202   0.449  1.00 20.00     0.084 C 
HETATM    3  C3  UNL     1     -42.651   5.210   1.350  1.00 20.00     0.004 C 
HETATM    4  C4  UNL     1     -42.422   6.173   0.117  1.00 20.00     0.020 C 
HETATM    5  C5  UNL     1     -43.413   5.721   2.560  1.00 20.00     0.011 C 
HETATM    6  C6  UNL     1     -43.358   7.370  -0.031  1.00 20.00     0.024 C 
HETATM    7  O9  UNL     1     -42.780   4.706  -1.950  1.00 20.00    -0.297 OA
ENDROOT
BRANCH   4   8
HETATM    8  C8  UNL     1     -40.961   6.579  -0.064  1.00 20.00     0.013 C 
HETATM    9  C7  UNL     1     -40.795   8.064  -0.046  1.00 20.00     0.006 C 
ENDBRANCH   4   8
TORSDOF 1
ENDMDL
MODEL 4
REMARK VINA RESULT:      -3.6      9.475     10.663
REMARK  1 active torsions:
REMARK  status: ('A' for Active; 'I' for Inactive)
REMARK    1  A    between atoms: C4_4  and  C8_8 
ROOT
HETATM    1  C1  UNL     1     -42.386  12.626   7.152  1.00 20.00     0.136 C 
HETATM    2  C2  UNL     1     -42.226  13.763   8.178  1.00 20.00     0.084 C 
HETATM    3  C3  UNL     1     -40.795  13.981   7.616  1.00 20.00     0.004 C 
HETATM    4  C4  UNL     1     -41.134  13.099   6.348  1.00 20.00     0.020 C 
HETATM    5  C5  UNL     1     -40.377  15.429   7.423  1.00 20.00     0.011 C 
HETATM    6  C6  UNL     1     -41.503  13.827   5.057  1.00 20.00     0.024 C 
HETATM    7  O9  UNL     1     -43.184  11.722   7.023  1.00 20.00    -0.297 OA
ENDROOT
BRANCH   4   8
HETATM    8  C8  UNL     1     -40.112  11.994   6.094  1.00 20.00     0.013 C 
HETATM    9  C7  UNL     1     -39.602  12.024   4.690  1.00 20.00     0.006 C 
ENDBRANCH   4   8
TORSDOF 1
ENDMDL
MODEL 5
REMARK VINA RESULT:      -3.5     12.230     13.217
REMARK  1 active torsions:
REMARK  status: ('A' for Active; 'I' for Inactive)
REMARK    1  A    between atoms: C4_4  and  C8_8 
ROOT
HETATM    1  C1  UNL     1     -34.415  18.893  -0.888  1.00 20.00     0.136 C 
HETATM    2  C2  UNL     1     -33.526  19.263   0.314  1.00 20.00     0.084 C 
HETATM    3  C3  UNL     1     -32.541  18.158  -0.158  1.00 20.00     0.004 C 
HETATM    4  C4  UNL     1     -33.264  18.083  -1.563  1.00 20.00     0.020 C 
HETATM    5  C5  UNL     1     -31.068  18.521  -0.099  1.00 20.00     0.011 C 
HETATM    6  C6  UNL     1     -32.623  18.831  -2.730  1.00 20.00     0.024 C 
HETATM    7  O9  UNL     1     -35.563  19.145  -1.188  1.00 20.00    -0.297 OA
ENDROOT
BRANCH   4   8
HETATM    8  C8  UNL     1     -33.661  16.663  -1.959  1.00 20.00     0.013 C 
HETATM    9  C7  UNL     1     -33.280  16.356  -3.371  1.00 20.00     0.006 C 
ENDBRANCH   4   8
TORSDOF 1
ENDMDL
MODEL 6
REMARK VINA RESULT:      -3.5     12.669     13.991
REMARK  1 active torsions:
REMARK  status: ('A' for Active; 'I' for Inactive)
REMARK    1  A    between atoms: C4_4  and  C8_8 
ROOT
HETATM    1  C1  UNL     1     -34.436  15.273  -6.900  1.00 20.00     0.136 C 
HETATM    2  C2  UNL     1     -35.937  15.148  -7.222  1.00 20.00     0.084 C 
HETATM    3  C3  UNL     1     -36.210  15.309  -5.701  1.00 20.00     0.004 C 
HETATM    4  C4  UNL     1     -34.731  15.818  -5.466  1.00 20.00     0.020 C 
HETATM    5  C5  UNL     1     -37.373  16.213  -5.333  1.00 20.00     0.011 C 
HETATM    6  C6  UNL     1     -34.510  17.325  -5.352  1.00 20.00     0.024 C 
HETATM    7  O9  UNL     1     -33.424  15.042  -7.526  1.00 20.00    -0.297 OA
ENDROOT
BRANCH   4   8
HETATM    8  C8  UNL     1     -34.004  15.060  -4.358  1.00 20.00     0.013 C 
HETATM    9  C7  UNL     1     -33.382  15.991  -3.368  1.00 20.00     0.006 C 
ENDBRANCH   4   8
TORSDOF 1
ENDMDL
MODEL 7
REMARK VINA RESULT:      -3.4     15.249     16.444
REMARK  1 active torsions:
REMARK  status: ('A' for Active; 'I' for Inactive)
REMARK    1  A    between atoms: C4_4  and  C8_8 
ROOT
HETATM    1  C1  UNL     1     -24.496  18.738   9.896  1.00 20.00     0.136 C 
HETATM    2  C2  UNL     1     -22.972  18.917  10.026  1.00 20.00     0.084 C 
HETATM    3  C3  UNL     1     -23.163  18.866  11.566  1.00 20.00     0.004 C 
HETATM    4  C4  UNL     1     -24.629  18.300  11.389  1.00 20.00     0.020 C 
HETATM    5  C5  UNL     1     -22.138  18.046  12.330  1.00 20.00     0.011 C 
HETATM    6  C6  UNL     1     -24.831  16.795  11.545  1.00 20.00     0.024 C 
HETATM    7  O9  UNL     1     -25.280  18.879   8.981  1.00 20.00    -0.297 OA
ENDROOT
BRANCH   4   8
HETATM    8  C8  UNL     1     -25.677  19.090  12.170  1.00 20.00     0.013 C 
HETATM    9  C7  UNL     1     -26.944  18.315  12.332  1.00 20.00     0.006 C 
ENDBRANCH   4   8
TORSDOF 1
ENDMDL
MODEL 8
REMARK VINA RESULT:      -3.4      9.474     10.700
REMARK  1 active torsions:
REMARK  status: ('A' for Active; 'I' for Inactive)
REMARK    1  A    between atoms: C4_4  and  C8_8 
ROOT
HETATM    1  C1  UNL     1     -41.937  13.780   4.986  1.00 20.00     0.136 C 
HETATM    2  C2  UNL     1     -43.266  13.793   5.764  1.00 20.00     0.084 C 
HETATM    3  C3  UNL     1     -42.600  12.835   6.789  1.00 20.00     0.004 C 
HETATM    4  C4  UNL     1     -41.170  13.156   6.195  1.00 20.00     0.020 C 
HETATM    5  C5  UNL     1     -42.881  13.137   8.251  1.00 20.00     0.011 C 
HETATM    6  C6  UNL     1     -40.308  14.176   6.935  1.00 20.00     0.024 C 
HETATM    7  O9  UNL     1     -41.618  14.128   3.869  1.00 20.00    -0.297 OA
ENDROOT
BRANCH   4   8
HETATM    8  C8  UNL     1     -40.373  11.904   5.837  1.00 20.00     0.013 C 
HETATM    9  C7  UNL     1     -38.910  12.190   5.737  1.00 20.00     0.006 C 
ENDBRANCH   4   8
TORSDOF 1
ENDMDL
MODEL 9
REMARK VINA RESULT:      -3.2     12.530     14.164
REMARK  1 active torsions:
REMARK  status: ('A' for Active; 'I' for Inactive)
REMARK    1  A    between atoms: C4_4  and  C8_8 
ROOT
HETATM    1  C1  UNL     1     -35.317  14.809  -5.749  1.00 20.00     0.136 C 
HETATM    2  C2  UNL     1     -34.482  14.357  -4.536  1.00 20.00     0.084 C 
HETATM    3  C3  UNL     1     -33.776  15.739  -4.590  1.00 20.00     0.004 C 
HETATM    4  C4  UNL     1     -34.897  16.300  -5.554  1.00 20.00     0.020 C 
HETATM    5  C5  UNL     1     -33.546  16.413  -3.248  1.00 20.00     0.011 C 
HETATM    6  C6  UNL     1     -36.005  17.148  -4.934  1.00 20.00     0.024 C 
HETATM    7  O9  UNL     1     -36.027  14.226  -6.540  1.00 20.00    -0.297 OA
ENDROOT
BRANCH   4   8
HETATM    8  C8  UNL     1     -34.334  16.951  -6.815  1.00 20.00     0.013 C 
HETATM    9  C7  UNL     1     -34.797  18.364  -6.962  1.00 20.00     0.006 C 
ENDBRANCH   4   8
TORSDOF 1
ENDMDL
