MODEL 1
REMARK VINA RESULT:      -4.2      0.000      0.000
REMARK  3 active torsions:
REMARK  status: ('A' for Active; 'I' for Inactive)
REMARK    1  A    between atoms: C2_2  and  C7_7 
REMARK    2  A    between atoms: C3_3  and  C9_9 
REMARK    3  A    between atoms: C8_8  and  C9_9 
ROOT
HETATM    1  C1  UNL     1     -31.576   7.423   3.631  1.00 20.00     0.016 A 
HETATM    2  C2  UNL     1     -32.301   7.775   2.363  1.00 20.00     0.009 A 
HETATM    3  C3  UNL     1     -32.902   6.746   3.321  1.00 20.00    -0.036 A 
HETATM    4  C4  UNL     1     -32.872   5.304   2.888  1.00 20.00     0.016 C 
ENDROOT
BRANCH   3   5
HETATM    5  C9  UNL     1     -34.097   7.109   4.162  1.00 20.00    -0.010 C 
HETATM    6  C6  UNL     1     -35.030   5.898   4.326  1.00 20.00     0.011 C 
BRANCH   5   7
HETATM    7  C8  UNL     1     -33.714   7.642   5.565  1.00 20.00     0.000 C 
HETATM    8  C5  UNL     1     -34.135   6.712   6.695  1.00 20.00     0.005 C 
ENDBRANCH   5   7
ENDBRANCH   3   5
BRANCH   2   9
HETATM    9  C7  UNL     1     -32.877   9.137   2.180  1.00 20.00     0.120 C 
HETATM   10 CL10 UNL     1     -32.771   9.660   0.477  1.00 20.00    -0.130 Cl
ENDBRANCH   2   9
TORSDOF 3
ENDMDL
MODEL 2
REMARK VINA RESULT:      -4.0      2.615      3.925
REMARK  3 active torsions:
REMARK  status: ('A' for Active; 'I' for Inactive)
REMARK    1  A    between atoms: C2_2  and  C7_7 
REMARK    2  A    between atoms: C3_3  and  C9_9 
REMARK    3  A    between atoms: C8_8  and  C9_9 
ROOT
HETATM    1  C1  UNL     1     -35.240   5.928   4.260  1.00 20.00     0.016 A 
HETATM    2  C2  UNL     1     -34.369   4.954   5.001  1.00 20.00     0.009 A 
HETATM    3  C3  UNL     1     -33.814   5.695   3.785  1.00 20.00    -0.036 A 
HETATM    4  C4  UNL     1     -33.614   4.895   2.524  1.00 20.00     0.016 C 
ENDROOT
BRANCH   3   5
HETATM    5  C9  UNL     1     -32.815   6.806   3.972  1.00 20.00    -0.010 C 
HETATM    6  C6  UNL     1     -32.007   7.028   2.682  1.00 20.00     0.011 C 
BRANCH   5   7
HETATM    7  C8  UNL     1     -33.465   8.146   4.394  1.00 20.00     0.000 C 
HETATM    8  C5  UNL     1     -32.485   9.107   5.053  1.00 20.00     0.005 C 
ENDBRANCH   5   7
ENDBRANCH   3   5
BRANCH   2   9
HETATM    9  C7  UNL     1     -33.928   5.249   6.393  1.00 20.00     0.120 C 
HETATM   10 CL10 UNL     1     -34.636   6.777   6.985  1.00 20.00    -0.130 Cl
ENDBRANCH   2   9
TORSDOF 3
ENDMDL
MODEL 3
REMARK VINA RESULT:      -3.7      1.466      2.979
REMARK  3 active torsions:
REMARK  status: ('A' for Active; 'I' for Inactive)
REMARK    1  A    between atoms: C2_2  and  C7_7 
REMARK    2  A    between atoms: C3_3  and  C9_9 
REMARK    3  A    between atoms: C8_8  and  C9_9 
ROOT
HETATM    1  C1  UNL     1     -34.163   8.296   4.336  1.00 20.00     0.016 A 
HETATM    2  C2  UNL     1     -32.730   8.292   4.790  1.00 20.00     0.009 A 
HETATM    3  C3  UNL     1     -33.725   7.312   5.411  1.00 20.00    -0.036 A 
HETATM    4  C4  UNL     1     -34.160   7.579   6.828  1.00 20.00     0.016 C 
ENDROOT
BRANCH   3   5
HETATM    5  C9  UNL     1     -33.666   5.851   5.052  1.00 20.00    -0.010 C 
HETATM    6  C6  UNL     1     -34.427   5.009   6.090  1.00 20.00     0.011 C 
BRANCH   5   7
HETATM    7  C8  UNL     1     -34.234   5.546   3.644  1.00 20.00     0.000 C 
HETATM    8  C5  UNL     1     -33.214   4.910   2.711  1.00 20.00     0.005 C 
ENDBRANCH   5   7
ENDBRANCH   3   5
BRANCH   2   9
HETATM    9  C7  UNL     1     -31.649   7.860   3.860  1.00 20.00     0.120 C 
HETATM   10 CL10 UNL     1     -32.123   8.112   2.157  1.00 20.00    -0.130 Cl
ENDBRANCH   2   9
TORSDOF 3
ENDMDL
MODEL 4
REMARK VINA RESULT:      -3.5      9.826     10.909
REMARK  3 active torsions:
REMARK  status: ('A' for Active; 'I' for Inactive)
REMARK    1  A    between atoms: C2_2  and  C7_7 
REMARK    2  A    between atoms: C3_3  and  C9_9 
REMARK    3  A    between atoms: C8_8  and  C9_9 
ROOT
HETATM    1  C1  UNL     1     -41.844  12.778   6.706  1.00 20.00     0.016 A 
HETATM    2  C2  UNL     1     -40.850  12.992   5.601  1.00 20.00     0.009 A 
HETATM    3  C3  UNL     1     -41.336  14.184   6.426  1.00 20.00    -0.036 A 
HETATM    4  C4  UNL     1     -42.274  15.150   5.752  1.00 20.00     0.016 C 
ENDROOT
BRANCH   3   5
HETATM    5  C9  UNL     1     -40.422  14.821   7.438  1.00 20.00    -0.010 C 
HETATM    6  C6  UNL     1     -40.610  16.348   7.450  1.00 20.00     0.011 C 
BRANCH   5   7
HETATM    7  C8  UNL     1     -40.629  14.278   8.873  1.00 20.00     0.000 C 
HETATM    8  C5  UNL     1     -40.185  15.255   9.954  1.00 20.00     0.005 C 
ENDBRANCH   5   7
ENDBRANCH   3   5
BRANCH   2   9
HETATM    9  C7  UNL     1     -39.469  12.444   5.716  1.00 20.00     0.120 C 
HETATM   10 CL10 UNL     1     -38.936  11.708   4.180  1.00 20.00    -0.130 Cl
ENDBRANCH   2   9
TORSDOF 3
ENDMDL
MODEL 5
REMARK VINA RESULT:      -3.3     11.423     12.805
REMARK  3 active torsions:
REMARK  status: ('A' for Active; 'I' for Inactive)
REMARK    1  A    between atoms: C2_2  and  C7_7 
REMARK    2  A    between atoms: C3_3  and  C9_9 
REMARK    3  A    between atoms: C8_8  and  C9_9 
ROOT
HETATM    1  C1  UNL     1     -33.812  17.503  -0.820  1.00 20.00     0.016 A 
HETATM    2  C2  UNL     1     -32.414  17.887  -1.215  1.00 20.00     0.009 A 
HETATM    3  C3  UNL     1     -33.464  17.628  -2.295  1.00 20.00    -0.036 A 
HETATM    4  C4  UNL     1     -33.328  16.359  -3.096  1.00 20.00     0.016 C 
ENDROOT
BRANCH   3   5
HETATM    5  C9  UNL     1     -34.052  18.780  -3.067  1.00 20.00    -0.010 C 
HETATM    6  C6  UNL     1     -33.941  18.529  -4.580  1.00 20.00     0.011 C 
BRANCH   5   7
HETATM    7  C8  UNL     1     -35.532  19.059  -2.711  1.00 20.00     0.000 C 
HETATM    8  C5  UNL     1     -36.513  18.433  -3.692  1.00 20.00     0.005 C 
ENDBRANCH   5   7
ENDBRANCH   3   5
BRANCH   2   9
HETATM    9  C7  UNL     1     -31.895  19.250  -0.909  1.00 20.00     0.120 C 
HETATM   10 CL10 UNL     1     -30.954  19.257   0.608  1.00 20.00    -0.130 Cl
ENDBRANCH   2   9
TORSDOF 3
ENDMDL
MODEL 6
REMARK VINA RESULT:      -3.3     11.126     12.787
REMARK  3 active torsions:
REMARK  status: ('A' for Active; 'I' for Inactive)
REMARK    1  A    between atoms: C2_2  and  C7_7 
REMARK    2  A    between atoms: C3_3  and  C9_9 
REMARK    3  A    between atoms: C8_8  and  C9_9 
ROOT
HETATM    1  C1  UNL     1     -34.401  17.955  -5.703  1.00 20.00     0.016 A 
HETATM    2  C2  UNL     1     -35.793  17.389  -5.700  1.00 20.00     0.009 A 
HETATM    3  C3  UNL     1     -34.595  16.459  -5.509  1.00 20.00    -0.036 A 
HETATM    4  C4  UNL     1     -34.242  15.548  -6.655  1.00 20.00     0.016 C 
ENDROOT
BRANCH   3   5
HETATM    5  C9  UNL     1     -34.303  15.877  -4.151  1.00 20.00    -0.010 C 
HETATM    6  C6  UNL     1     -33.943  14.387  -4.268  1.00 20.00     0.011 C 
BRANCH   5   7
HETATM    7  C8  UNL     1     -33.163  16.613  -3.405  1.00 20.00     0.000 C 
HETATM    8  C5  UNL     1     -33.522  16.980  -1.972  1.00 20.00     0.005 C 
ENDBRANCH   5   7
ENDBRANCH   3   5
BRANCH   2   9
HETATM    9  C7  UNL     1     -36.737  17.723  -4.597  1.00 20.00     0.120 C 
HETATM   10 CL10 UNL     1     -36.119  19.071  -3.604  1.00 20.00    -0.130 Cl
ENDBRANCH   2   9
TORSDOF 3
ENDMDL
MODEL 7
REMARK VINA RESULT:      -3.2     10.939     12.632
REMARK  3 active torsions:
REMARK  status: ('A' for Active; 'I' for Inactive)
REMARK    1  A    between atoms: C2_2  and  C7_7 
REMARK    2  A    between atoms: C3_3  and  C9_9 
REMARK    3  A    between atoms: C8_8  and  C9_9 
ROOT
HETATM    1  C1  UNL     1     -34.316  14.354  -4.185  1.00 20.00     0.016 A 
HETATM    2  C2  UNL     1     -33.356  15.502  -4.050  1.00 20.00     0.009 A 
HETATM    3  C3  UNL     1     -34.359  15.483  -5.203  1.00 20.00    -0.036 A 
HETATM    4  C4  UNL     1     -33.817  15.208  -6.581  1.00 20.00     0.016 C 
ENDROOT
BRANCH   3   5
HETATM    5  C9  UNL     1     -35.546  16.409  -5.183  1.00 20.00    -0.010 C 
HETATM    6  C6  UNL     1     -35.332  17.581  -6.157  1.00 20.00     0.011 C 
BRANCH   5   7
HETATM    7  C8  UNL     1     -36.877  15.701  -5.534  1.00 20.00     0.000 C 
HETATM    8  C5  UNL     1     -38.107  16.500  -5.125  1.00 20.00     0.005 C 
ENDBRANCH   5   7
ENDBRANCH   3   5
BRANCH   2   9
HETATM    9  C7  UNL     1     -33.468  16.444  -2.901  1.00 20.00     0.120 C 
HETATM   10 CL10 UNL     1     -32.965  18.092  -3.365  1.00 20.00    -0.130 Cl
ENDBRANCH   2   9
TORSDOF 3
ENDMDL
MODEL 8
REMARK VINA RESULT:      -3.2      9.680     10.801
REMARK  3 active torsions:
REMARK  status: ('A' for Active; 'I' for Inactive)
REMARK    1  A    between atoms: C2_2  and  C7_7 
REMARK    2  A    between atoms: C3_3  and  C9_9 
REMARK    3  A    between atoms: C8_8  and  C9_9 
ROOT
HETATM    1  C1  UNL     1     -42.084  14.762   6.231  1.00 20.00     0.016 A 
HETATM    2  C2  UNL     1     -41.528  14.613   7.619  1.00 20.00     0.009 A 
HETATM    3  C3  UNL     1     -41.393  13.464   6.620  1.00 20.00    -0.036 A 
HETATM    4  C4  UNL     1     -42.253  12.249   6.848  1.00 20.00     0.016 C 
ENDROOT
BRANCH   3   5
HETATM    5  C9  UNL     1     -40.055  13.162   5.998  1.00 20.00    -0.010 C 
HETATM    6  C6  UNL     1     -39.324  12.069   6.797  1.00 20.00     0.011 C 
BRANCH   5   7
HETATM    7  C8  UNL     1     -40.157  12.719   4.518  1.00 20.00     0.000 C 
HETATM    8  C5  UNL     1     -39.102  11.694   4.125  1.00 20.00     0.005 C 
ENDBRANCH   5   7
ENDBRANCH   3   5
BRANCH   2   9
HETATM    9  C7  UNL     1     -40.369  15.440   8.056  1.00 20.00     0.120 C 
HETATM   10 CL10 UNL     1     -40.485  17.103   7.419  1.00 20.00    -0.130 Cl
ENDBRANCH   2   9
TORSDOF 3
ENDMDL
MODEL 9
REMARK VINA RESULT:      -3.1     10.625     11.771
REMARK  3 active torsions:
REMARK  status: ('A' for Active; 'I' for Inactive)
REMARK    1  A    between atoms: C2_2  and  C7_7 
REMARK    2  A    between atoms: C3_3  and  C9_9 
REMARK    3  A    between atoms: C8_8  and  C9_9 
ROOT
HETATM    1  C1  UNL     1     -40.355  15.528   7.427  1.00 20.00     0.016 A 
HETATM    2  C2  UNL     1     -41.158  15.211   8.656  1.00 20.00     0.009 A 
HETATM    3  C3  UNL     1     -41.586  14.645   7.303  1.00 20.00    -0.036 A 
HETATM    4  C4  UNL     1     -42.817  15.237   6.668  1.00 20.00     0.016 C 
ENDROOT
BRANCH   3   5
HETATM    5  C9  UNL     1     -41.382  13.184   7.000  1.00 20.00    -0.010 C 
HETATM    6  C6  UNL     1     -42.731  12.446   6.967  1.00 20.00     0.011 C 
BRANCH   5   7
HETATM    7  C8  UNL     1     -40.642  12.936   5.663  1.00 20.00     0.000 C 
HETATM    8  C5  UNL     1     -39.567  11.863   5.763  1.00 20.00     0.005 C 
ENDBRANCH   5   7
ENDBRANCH   3   5
BRANCH   2   9
HETATM    9  C7  UNL     1     -40.576  14.364   9.735  1.00 20.00     0.120 C 
HETATM   10 CL10 UNL     1     -41.849  13.725  10.812  1.00 20.00    -0.130 Cl
ENDBRANCH   2   9
TORSDOF 3
ENDMDL
