MODEL 1
REMARK VINA RESULT:      -4.3      0.000      0.000
REMARK  2 active torsions:
REMARK  status: ('A' for Active; 'I' for Inactive)
REMARK    1  A    between atoms: C2_2  and  C7_7 
REMARK    2  A    between atoms: C3_3  and  C8_8 
ROOT
HETATM    1  C1  UNL     1     -33.979   8.367   4.207  1.00 20.00     0.016 A 
HETATM    2  C2  UNL     1     -32.623   7.722   4.175  1.00 20.00     0.009 A 
HETATM    3  C3  UNL     1     -33.706   7.167   5.098  1.00 20.00    -0.036 A 
HETATM    4  C4  UNL     1     -33.542   7.409   6.574  1.00 20.00     0.016 C 
ENDROOT
BRANCH   3   5
HETATM    5  C8  UNL     1     -34.386   5.866   4.762  1.00 20.00    -0.014 C 
HETATM    6  C5  UNL     1     -34.479   4.951   5.991  1.00 20.00     0.010 C 
HETATM    7  C6  UNL     1     -35.789   6.102   4.184  1.00 20.00     0.010 C 
ENDBRANCH   3   5
BRANCH   2   8
HETATM    8  C7  UNL     1     -32.160   7.006   2.952  1.00 20.00     0.120 C 
HETATM    9 CL9  UNL     1     -32.159   8.085   1.530  1.00 20.00    -0.130 Cl
ENDBRANCH   2   8
TORSDOF 2
ENDMDL
MODEL 2
REMARK VINA RESULT:      -3.8      2.320      3.868
REMARK  2 active torsions:
REMARK  status: ('A' for Active; 'I' for Inactive)
REMARK    1  A    between atoms: C2_2  and  C7_7 
REMARK    2  A    between atoms: C3_3  and  C8_8 
ROOT
HETATM    1  C1  UNL     1     -35.236   5.854   4.280  1.00 20.00     0.016 A 
HETATM    2  C2  UNL     1     -34.285   4.954   5.018  1.00 20.00     0.009 A 
HETATM    3  C3  UNL     1     -33.769   5.836   3.882  1.00 20.00    -0.036 A 
HETATM    4  C4  UNL     1     -33.398   5.151   2.594  1.00 20.00     0.016 C 
ENDROOT
BRANCH   3   5
HETATM    5  C8  UNL     1     -32.936   7.051   4.191  1.00 20.00    -0.014 C 
HETATM    6  C5  UNL     1     -31.983   7.385   3.034  1.00 20.00     0.010 C 
HETATM    7  C6  UNL     1     -33.818   8.268   4.504  1.00 20.00     0.010 C 
ENDBRANCH   3   5
BRANCH   2   8
HETATM    8  C7  UNL     1     -33.962   5.214   6.450  1.00 20.00     0.120 C 
HETATM    9 CL9  UNL     1     -34.791   6.680   7.044  1.00 20.00    -0.130 Cl
ENDBRANCH   2   8
TORSDOF 2
ENDMDL
MODEL 3
REMARK VINA RESULT:      -3.7      1.378      2.471
REMARK  2 active torsions:
REMARK  status: ('A' for Active; 'I' for Inactive)
REMARK    1  A    between atoms: C2_2  and  C7_7 
REMARK    2  A    between atoms: C3_3  and  C8_8 
ROOT
HETATM    1  C1  UNL     1     -31.589   7.398   3.695  1.00 20.00     0.016 A 
HETATM    2  C2  UNL     1     -32.377   7.770   2.472  1.00 20.00     0.009 A 
HETATM    3  C3  UNL     1     -32.932   6.731   3.445  1.00 20.00    -0.036 A 
HETATM    4  C4  UNL     1     -32.932   5.296   2.992  1.00 20.00     0.016 C 
ENDROOT
BRANCH   3   5
HETATM    5  C8  UNL     1     -34.079   7.087   4.353  1.00 20.00    -0.014 C 
HETATM    6  C5  UNL     1     -35.013   5.889   4.569  1.00 20.00     0.010 C 
HETATM    7  C6  UNL     1     -33.578   7.607   5.708  1.00 20.00     0.010 C 
ENDBRANCH   3   5
BRANCH   2   8
HETATM    8  C7  UNL     1     -32.954   9.138   2.337  1.00 20.00     0.120 C 
HETATM    9 CL9  UNL     1     -32.834   9.729   0.657  1.00 20.00    -0.130 Cl
ENDBRANCH   2   8
TORSDOF 2
ENDMDL
MODEL 4
REMARK VINA RESULT:      -3.7      1.221      2.423
REMARK  2 active torsions:
REMARK  status: ('A' for Active; 'I' for Inactive)
REMARK    1  A    between atoms: C2_2  and  C7_7 
REMARK    2  A    between atoms: C3_3  and  C8_8 
ROOT
HETATM    1  C1  UNL     1     -33.466   5.031   3.423  1.00 20.00     0.016 A 
HETATM    2  C2  UNL     1     -33.423   6.506   3.140  1.00 20.00     0.009 A 
HETATM    3  C3  UNL     1     -34.246   5.982   4.316  1.00 20.00    -0.036 A 
HETATM    4  C4  UNL     1     -35.745   6.011   4.173  1.00 20.00     0.016 C 
ENDROOT
BRANCH   3   5
HETATM    5  C8  UNL     1     -33.761   6.190   5.725  1.00 20.00    -0.014 C 
HETATM    6  C5  UNL     1     -34.130   7.587   6.243  1.00 20.00     0.010 C 
HETATM    7  C6  UNL     1     -34.324   5.121   6.673  1.00 20.00     0.010 C 
ENDBRANCH   3   5
BRANCH   2   8
HETATM    8  C7  UNL     1     -32.156   7.270   3.320  1.00 20.00     0.120 C 
HETATM    9 CL9  UNL     1     -32.470   9.022   3.455  1.00 20.00    -0.130 Cl
ENDBRANCH   2   8
TORSDOF 2
ENDMDL
MODEL 5
REMARK VINA RESULT:      -3.4      9.447     10.500
REMARK  2 active torsions:
REMARK  status: ('A' for Active; 'I' for Inactive)
REMARK    1  A    between atoms: C2_2  and  C7_7 
REMARK    2  A    between atoms: C3_3  and  C8_8 
ROOT
HETATM    1  C1  UNL     1     -42.068  12.567   6.736  1.00 20.00     0.016 A 
HETATM    2  C2  UNL     1     -40.920  12.814   5.799  1.00 20.00     0.009 A 
HETATM    3  C3  UNL     1     -41.469  13.961   6.647  1.00 20.00    -0.036 A 
HETATM    4  C4  UNL     1     -42.262  15.024   5.935  1.00 20.00     0.016 C 
ENDROOT
BRANCH   3   5
HETATM    5  C8  UNL     1     -40.681  14.470   7.825  1.00 20.00    -0.014 C 
HETATM    6  C5  UNL     1     -40.361  15.964   7.679  1.00 20.00     0.010 C 
HETATM    7  C6  UNL     1     -41.428  14.226   9.144  1.00 20.00     0.010 C 
ENDBRANCH   3   5
BRANCH   2   8
HETATM    8  C7  UNL     1     -39.592  12.187   6.055  1.00 20.00     0.120 C 
HETATM    9 CL9  UNL     1     -38.763  11.781   4.527  1.00 20.00    -0.130 Cl
ENDBRANCH   2   8
TORSDOF 2
ENDMDL
MODEL 6
REMARK VINA RESULT:      -3.2     11.878     13.322
REMARK  2 active torsions:
REMARK  status: ('A' for Active; 'I' for Inactive)
REMARK    1  A    between atoms: C2_2  and  C7_7 
REMARK    2  A    between atoms: C3_3  and  C8_8 
ROOT
HETATM    1  C1  UNL     1     -34.300  14.347  -4.171  1.00 20.00     0.016 A 
HETATM    2  C2  UNL     1     -33.346  15.500  -4.049  1.00 20.00     0.009 A 
HETATM    3  C3  UNL     1     -34.359  15.471  -5.192  1.00 20.00    -0.036 A 
HETATM    4  C4  UNL     1     -33.829  15.196  -6.574  1.00 20.00     0.016 C 
ENDROOT
BRANCH   3   5
HETATM    5  C8  UNL     1     -35.551  16.391  -5.165  1.00 20.00    -0.014 C 
HETATM    6  C5  UNL     1     -35.362  17.578  -6.119  1.00 20.00     0.010 C 
HETATM    7  C6  UNL     1     -36.843  15.641  -5.518  1.00 20.00     0.010 C 
ENDBRANCH   3   5
BRANCH   2   8
HETATM    8  C7  UNL     1     -33.452  16.446  -2.901  1.00 20.00     0.120 C 
HETATM    9 CL9  UNL     1     -32.972  18.098  -3.377  1.00 20.00    -0.130 Cl
ENDBRANCH   2   8
TORSDOF 2
ENDMDL
MODEL 7
REMARK VINA RESULT:      -3.1     11.892     13.108
REMARK  2 active torsions:
REMARK  status: ('A' for Active; 'I' for Inactive)
REMARK    1  A    between atoms: C2_2  and  C7_7 
REMARK    2  A    between atoms: C3_3  and  C8_8 
ROOT
HETATM    1  C1  UNL     1     -32.638  15.599  -4.023  1.00 20.00     0.016 A 
HETATM    2  C2  UNL     1     -34.055  15.127  -3.860  1.00 20.00     0.009 A 
HETATM    3  C3  UNL     1     -33.666  16.531  -3.402  1.00 20.00    -0.036 A 
HETATM    4  C4  UNL     1     -33.590  16.774  -1.918  1.00 20.00     0.016 C 
ENDROOT
BRANCH   3   5
HETATM    5  C8  UNL     1     -34.106  17.731  -4.197  1.00 20.00    -0.014 C 
HETATM    6  C5  UNL     1     -35.458  18.264  -3.702  1.00 20.00     0.010 C 
HETATM    7  C6  UNL     1     -33.057  18.851  -4.145  1.00 20.00     0.010 C 
ENDBRANCH   3   5
BRANCH   2   8
HETATM    8  C7  UNL     1     -34.906  14.877  -5.058  1.00 20.00     0.120 C 
HETATM    9 CL9  UNL     1     -33.963  15.034  -6.566  1.00 20.00    -0.130 Cl
ENDBRANCH   2   8
TORSDOF 2
ENDMDL
MODEL 8
REMARK VINA RESULT:      -3.0     11.963     12.632
REMARK  2 active torsions:
REMARK  status: ('A' for Active; 'I' for Inactive)
REMARK    1  A    between atoms: C2_2  and  C7_7 
REMARK    2  A    between atoms: C3_3  and  C8_8 
ROOT
HETATM    1  C1  UNL     1     -32.798  18.984  -2.377  1.00 20.00     0.016 A 
HETATM    2  C2  UNL     1     -32.589  17.506  -2.211  1.00 20.00     0.009 A 
HETATM    3  C3  UNL     1     -32.684  18.403  -0.978  1.00 20.00    -0.036 A 
HETATM    4  C4  UNL     1     -31.413  18.656  -0.212  1.00 20.00     0.016 C 
ENDROOT
BRANCH   3   5
HETATM    5  C8  UNL     1     -33.921  18.373  -0.120  1.00 20.00    -0.014 C 
HETATM    6  C5  UNL     1     -33.613  18.807   1.320  1.00 20.00     0.010 C 
HETATM    7  C6  UNL     1     -35.027  19.263  -0.704  1.00 20.00     0.010 C 
ENDBRANCH   3   5
BRANCH   2   8
HETATM    8  C7  UNL     1     -33.663  16.547  -2.595  1.00 20.00     0.120 C 
HETATM    9 CL9  UNL     1     -33.106  15.429  -3.871  1.00 20.00    -0.130 Cl
ENDBRANCH   2   8
TORSDOF 2
ENDMDL
MODEL 9
REMARK VINA RESULT:      -3.0     12.492     13.527
REMARK  2 active torsions:
REMARK  status: ('A' for Active; 'I' for Inactive)
REMARK    1  A    between atoms: C2_2  and  C7_7 
REMARK    2  A    between atoms: C3_3  and  C8_8 
ROOT
HETATM    1  C1  UNL     1     -34.338  17.881  -5.602  1.00 20.00     0.016 A 
HETATM    2  C2  UNL     1     -34.469  17.592  -4.134  1.00 20.00     0.009 A 
HETATM    3  C3  UNL     1     -35.207  16.720  -5.149  1.00 20.00    -0.036 A 
HETATM    4  C4  UNL     1     -36.701  16.882  -5.237  1.00 20.00     0.016 C 
ENDROOT
BRANCH   3   5
HETATM    5  C8  UNL     1     -34.725  15.322  -5.430  1.00 20.00    -0.014 C 
HETATM    6  C5  UNL     1     -35.864  14.301  -5.300  1.00 20.00     0.010 C 
HETATM    7  C6  UNL     1     -34.093  15.220  -6.826  1.00 20.00     0.010 C 
ENDBRANCH   3   5
BRANCH   2   8
HETATM    8  C7  UNL     1     -33.294  17.106  -3.356  1.00 20.00     0.120 C 
HETATM    9 CL9  UNL     1     -33.667  17.012  -1.613  1.00 20.00    -0.130 Cl
ENDBRANCH   2   8
TORSDOF 2
ENDMDL
