MODEL 1
REMARK VINA RESULT:      -5.4      0.000      0.000
REMARK  2 active torsions:
REMARK  status: ('A' for Active; 'I' for Inactive)
REMARK    1  A    between atoms: C5_5  and  C6_6 
REMARK    2  A    between atoms: C7_7  and  C8_8 
ROOT
HETATM    1  C4  UNL     1     -32.093   8.502   4.369  1.00 20.00     0.011 A 
HETATM    2  C6  UNL     1     -32.863   7.253   4.057  1.00 20.00    -0.005 A 
HETATM    3  C7  UNL     1     -32.856   8.390   3.077  1.00 20.00     0.004 A 
ENDROOT
BRANCH   2   4
HETATM    4  C5  UNL     1     -34.103   6.842   4.823  1.00 20.00    -0.010 C 
HETATM    5  C2  UNL     1     -33.966   6.734   6.364  1.00 20.00     0.005 C 
HETATM    6  C1  UNL     1     -34.916   5.521   6.290  1.00 20.00     0.001 C 
HETATM    7  C3  UNL     1     -34.443   5.329   4.835  1.00 20.00     0.005 C 
ENDBRANCH   2   4
BRANCH   3   8
HETATM    8  C8  UNL     1     -32.127   8.253   1.785  1.00 20.00     0.119 C 
HETATM    9 CL9  UNL     1     -32.710   9.438   0.583  1.00 20.00    -0.130 Cl
ENDBRANCH   3   8
TORSDOF 2
ENDMDL
MODEL 2
REMARK VINA RESULT:      -4.6      1.299      1.670
REMARK  2 active torsions:
REMARK  status: ('A' for Active; 'I' for Inactive)
REMARK    1  A    between atoms: C5_5  and  C6_6 
REMARK    2  A    between atoms: C7_7  and  C8_8 
ROOT
HETATM    1  C4  UNL     1     -32.903   5.266   2.801  1.00 20.00     0.011 A 
HETATM    2  C6  UNL     1     -33.946   6.253   3.235  1.00 20.00    -0.005 A 
HETATM    3  C7  UNL     1     -32.509   6.678   3.143  1.00 20.00     0.004 A 
ENDROOT
BRANCH   2   4
HETATM    4  C5  UNL     1     -34.681   6.141   4.554  1.00 20.00    -0.010 C 
HETATM    5  C2  UNL     1     -34.040   6.857   5.772  1.00 20.00     0.005 C 
HETATM    6  C1  UNL     1     -34.522   5.669   6.631  1.00 20.00     0.001 C 
HETATM    7  C3  UNL     1     -34.495   4.819   5.344  1.00 20.00     0.005 C 
ENDBRANCH   2   4
BRANCH   3   8
HETATM    8  C8  UNL     1     -32.080   7.617   2.069  1.00 20.00     0.119 C 
HETATM    9 CL9  UNL     1     -32.775   9.243   2.315  1.00 20.00    -0.130 Cl
ENDBRANCH   3   8
TORSDOF 2
ENDMDL
MODEL 3
REMARK VINA RESULT:      -4.5      2.481      4.350
REMARK  2 active torsions:
REMARK  status: ('A' for Active; 'I' for Inactive)
REMARK    1  A    between atoms: C5_5  and  C6_6 
REMARK    2  A    between atoms: C7_7  and  C8_8 
ROOT
HETATM    1  C4  UNL     1     -33.686   8.565   5.951  1.00 20.00     0.011 A 
HETATM    2  C6  UNL     1     -33.617   7.843   4.638  1.00 20.00    -0.005 A 
HETATM    3  C7  UNL     1     -33.427   7.083   5.918  1.00 20.00     0.004 A 
ENDROOT
BRANCH   2   4
HETATM    4  C5  UNL     1     -32.496   8.059   3.642  1.00 20.00    -0.010 C 
HETATM    5  C2  UNL     1     -32.789   9.023   2.463  1.00 20.00     0.005 C 
HETATM    6  C1  UNL     1     -31.947   8.080   1.579  1.00 20.00     0.001 C 
HETATM    7  C3  UNL     1     -32.294   6.953   2.573  1.00 20.00     0.005 C 
ENDBRANCH   2   4
BRANCH   3   8
HETATM    8  C8  UNL     1     -34.475   6.129   6.378  1.00 20.00     0.119 C 
HETATM    9 CL9  UNL     1     -34.846   4.918   5.118  1.00 20.00    -0.130 Cl
ENDBRANCH   3   8
TORSDOF 2
ENDMDL
MODEL 4
REMARK VINA RESULT:      -4.0      2.644      4.420
REMARK  2 active torsions:
REMARK  status: ('A' for Active; 'I' for Inactive)
REMARK    1  A    between atoms: C5_5  and  C6_6 
REMARK    2  A    between atoms: C7_7  and  C8_8 
ROOT
HETATM    1  C4  UNL     1     -33.171   5.127   2.769  1.00 20.00     0.011 A 
HETATM    2  C6  UNL     1     -32.634   6.153   3.724  1.00 20.00    -0.005 A 
HETATM    3  C7  UNL     1     -34.094   5.802   3.748  1.00 20.00     0.004 A 
ENDROOT
BRANCH   2   4
HETATM    4  C5  UNL     1     -32.127   7.506   3.272  1.00 20.00    -0.010 C 
HETATM    5  C2  UNL     1     -32.978   8.739   3.676  1.00 20.00     0.005 C 
HETATM    6  C1  UNL     1     -32.620   9.343   2.303  1.00 20.00     0.001 C 
HETATM    7  C3  UNL     1     -32.414   7.900   1.800  1.00 20.00     0.005 C 
ENDBRANCH   2   4
BRANCH   3   8
HETATM    8  C8  UNL     1     -34.655   5.038   4.898  1.00 20.00     0.119 C 
HETATM    9 CL9  UNL     1     -34.425   5.919   6.434  1.00 20.00    -0.130 Cl
ENDBRANCH   3   8
TORSDOF 2
ENDMDL
MODEL 5
REMARK VINA RESULT:      -3.9     11.505     12.088
REMARK  2 active torsions:
REMARK  status: ('A' for Active; 'I' for Inactive)
REMARK    1  A    between atoms: C5_5  and  C6_6 
REMARK    2  A    between atoms: C7_7  and  C8_8 
ROOT
HETATM    1  C4  UNL     1     -34.395  17.943  -2.978  1.00 20.00     0.011 A 
HETATM    2  C6  UNL     1     -33.000  18.168  -2.472  1.00 20.00    -0.005 A 
HETATM    3  C7  UNL     1     -33.535  16.770  -2.590  1.00 20.00     0.004 A 
ENDROOT
BRANCH   2   4
HETATM    4  C5  UNL     1     -32.708  18.821  -1.138  1.00 20.00    -0.010 C 
HETATM    5  C2  UNL     1     -31.366  18.444  -0.456  1.00 20.00     0.005 C 
HETATM    6  C1  UNL     1     -32.116  18.509   0.890  1.00 20.00     0.001 C 
HETATM    7  C3  UNL     1     -33.409  18.210   0.103  1.00 20.00     0.005 C 
ENDBRANCH   2   4
BRANCH   3   8
HETATM    8  C8  UNL     1     -32.998  15.856  -3.636  1.00 20.00     0.119 C 
HETATM    9 CL9  UNL     1     -34.107  14.487  -3.930  1.00 20.00    -0.130 Cl
ENDBRANCH   3   8
TORSDOF 2
ENDMDL
MODEL 6
REMARK VINA RESULT:      -3.8      2.087      3.817
REMARK  2 active torsions:
REMARK  status: ('A' for Active; 'I' for Inactive)
REMARK    1  A    between atoms: C5_5  and  C6_6 
REMARK    2  A    between atoms: C7_7  and  C8_8 
ROOT
HETATM    1  C4  UNL     1     -35.246   5.692   5.266  1.00 20.00     0.011 A 
HETATM    2  C6  UNL     1     -34.512   6.531   4.260  1.00 20.00    -0.005 A 
HETATM    3  C7  UNL     1     -33.888   5.265   4.774  1.00 20.00     0.004 A 
ENDROOT
BRANCH   2   4
HETATM    4  C5  UNL     1     -33.961   7.903   4.585  1.00 20.00    -0.010 C 
HETATM    5  C2  UNL     1     -32.742   8.379   3.752  1.00 20.00     0.005 C 
HETATM    6  C1  UNL     1     -32.213   9.042   5.041  1.00 20.00     0.001 C 
HETATM    7  C3  UNL     1     -33.040   8.006   5.829  1.00 20.00     0.005 C 
ENDBRANCH   2   4
BRANCH   3   8
HETATM    8  C8  UNL     1     -33.754   4.086   3.874  1.00 20.00     0.119 C 
HETATM    9 CL9  UNL     1     -32.887   4.512   2.372  1.00 20.00    -0.130 Cl
ENDBRANCH   3   8
TORSDOF 2
ENDMDL
MODEL 7
REMARK VINA RESULT:      -3.8      9.496     10.130
REMARK  2 active torsions:
REMARK  status: ('A' for Active; 'I' for Inactive)
REMARK    1  A    between atoms: C5_5  and  C6_6 
REMARK    2  A    between atoms: C7_7  and  C8_8 
ROOT
HETATM    1  C4  UNL     1     -42.012  13.827   5.634  1.00 20.00     0.011 A 
HETATM    2  C6  UNL     1     -41.279  12.789   6.432  1.00 20.00    -0.005 A 
HETATM    3  C7  UNL     1     -41.020  14.245   6.686  1.00 20.00     0.004 A 
ENDROOT
BRANCH   2   4
HETATM    4  C5  UNL     1     -40.241  11.869   5.822  1.00 20.00    -0.010 C 
HETATM    5  C2  UNL     1     -38.767  12.107   6.243  1.00 20.00     0.005 C 
HETATM    6  C1  UNL     1     -38.374  11.749   4.795  1.00 20.00     0.001 C 
HETATM    7  C3  UNL     1     -39.790  12.194   4.375  1.00 20.00     0.005 C 
ENDBRANCH   2   4
BRANCH   3   8
HETATM    8  C8  UNL     1     -41.491  14.873   7.952  1.00 20.00     0.119 C 
HETATM    9 CL9  UNL     1     -40.176  14.963   9.158  1.00 20.00    -0.130 Cl
ENDBRANCH   3   8
TORSDOF 2
ENDMDL
MODEL 8
REMARK VINA RESULT:      -3.7     11.277     12.295
REMARK  2 active torsions:
REMARK  status: ('A' for Active; 'I' for Inactive)
REMARK    1  A    between atoms: C5_5  and  C6_6 
REMARK    2  A    between atoms: C7_7  and  C8_8 
ROOT
HETATM    1  C4  UNL     1     -34.434  18.155  -2.140  1.00 20.00     0.011 A 
HETATM    2  C6  UNL     1     -33.655  16.876  -2.241  1.00 20.00    -0.005 A 
HETATM    3  C7  UNL     1     -32.990  18.115  -1.717  1.00 20.00     0.004 A 
ENDROOT
BRANCH   2   4
HETATM    4  C5  UNL     1     -33.281  16.247  -3.567  1.00 20.00    -0.010 C 
HETATM    5  C2  UNL     1     -34.151  16.636  -4.792  1.00 20.00     0.005 C 
HETATM    6  C1  UNL     1     -33.987  15.181  -5.278  1.00 20.00     0.001 C 
HETATM    7  C3  UNL     1     -33.756  14.790  -3.804  1.00 20.00     0.005 C 
ENDBRANCH   2   4
BRANCH   3   8
HETATM    8  C8  UNL     1     -32.629  18.211  -0.275  1.00 20.00     0.119 C 
HETATM    9 CL9  UNL     1     -30.948  18.774  -0.064  1.00 20.00    -0.130 Cl
ENDBRANCH   3   8
TORSDOF 2
ENDMDL
MODEL 9
REMARK VINA RESULT:      -3.6     11.314     12.502
REMARK  2 active torsions:
REMARK  status: ('A' for Active; 'I' for Inactive)
REMARK    1  A    between atoms: C5_5  and  C6_6 
REMARK    2  A    between atoms: C7_7  and  C8_8 
ROOT
HETATM    1  C4  UNL     1     -34.067  14.367  -4.033  1.00 20.00     0.011 A 
HETATM    2  C6  UNL     1     -34.068  15.867  -4.011  1.00 20.00    -0.005 A 
HETATM    3  C7  UNL     1     -33.649  15.139  -5.256  1.00 20.00     0.004 A 
ENDROOT
BRANCH   2   4
HETATM    4  C5  UNL     1     -33.100  16.675  -3.172  1.00 20.00    -0.010 C 
HETATM    5  C2  UNL     1     -33.538  16.997  -1.719  1.00 20.00     0.005 C 
HETATM    6  C1  UNL     1     -32.856  18.370  -1.896  1.00 20.00     0.001 C 
HETATM    7  C3  UNL     1     -33.081  18.207  -3.414  1.00 20.00     0.005 C 
ENDBRANCH   2   4
BRANCH   3   8
HETATM    8  C8  UNL     1     -34.524  15.165  -6.461  1.00 20.00     0.119 C 
HETATM    9 CL9  UNL     1     -35.024  16.832  -6.862  1.00 20.00    -0.130 Cl
ENDBRANCH   3   8
TORSDOF 2
ENDMDL
