MODEL 1
REMARK VINA RESULT:      -3.7      0.000      0.000
REMARK  2 active torsions:
REMARK  status: ('A' for Active; 'I' for Inactive)
REMARK    1  A    between atoms: C4_4  and  C7_7 
REMARK    2  A    between atoms: C6_6  and  C10_10 
ROOT
HETATM    1  C1  UNL     1     -41.172  16.828   8.746  1.00 20.00     0.015 A 
HETATM    2  C2  UNL     1     -41.893  17.552   7.822  1.00 20.00     0.051 A 
HETATM    3  C3  UNL     1     -41.046  15.458   8.373  1.00 20.00    -0.048 A 
HETATM    4  C4  UNL     1     -41.678  15.187   7.178  1.00 20.00    -0.003 A 
HETATM    5  C8  UNL     1     -40.320  14.456   9.189  1.00 20.00     0.049 C 
HETATM    6  S11 UNL     1     -42.416  16.581   6.512  1.00 20.00    -0.105 SA
ENDROOT
BRANCH   4   7
HETATM    7  C7  UNL     1     -41.727  13.790   6.498  1.00 20.00    -0.005 A 
HETATM    8  C5  UNL     1     -41.641  13.770   4.979  1.00 20.00     0.021 A 
HETATM    9  C6  UNL     1     -40.446  13.356   5.785  1.00 20.00     0.010 A 
HETATM   10  C9  UNL     1     -42.603  12.776   7.176  1.00 20.00     0.021 C 
BRANCH   9  11
HETATM   11  C10 UNL     1     -39.979  11.940   5.767  1.00 20.00     0.091 C 
HETATM   12 BR12 UNL     1     -38.993  11.568   4.124  1.00 20.00    -0.096 Br
ENDBRANCH   9  11
ENDBRANCH   4   7
TORSDOF 2
ENDMDL
MODEL 2
REMARK VINA RESULT:      -3.6     12.128     13.596
REMARK  2 active torsions:
REMARK  status: ('A' for Active; 'I' for Inactive)
REMARK    1  A    between atoms: C4_4  and  C7_7 
REMARK    2  A    between atoms: C6_6  and  C10_10 
ROOT
HETATM    1  C1  UNL     1     -35.334  15.776  -5.539  1.00 20.00     0.015 A 
HETATM    2  C2  UNL     1     -34.383  14.825  -5.240  1.00 20.00     0.051 A 
HETATM    3  C3  UNL     1     -35.144  16.976  -4.794  1.00 20.00    -0.048 A 
HETATM    4  C4  UNL     1     -34.053  16.895  -3.953  1.00 20.00    -0.003 A 
HETATM    5  C8  UNL     1     -36.025  18.161  -4.919  1.00 20.00     0.049 C 
HETATM    6  S11 UNL     1     -33.267  15.379  -4.066  1.00 20.00    -0.105 SA
ENDROOT
BRANCH   4   7
HETATM    7  C7  UNL     1     -33.577  18.033  -3.007  1.00 20.00    -0.005 A 
HETATM    8  C5  UNL     1     -34.463  18.334  -1.806  1.00 20.00     0.021 A 
HETATM    9  C6  UNL     1     -33.173  17.596  -1.598  1.00 20.00     0.010 A 
HETATM   10  C9  UNL     1     -32.876  19.178  -3.680  1.00 20.00     0.021 C 
BRANCH   9  11
HETATM   11  C10 UNL     1     -32.052  18.235  -0.852  1.00 20.00     0.091 C 
HETATM   12 BR12 UNL     1     -32.641  18.778   0.928  1.00 20.00    -0.096 Br
ENDBRANCH   9  11
ENDBRANCH   4   7
TORSDOF 2
ENDMDL
MODEL 3
REMARK VINA RESULT:      -3.6     12.126     13.489
REMARK  2 active torsions:
REMARK  status: ('A' for Active; 'I' for Inactive)
REMARK    1  A    between atoms: C4_4  and  C7_7 
REMARK    2  A    between atoms: C6_6  and  C10_10 
ROOT
HETATM    1  C1  UNL     1     -35.060  15.020  -5.585  1.00 20.00     0.015 A 
HETATM    2  C2  UNL     1     -36.185  15.737  -5.930  1.00 20.00     0.051 A 
HETATM    3  C3  UNL     1     -34.225  15.738  -4.681  1.00 20.00    -0.048 A 
HETATM    4  C4  UNL     1     -34.743  16.977  -4.369  1.00 20.00    -0.003 A 
HETATM    5  C8  UNL     1     -32.949  15.201  -4.149  1.00 20.00     0.049 C 
HETATM    6  S11 UNL     1     -36.231  17.268  -5.165  1.00 20.00    -0.105 SA
ENDROOT
BRANCH   4   7
HETATM    7  C7  UNL     1     -34.074  18.004  -3.413  1.00 20.00    -0.005 A 
HETATM    8  C5  UNL     1     -34.938  18.544  -2.283  1.00 20.00     0.021 A 
HETATM    9  C6  UNL     1     -33.874  17.533  -1.972  1.00 20.00     0.010 A 
HETATM   10  C9  UNL     1     -33.081  18.929  -4.057  1.00 20.00     0.021 C 
BRANCH   9  11
HETATM   11  C10 UNL     1     -32.684  17.918  -1.161  1.00 20.00     0.091 C 
HETATM   12 BR12 UNL     1     -33.239  18.617   0.575  1.00 20.00    -0.096 Br
ENDBRANCH   9  11
ENDBRANCH   4   7
TORSDOF 2
ENDMDL
MODEL 4
REMARK VINA RESULT:      -3.5      1.365      1.860
REMARK  2 active torsions:
REMARK  status: ('A' for Active; 'I' for Inactive)
REMARK    1  A    between atoms: C4_4  and  C7_7 
REMARK    2  A    between atoms: C6_6  and  C10_10 
ROOT
HETATM    1  C1  UNL     1     -41.967  16.703   8.789  1.00 20.00     0.015 A 
HETATM    2  C2  UNL     1     -40.909  16.252   9.549  1.00 20.00     0.051 A 
HETATM    3  C3  UNL     1     -42.316  15.783   7.758  1.00 20.00    -0.048 A 
HETATM    4  C4  UNL     1     -41.512  14.663   7.770  1.00 20.00    -0.003 A 
HETATM    5  C8  UNL     1     -43.417  16.020   6.794  1.00 20.00     0.049 C 
HETATM    6  S11 UNL     1     -40.343  14.725   9.020  1.00 20.00    -0.105 SA
ENDROOT
BRANCH   4   7
HETATM    7  C7  UNL     1     -41.633  13.474   6.777  1.00 20.00    -0.005 A 
HETATM    8  C5  UNL     1     -41.465  13.801   5.300  1.00 20.00     0.021 A 
HETATM    9  C6  UNL     1     -40.352  13.105   6.027  1.00 20.00     0.010 A 
HETATM   10  C9  UNL     1     -42.622  12.412   7.164  1.00 20.00     0.021 C 
BRANCH   9  11
HETATM   11  C10 UNL     1     -39.999  11.696   5.690  1.00 20.00     0.091 C 
HETATM   12 BR12 UNL     1     -38.992  11.627   4.019  1.00 20.00    -0.096 Br
ENDBRANCH   9  11
ENDBRANCH   4   7
TORSDOF 2
ENDMDL
MODEL 5
REMARK VINA RESULT:      -3.5     12.610     13.783
REMARK  2 active torsions:
REMARK  status: ('A' for Active; 'I' for Inactive)
REMARK    1  A    between atoms: C4_4  and  C7_7 
REMARK    2  A    between atoms: C6_6  and  C10_10 
ROOT
HETATM    1  C1  UNL     1     -33.298  16.647  -2.572  1.00 20.00     0.015 A 
HETATM    2  C2  UNL     1     -33.947  17.844  -2.362  1.00 20.00     0.051 A 
HETATM    3  C3  UNL     1     -33.687  16.036  -3.799  1.00 20.00    -0.048 A 
HETATM    4  C4  UNL     1     -34.619  16.790  -4.480  1.00 20.00    -0.003 A 
HETATM    5  C8  UNL     1     -33.144  14.740  -4.271  1.00 20.00     0.049 C 
HETATM    6  S11 UNL     1     -35.019  18.227  -3.641  1.00 20.00    -0.105 SA
ENDROOT
BRANCH   4   7
HETATM    7  C7  UNL     1     -35.246  16.401  -5.849  1.00 20.00    -0.005 A 
HETATM    8  C5  UNL     1     -35.963  15.061  -5.912  1.00 20.00     0.021 A 
HETATM    9  C6  UNL     1     -36.773  16.324  -5.879  1.00 20.00     0.010 A 
HETATM   10  C9  UNL     1     -34.482  16.858  -7.059  1.00 20.00     0.021 C 
BRANCH   9  11
HETATM   11  C10 UNL     1     -37.572  16.736  -7.068  1.00 20.00     0.091 C 
HETATM   12 BR12 UNL     1     -39.311  17.429  -6.513  1.00 20.00    -0.096 Br
ENDBRANCH   9  11
ENDBRANCH   4   7
TORSDOF 2
ENDMDL
MODEL 6
REMARK VINA RESULT:      -3.4     10.864     11.769
REMARK  2 active torsions:
REMARK  status: ('A' for Active; 'I' for Inactive)
REMARK    1  A    between atoms: C4_4  and  C7_7 
REMARK    2  A    between atoms: C6_6  and  C10_10 
ROOT
HETATM    1  C1  UNL     1     -34.585   4.820   5.089  1.00 20.00     0.015 A 
HETATM    2  C2  UNL     1     -34.863   5.481   6.265  1.00 20.00     0.051 A 
HETATM    3  C3  UNL     1     -33.787   5.606   4.208  1.00 20.00    -0.048 A 
HETATM    4  C4  UNL     1     -33.485   6.839   4.746  1.00 20.00    -0.003 A 
HETATM    5  C8  UNL     1     -33.343   5.137   2.874  1.00 20.00     0.049 C 
HETATM    6  S11 UNL     1     -34.163   7.043   6.305  1.00 20.00    -0.105 SA
ENDROOT
BRANCH   4   7
HETATM    7  C7  UNL     1     -32.633   7.931   4.039  1.00 20.00    -0.005 A 
HETATM    8  C5  UNL     1     -31.693   7.454   2.942  1.00 20.00     0.021 A 
HETATM    9  C6  UNL     1     -32.956   8.169   2.563  1.00 20.00     0.010 A 
HETATM   10  C9  UNL     1     -32.189   9.067   4.915  1.00 20.00     0.021 C 
BRANCH   9  11
HETATM   11  C10 UNL     1     -32.898   9.521   1.939  1.00 20.00     0.091 C 
HETATM   12 BR12 UNL     1     -32.671   9.370   0.006  1.00 20.00    -0.096 Br
ENDBRANCH   9  11
ENDBRANCH   4   7
TORSDOF 2
ENDMDL
MODEL 7
REMARK VINA RESULT:      -3.4     17.270     18.391
REMARK  2 active torsions:
REMARK  status: ('A' for Active; 'I' for Inactive)
REMARK    1  A    between atoms: C4_4  and  C7_7 
REMARK    2  A    between atoms: C6_6  and  C10_10 
ROOT
HETATM    1  C1  UNL     1     -22.869  19.064   7.698  1.00 20.00     0.015 A 
HETATM    2  C2  UNL     1     -21.608  18.567   7.947  1.00 20.00     0.051 A 
HETATM    3  C3  UNL     1     -23.778  18.768   8.754  1.00 20.00    -0.048 A 
HETATM    4  C4  UNL     1     -23.177  18.056   9.771  1.00 20.00    -0.003 A 
HETATM    5  C8  UNL     1     -25.201  19.183   8.744  1.00 20.00     0.049 C 
HETATM    6  S11 UNL     1     -21.524  17.749   9.449  1.00 20.00    -0.105 SA
ENDROOT
BRANCH   4   7
HETATM    7  C7  UNL     1     -23.896  17.578  11.064  1.00 20.00    -0.005 A 
HETATM    8  C5  UNL     1     -23.631  18.385  12.327  1.00 20.00     0.021 A 
HETATM    9  C6  UNL     1     -24.950  18.533  11.626  1.00 20.00     0.010 A 
HETATM   10  C9  UNL     1     -24.068  16.091  11.191  1.00 20.00     0.021 C 
BRANCH   9  11
HETATM   11  C10 UNL     1     -26.203  18.050  12.273  1.00 20.00     0.091 C 
HETATM   12 BR12 UNL     1     -27.683  19.261  11.879  1.00 20.00    -0.096 Br
ENDBRANCH   9  11
ENDBRANCH   4   7
TORSDOF 2
ENDMDL
MODEL 8
REMARK VINA RESULT:      -3.4     12.609     13.809
REMARK  2 active torsions:
REMARK  status: ('A' for Active; 'I' for Inactive)
REMARK    1  A    between atoms: C4_4  and  C7_7 
REMARK    2  A    between atoms: C6_6  and  C10_10 
ROOT
HETATM    1  C1  UNL     1     -33.310  16.711  -2.123  1.00 20.00     0.015 A 
HETATM    2  C2  UNL     1     -33.672  17.916  -1.564  1.00 20.00     0.051 A 
HETATM    3  C3  UNL     1     -33.878  16.528  -3.417  1.00 20.00    -0.048 A 
HETATM    4  C4  UNL     1     -34.654  17.602  -3.798  1.00 20.00    -0.003 A 
HETATM    5  C8  UNL     1     -33.652  15.317  -4.242  1.00 20.00     0.049 C 
HETATM    6  S11 UNL     1     -34.694  18.822  -2.598  1.00 20.00    -0.105 SA
ENDROOT
BRANCH   4   7
HETATM    7  C7  UNL     1     -35.413  17.713  -5.150  1.00 20.00    -0.005 A 
HETATM    8  C5  UNL     1     -35.429  19.084  -5.810  1.00 20.00     0.021 A 
HETATM    9  C6  UNL     1     -34.544  18.011  -6.373  1.00 20.00     0.010 A 
HETATM   10  C9  UNL     1     -36.634  16.847  -5.275  1.00 20.00     0.021 C 
BRANCH   9  11
HETATM   11  C10 UNL     1     -34.827  17.430  -7.717  1.00 20.00     0.091 C 
HETATM   12 BR12 UNL     1     -33.931  15.708  -7.918  1.00 20.00    -0.096 Br
ENDBRANCH   9  11
ENDBRANCH   4   7
TORSDOF 2
ENDMDL
MODEL 9
REMARK VINA RESULT:      -3.3      2.779      4.779
REMARK  2 active torsions:
REMARK  status: ('A' for Active; 'I' for Inactive)
REMARK    1  A    between atoms: C4_4  and  C7_7 
REMARK    2  A    between atoms: C6_6  and  C10_10 
ROOT
HETATM    1  C1  UNL     1     -39.999  12.488   4.393  1.00 20.00     0.015 A 
HETATM    2  C2  UNL     1     -39.012  11.842   5.106  1.00 20.00     0.051 A 
HETATM    3  C3  UNL     1     -40.818  13.302   5.229  1.00 20.00    -0.048 A 
HETATM    4  C4  UNL     1     -40.425  13.247   6.549  1.00 20.00    -0.003 A 
HETATM    5  C8  UNL     1     -41.955  14.105   4.720  1.00 20.00     0.049 C 
HETATM    6  S11 UNL     1     -39.076  12.218   6.776  1.00 20.00    -0.105 SA
ENDROOT
BRANCH   4   7
HETATM    7  C7  UNL     1     -41.112  14.018   7.712  1.00 20.00    -0.005 A 
HETATM    8  C5  UNL     1     -40.213  14.474   8.851  1.00 20.00     0.021 A 
HETATM    9  C6  UNL     1     -40.710  15.486   7.861  1.00 20.00     0.010 A 
HETATM   10  C9  UNL     1     -42.509  13.574   8.040  1.00 20.00     0.021 C 
BRANCH   9  11
HETATM   11  C10 UNL     1     -41.673  16.542   8.283  1.00 20.00     0.091 C 
HETATM   12 BR12 UNL     1     -42.389  17.474   6.725  1.00 20.00    -0.096 Br
ENDBRANCH   9  11
ENDBRANCH   4   7
TORSDOF 2
ENDMDL
