MODEL 1
REMARK VINA RESULT:      -3.9      0.000      0.000
REMARK  1 active torsions:
REMARK  status: ('A' for Active; 'I' for Inactive)
REMARK    1  A    between atoms: C5_5  and  C10_10 
ROOT
HETATM    1  C1  UNL     1     -33.650  16.630  -1.914  1.00 20.00     0.036 C 
HETATM    2  C2  UNL     1     -33.947  18.519  -0.171  1.00 20.00     0.016 A 
HETATM    3  C3  UNL     1     -34.903  18.696  -2.574  1.00 20.00     0.047 C 
HETATM    4  C4  UNL     1     -33.260  16.463  -3.376  1.00 20.00     0.169 C 
HETATM    5  C5  UNL     1     -32.813  18.985  -1.042  1.00 20.00     0.009 A 
HETATM    6  C6  UNL     1     -33.897  18.088  -1.621  1.00 20.00    -0.031 A 
HETATM    7  C7  UNL     1     -34.523  18.413  -4.043  1.00 20.00     0.054 C 
HETATM    8  C8  UNL     1     -35.726  18.737  -4.940  1.00 20.00     0.045 C 
HETATM    9  C9  UNL     1     -33.333  19.263  -4.511  1.00 20.00     0.045 C 
HETATM   10  O11 UNL     1     -34.260  17.011  -4.235  1.00 20.00    -0.381 OA
ENDROOT
BRANCH   5  11
HETATM   11  C10 UNL     1     -31.424  18.512  -0.784  1.00 20.00     0.120 C 
HETATM   12 CL12 UNL     1     -31.055  18.508   0.962  1.00 20.00    -0.130 Cl
ENDBRANCH   5  11
TORSDOF 1
ENDMDL
MODEL 2
REMARK VINA RESULT:      -3.5     12.029     13.053
REMARK  1 active torsions:
REMARK  status: ('A' for Active; 'I' for Inactive)
REMARK    1  A    between atoms: C5_5  and  C10_10 
ROOT
HETATM    1  C1  UNL     1     -43.417  13.499   5.886  1.00 20.00     0.036 C 
HETATM    2  C2  UNL     1     -42.794  15.381   4.223  1.00 20.00     0.016 A 
HETATM    3  C3  UNL     1     -41.061  13.638   5.048  1.00 20.00     0.047 C 
HETATM    4  C4  UNL     1     -42.873  12.856   7.153  1.00 20.00     0.169 C 
HETATM    5  C5  UNL     1     -42.300  15.876   5.555  1.00 20.00     0.009 A 
HETATM    6  C6  UNL     1     -42.360  14.382   5.274  1.00 20.00    -0.031 A 
HETATM    7  C7  UNL     1     -40.601  12.915   6.331  1.00 20.00     0.054 C 
HETATM    8  C8  UNL     1     -39.496  11.913   5.969  1.00 20.00     0.045 C 
HETATM    9  C9  UNL     1     -40.042  13.888   7.379  1.00 20.00     0.045 C 
HETATM   10  O11 UNL     1     -41.674  12.129   6.880  1.00 20.00    -0.381 OA
ENDROOT
BRANCH   5  11
HETATM   11  C10 UNL     1     -43.231  16.560   6.494  1.00 20.00     0.120 C 
HETATM   12 CL12 UNL     1     -42.588  16.558   8.160  1.00 20.00    -0.130 Cl
ENDBRANCH   5  11
TORSDOF 1
ENDMDL
MODEL 3
REMARK VINA RESULT:      -3.4     12.368     13.958
REMARK  1 active torsions:
REMARK  status: ('A' for Active; 'I' for Inactive)
REMARK    1  A    between atoms: C5_5  and  C10_10 
ROOT
HETATM    1  C1  UNL     1     -42.485  12.359   6.941  1.00 20.00     0.036 C 
HETATM    2  C2  UNL     1     -40.935  13.262   5.076  1.00 20.00     0.016 A 
HETATM    3  C3  UNL     1     -40.624  13.915   7.565  1.00 20.00     0.047 C 
HETATM    4  C4  UNL     1     -43.251  12.874   8.150  1.00 20.00     0.169 C 
HETATM    5  C5  UNL     1     -41.900  14.385   5.340  1.00 20.00     0.009 A 
HETATM    6  C6  UNL     1     -41.530  13.422   6.458  1.00 20.00    -0.031 A 
HETATM    7  C7  UNL     1     -41.437  14.329   8.809  1.00 20.00     0.054 C 
HETATM    8  C8  UNL     1     -40.481  14.487  10.000  1.00 20.00     0.045 C 
HETATM    9  C9  UNL     1     -42.175  15.661   8.607  1.00 20.00     0.045 C 
HETATM   10  O11 UNL     1     -42.355  13.285   9.183  1.00 20.00    -0.381 OA
ENDROOT
BRANCH   5  11
HETATM   11  C10 UNL     1     -43.240  14.393   4.689  1.00 20.00     0.120 C 
HETATM   12 CL12 UNL     1     -43.140  14.982   3.007  1.00 20.00    -0.130 Cl
ENDBRANCH   5  11
TORSDOF 1
ENDMDL
MODEL 4
REMARK VINA RESULT:      -3.4      2.443      3.346
REMARK  1 active torsions:
REMARK  status: ('A' for Active; 'I' for Inactive)
REMARK    1  A    between atoms: C5_5  and  C10_10 
ROOT
HETATM    1  C1  UNL     1     -33.122  18.872  -4.087  1.00 20.00     0.036 C 
HETATM    2  C2  UNL     1     -32.871  17.543  -1.881  1.00 20.00     0.016 A 
HETATM    3  C3  UNL     1     -33.596  16.413  -4.098  1.00 20.00     0.047 C 
HETATM    4  C4  UNL     1     -34.106  19.013  -5.240  1.00 20.00     0.169 C 
HETATM    5  C5  UNL     1     -34.350  17.782  -2.010  1.00 20.00     0.009 A 
HETATM    6  C6  UNL     1     -33.486  17.667  -3.258  1.00 20.00    -0.031 A 
HETATM    7  C7  UNL     1     -34.521  16.634  -5.313  1.00 20.00     0.054 C 
HETATM    8  C8  UNL     1     -34.330  15.476  -6.302  1.00 20.00     0.045 C 
HETATM    9  C9  UNL     1     -36.004  16.685  -4.916  1.00 20.00     0.045 C 
HETATM   10  O11 UNL     1     -34.140  17.823  -6.028  1.00 20.00    -0.381 OA
ENDROOT
BRANCH   5  11
HETATM   11  C10 UNL     1     -34.946  19.068  -1.555  1.00 20.00     0.120 C 
HETATM   12 CL12 UNL     1     -36.612  19.262  -2.166  1.00 20.00    -0.130 Cl
ENDBRANCH   5  11
TORSDOF 1
ENDMDL
MODEL 5
REMARK VINA RESULT:      -3.4     11.930     13.225
REMARK  1 active torsions:
REMARK  status: ('A' for Active; 'I' for Inactive)
REMARK    1  A    between atoms: C5_5  and  C10_10 
ROOT
HETATM    1  C1  UNL     1     -42.967  14.471   5.596  1.00 20.00     0.036 C 
HETATM    2  C2  UNL     1     -42.453  12.246   6.814  1.00 20.00     0.016 A 
HETATM    3  C3  UNL     1     -42.421  14.530   8.040  1.00 20.00     0.047 C 
HETATM    4  C4  UNL     1     -42.404  15.881   5.490  1.00 20.00     0.169 C 
HETATM    5  C5  UNL     1     -41.102  12.848   6.545  1.00 20.00     0.009 A 
HETATM    6  C6  UNL     1     -42.310  13.751   6.747  1.00 20.00    -0.031 A 
HETATM    7  C7  UNL     1     -41.937  15.984   7.859  1.00 20.00     0.054 C 
HETATM    8  C8  UNL     1     -42.384  16.813   9.071  1.00 20.00     0.045 C 
HETATM    9  C9  UNL     1     -40.408  16.081   7.750  1.00 20.00     0.045 C 
HETATM   10  O11 UNL     1     -42.573  16.590   6.718  1.00 20.00    -0.381 OA
ENDROOT
BRANCH   5  11
HETATM   11  C10 UNL     1     -40.445  12.660   5.222  1.00 20.00     0.120 C 
HETATM   12 CL12 UNL     1     -38.746  12.147   5.409  1.00 20.00    -0.130 Cl
ENDBRANCH   5  11
TORSDOF 1
ENDMDL
MODEL 6
REMARK VINA RESULT:      -3.3      2.749      4.568
REMARK  1 active torsions:
REMARK  status: ('A' for Active; 'I' for Inactive)
REMARK    1  A    between atoms: C5_5  and  C10_10 
ROOT
HETATM    1  C1  UNL     1     -34.299  19.263  -4.822  1.00 20.00     0.036 C 
HETATM    2  C2  UNL     1     -36.616  18.133  -5.045  1.00 20.00     0.016 A 
HETATM    3  C3  UNL     1     -35.372  18.293  -2.777  1.00 20.00     0.047 C 
HETATM    4  C4  UNL     1     -32.948  18.999  -4.174  1.00 20.00     0.169 C 
HETATM    5  C5  UNL     1     -35.641  16.989  -5.019  1.00 20.00     0.009 A 
HETATM    6  C6  UNL     1     -35.314  18.283  -4.289  1.00 20.00    -0.031 A 
HETATM    7  C7  UNL     1     -33.965  18.127  -2.163  1.00 20.00     0.054 C 
HETATM    8  C8  UNL     1     -34.027  18.487  -0.672  1.00 20.00     0.045 C 
HETATM    9  C9  UNL     1     -33.440  16.690  -2.289  1.00 20.00     0.045 C 
HETATM   10  O11 UNL     1     -33.044  19.064  -2.751  1.00 20.00    -0.381 OA
ENDROOT
BRANCH   5  11
HETATM   11  C10 UNL     1     -34.945  16.565  -6.266  1.00 20.00     0.120 C 
HETATM   12 CL12 UNL     1     -33.948  15.111  -5.990  1.00 20.00    -0.130 Cl
ENDBRANCH   5  11
TORSDOF 1
ENDMDL
MODEL 7
REMARK VINA RESULT:      -3.3     12.320     13.578
REMARK  1 active torsions:
REMARK  status: ('A' for Active; 'I' for Inactive)
REMARK    1  A    between atoms: C5_5  and  C10_10 
ROOT
HETATM    1  C1  UNL     1     -41.284  16.018   7.310  1.00 20.00     0.036 C 
HETATM    2  C2  UNL     1     -40.144  15.296   9.518  1.00 20.00     0.016 A 
HETATM    3  C3  UNL     1     -40.190  13.768   7.424  1.00 20.00     0.047 C 
HETATM    4  C4  UNL     1     -42.228  15.448   6.262  1.00 20.00     0.169 C 
HETATM    5  C5  UNL     1     -41.476  14.597   9.536  1.00 20.00     0.009 A 
HETATM    6  C6  UNL     1     -40.799  14.909   8.210  1.00 20.00    -0.031 A 
HETATM    7  C7  UNL     1     -41.139  13.290   6.306  1.00 20.00     0.054 C 
HETATM    8  C8  UNL     1     -40.356  12.392   5.338  1.00 20.00     0.045 C 
HETATM    9  C9  UNL     1     -42.327  12.486   6.853  1.00 20.00     0.045 C 
HETATM   10  O11 UNL     1     -41.594  14.406   5.519  1.00 20.00    -0.381 OA
ENDROOT
BRANCH   5  11
HETATM   11  C10 UNL     1     -42.693  15.312  10.011  1.00 20.00     0.120 C 
HETATM   12 CL12 UNL     1     -42.264  16.757  10.967  1.00 20.00    -0.130 Cl
ENDBRANCH   5  11
TORSDOF 1
ENDMDL
MODEL 8
REMARK VINA RESULT:      -3.3      3.235      4.393
REMARK  1 active torsions:
REMARK  status: ('A' for Active; 'I' for Inactive)
REMARK    1  A    between atoms: C5_5  and  C10_10 
ROOT
HETATM    1  C1  UNL     1     -34.199  15.387  -6.577  1.00 20.00     0.036 C 
HETATM    2  C2  UNL     1     -34.681  14.029  -4.428  1.00 20.00     0.016 A 
HETATM    3  C3  UNL     1     -36.502  15.458  -5.594  1.00 20.00     0.047 C 
HETATM    4  C4  UNL     1     -34.454  16.777  -7.141  1.00 20.00     0.169 C 
HETATM    5  C5  UNL     1     -34.482  15.439  -3.945  1.00 20.00     0.009 A 
HETATM    6  C6  UNL     1     -35.036  15.184  -5.339  1.00 20.00    -0.031 A 
HETATM    7  C7  UNL     1     -36.704  16.835  -6.262  1.00 20.00     0.054 C 
HETATM    8  C8  UNL     1     -38.137  16.917  -6.808  1.00 20.00     0.045 C 
HETATM    9  C9  UNL     1     -36.498  17.996  -5.279  1.00 20.00     0.045 C 
HETATM   10  O11 UNL     1     -35.843  16.972  -7.407  1.00 20.00    -0.381 OA
ENDROOT
BRANCH   5  11
HETATM   11  C10 UNL     1     -33.109  15.964  -3.703  1.00 20.00     0.120 C 
HETATM   12 CL12 UNL     1     -33.049  16.965  -2.227  1.00 20.00    -0.130 Cl
ENDBRANCH   5  11
TORSDOF 1
ENDMDL
MODEL 9
REMARK VINA RESULT:      -3.3     24.688     26.048
REMARK  1 active torsions:
REMARK  status: ('A' for Active; 'I' for Inactive)
REMARK    1  A    between atoms: C5_5  and  C10_10 
ROOT
HETATM    1  C1  UNL     1     -25.806  -4.117  11.816  1.00 20.00     0.036 C 
HETATM    2  C2  UNL     1     -23.554  -2.842  11.780  1.00 20.00     0.016 A 
HETATM    3  C3  UNL     1     -25.824  -1.628  12.089  1.00 20.00     0.047 C 
HETATM    4  C4  UNL     1     -27.200  -4.009  11.215  1.00 20.00     0.169 C 
HETATM    5  C5  UNL     1     -24.119  -2.648  10.399  1.00 20.00     0.009 A 
HETATM    6  C6  UNL     1     -25.055  -2.830  11.585  1.00 20.00    -0.031 A 
HETATM    7  C7  UNL     1     -27.265  -1.615  11.537  1.00 20.00     0.054 C 
HETATM    8  C8  UNL     1     -28.094  -0.596  12.332  1.00 20.00     0.045 C 
HETATM    9  C9  UNL     1     -27.317  -1.222  10.053  1.00 20.00     0.045 C 
HETATM   10  O11 UNL     1     -27.900  -2.888  11.754  1.00 20.00    -0.381 OA
ENDROOT
BRANCH   5  11
HETATM   11  C10 UNL     1     -23.925  -3.692   9.355  1.00 20.00     0.120 C 
HETATM   12 CL12 UNL     1     -23.224  -2.997   7.867  1.00 20.00    -0.130 Cl
ENDBRANCH   5  11
TORSDOF 1
ENDMDL
