MODEL 1
REMARK VINA RESULT:      -4.8      0.000      0.000
REMARK  1 active torsions:
REMARK  status: ('A' for Active; 'I' for Inactive)
REMARK    1  A    between atoms: C4_4  and  C9_9 
ROOT
HETATM    1  C1  UNL     1     -32.492   8.706   5.090  1.00 20.00     0.131 C 
HETATM    2  C2  UNL     1     -33.292   7.806   6.050  1.00 20.00     0.084 C 
HETATM    3  C3  UNL     1     -33.166   8.080   3.846  1.00 20.00     0.056 C 
HETATM    4  C4  UNL     1     -34.207   7.458   4.842  1.00 20.00     0.011 C 
HETATM    5  C5  UNL     1     -32.260   7.170   3.035  1.00 20.00     0.018 C 
HETATM    6  O10 UNL     1     -31.654   9.567   5.251  1.00 20.00    -0.298 OA
ENDROOT
BRANCH   4   7
HETATM    7  C9  UNL     1     -34.578   5.993   4.701  1.00 20.00    -0.047 C 
HETATM    8  C6  UNL     1     -36.016   5.861   4.161  1.00 20.00     0.015 C 
HETATM    9  C7  UNL     1     -34.495   5.291   6.072  1.00 20.00     0.015 C 
HETATM   10  C8  UNL     1     -33.614   5.293   3.724  1.00 20.00     0.015 C 
ENDBRANCH   4   7
TORSDOF 1
ENDMDL
MODEL 2
REMARK VINA RESULT:      -4.7      1.595      2.675
REMARK  1 active torsions:
REMARK  status: ('A' for Active; 'I' for Inactive)
REMARK    1  A    between atoms: C4_4  and  C9_9 
ROOT
HETATM    1  C1  UNL     1     -32.424   7.247   2.612  1.00 20.00     0.131 C 
HETATM    2  C2  UNL     1     -33.242   5.972   2.888  1.00 20.00     0.084 C 
HETATM    3  C3  UNL     1     -32.537   7.710   4.084  1.00 20.00     0.056 C 
HETATM    4  C4  UNL     1     -33.035   6.256   4.402  1.00 20.00     0.011 C 
HETATM    5  C5  UNL     1     -33.466   8.890   4.299  1.00 20.00     0.018 C 
HETATM    6  O10 UNL     1     -31.899   7.709   1.621  1.00 20.00    -0.298 OA
ENDROOT
BRANCH   4   7
HETATM    7  C9  UNL     1     -34.260   6.071   5.278  1.00 20.00    -0.047 C 
HETATM    8  C6  UNL     1     -34.262   4.659   5.896  1.00 20.00     0.015 C 
HETATM    9  C7  UNL     1     -35.542   6.249   4.440  1.00 20.00     0.015 C 
HETATM   10  C8  UNL     1     -34.261   7.112   6.415  1.00 20.00     0.015 C 
ENDBRANCH   4   7
TORSDOF 1
ENDMDL
MODEL 3
REMARK VINA RESULT:      -4.5      1.120      2.226
REMARK  1 active torsions:
REMARK  status: ('A' for Active; 'I' for Inactive)
REMARK    1  A    between atoms: C4_4  and  C9_9 
ROOT
HETATM    1  C1  UNL     1     -32.637   8.365   3.791  1.00 20.00     0.131 C 
HETATM    2  C2  UNL     1     -33.100   7.039   3.159  1.00 20.00     0.084 C 
HETATM    3  C3  UNL     1     -32.983   7.874   5.217  1.00 20.00     0.056 C 
HETATM    4  C4  UNL     1     -33.093   6.439   4.593  1.00 20.00     0.011 C 
HETATM    5  C5  UNL     1     -34.210   8.530   5.823  1.00 20.00     0.018 C 
HETATM    6  O10 UNL     1     -32.183   9.395   3.341  1.00 20.00    -0.298 OA
ENDROOT
BRANCH   4   7
HETATM    7  C9  UNL     1     -34.287   5.571   4.946  1.00 20.00    -0.047 C 
HETATM    8  C6  UNL     1     -34.490   5.548   6.474  1.00 20.00     0.015 C 
HETATM    9  C7  UNL     1     -34.057   4.128   4.453  1.00 20.00     0.015 C 
HETATM   10  C8  UNL     1     -35.562   6.126   4.283  1.00 20.00     0.015 C 
ENDBRANCH   4   7
TORSDOF 1
ENDMDL
MODEL 4
REMARK VINA RESULT:      -4.4      2.181      3.941
REMARK  1 active torsions:
REMARK  status: ('A' for Active; 'I' for Inactive)
REMARK    1  A    between atoms: C4_4  and  C9_9 
ROOT
HETATM    1  C1  UNL     1     -34.318   5.369   4.530  1.00 20.00     0.131 C 
HETATM    2  C2  UNL     1     -33.464   5.846   3.341  1.00 20.00     0.084 C 
HETATM    3  C3  UNL     1     -34.352   6.786   5.150  1.00 20.00     0.056 C 
HETATM    4  C4  UNL     1     -33.812   7.299   3.768  1.00 20.00     0.011 C 
HETATM    5  C5  UNL     1     -33.502   6.944   6.398  1.00 20.00     0.018 C 
HETATM    6  O10 UNL     1     -34.778   4.296   4.856  1.00 20.00    -0.298 OA
ENDROOT
BRANCH   4   7
HETATM    7  C9  UNL     1     -32.657   8.283   3.747  1.00 20.00    -0.047 C 
HETATM    8  C6  UNL     1     -32.828   9.274   2.578  1.00 20.00     0.015 C 
HETATM    9  C7  UNL     1     -31.323   7.531   3.570  1.00 20.00     0.015 C 
HETATM   10  C8  UNL     1     -32.611   9.075   5.068  1.00 20.00     0.015 C 
ENDBRANCH   4   7
TORSDOF 1
ENDMDL
MODEL 5
REMARK VINA RESULT:      -4.1     12.316     13.649
REMARK  1 active torsions:
REMARK  status: ('A' for Active; 'I' for Inactive)
REMARK    1  A    between atoms: C4_4  and  C9_9 
ROOT
HETATM    1  C1  UNL     1     -34.364  15.646  -6.095  1.00 20.00     0.131 C 
HETATM    2  C2  UNL     1     -34.665  17.128  -5.810  1.00 20.00     0.084 C 
HETATM    3  C3  UNL     1     -34.175  15.334  -4.592  1.00 20.00     0.056 C 
HETATM    4  C4  UNL     1     -34.835  16.730  -4.317  1.00 20.00     0.011 C 
HETATM    5  C5  UNL     1     -32.734  15.085  -4.181  1.00 20.00     0.018 C 
HETATM    6  O10 UNL     1     -34.297  14.983  -7.109  1.00 20.00    -0.298 OA
ENDROOT
BRANCH   4   7
HETATM    7  C9  UNL     1     -34.190  17.666  -3.311  1.00 20.00    -0.047 C 
HETATM    8  C6  UNL     1     -35.249  18.617  -2.718  1.00 20.00     0.015 C 
HETATM    9  C7  UNL     1     -33.095  18.507  -3.997  1.00 20.00     0.015 C 
HETATM   10  C8  UNL     1     -33.552  16.856  -2.166  1.00 20.00     0.015 C 
ENDBRANCH   4   7
TORSDOF 1
ENDMDL
MODEL 6
REMARK VINA RESULT:      -4.0     12.163     13.503
REMARK  1 active torsions:
REMARK  status: ('A' for Active; 'I' for Inactive)
REMARK    1  A    between atoms: C4_4  and  C9_9 
ROOT
HETATM    1  C1  UNL     1     -33.786  16.792  -2.833  1.00 20.00     0.131 C 
HETATM    2  C2  UNL     1     -34.674  17.663  -3.740  1.00 20.00     0.084 C 
HETATM    3  C3  UNL     1     -33.382  15.874  -4.011  1.00 20.00     0.056 C 
HETATM    4  C4  UNL     1     -33.983  16.977  -4.952  1.00 20.00     0.011 C 
HETATM    5  C5  UNL     1     -34.008  14.492  -3.970  1.00 20.00     0.018 C 
HETATM    6  O10 UNL     1     -33.515  16.816  -1.652  1.00 20.00    -0.298 OA
ENDROOT
BRANCH   4   7
HETATM    7  C9  UNL     1     -34.905  16.558  -6.082  1.00 20.00    -0.047 C 
HETATM    8  C6  UNL     1     -34.231  15.469  -6.940  1.00 20.00     0.015 C 
HETATM    9  C7  UNL     1     -35.227  17.770  -6.980  1.00 20.00     0.015 C 
HETATM   10  C8  UNL     1     -36.223  15.998  -5.512  1.00 20.00     0.015 C 
ENDBRANCH   4   7
TORSDOF 1
ENDMDL
MODEL 7
REMARK VINA RESULT:      -4.0     12.193     13.687
REMARK  1 active torsions:
REMARK  status: ('A' for Active; 'I' for Inactive)
REMARK    1  A    between atoms: C4_4  and  C9_9 
ROOT
HETATM    1  C1  UNL     1     -34.019  15.057  -4.016  1.00 20.00     0.131 C 
HETATM    2  C2  UNL     1     -33.477  16.059  -2.980  1.00 20.00     0.084 C 
HETATM    3  C3  UNL     1     -34.275  16.177  -5.053  1.00 20.00     0.056 C 
HETATM    4  C4  UNL     1     -33.392  17.095  -4.135  1.00 20.00     0.011 C 
HETATM    5  C5  UNL     1     -35.740  16.509  -5.267  1.00 20.00     0.018 C 
HETATM    6  O10 UNL     1     -34.186  13.856  -4.015  1.00 20.00    -0.298 OA
ENDROOT
BRANCH   4   7
HETATM    7  C9  UNL     1     -33.883  18.492  -3.800  1.00 20.00    -0.047 C 
HETATM    8  C6  UNL     1     -35.155  18.413  -2.934  1.00 20.00     0.015 C 
HETATM    9  C7  UNL     1     -34.210  19.263  -5.095  1.00 20.00     0.015 C 
HETATM   10  C8  UNL     1     -32.798  19.263  -3.023  1.00 20.00     0.015 C 
ENDBRANCH   4   7
TORSDOF 1
ENDMDL
MODEL 8
REMARK VINA RESULT:      -3.9     12.276     13.644
REMARK  1 active torsions:
REMARK  status: ('A' for Active; 'I' for Inactive)
REMARK    1  A    between atoms: C4_4  and  C9_9 
ROOT
HETATM    1  C1  UNL     1     -29.504  -2.630  11.048  1.00 20.00     0.131 C 
HETATM    2  C2  UNL     1     -28.612  -3.477  11.976  1.00 20.00     0.084 C 
HETATM    3  C3  UNL     1     -28.325  -2.329  10.093  1.00 20.00     0.056 C 
HETATM    4  C4  UNL     1     -27.553  -3.474  10.838  1.00 20.00     0.011 C 
HETATM    5  C5  UNL     1     -27.811  -0.902  10.163  1.00 20.00     0.018 C 
HETATM    6  O10 UNL     1     -30.675  -2.318  11.067  1.00 20.00    -0.298 OA
ENDROOT
BRANCH   4   7
HETATM    7  C9  UNL     1     -26.120  -3.234  11.277  1.00 20.00    -0.047 C 
HETATM    8  C6  UNL     1     -25.240  -2.908  10.053  1.00 20.00     0.015 C 
HETATM    9  C7  UNL     1     -25.560  -4.491  11.971  1.00 20.00     0.015 C 
HETATM   10  C8  UNL     1     -26.059  -2.051  12.263  1.00 20.00     0.015 C 
ENDBRANCH   4   7
TORSDOF 1
ENDMDL
MODEL 9
REMARK VINA RESULT:      -3.9     12.149     12.948
REMARK  1 active torsions:
REMARK  status: ('A' for Active; 'I' for Inactive)
REMARK    1  A    between atoms: C4_4  and  C9_9 
ROOT
HETATM    1  C1  UNL     1     -32.671  18.513   0.396  1.00 20.00     0.131 C 
HETATM    2  C2  UNL     1     -31.928  18.288  -0.934  1.00 20.00     0.084 C 
HETATM    3  C3  UNL     1     -34.028  18.107  -0.225  1.00 20.00     0.056 C 
HETATM    4  C4  UNL     1     -33.199  17.544  -1.432  1.00 20.00     0.011 C 
HETATM    5  C5  UNL     1     -34.988  19.263  -0.442  1.00 20.00     0.018 C 
HETATM    6  O10 UNL     1     -32.323  18.875   1.500  1.00 20.00    -0.298 OA
ENDROOT
BRANCH   4   7
HETATM    7  C9  UNL     1     -33.640  17.873  -2.847  1.00 20.00    -0.047 C 
HETATM    8  C6  UNL     1     -35.159  18.135  -2.880  1.00 20.00     0.015 C 
HETATM    9  C7  UNL     1     -33.317  16.697  -3.790  1.00 20.00     0.015 C 
HETATM   10  C8  UNL     1     -32.907  19.131  -3.352  1.00 20.00     0.015 C 
ENDBRANCH   4   7
TORSDOF 1
ENDMDL
