MODEL 1
REMARK VINA RESULT:      -4.1      0.000      0.000
REMARK  3 active torsions:
REMARK  status: ('A' for Active; 'I' for Inactive)
REMARK    1  A    between atoms: C2_2  and  C6_6 
REMARK    2  A    between atoms: C3_3  and  C7_7 
REMARK    3  A    between atoms: C6_6  and  O8_8 
ROOT
HETATM    1  C1  UNL     1     -33.928   8.588   4.813  1.00 20.00     0.017 A 
HETATM    2  C2  UNL     1     -32.683   7.786   4.570  1.00 20.00     0.018 A 
HETATM    3  C3  UNL     1     -33.954   7.087   5.050  1.00 20.00    -0.038 A 
HETATM    4  C4  UNL     1     -34.749   6.232   4.100  1.00 20.00     0.015 C 
ENDROOT
BRANCH   2   5
HETATM    5  C6  UNL     1     -32.150   7.626   3.187  1.00 20.00     0.169 C 
BRANCH   5   6
HETATM    6  O8  UNL     1     -32.511   8.756   2.393  1.00 20.00    -0.400 OA
HETATM    7  H22 UNL     1     -32.930   8.406   1.593  1.00 20.00     0.209 HD
ENDBRANCH   5   6
ENDBRANCH   2   5
BRANCH   3   8
HETATM    8  C7  UNL     1     -33.974   6.600   6.475  1.00 20.00     0.005 C 
HETATM    9  C5  UNL     1     -34.518   5.206   6.597  1.00 20.00     0.006 C 
ENDBRANCH   3   8
TORSDOF 3
ENDMDL
MODEL 2
REMARK VINA RESULT:      -3.9     11.439     12.300
REMARK  3 active torsions:
REMARK  status: ('A' for Active; 'I' for Inactive)
REMARK    1  A    between atoms: C2_2  and  C6_6 
REMARK    2  A    between atoms: C3_3  and  C7_7 
REMARK    3  A    between atoms: C6_6  and  O8_8 
ROOT
HETATM    1  C1  UNL     1     -32.766  15.069  -4.258  1.00 20.00     0.017 A 
HETATM    2  C2  UNL     1     -34.140  14.644  -3.828  1.00 20.00     0.018 A 
HETATM    3  C3  UNL     1     -33.714  16.103  -3.671  1.00 20.00    -0.038 A 
HETATM    4  C4  UNL     1     -34.274  17.155  -4.591  1.00 20.00     0.015 C 
ENDROOT
BRANCH   2   5
HETATM    5  C6  UNL     1     -35.141  14.202  -4.840  1.00 20.00     0.169 C 
BRANCH   5   6
HETATM    6  O8  UNL     1     -35.688  12.938  -4.462  1.00 20.00    -0.400 OA
HETATM    7  H22 UNL     1     -35.041  12.526  -3.869  1.00 20.00     0.209 HD
ENDBRANCH   5   6
ENDBRANCH   2   5
BRANCH   3   8
HETATM    8  C7  UNL     1     -33.442  16.593  -2.273  1.00 20.00     0.005 C 
HETATM    9  C5  UNL     1     -32.936  18.006  -2.249  1.00 20.00     0.006 C 
ENDBRANCH   3   8
TORSDOF 3
ENDMDL
MODEL 3
REMARK VINA RESULT:      -3.8      1.748      2.874
REMARK  3 active torsions:
REMARK  status: ('A' for Active; 'I' for Inactive)
REMARK    1  A    between atoms: C2_2  and  C6_6 
REMARK    2  A    between atoms: C3_3  and  C7_7 
REMARK    3  A    between atoms: C6_6  and  O8_8 
ROOT
HETATM    1  C1  UNL     1     -34.612   5.432   6.419  1.00 20.00     0.017 A 
HETATM    2  C2  UNL     1     -33.702   6.458   5.809  1.00 20.00     0.018 A 
HETATM    3  C3  UNL     1     -34.555   5.570   4.906  1.00 20.00    -0.038 A 
HETATM    4  C4  UNL     1     -35.755   6.143   4.200  1.00 20.00     0.015 C 
ENDROOT
BRANCH   2   5
HETATM    5  C6  UNL     1     -33.974   7.912   5.998  1.00 20.00     0.169 C 
BRANCH   5   6
HETATM    6  O8  UNL     1     -33.094   8.681   5.179  1.00 20.00    -0.400 OA
HETATM    7  H22 UNL     1     -33.472   9.573   5.133  1.00 20.00     0.209 HD
ENDBRANCH   5   6
ENDBRANCH   2   5
BRANCH   3   8
HETATM    8  C7  UNL     1     -33.843   4.495   4.127  1.00 20.00     0.005 C 
HETATM    9  C5  UNL     1     -33.218   5.018   2.867  1.00 20.00     0.006 C 
ENDBRANCH   3   8
TORSDOF 3
ENDMDL
MODEL 4
REMARK VINA RESULT:      -3.8     15.203     16.310
REMARK  3 active torsions:
REMARK  status: ('A' for Active; 'I' for Inactive)
REMARK    1  A    between atoms: C2_2  and  C6_6 
REMARK    2  A    between atoms: C3_3  and  C7_7 
REMARK    3  A    between atoms: C6_6  and  O8_8 
ROOT
HETATM    1  C1  UNL     1     -24.276  18.444  10.485  1.00 20.00     0.017 A 
HETATM    2  C2  UNL     1     -23.974  17.000  10.762  1.00 20.00     0.018 A 
HETATM    3  C3  UNL     1     -22.881  18.052  10.944  1.00 20.00    -0.038 A 
HETATM    4  C4  UNL     1     -22.449  18.459  12.328  1.00 20.00     0.015 C 
ENDROOT
BRANCH   2   5
HETATM    5  C6  UNL     1     -24.620  16.303  11.911  1.00 20.00     0.169 C 
BRANCH   5   6
HETATM    6  O8  UNL     1     -26.006  16.642  11.967  1.00 20.00    -0.400 OA
HETATM    7  H22 UNL     1     -26.490  15.866  11.646  1.00 20.00     0.209 HD
ENDBRANCH   5   6
ENDBRANCH   2   5
BRANCH   3   8
HETATM    8  C7  UNL     1     -21.772  18.075   9.926  1.00 20.00     0.005 C 
HETATM    9  C5  UNL     1     -21.858  19.263   9.011  1.00 20.00     0.006 C 
ENDBRANCH   3   8
TORSDOF 3
ENDMDL
MODEL 5
REMARK VINA RESULT:      -3.8      2.137      3.956
REMARK  3 active torsions:
REMARK  status: ('A' for Active; 'I' for Inactive)
REMARK    1  A    between atoms: C2_2  and  C6_6 
REMARK    2  A    between atoms: C3_3  and  C7_7 
REMARK    3  A    between atoms: C6_6  and  O8_8 
ROOT
HETATM    1  C1  UNL     1     -32.129   8.533   4.730  1.00 20.00     0.017 A 
HETATM    2  C2  UNL     1     -33.565   8.131   4.561  1.00 20.00     0.018 A 
HETATM    3  C3  UNL     1     -32.635   8.149   3.349  1.00 20.00    -0.038 A 
HETATM    4  C4  UNL     1     -32.151   6.856   2.751  1.00 20.00     0.015 C 
ENDROOT
BRANCH   2   5
HETATM    5  C6  UNL     1     -34.069   6.867   5.170  1.00 20.00     0.169 C 
BRANCH   5   6
HETATM    6  O8  UNL     1     -34.268   7.049   6.572  1.00 20.00    -0.400 OA
HETATM    7  H22 UNL     1     -35.083   7.565   6.668  1.00 20.00     0.209 HD
ENDBRANCH   5   6
ENDBRANCH   2   5
BRANCH   3   8
HETATM    8  C7  UNL     1     -32.838   9.251   2.343  1.00 20.00     0.005 C 
HETATM    9  C5  UNL     1     -32.457   8.835   0.952  1.00 20.00     0.006 C 
ENDBRANCH   3   8
TORSDOF 3
ENDMDL
MODEL 6
REMARK VINA RESULT:      -3.7      2.346      3.688
REMARK  3 active torsions:
REMARK  status: ('A' for Active; 'I' for Inactive)
REMARK    1  A    between atoms: C2_2  and  C6_6 
REMARK    2  A    between atoms: C3_3  and  C7_7 
REMARK    3  A    between atoms: C6_6  and  O8_8 
ROOT
HETATM    1  C1  UNL     1     -33.331   6.784   5.794  1.00 20.00     0.017 A 
HETATM    2  C2  UNL     1     -34.575   6.999   4.981  1.00 20.00     0.018 A 
HETATM    3  C3  UNL     1     -33.206   7.265   4.358  1.00 20.00    -0.038 A 
HETATM    4  C4  UNL     1     -32.644   6.312   3.337  1.00 20.00     0.015 C 
ENDROOT
BRANCH   2   5
HETATM    5  C6  UNL     1     -35.426   5.839   4.590  1.00 20.00     0.169 C 
BRANCH   5   6
HETATM    6  O8  UNL     1     -35.232   4.763   5.508  1.00 20.00    -0.400 OA
HETATM    7  H22 UNL     1     -35.746   4.982   6.300  1.00 20.00     0.209 HD
ENDBRANCH   5   6
ENDBRANCH   2   5
BRANCH   3   8
HETATM    8  C7  UNL     1     -32.824   8.703   4.127  1.00 20.00     0.005 C 
HETATM    9  C5  UNL     1     -32.574   9.006   2.678  1.00 20.00     0.006 C 
ENDBRANCH   3   8
TORSDOF 3
ENDMDL
MODEL 7
REMARK VINA RESULT:      -3.6     12.001     12.680
REMARK  3 active torsions:
REMARK  status: ('A' for Active; 'I' for Inactive)
REMARK    1  A    between atoms: C2_2  and  C6_6 
REMARK    2  A    between atoms: C3_3  and  C7_7 
REMARK    3  A    between atoms: C6_6  and  O8_8 
ROOT
HETATM    1  C1  UNL     1     -33.825  15.082  -5.785  1.00 20.00     0.017 A 
HETATM    2  C2  UNL     1     -34.846  14.518  -4.840  1.00 20.00     0.018 A 
HETATM    3  C3  UNL     1     -34.184  15.860  -4.529  1.00 20.00    -0.038 A 
HETATM    4  C4  UNL     1     -34.963  17.139  -4.686  1.00 20.00     0.015 C 
ENDROOT
BRANCH   2   5
HETATM    5  C6  UNL     1     -36.272  14.402  -5.256  1.00 20.00     0.169 C 
BRANCH   5   6
HETATM    6  O8  UNL     1     -37.039  13.817  -4.203  1.00 20.00    -0.400 OA
HETATM    7  H22 UNL     1     -37.890  13.565  -4.592  1.00 20.00     0.209 HD
ENDBRANCH   5   6
ENDBRANCH   2   5
BRANCH   3   8
HETATM    8  C7  UNL     1     -33.180  15.888  -3.408  1.00 20.00     0.005 C 
HETATM    9  C5  UNL     1     -33.482  16.952  -2.393  1.00 20.00     0.006 C 
ENDBRANCH   3   8
TORSDOF 3
ENDMDL
MODEL 8
REMARK VINA RESULT:      -3.6     12.139     12.879
REMARK  3 active torsions:
REMARK  status: ('A' for Active; 'I' for Inactive)
REMARK    1  A    between atoms: C2_2  and  C6_6 
REMARK    2  A    between atoms: C3_3  and  C7_7 
REMARK    3  A    between atoms: C6_6  and  O8_8 
ROOT
HETATM    1  C1  UNL     1     -34.134  17.941  -1.345  1.00 20.00     0.017 A 
HETATM    2  C2  UNL     1     -32.644  17.846  -1.186  1.00 20.00     0.018 A 
HETATM    3  C3  UNL     1     -33.275  17.622  -2.559  1.00 20.00    -0.038 A 
HETATM    4  C4  UNL     1     -33.143  18.672  -3.629  1.00 20.00     0.015 C 
ENDROOT
BRANCH   2   5
HETATM    5  C6  UNL     1     -31.845  19.060  -0.856  1.00 20.00     0.169 C 
BRANCH   5   6
HETATM    6  O8  UNL     1     -30.553  18.678  -0.383  1.00 20.00    -0.400 OA
HETATM    7  H22 UNL     1     -30.001  18.551  -1.169  1.00 20.00     0.209 HD
ENDBRANCH   5   6
ENDBRANCH   2   5
BRANCH   3   8
HETATM    8  C7  UNL     1     -33.295  16.211  -3.084  1.00 20.00     0.005 C 
HETATM    9  C5  UNL     1     -34.034  16.094  -4.386  1.00 20.00     0.006 C 
ENDBRANCH   3   8
TORSDOF 3
ENDMDL
MODEL 9
REMARK VINA RESULT:      -3.5      1.781      2.870
REMARK  3 active torsions:
REMARK  status: ('A' for Active; 'I' for Inactive)
REMARK    1  A    between atoms: C2_2  and  C6_6 
REMARK    2  A    between atoms: C3_3  and  C7_7 
REMARK    3  A    between atoms: C6_6  and  O8_8 
ROOT
HETATM    1  C1  UNL     1     -35.536   6.106   4.493  1.00 20.00     0.017 A 
HETATM    2  C2  UNL     1     -34.130   5.954   3.991  1.00 20.00     0.018 A 
HETATM    3  C3  UNL     1     -34.378   6.304   5.458  1.00 20.00    -0.038 A 
HETATM    4  C4  UNL     1     -34.161   5.268   6.527  1.00 20.00     0.015 C 
ENDROOT
BRANCH   2   5
HETATM    5  C6  UNL     1     -33.626   4.621   3.556  1.00 20.00     0.169 C 
BRANCH   5   6
HETATM    6  O8  UNL     1     -32.720   4.776   2.465  1.00 20.00    -0.400 OA
HETATM    7  H22 UNL     1     -32.888   4.037   1.861  1.00 20.00     0.209 HD
ENDBRANCH   5   6
ENDBRANCH   2   5
BRANCH   3   8
HETATM    8  C7  UNL     1     -34.058   7.710   5.893  1.00 20.00     0.005 C 
HETATM    9  C5  UNL     1     -32.912   8.302   5.124  1.00 20.00     0.006 C 
ENDBRANCH   3   8
TORSDOF 3
ENDMDL
