MODEL 1
REMARK VINA RESULT:      -3.8      0.000      0.000
REMARK  1 active torsions:
REMARK  status: ('A' for Active; 'I' for Inactive)
REMARK    1  A    between atoms: C6_6  and  C8_8 
ROOT
HETATM    1  C1  UNL     1     -33.672   4.882   4.282  1.00 20.00     0.011 C 
HETATM    2  C2  UNL     1     -33.592   6.002   3.244  1.00 20.00     0.011 C 
HETATM    3  C3  UNL     1     -31.661   7.581   3.988  1.00 20.00     0.017 A 
HETATM    4  C4  UNL     1     -34.643   5.189   5.416  1.00 20.00     0.074 C 
HETATM    5  C5  UNL     1     -34.072   7.837   4.934  1.00 20.00     0.083 C 
HETATM    6  C6  UNL     1     -32.470   8.362   2.990  1.00 20.00     0.009 A 
HETATM    7  C7  UNL     1     -33.148   7.313   3.861  1.00 20.00    -0.027 A 
HETATM    8  S9  UNL     1     -34.152   6.683   6.327  1.00 20.00    -0.168 SA
ENDROOT
BRANCH   6   9
HETATM    9  C8  UNL     1     -32.239   8.182   1.529  1.00 20.00     0.120 C 
HETATM   10 CL10 UNL     1     -32.801   9.602   0.605  1.00 20.00    -0.130 Cl
ENDBRANCH   6   9
TORSDOF 1
ENDMDL
MODEL 2
REMARK VINA RESULT:      -3.7      9.736     11.101
REMARK  1 active torsions:
REMARK  status: ('A' for Active; 'I' for Inactive)
REMARK    1  A    between atoms: C6_6  and  C8_8 
ROOT
HETATM    1  C1  UNL     1     -40.781  15.677   7.985  1.00 20.00     0.011 C 
HETATM    2  C2  UNL     1     -40.271  14.265   7.693  1.00 20.00     0.011 C 
HETATM    3  C3  UNL     1     -41.301  13.553   5.411  1.00 20.00     0.017 A 
HETATM    4  C4  UNL     1     -42.068  15.690   8.801  1.00 20.00     0.074 C 
HETATM    5  C5  UNL     1     -42.600  13.251   7.645  1.00 20.00     0.083 C 
HETATM    6  C6  UNL     1     -40.820  12.285   6.059  1.00 20.00     0.009 A 
HETATM    7  C7  UNL     1     -41.289  13.448   6.923  1.00 20.00    -0.027 A 
HETATM    8  S9  UNL     1     -43.417  14.842   7.928  1.00 20.00    -0.168 SA
ENDROOT
BRANCH   6   9
HETATM    9  C8  UNL     1     -39.390  11.878   5.947  1.00 20.00     0.120 C 
HETATM   10 CL10 UNL     1     -38.920  11.630   4.243  1.00 20.00    -0.130 Cl
ENDBRANCH   6   9
TORSDOF 1
ENDMDL
MODEL 3
REMARK VINA RESULT:      -3.6     11.599     12.271
REMARK  1 active torsions:
REMARK  status: ('A' for Active; 'I' for Inactive)
REMARK    1  A    between atoms: C6_6  and  C8_8 
ROOT
HETATM    1  C1  UNL     1     -31.229  19.176   0.162  1.00 20.00     0.011 C 
HETATM    2  C2  UNL     1     -31.799  18.144  -0.812  1.00 20.00     0.011 C 
HETATM    3  C3  UNL     1     -33.890  19.231  -1.918  1.00 20.00     0.017 A 
HETATM    4  C4  UNL     1     -31.788  19.035   1.573  1.00 20.00     0.074 C 
HETATM    5  C5  UNL     1     -34.041  18.010   0.375  1.00 20.00     0.083 C 
HETATM    6  C6  UNL     1     -34.004  17.756  -2.185  1.00 20.00     0.009 A 
HETATM    7  C7  UNL     1     -33.307  18.247  -0.923  1.00 20.00    -0.027 A 
HETATM    8  S9  UNL     1     -33.590  19.263   1.601  1.00 20.00    -0.168 SA
ENDROOT
BRANCH   6   9
HETATM    9  C8  UNL     1     -33.275  17.140  -3.330  1.00 20.00     0.120 C 
HETATM   10 CL10 UNL     1     -33.666  15.406  -3.489  1.00 20.00    -0.130 Cl
ENDBRANCH   6   9
TORSDOF 1
ENDMDL
MODEL 4
REMARK VINA RESULT:      -3.5     11.877     12.586
REMARK  1 active torsions:
REMARK  status: ('A' for Active; 'I' for Inactive)
REMARK    1  A    between atoms: C6_6  and  C8_8 
ROOT
HETATM    1  C1  UNL     1     -33.591  16.277  -3.041  1.00 20.00     0.011 C 
HETATM    2  C2  UNL     1     -32.544  17.153  -2.352  1.00 20.00     0.011 C 
HETATM    3  C3  UNL     1     -33.662  18.113  -0.206  1.00 20.00     0.017 A 
HETATM    4  C4  UNL     1     -34.421  17.037  -4.068  1.00 20.00     0.074 C 
HETATM    5  C5  UNL     1     -33.948  19.263  -2.523  1.00 20.00     0.083 C 
HETATM    6  C6  UNL     1     -32.449  18.965  -0.454  1.00 20.00     0.009 A 
HETATM    7  C7  UNL     1     -33.178  18.324  -1.627  1.00 20.00    -0.027 A 
HETATM    8  S9  UNL     1     -35.340  18.405  -3.302  1.00 20.00    -0.168 SA
ENDROOT
BRANCH   6   9
HETATM    9  C8  UNL     1     -31.107  18.517   0.015  1.00 20.00     0.120 C 
HETATM   10 CL10 UNL     1     -31.120  18.153   1.762  1.00 20.00    -0.130 Cl
ENDBRANCH   6   9
TORSDOF 1
ENDMDL
MODEL 5
REMARK VINA RESULT:      -3.5     11.803     12.731
REMARK  1 active torsions:
REMARK  status: ('A' for Active; 'I' for Inactive)
REMARK    1  A    between atoms: C6_6  and  C8_8 
ROOT
HETATM    1  C1  UNL     1     -33.990  15.344  -3.786  1.00 20.00     0.011 C 
HETATM    2  C2  UNL     1     -33.004  16.264  -3.064  1.00 20.00     0.011 C 
HETATM    3  C3  UNL     1     -34.416  18.131  -1.925  1.00 20.00     0.017 A 
HETATM    4  C4  UNL     1     -34.234  15.751  -5.234  1.00 20.00     0.074 C 
HETATM    5  C5  UNL     1     -33.668  18.314  -4.410  1.00 20.00     0.083 C 
HETATM    6  C6  UNL     1     -33.001  18.640  -1.947  1.00 20.00     0.009 A 
HETATM    7  C7  UNL     1     -33.487  17.700  -3.043  1.00 20.00    -0.027 A 
HETATM    8  S9  UNL     1     -34.936  17.423  -5.347  1.00 20.00    -0.168 SA
ENDROOT
BRANCH   6   9
HETATM    9  C8  UNL     1     -32.037  18.227  -0.888  1.00 20.00     0.120 C 
HETATM   10 CL10 UNL     1     -32.704  18.513   0.742  1.00 20.00    -0.130 Cl
ENDBRANCH   6   9
TORSDOF 1
ENDMDL
MODEL 6
REMARK VINA RESULT:      -3.4     11.765     12.551
REMARK  1 active torsions:
REMARK  status: ('A' for Active; 'I' for Inactive)
REMARK    1  A    between atoms: C6_6  and  C8_8 
ROOT
HETATM    1  C1  UNL     1     -34.016  18.253   0.607  1.00 20.00     0.011 C 
HETATM    2  C2  UNL     1     -34.416  18.579  -0.833  1.00 20.00     0.011 C 
HETATM    3  C3  UNL     1     -33.236  16.829  -2.356  1.00 20.00     0.017 A 
HETATM    4  C4  UNL     1     -32.772  19.005   1.064  1.00 20.00     0.074 C 
HETATM    5  C5  UNL     1     -32.026  18.999  -1.583  1.00 20.00     0.083 C 
HETATM    6  C6  UNL     1     -33.662  17.947  -3.267  1.00 20.00     0.009 A 
HETATM    7  C7  UNL     1     -33.312  18.243  -1.815  1.00 20.00    -0.027 A 
HETATM    8  S9  UNL     1     -31.330  18.594   0.038  1.00 20.00    -0.168 SA
ENDROOT
BRANCH   6   9
HETATM    9  C8  UNL     1     -35.054  17.997  -3.796  1.00 20.00     0.120 C 
HETATM   10 CL10 UNL     1     -35.332  16.718  -5.009  1.00 20.00    -0.130 Cl
ENDBRANCH   6   9
TORSDOF 1
ENDMDL
MODEL 7
REMARK VINA RESULT:      -3.4     15.422     16.211
REMARK  1 active torsions:
REMARK  status: ('A' for Active; 'I' for Inactive)
REMARK    1  A    between atoms: C6_6  and  C8_8 
ROOT
HETATM    1  C1  UNL     1     -25.473  19.107   9.914  1.00 20.00     0.011 C 
HETATM    2  C2  UNL     1     -23.996  19.263   9.548  1.00 20.00     0.011 C 
HETATM    3  C3  UNL     1     -23.005  16.861   9.388  1.00 20.00     0.017 A 
HETATM    4  C4  UNL     1     -25.720  19.132  11.418  1.00 20.00     0.074 C 
HETATM    5  C5  UNL     1     -23.175  18.116  11.661  1.00 20.00     0.083 C 
HETATM    6  C6  UNL     1     -21.825  17.787   9.496  1.00 20.00     0.009 A 
HETATM    7  C7  UNL     1     -23.147  18.163  10.153  1.00 20.00    -0.027 A 
HETATM    8  S9  UNL     1     -24.850  17.775  12.258  1.00 20.00    -0.168 SA
ENDROOT
BRANCH   6   9
HETATM    9  C8  UNL     1     -21.294  18.473   8.284  1.00 20.00     0.120 C 
HETATM   10 CL10 UNL     1     -21.336  17.397   6.861  1.00 20.00    -0.130 Cl
ENDBRANCH   6   9
TORSDOF 1
ENDMDL
MODEL 8
REMARK VINA RESULT:      -3.1     11.640     12.811
REMARK  1 active torsions:
REMARK  status: ('A' for Active; 'I' for Inactive)
REMARK    1  A    between atoms: C6_6  and  C8_8 
ROOT
HETATM    1  C1  UNL     1     -34.833  19.047  -3.242  1.00 20.00     0.011 C 
HETATM    2  C2  UNL     1     -34.704  18.817  -1.736  1.00 20.00     0.011 C 
HETATM    3  C3  UNL     1     -32.158  18.750  -1.200  1.00 20.00     0.017 A 
HETATM    4  C4  UNL     1     -34.913  17.751  -4.039  1.00 20.00     0.074 C 
HETATM    5  C5  UNL     1     -33.436  16.632  -2.006  1.00 20.00     0.083 C 
HETATM    6  C6  UNL     1     -32.845  18.143  -0.009  1.00 20.00     0.009 A 
HETATM    7  C7  UNL     1     -33.468  18.011  -1.393  1.00 20.00    -0.027 A 
HETATM    8  S9  UNL     1     -33.422  16.737  -3.813  1.00 20.00    -0.168 SA
ENDROOT
BRANCH   6   9
HETATM    9  C8  UNL     1     -33.411  19.015   1.059  1.00 20.00     0.120 C 
HETATM   10 CL10 UNL     1     -32.237  19.263   2.380  1.00 20.00    -0.130 Cl
ENDBRANCH   6   9
TORSDOF 1
ENDMDL
MODEL 9
REMARK VINA RESULT:      -3.1     12.073     13.540
REMARK  1 active torsions:
REMARK  status: ('A' for Active; 'I' for Inactive)
REMARK    1  A    between atoms: C6_6  and  C8_8 
ROOT
HETATM    1  C1  UNL     1     -33.555  18.941  -5.079  1.00 20.00     0.011 C 
HETATM    2  C2  UNL     1     -33.089  19.146  -3.637  1.00 20.00     0.011 C 
HETATM    3  C3  UNL     1     -33.382  16.864  -2.419  1.00 20.00     0.017 A 
HETATM    4  C4  UNL     1     -35.031  19.262  -5.280  1.00 20.00     0.074 C 
HETATM    5  C5  UNL     1     -35.349  18.553  -2.641  1.00 20.00     0.083 C 
HETATM    6  C6  UNL     1     -33.234  17.894  -1.334  1.00 20.00     0.009 A 
HETATM    7  C7  UNL     1     -33.865  18.281  -2.665  1.00 20.00    -0.027 A 
HETATM    8  S9  UNL     1     -36.090  18.199  -4.254  1.00 20.00    -0.168 SA
ENDROOT
BRANCH   6   9
HETATM    9  C8  UNL     1     -31.880  18.351  -0.911  1.00 20.00     0.120 C 
HETATM   10 CL10 UNL     1     -31.762  18.468   0.866  1.00 20.00    -0.130 Cl
ENDBRANCH   6   9
TORSDOF 1
ENDMDL
