MODEL 1
REMARK VINA RESULT:      -3.5      0.000      0.000
REMARK  3 active torsions:
REMARK  status: ('A' for Active; 'I' for Inactive)
REMARK    1  A    between atoms: C3_3  and  O10_10 
REMARK    2  A    between atoms: C4_4  and  C8_8 
REMARK    3  A    between atoms: C4_4  and  C9_9 
ROOT
HETATM    1  C1  UNL     1     -35.701  14.605  -6.593  1.00 20.00     0.037 C 
HETATM    2  C2  UNL     1     -36.192  15.448  -5.390  1.00 20.00    -0.005 C 
HETATM    3  C3  UNL     1     -34.519  15.584  -6.760  1.00 20.00     0.127 C 
HETATM    4  C4  UNL     1     -34.733  16.025  -5.275  1.00 20.00    -0.012 C 
HETATM    5  C5  UNL     1     -37.346  16.389  -5.710  1.00 20.00     0.011 C 
ENDROOT
BRANCH   4   6
HETATM    6  C8  UNL     1     -34.595  17.531  -5.065  1.00 20.00     0.008 C 
HETATM    7  C6  UNL     1     -34.266  18.238  -6.340  1.00 20.00     0.006 C 
ENDBRANCH   4   6
BRANCH   4   8
HETATM    8  C9  UNL     1     -33.888  15.264  -4.244  1.00 20.00     0.008 C 
HETATM    9  C7  UNL     1     -33.325  16.183  -3.215  1.00 20.00     0.006 C 
ENDBRANCH   4   8
BRANCH   3  10
HETATM   10  O10 UNL     1     -33.250  14.990  -7.085  1.00 20.00    -0.395 OA
HETATM   11  H28 UNL     1     -32.919  14.608  -6.262  1.00 20.00     0.210 HD
ENDBRANCH   3  10
TORSDOF 3
ENDMDL
MODEL 2
REMARK VINA RESULT:      -3.4     12.240     13.840
REMARK  3 active torsions:
REMARK  status: ('A' for Active; 'I' for Inactive)
REMARK    1  A    between atoms: C3_3  and  O10_10 
REMARK    2  A    between atoms: C4_4  and  C8_8 
REMARK    3  A    between atoms: C4_4  and  C9_9 
ROOT
HETATM    1  C1  UNL     1     -32.548   7.788   2.738  1.00 20.00     0.037 C 
HETATM    2  C2  UNL     1     -33.132   8.396   4.037  1.00 20.00    -0.005 C 
HETATM    3  C3  UNL     1     -32.491   6.414   3.440  1.00 20.00     0.127 C 
HETATM    4  C4  UNL     1     -33.557   6.941   4.457  1.00 20.00    -0.012 C 
HETATM    5  C5  UNL     1     -32.121   9.156   4.886  1.00 20.00     0.011 C 
ENDROOT
BRANCH   4   6
HETATM    6  C8  UNL     1     -33.275   6.523   5.898  1.00 20.00     0.008 C 
HETATM    7  C6  UNL     1     -34.327   7.023   6.835  1.00 20.00     0.006 C 
ENDBRANCH   4   6
BRANCH   4   8
HETATM    8  C9  UNL     1     -35.014   6.632   4.088  1.00 20.00     0.008 C 
HETATM    9  C7  UNL     1     -35.464   5.340   4.680  1.00 20.00     0.006 C 
ENDBRANCH   4   8
BRANCH   3  10
HETATM   10  O10 UNL     1     -32.864   5.279   2.638  1.00 20.00    -0.395 OA
HETATM   11  H28 UNL     1     -33.579   4.841   3.118  1.00 20.00     0.210 HD
ENDBRANCH   3  10
TORSDOF 3
ENDMDL
MODEL 3
REMARK VINA RESULT:      -3.4      1.106      1.876
REMARK  3 active torsions:
REMARK  status: ('A' for Active; 'I' for Inactive)
REMARK    1  A    between atoms: C3_3  and  O10_10 
REMARK    2  A    between atoms: C4_4  and  C8_8 
REMARK    3  A    between atoms: C4_4  and  C9_9 
ROOT
HETATM    1  C1  UNL     1     -35.652  15.485  -7.369  1.00 20.00     0.037 C 
HETATM    2  C2  UNL     1     -36.226  15.851  -5.977  1.00 20.00    -0.005 C 
HETATM    3  C3  UNL     1     -34.242  15.834  -6.847  1.00 20.00     0.127 C 
HETATM    4  C4  UNL     1     -34.781  15.640  -5.392  1.00 20.00    -0.012 C 
HETATM    5  C5  UNL     1     -36.870  17.229  -5.905  1.00 20.00     0.011 C 
ENDROOT
BRANCH   4   6
HETATM    6  C8  UNL     1     -34.268  16.693  -4.412  1.00 20.00     0.008 C 
HETATM    7  C6  UNL     1     -33.398  16.089  -3.357  1.00 20.00     0.006 C 
ENDBRANCH   4   6
BRANCH   4   8
HETATM    8  C9  UNL     1     -34.590  14.233  -4.811  1.00 20.00     0.008 C 
HETATM    9  C7  UNL     1     -35.893  13.621  -4.425  1.00 20.00     0.006 C 
ENDBRANCH   4   8
BRANCH   3  10
HETATM   10  O10 UNL     1     -33.180  14.959  -7.267  1.00 20.00    -0.395 OA
HETATM   11  H28 UNL     1     -33.524  14.473  -8.028  1.00 20.00     0.210 HD
ENDBRANCH   3  10
TORSDOF 3
ENDMDL
MODEL 4
REMARK VINA RESULT:      -3.4      1.300      3.006
REMARK  3 active torsions:
REMARK  status: ('A' for Active; 'I' for Inactive)
REMARK    1  A    between atoms: C3_3  and  O10_10 
REMARK    2  A    between atoms: C4_4  and  C8_8 
REMARK    3  A    between atoms: C4_4  and  C9_9 
ROOT
HETATM    1  C1  UNL     1     -33.641  14.541  -4.584  1.00 20.00     0.037 C 
HETATM    2  C2  UNL     1     -33.515  16.061  -4.314  1.00 20.00    -0.005 C 
HETATM    3  C3  UNL     1     -35.121  14.759  -4.964  1.00 20.00     0.127 C 
HETATM    4  C4  UNL     1     -34.787  16.266  -5.217  1.00 20.00    -0.012 C 
HETATM    5  C5  UNL     1     -33.573  16.445  -2.841  1.00 20.00     0.011 C 
ENDROOT
BRANCH   4   6
HETATM    6  C8  UNL     1     -35.861  17.219  -4.699  1.00 20.00     0.008 C 
HETATM    7  C6  UNL     1     -37.185  16.962  -5.342  1.00 20.00     0.006 C 
ENDBRANCH   4   6
BRANCH   4   8
HETATM    8  C9  UNL     1     -34.420  16.614  -6.666  1.00 20.00     0.008 C 
HETATM    9  C7  UNL     1     -34.370  18.089  -6.876  1.00 20.00     0.006 C 
ENDBRANCH   4   8
BRANCH   3  10
HETATM   10  O10 UNL     1     -35.603  14.003  -6.088  1.00 20.00    -0.395 OA
HETATM   11  H28 UNL     1     -34.815  13.694  -6.554  1.00 20.00     0.210 HD
ENDBRANCH   3  10
TORSDOF 3
ENDMDL
MODEL 5
REMARK VINA RESULT:      -3.4      1.417      3.348
REMARK  3 active torsions:
REMARK  status: ('A' for Active; 'I' for Inactive)
REMARK    1  A    between atoms: C3_3  and  O10_10 
REMARK    2  A    between atoms: C4_4  and  C8_8 
REMARK    3  A    between atoms: C4_4  and  C9_9 
ROOT
HETATM    1  C1  UNL     1     -33.113  16.123  -3.880  1.00 20.00     0.037 C 
HETATM    2  C2  UNL     1     -34.173  16.904  -4.696  1.00 20.00    -0.005 C 
HETATM    3  C3  UNL     1     -33.884  14.819  -4.180  1.00 20.00     0.127 C 
HETATM    4  C4  UNL     1     -34.550  15.546  -5.395  1.00 20.00    -0.012 C 
HETATM    5  C5  UNL     1     -35.214  17.624  -3.849  1.00 20.00     0.011 C 
ENDROOT
BRANCH   4   6
HETATM    6  C8  UNL     1     -36.036  15.231  -5.547  1.00 20.00     0.008 C 
HETATM    7  C6  UNL     1     -36.392  13.925  -4.914  1.00 20.00     0.006 C 
ENDBRANCH   4   6
BRANCH   4   8
HETATM    8  C9  UNL     1     -33.826  15.363  -6.736  1.00 20.00     0.008 C 
HETATM    9  C7  UNL     1     -34.727  15.658  -7.886  1.00 20.00     0.006 C 
ENDBRANCH   4   8
BRANCH   3  10
HETATM   10  O10 UNL     1     -33.080  13.664  -4.476  1.00 20.00    -0.395 OA
HETATM   11  H28 UNL     1     -33.699  12.928  -4.567  1.00 20.00     0.210 HD
ENDBRANCH   3  10
TORSDOF 3
ENDMDL
MODEL 6
REMARK VINA RESULT:      -3.3      1.678      2.942
REMARK  3 active torsions:
REMARK  status: ('A' for Active; 'I' for Inactive)
REMARK    1  A    between atoms: C3_3  and  O10_10 
REMARK    2  A    between atoms: C4_4  and  C8_8 
REMARK    3  A    between atoms: C4_4  and  C9_9 
ROOT
HETATM    1  C1  UNL     1     -36.130  15.472  -7.248  1.00 20.00     0.037 C 
HETATM    2  C2  UNL     1     -34.721  16.101  -7.110  1.00 20.00    -0.005 C 
HETATM    3  C3  UNL     1     -35.926  14.786  -5.880  1.00 20.00     0.127 C 
HETATM    4  C4  UNL     1     -34.825  15.850  -5.561  1.00 20.00    -0.012 C 
HETATM    5  C5  UNL     1     -33.636  15.394  -7.912  1.00 20.00     0.011 C 
ENDROOT
BRANCH   4   6
HETATM    6  C8  UNL     1     -33.599  15.262  -4.868  1.00 20.00     0.008 C 
HETATM    7  C6  UNL     1     -33.467  15.756  -3.464  1.00 20.00     0.006 C 
ENDBRANCH   4   6
BRANCH   4   8
HETATM    8  C9  UNL     1     -35.322  17.090  -4.804  1.00 20.00     0.008 C 
HETATM    9  C7  UNL     1     -34.642  18.327  -5.281  1.00 20.00     0.006 C 
ENDBRANCH   4   8
BRANCH   3  10
HETATM   10  O10 UNL     1     -37.073  14.756  -5.012  1.00 20.00    -0.395 OA
HETATM   11  H28 UNL     1     -37.587  13.984  -5.280  1.00 20.00     0.210 HD
ENDBRANCH   3  10
TORSDOF 3
ENDMDL
MODEL 7
REMARK VINA RESULT:      -3.3     13.761     14.798
REMARK  3 active torsions:
REMARK  status: ('A' for Active; 'I' for Inactive)
REMARK    1  A    between atoms: C3_3  and  O10_10 
REMARK    2  A    between atoms: C4_4  and  C8_8 
REMARK    3  A    between atoms: C4_4  and  C9_9 
ROOT
HETATM    1  C1  UNL     1     -40.330  15.630   7.685  1.00 20.00     0.037 C 
HETATM    2  C2  UNL     1     -41.727  15.805   7.041  1.00 20.00    -0.005 C 
HETATM    3  C3  UNL     1     -40.705  14.173   8.034  1.00 20.00     0.127 C 
HETATM    4  C4  UNL     1     -41.805  14.239   6.924  1.00 20.00    -0.012 C 
HETATM    5  C5  UNL     1     -42.735  16.542   7.915  1.00 20.00     0.011 C 
ENDROOT
BRANCH   4   6
HETATM    6  C8  UNL     1     -43.117  13.575   7.334  1.00 20.00     0.008 C 
HETATM    7  C6  UNL     1     -43.072  12.094   7.141  1.00 20.00     0.006 C 
ENDBRANCH   4   6
BRANCH   4   8
HETATM    8  C9  UNL     1     -41.363  13.738   5.542  1.00 20.00     0.008 C 
HETATM    9  C7  UNL     1     -42.224  14.293   4.460  1.00 20.00     0.006 C 
ENDBRANCH   4   8
BRANCH   3  10
HETATM   10  O10 UNL     1     -39.664  13.196   7.861  1.00 20.00    -0.395 OA
HETATM   11  H28 UNL     1     -38.843  13.697   7.778  1.00 20.00     0.210 HD
ENDBRANCH   3  10
TORSDOF 3
ENDMDL
MODEL 8
REMARK VINA RESULT:      -3.3      3.364      4.975
REMARK  3 active torsions:
REMARK  status: ('A' for Active; 'I' for Inactive)
REMARK    1  A    between atoms: C3_3  and  O10_10 
REMARK    2  A    between atoms: C4_4  and  C8_8 
REMARK    3  A    between atoms: C4_4  and  C9_9 
ROOT
HETATM    1  C1  UNL     1     -34.181  18.026  -0.591  1.00 20.00     0.037 C 
HETATM    2  C2  UNL     1     -32.840  17.725  -1.306  1.00 20.00    -0.005 C 
HETATM    3  C3  UNL     1     -34.648  18.789  -1.850  1.00 20.00     0.127 C 
HETATM    4  C4  UNL     1     -33.573  18.002  -2.670  1.00 20.00    -0.012 C 
HETATM    5  C5  UNL     1     -31.685  18.623  -0.881  1.00 20.00     0.011 C 
ENDROOT
BRANCH   4   6
HETATM    6  C8  UNL     1     -32.839  18.868  -3.690  1.00 20.00     0.008 C 
HETATM    7  C6  UNL     1     -33.646  19.064  -4.932  1.00 20.00     0.006 C 
ENDBRANCH   4   6
BRANCH   4   8
HETATM    8  C9  UNL     1     -34.077  16.712  -3.330  1.00 20.00     0.008 C 
HETATM    9  C7  UNL     1     -32.947  15.819  -3.714  1.00 20.00     0.006 C 
ENDBRANCH   4   8
BRANCH   3  10
HETATM   10  O10 UNL     1     -36.022  18.598  -2.229  1.00 20.00    -0.395 OA
HETATM   11  H28 UNL     1     -36.080  18.867  -3.155  1.00 20.00     0.210 HD
ENDBRANCH   3  10
TORSDOF 3
ENDMDL
MODEL 9
REMARK VINA RESULT:      -3.3     13.322     14.286
REMARK  3 active torsions:
REMARK  status: ('A' for Active; 'I' for Inactive)
REMARK    1  A    between atoms: C3_3  and  O10_10 
REMARK    2  A    between atoms: C4_4  and  C8_8 
REMARK    3  A    between atoms: C4_4  and  C9_9 
ROOT
HETATM    1  C1  UNL     1     -41.558  13.797   8.444  1.00 20.00     0.037 C 
HETATM    2  C2  UNL     1     -40.668  14.535   7.414  1.00 20.00    -0.005 C 
HETATM    3  C3  UNL     1     -42.343  13.169   7.272  1.00 20.00     0.127 C 
HETATM    4  C4  UNL     1     -41.116  13.469   6.349  1.00 20.00    -0.012 C 
HETATM    5  C5  UNL     1     -41.030  16.000   7.206  1.00 20.00     0.011 C 
ENDROOT
BRANCH   4   6
HETATM    6  C8  UNL     1     -41.511  13.988   4.969  1.00 20.00     0.008 C 
HETATM    7  C6  UNL     1     -42.990  14.163   4.846  1.00 20.00     0.006 C 
ENDBRANCH   4   6
BRANCH   4   8
HETATM    8  C9  UNL     1     -40.108  12.319   6.218  1.00 20.00     0.008 C 
HETATM    9  C7  UNL     1     -39.732  12.083   4.795  1.00 20.00     0.006 C 
ENDBRANCH   4   8
BRANCH   3  10
HETATM   10  O10 UNL     1     -42.716  11.789   7.429  1.00 20.00    -0.395 OA
HETATM   11  H28 UNL     1     -42.854  11.660   8.377  1.00 20.00     0.210 HD
ENDBRANCH   3  10
TORSDOF 3
ENDMDL
