MODEL 1
REMARK VINA RESULT:      -3.8      0.000      0.000
REMARK  2 active torsions:
REMARK  status: ('A' for Active; 'I' for Inactive)
REMARK    1  A    between atoms: C3_3  and  O9_9 
REMARK    2  A    between atoms: C4_4  and  C8_8 
ROOT
HETATM    1  C1  UNL     1     -40.933   7.500  -0.291  1.00 20.00     0.037 C 
HETATM    2  C2  UNL     1     -42.247   7.523   0.525  1.00 20.00    -0.006 C 
HETATM    3  C3  UNL     1     -40.732   6.036   0.163  1.00 20.00     0.127 C 
HETATM    4  C4  UNL     1     -42.280   5.957   0.389  1.00 20.00    -0.015 C 
HETATM    5  C5  UNL     1     -43.378   8.357  -0.044  1.00 20.00     0.011 C 
HETATM    6  C6  UNL     1     -43.070   5.393  -0.794  1.00 20.00     0.018 C 
ENDROOT
BRANCH   4   7
HETATM    7  C8  UNL     1     -42.670   5.247   1.685  1.00 20.00     0.007 C 
HETATM    8  C7  UNL     1     -43.417   3.982   1.418  1.00 20.00     0.006 C 
ENDBRANCH   4   7
BRANCH   3   9
HETATM    9  O9  UNL     1     -40.174   5.137  -0.811  1.00 20.00    -0.395 OA
HETATM   10  H25 UNL     1     -39.639   5.685  -1.400  1.00 20.00     0.210 HD
ENDBRANCH   3   9
TORSDOF 2
ENDMDL
MODEL 2
REMARK VINA RESULT:      -3.6     12.067     13.522
REMARK  2 active torsions:
REMARK  status: ('A' for Active; 'I' for Inactive)
REMARK    1  A    between atoms: C3_3  and  O9_9 
REMARK    2  A    between atoms: C4_4  and  C8_8 
ROOT
HETATM    1  C1  UNL     1     -35.878  14.920  -7.102  1.00 20.00     0.037 C 
HETATM    2  C2  UNL     1     -34.441  15.459  -6.906  1.00 20.00    -0.006 C 
HETATM    3  C3  UNL     1     -35.870  14.497  -5.615  1.00 20.00     0.127 C 
HETATM    4  C4  UNL     1     -34.767  15.583  -5.373  1.00 20.00    -0.015 C 
HETATM    5  C5  UNL     1     -34.071  16.694  -7.704  1.00 20.00     0.011 C 
HETATM    6  C6  UNL     1     -35.298  16.937  -4.897  1.00 20.00     0.018 C 
ENDROOT
BRANCH   4   7
HETATM    7  C8  UNL     1     -33.628  15.103  -4.474  1.00 20.00     0.007 C 
HETATM    8  C7  UNL     1     -33.367  16.060  -3.357  1.00 20.00     0.006 C 
ENDBRANCH   4   7
BRANCH   3   9
HETATM    9  O9  UNL     1     -37.106  14.660  -4.898  1.00 20.00    -0.395 OA
HETATM   10  H25 UNL     1     -37.659  13.910  -5.152  1.00 20.00     0.210 HD
ENDBRANCH   3   9
TORSDOF 2
ENDMDL
MODEL 3
REMARK VINA RESULT:      -3.5     12.477     13.502
REMARK  2 active torsions:
REMARK  status: ('A' for Active; 'I' for Inactive)
REMARK    1  A    between atoms: C3_3  and  O9_9 
REMARK    2  A    between atoms: C4_4  and  C8_8 
ROOT
HETATM    1  C1  UNL     1     -33.372  15.933  -3.692  1.00 20.00     0.037 C 
HETATM    2  C2  UNL     1     -34.492  16.631  -4.500  1.00 20.00    -0.006 C 
HETATM    3  C3  UNL     1     -33.890  14.581  -4.234  1.00 20.00     0.127 C 
HETATM    4  C4  UNL     1     -34.512  15.369  -5.438  1.00 20.00    -0.015 C 
HETATM    5  C5  UNL     1     -34.159  17.995  -5.071  1.00 20.00     0.011 C 
HETATM    6  C6  UNL     1     -33.625  15.434  -6.684  1.00 20.00     0.018 C 
ENDROOT
BRANCH   4   7
HETATM    7  C8  UNL     1     -35.923  14.910  -5.802  1.00 20.00     0.007 C 
HETATM    8  C7  UNL     1     -36.162  14.979  -7.274  1.00 20.00     0.006 C 
ENDBRANCH   4   7
BRANCH   3   9
HETATM    9  O9  UNL     1     -32.891  13.597  -4.554  1.00 20.00    -0.395 OA
HETATM   10  H25 UNL     1     -32.619  13.214  -3.709  1.00 20.00     0.210 HD
ENDBRANCH   3   9
TORSDOF 2
ENDMDL
MODEL 4
REMARK VINA RESULT:      -3.5     12.355     13.529
REMARK  2 active torsions:
REMARK  status: ('A' for Active; 'I' for Inactive)
REMARK    1  A    between atoms: C3_3  and  O9_9 
REMARK    2  A    between atoms: C4_4  and  C8_8 
ROOT
HETATM    1  C1  UNL     1     -35.556  15.587  -7.176  1.00 20.00     0.037 C 
HETATM    2  C2  UNL     1     -36.026  16.235  -5.852  1.00 20.00    -0.006 C 
HETATM    3  C3  UNL     1     -34.100  15.747  -6.683  1.00 20.00     0.127 C 
HETATM    4  C4  UNL     1     -34.662  15.774  -5.220  1.00 20.00    -0.015 C 
HETATM    5  C5  UNL     1     -37.336  15.727  -5.282  1.00 20.00     0.011 C 
HETATM    6  C6  UNL     1     -34.664  14.417  -4.512  1.00 20.00     0.018 C 
ENDROOT
BRANCH   4   7
HETATM    7  C8  UNL     1     -34.014  16.842  -4.339  1.00 20.00     0.007 C 
HETATM    8  C7  UNL     1     -33.402  16.248  -3.114  1.00 20.00     0.006 C 
ENDBRANCH   4   7
BRANCH   3   9
HETATM    9  O9  UNL     1     -33.195  14.678  -7.007  1.00 20.00    -0.395 OA
HETATM   10  H25 UNL     1     -32.326  14.965  -6.697  1.00 20.00     0.210 HD
ENDBRANCH   3   9
TORSDOF 2
ENDMDL
MODEL 5
REMARK VINA RESULT:      -3.5     14.397     15.243
REMARK  2 active torsions:
REMARK  status: ('A' for Active; 'I' for Inactive)
REMARK    1  A    between atoms: C3_3  and  O9_9 
REMARK    2  A    between atoms: C4_4  and  C8_8 
ROOT
HETATM    1  C1  UNL     1     -33.381  19.134   0.051  1.00 20.00     0.037 C 
HETATM    2  C2  UNL     1     -34.414  18.412  -0.847  1.00 20.00    -0.006 C 
HETATM    3  C3  UNL     1     -32.290  18.218  -0.549  1.00 20.00     0.127 C 
HETATM    4  C4  UNL     1     -33.221  18.026  -1.795  1.00 20.00    -0.015 C 
HETATM    5  C5  UNL     1     -35.556  19.259  -1.372  1.00 20.00     0.011 C 
HETATM    6  C6  UNL     1     -32.937  18.984  -2.956  1.00 20.00     0.018 C 
ENDROOT
BRANCH   4   7
HETATM    7  C8  UNL     1     -33.286  16.582  -2.290  1.00 20.00     0.007 C 
HETATM    8  C7  UNL     1     -33.291  16.510  -3.782  1.00 20.00     0.006 C 
ENDBRANCH   4   7
BRANCH   3   9
HETATM    9  O9  UNL     1     -31.008  18.823  -0.787  1.00 20.00    -0.395 OA
HETATM   10  H25 UNL     1     -30.573  18.268  -1.448  1.00 20.00     0.210 HD
ENDBRANCH   3   9
TORSDOF 2
ENDMDL
MODEL 6
REMARK VINA RESULT:      -3.3      1.173      3.122
REMARK  2 active torsions:
REMARK  status: ('A' for Active; 'I' for Inactive)
REMARK    1  A    between atoms: C3_3  and  O9_9 
REMARK    2  A    between atoms: C4_4  and  C8_8 
ROOT
HETATM    1  C1  UNL     1     -43.417   4.631  -0.113  1.00 20.00     0.037 C 
HETATM    2  C2  UNL     1     -43.417   5.936   0.718  1.00 20.00    -0.006 C 
HETATM    3  C3  UNL     1     -42.570   5.365  -1.177  1.00 20.00     0.127 C 
HETATM    4  C4  UNL     1     -42.105   6.344  -0.046  1.00 20.00    -0.015 C 
HETATM    5  C5  UNL     1     -43.398   5.774   2.225  1.00 20.00     0.011 C 
HETATM    6  C6  UNL     1     -40.782   5.963   0.624  1.00 20.00     0.018 C 
ENDROOT
BRANCH   4   7
HETATM    7  C8  UNL     1     -42.089   7.810  -0.478  1.00 20.00     0.007 C 
HETATM    8  C7  UNL     1     -40.836   8.498  -0.046  1.00 20.00     0.006 C 
ENDBRANCH   4   7
BRANCH   3   9
HETATM    9  O9  UNL     1     -41.545   4.590  -1.823  1.00 20.00    -0.395 OA
HETATM   10  H25 UNL     1     -41.202   3.991  -1.146  1.00 20.00     0.210 HD
ENDBRANCH   3   9
TORSDOF 2
ENDMDL
MODEL 7
REMARK VINA RESULT:      -3.3     13.010     13.810
REMARK  2 active torsions:
REMARK  status: ('A' for Active; 'I' for Inactive)
REMARK    1  A    between atoms: C3_3  and  O9_9 
REMARK    2  A    between atoms: C4_4  and  C8_8 
ROOT
HETATM    1  C1  UNL     1     -32.923  14.882  -4.433  1.00 20.00     0.037 C 
HETATM    2  C2  UNL     1     -34.008  15.659  -3.650  1.00 20.00    -0.006 C 
HETATM    3  C3  UNL     1     -33.892  14.839  -5.638  1.00 20.00     0.127 C 
HETATM    4  C4  UNL     1     -34.599  16.102  -5.038  1.00 20.00    -0.015 C 
HETATM    5  C5  UNL     1     -33.511  16.703  -2.670  1.00 20.00     0.011 C 
HETATM    6  C6  UNL     1     -34.099  17.438  -5.595  1.00 20.00     0.018 C 
ENDROOT
BRANCH   4   7
HETATM    7  C8  UNL     1     -36.124  16.030  -5.095  1.00 20.00     0.007 C 
HETATM    8  C7  UNL     1     -36.726  17.356  -5.428  1.00 20.00     0.006 C 
ENDBRANCH   4   7
BRANCH   3   9
HETATM    9  O9  UNL     1     -33.299  14.987  -6.939  1.00 20.00    -0.395 OA
HETATM   10  H25 UNL     1     -32.747  15.778  -6.889  1.00 20.00     0.210 HD
ENDBRANCH   3   9
TORSDOF 2
ENDMDL
MODEL 8
REMARK VINA RESULT:      -3.3      1.507      2.408
REMARK  2 active torsions:
REMARK  status: ('A' for Active; 'I' for Inactive)
REMARK    1  A    between atoms: C3_3  and  O9_9 
REMARK    2  A    between atoms: C4_4  and  C8_8 
ROOT
HETATM    1  C1  UNL     1     -42.596   7.061   1.572  1.00 20.00     0.037 C 
HETATM    2  C2  UNL     1     -42.927   7.229   0.069  1.00 20.00    -0.006 C 
HETATM    3  C3  UNL     1     -42.673   5.531   1.368  1.00 20.00     0.127 C 
HETATM    4  C4  UNL     1     -42.365   5.777  -0.148  1.00 20.00    -0.015 C 
HETATM    5  C5  UNL     1     -42.278   8.406  -0.634  1.00 20.00     0.011 C 
HETATM    6  C6  UNL     1     -40.885   5.668  -0.525  1.00 20.00     0.018 C 
ENDROOT
BRANCH   4   7
HETATM    7  C8  UNL     1     -43.225   4.932  -1.088  1.00 20.00     0.007 C 
HETATM    8  C7  UNL     1     -42.396   4.233  -2.115  1.00 20.00     0.006 C 
ENDBRANCH   4   7
BRANCH   3   9
HETATM    9  O9  UNL     1     -41.720   4.741   2.101  1.00 20.00    -0.395 OA
HETATM   10  H25 UNL     1     -42.081   3.845   2.122  1.00 20.00     0.210 HD
ENDBRANCH   3   9
TORSDOF 2
ENDMDL
MODEL 9
REMARK VINA RESULT:      -3.2      8.381      9.431
REMARK  2 active torsions:
REMARK  status: ('A' for Active; 'I' for Inactive)
REMARK    1  A    between atoms: C3_3  and  O9_9 
REMARK    2  A    between atoms: C4_4  and  C8_8 
ROOT
HETATM    1  C1  UNL     1     -32.493   7.141   3.230  1.00 20.00     0.037 C 
HETATM    2  C2  UNL     1     -32.984   7.314   4.687  1.00 20.00    -0.006 C 
HETATM    3  C3  UNL     1     -32.869   5.644   3.332  1.00 20.00     0.127 C 
HETATM    4  C4  UNL     1     -33.874   6.035   4.470  1.00 20.00    -0.015 C 
HETATM    5  C5  UNL     1     -33.635   8.641   5.024  1.00 20.00     0.011 C 
HETATM    6  C6  UNL     1     -35.310   6.277   3.998  1.00 20.00     0.018 C 
ENDROOT
BRANCH   4   7
HETATM    7  C8  UNL     1     -33.851   5.075   5.658  1.00 20.00     0.007 C 
HETATM    8  C7  UNL     1     -34.917   5.401   6.651  1.00 20.00     0.006 C 
ENDBRANCH   4   7
BRANCH   3   9
HETATM    9  O9  UNL     1     -33.431   5.045   2.152  1.00 20.00    -0.395 OA
HETATM   10  H25 UNL     1     -34.075   5.682   1.815  1.00 20.00     0.210 HD
ENDBRANCH   3   9
TORSDOF 2
ENDMDL
