MODEL 1
REMARK VINA RESULT:      -4.1      0.000      0.000
REMARK  2 active torsions:
REMARK  status: ('A' for Active; 'I' for Inactive)
REMARK    1  A    between atoms: C5_5  and  C6_6 
REMARK    2  A    between atoms: C7_7  and  C8_8 
ROOT
HETATM    1  C1  UNL     1     -34.808   6.001   4.230  1.00 20.00     0.033 C 
HETATM    2  C3  UNL     1     -34.438   4.859   5.156  1.00 20.00     0.168 C 
HETATM    3  C4  UNL     1     -34.394   6.842   6.381  1.00 20.00     0.172 C 
HETATM    4  C5  UNL     1     -34.204   7.208   4.918  1.00 20.00     0.016 C 
HETATM    5  O9  UNL     1     -34.304   5.412   6.472  1.00 20.00    -0.391 OA
ENDROOT
BRANCH   4   6
HETATM    6  C6  UNL     1     -32.729   7.389   4.567  1.00 20.00    -0.003 A 
HETATM    7  C2  UNL     1     -32.041   8.699   4.840  1.00 20.00     0.011 A 
HETATM    8  C7  UNL     1     -32.272   8.257   3.419  1.00 20.00     0.000 A 
BRANCH   8   9
HETATM    9  C8  UNL     1     -33.226   8.998   2.546  1.00 20.00     0.090 C 
HETATM   10 BR10 UNL     1     -32.599   8.999   0.697  1.00 20.00    -0.096 Br
ENDBRANCH   8   9
ENDBRANCH   4   6
TORSDOF 2
ENDMDL
MODEL 2
REMARK VINA RESULT:      -4.0     12.168     12.717
REMARK  2 active torsions:
REMARK  status: ('A' for Active; 'I' for Inactive)
REMARK    1  A    between atoms: C5_5  and  C6_6 
REMARK    2  A    between atoms: C7_7  and  C8_8 
ROOT
HETATM    1  C1  UNL     1     -33.112  15.599  -3.865  1.00 20.00     0.033 C 
HETATM    2  C3  UNL     1     -34.469  15.543  -4.539  1.00 20.00     0.168 C 
HETATM    3  C4  UNL     1     -33.832  17.778  -4.355  1.00 20.00     0.172 C 
HETATM    4  C5  UNL     1     -33.073  17.000  -3.292  1.00 20.00     0.016 C 
HETATM    5  O9  UNL     1     -34.809  16.885  -4.911  1.00 20.00    -0.391 OA
ENDROOT
BRANCH   4   6
HETATM    6  C6  UNL     1     -33.761  17.083  -1.931  1.00 20.00    -0.003 A 
HETATM    7  C2  UNL     1     -34.386  18.373  -1.476  1.00 20.00     0.011 A 
HETATM    8  C7  UNL     1     -33.166  17.842  -0.770  1.00 20.00     0.000 A 
BRANCH   8   9
HETATM    9  C8  UNL     1     -31.867  18.565  -0.866  1.00 20.00     0.090 C 
HETATM   10 BR10 UNL     1     -31.004  18.654   0.883  1.00 20.00    -0.096 Br
ENDBRANCH   8   9
ENDBRANCH   4   6
TORSDOF 2
ENDMDL
MODEL 3
REMARK VINA RESULT:      -3.7     11.773     13.238
REMARK  2 active torsions:
REMARK  status: ('A' for Active; 'I' for Inactive)
REMARK    1  A    between atoms: C5_5  and  C6_6 
REMARK    2  A    between atoms: C7_7  and  C8_8 
ROOT
HETATM    1  C1  UNL     1     -35.404  16.655  -6.803  1.00 20.00     0.033 C 
HETATM    2  C3  UNL     1     -35.418  15.436  -7.704  1.00 20.00     0.168 C 
HETATM    3  C4  UNL     1     -36.212  14.806  -5.605  1.00 20.00     0.172 C 
HETATM    4  C5  UNL     1     -35.362  16.052  -5.414  1.00 20.00     0.016 C 
HETATM    5  O9  UNL     1     -36.019  14.369  -6.959  1.00 20.00    -0.391 OA
ENDROOT
BRANCH   4   6
HETATM    6  C6  UNL     1     -33.938  15.705  -4.983  1.00 20.00    -0.003 A 
HETATM    7  C2  UNL     1     -33.702  14.884  -3.744  1.00 20.00     0.011 A 
HETATM    8  C7  UNL     1     -33.286  16.332  -3.774  1.00 20.00     0.000 A 
BRANCH   8   9
HETATM    9  C8  UNL     1     -33.980  17.333  -2.916  1.00 20.00     0.090 C 
HETATM   10 BR10 UNL     1     -32.820  17.899  -1.452  1.00 20.00    -0.096 Br
ENDBRANCH   8   9
ENDBRANCH   4   6
TORSDOF 2
ENDMDL
MODEL 4
REMARK VINA RESULT:      -3.5     12.148     13.408
REMARK  2 active torsions:
REMARK  status: ('A' for Active; 'I' for Inactive)
REMARK    1  A    between atoms: C5_5  and  C6_6 
REMARK    2  A    between atoms: C7_7  and  C8_8 
ROOT
HETATM    1  C1  UNL     1     -34.682  14.645  -4.650  1.00 20.00     0.033 C 
HETATM    2  C3  UNL     1     -35.938  14.048  -5.251  1.00 20.00     0.168 C 
HETATM    3  C4  UNL     1     -34.823  15.237  -6.917  1.00 20.00     0.172 C 
HETATM    4  C5  UNL     1     -34.377  15.803  -5.578  1.00 20.00     0.016 C 
HETATM    5  O9  UNL     1     -35.918  14.347  -6.653  1.00 20.00    -0.391 OA
ENDROOT
BRANCH   4   6
HETATM    6  C6  UNL     1     -35.164  17.059  -5.206  1.00 20.00    -0.003 A 
HETATM    7  C2  UNL     1     -34.741  18.402  -5.736  1.00 20.00     0.011 A 
HETATM    8  C7  UNL     1     -34.616  18.105  -4.264  1.00 20.00     0.000 A 
BRANCH   8   9
HETATM    9  C8  UNL     1     -33.272  17.989  -3.632  1.00 20.00     0.090 C 
HETATM   10 BR10 UNL     1     -33.418  17.180  -1.861  1.00 20.00    -0.096 Br
ENDBRANCH   8   9
ENDBRANCH   4   6
TORSDOF 2
ENDMDL
MODEL 5
REMARK VINA RESULT:      -3.5     12.001     12.757
REMARK  2 active torsions:
REMARK  status: ('A' for Active; 'I' for Inactive)
REMARK    1  A    between atoms: C5_5  and  C6_6 
REMARK    2  A    between atoms: C7_7  and  C8_8 
ROOT
HETATM    1  C1  UNL     1     -34.101  17.853  -1.495  1.00 20.00     0.033 C 
HETATM    2  C3  UNL     1     -32.695  18.382  -1.290  1.00 20.00     0.168 C 
HETATM    3  C4  UNL     1     -33.145  18.359  -3.578  1.00 20.00     0.172 C 
HETATM    4  C5  UNL     1     -34.070  17.346  -2.922  1.00 20.00     0.016 C 
HETATM    5  O9  UNL     1     -32.203  18.775  -2.578  1.00 20.00    -0.391 OA
ENDROOT
BRANCH   4   6
HETATM    6  C6  UNL     1     -33.513  15.927  -3.016  1.00 20.00    -0.003 A 
HETATM    7  C2  UNL     1     -32.625  15.537  -4.166  1.00 20.00     0.011 A 
HETATM    8  C7  UNL     1     -34.000  14.934  -4.042  1.00 20.00     0.000 A 
BRANCH   8   9
HETATM    9  C8  UNL     1     -35.059  15.264  -5.038  1.00 20.00     0.090 C 
HETATM   10 BR10 UNL     1     -34.283  15.456  -6.819  1.00 20.00    -0.096 Br
ENDBRANCH   8   9
ENDBRANCH   4   6
TORSDOF 2
ENDMDL
MODEL 6
REMARK VINA RESULT:      -3.5     10.222     10.955
REMARK  2 active torsions:
REMARK  status: ('A' for Active; 'I' for Inactive)
REMARK    1  A    between atoms: C5_5  and  C6_6 
REMARK    2  A    between atoms: C7_7  and  C8_8 
ROOT
HETATM    1  C1  UNL     1     -40.496  16.209   7.714  1.00 20.00     0.033 C 
HETATM    2  C3  UNL     1     -41.685  16.508   8.605  1.00 20.00     0.168 C 
HETATM    3  C4  UNL     1     -40.911  14.368   9.110  1.00 20.00     0.172 C 
HETATM    4  C5  UNL     1     -40.456  14.695   7.697  1.00 20.00     0.016 C 
HETATM    5  O9  UNL     1     -41.825  15.402   9.506  1.00 20.00    -0.391 OA
ENDROOT
BRANCH   4   6
HETATM    6  C6  UNL     1     -41.400  14.108   6.649  1.00 20.00    -0.003 A 
HETATM    7  C2  UNL     1     -42.093  12.798   6.903  1.00 20.00     0.011 A 
HETATM    8  C7  UNL     1     -41.041  12.892   5.829  1.00 20.00     0.000 A 
BRANCH   8   9
HETATM    9  C8  UNL     1     -39.743  12.177   5.982  1.00 20.00     0.090 C 
HETATM   10 BR10 UNL     1     -39.025  11.684   4.235  1.00 20.00    -0.096 Br
ENDBRANCH   8   9
ENDBRANCH   4   6
TORSDOF 2
ENDMDL
MODEL 7
REMARK VINA RESULT:      -3.3     12.779     13.823
REMARK  2 active torsions:
REMARK  status: ('A' for Active; 'I' for Inactive)
REMARK    1  A    between atoms: C5_5  and  C6_6 
REMARK    2  A    between atoms: C7_7  and  C8_8 
ROOT
HETATM    1  C1  UNL     1     -28.060  -2.926  10.078  1.00 20.00     0.033 C 
HETATM    2  C3  UNL     1     -29.173  -2.246  10.851  1.00 20.00     0.168 C 
HETATM    3  C4  UNL     1     -27.596  -0.632  10.262  1.00 20.00     0.172 C 
HETATM    4  C5  UNL     1     -26.891  -1.979  10.259  1.00 20.00     0.016 C 
HETATM    5  O9  UNL     1     -28.895  -0.839  10.839  1.00 20.00    -0.391 OA
ENDROOT
BRANCH   4   6
HETATM    6  C6  UNL     1     -26.147  -2.231  11.569  1.00 20.00    -0.003 A 
HETATM    7  C2  UNL     1     -25.101  -1.260  12.044  1.00 20.00     0.011 A 
HETATM    8  C7  UNL     1     -24.695  -2.644  11.607  1.00 20.00     0.000 A 
BRANCH   8   9
HETATM    9  C8  UNL     1     -23.884  -2.835  10.372  1.00 20.00     0.090 C 
HETATM   10 BR10 UNL     1     -23.694  -4.735   9.967  1.00 20.00    -0.096 Br
ENDBRANCH   8   9
ENDBRANCH   4   6
TORSDOF 2
ENDMDL
MODEL 8
REMARK VINA RESULT:      -3.3      9.164      9.783
REMARK  2 active torsions:
REMARK  status: ('A' for Active; 'I' for Inactive)
REMARK    1  A    between atoms: C5_5  and  C6_6 
REMARK    2  A    between atoms: C7_7  and  C8_8 
ROOT
HETATM    1  C1  UNL     1     -39.786  11.078   4.679  1.00 20.00     0.033 C 
HETATM    2  C3  UNL     1     -38.478  11.720   4.265  1.00 20.00     0.168 C 
HETATM    3  C4  UNL     1     -38.807  12.127   6.536  1.00 20.00     0.172 C 
HETATM    4  C5  UNL     1     -40.170  11.856   5.921  1.00 20.00     0.016 C 
HETATM    5  O9  UNL     1     -37.874  12.249   5.452  1.00 20.00    -0.391 OA
ENDROOT
BRANCH   4   6
HETATM    6  C6  UNL     1     -40.904  13.152   5.581  1.00 20.00    -0.003 A 
HETATM    7  C2  UNL     1     -41.060  14.229   6.619  1.00 20.00     0.011 A 
HETATM    8  C7  UNL     1     -42.271  13.475   6.135  1.00 20.00     0.000 A 
BRANCH   8   9
HETATM    9  C8  UNL     1     -43.002  12.557   7.052  1.00 20.00     0.090 C 
HETATM   10 BR10 UNL     1     -43.161  13.351   8.829  1.00 20.00    -0.096 Br
ENDBRANCH   8   9
ENDBRANCH   4   6
TORSDOF 2
ENDMDL
MODEL 9
REMARK VINA RESULT:      -3.1      2.341      3.913
REMARK  2 active torsions:
REMARK  status: ('A' for Active; 'I' for Inactive)
REMARK    1  A    between atoms: C5_5  and  C6_6 
REMARK    2  A    between atoms: C7_7  and  C8_8 
ROOT
HETATM    1  C1  UNL     1     -32.276   7.486   3.156  1.00 20.00     0.033 C 
HETATM    2  C3  UNL     1     -32.590   8.924   2.793  1.00 20.00     0.168 C 
HETATM    3  C4  UNL     1     -32.236   8.809   5.095  1.00 20.00     0.172 C 
HETATM    4  C5  UNL     1     -32.636   7.419   4.626  1.00 20.00     0.016 C 
HETATM    5  O9  UNL     1     -32.446   9.701   3.990  1.00 20.00    -0.391 OA
ENDROOT
BRANCH   4   6
HETATM    6  C6  UNL     1     -34.126   7.157   4.841  1.00 20.00    -0.003 A 
HETATM    7  C2  UNL     1     -34.601   6.469   6.091  1.00 20.00     0.011 A 
HETATM    8  C7  UNL     1     -34.722   5.772   4.760  1.00 20.00     0.000 A 
BRANCH   8   9
HETATM    9  C8  UNL     1     -33.903   4.563   4.467  1.00 20.00     0.090 C 
HETATM   10 BR10 UNL     1     -33.367   4.540   2.590  1.00 20.00    -0.096 Br
ENDBRANCH   8   9
ENDBRANCH   4   6
TORSDOF 2
ENDMDL
