MODEL 1
REMARK VINA RESULT:      -5.2      0.000      0.000
REMARK  2 active torsions:
REMARK  status: ('A' for Active; 'I' for Inactive)
REMARK    1  A    between atoms: C4_4  and  C6_6 
REMARK    2  A    between atoms: C7_7  and  C8_8 
ROOT
HETATM    1  C1  UNL     1     -34.202   6.370   6.373  1.00 20.00     0.034 A 
HETATM    2  C2  UNL     1     -34.592   5.051   6.326  1.00 20.00     0.142 A 
HETATM    3  C3  UNL     1     -34.388   5.698   4.254  1.00 20.00     0.148 A 
HETATM    4  C4  UNL     1     -34.070   6.789   5.028  1.00 20.00    -0.029 A 
HETATM    5  O9  UNL     1     -34.708   4.633   5.038  1.00 20.00    -0.334 OA
ENDROOT
BRANCH   4   6
HETATM    6  C6  UNL     1     -33.664   8.159   4.537  1.00 20.00     0.026 A 
HETATM    7  C5  UNL     1     -32.299   8.718   4.879  1.00 20.00     0.016 A 
HETATM    8  C7  UNL     1     -32.597   8.295   3.471  1.00 20.00     0.005 A 
BRANCH   8   9
HETATM    9  C8  UNL     1     -32.739   9.316   2.396  1.00 20.00     0.090 C 
HETATM   10 BR10 UNL     1     -32.322   8.537   0.655  1.00 20.00    -0.096 Br
ENDBRANCH   8   9
ENDBRANCH   4   6
TORSDOF 2
ENDMDL
MODEL 2
REMARK VINA RESULT:      -4.8      0.640      1.185
REMARK  2 active torsions:
REMARK  status: ('A' for Active; 'I' for Inactive)
REMARK    1  A    between atoms: C4_4  and  C6_6 
REMARK    2  A    between atoms: C7_7  and  C8_8 
ROOT
HETATM    1  C1  UNL     1     -34.276   5.804   4.245  1.00 20.00     0.034 A 
HETATM    2  C2  UNL     1     -34.610   4.794   5.118  1.00 20.00     0.142 A 
HETATM    3  C3  UNL     1     -34.188   6.543   6.347  1.00 20.00     0.148 A 
HETATM    4  C4  UNL     1     -34.001   6.939   5.044  1.00 20.00    -0.029 A 
HETATM    5  O9  UNL     1     -34.559   5.236   6.401  1.00 20.00    -0.334 OA
ENDROOT
BRANCH   4   6
HETATM    6  C6  UNL     1     -33.585   8.311   4.565  1.00 20.00     0.026 A 
HETATM    7  C5  UNL     1     -32.173   8.803   4.797  1.00 20.00     0.016 A 
HETATM    8  C7  UNL     1     -32.615   8.446   3.409  1.00 20.00     0.005 A 
BRANCH   8   9
HETATM    9  C8  UNL     1     -32.813   9.512   2.388  1.00 20.00     0.090 C 
HETATM   10 BR10 UNL     1     -32.521   8.799   0.594  1.00 20.00    -0.096 Br
ENDBRANCH   8   9
ENDBRANCH   4   6
TORSDOF 2
ENDMDL
MODEL 3
REMARK VINA RESULT:      -4.2      2.978      4.635
REMARK  2 active torsions:
REMARK  status: ('A' for Active; 'I' for Inactive)
REMARK    1  A    between atoms: C4_4  and  C6_6 
REMARK    2  A    between atoms: C7_7  and  C8_8 
ROOT
HETATM    1  C1  UNL     1     -32.933   9.676   2.172  1.00 20.00     0.034 A 
HETATM    2  C2  UNL     1     -32.815   9.618   0.802  1.00 20.00     0.142 A 
HETATM    3  C3  UNL     1     -32.074   7.712   1.554  1.00 20.00     0.148 A 
HETATM    4  C4  UNL     1     -32.451   8.438   2.659  1.00 20.00    -0.029 A 
HETATM    5  O9  UNL     1     -32.293   8.424   0.417  1.00 20.00    -0.334 OA
ENDROOT
BRANCH   4   6
HETATM    6  C6  UNL     1     -32.365   7.999   4.103  1.00 20.00     0.026 A 
HETATM    7  C5  UNL     1     -32.532   9.010   5.218  1.00 20.00     0.016 A 
HETATM    8  C7  UNL     1     -33.609   7.997   4.968  1.00 20.00     0.005 A 
BRANCH   8   9
HETATM    9  C8  UNL     1     -33.840   6.893   5.941  1.00 20.00     0.090 C 
HETATM   10 BR10 UNL     1     -34.844   5.444   5.103  1.00 20.00    -0.096 Br
ENDBRANCH   8   9
ENDBRANCH   4   6
TORSDOF 2
ENDMDL
MODEL 4
REMARK VINA RESULT:      -3.9     11.695     12.366
REMARK  2 active torsions:
REMARK  status: ('A' for Active; 'I' for Inactive)
REMARK    1  A    between atoms: C4_4  and  C6_6 
REMARK    2  A    between atoms: C7_7  and  C8_8 
ROOT
HETATM    1  C1  UNL     1     -31.931  18.376  -1.092  1.00 20.00     0.034 A 
HETATM    2  C2  UNL     1     -31.757  18.770   0.215  1.00 20.00     0.142 A 
HETATM    3  C3  UNL     1     -33.745  17.884   0.110  1.00 20.00     0.148 A 
HETATM    4  C4  UNL     1     -33.223  17.801  -1.159  1.00 20.00    -0.029 A 
HETATM    5  O9  UNL     1     -32.857  18.473   0.954  1.00 20.00    -0.334 OA
ENDROOT
BRANCH   4   6
HETATM    6  C6  UNL     1     -33.896  17.215  -2.379  1.00 20.00     0.026 A 
HETATM    7  C5  UNL     1     -33.407  17.576  -3.766  1.00 20.00     0.016 A 
HETATM    8  C7  UNL     1     -33.165  16.196  -3.229  1.00 20.00     0.005 A 
BRANCH   8   9
HETATM    9  C8  UNL     1     -33.901  15.031  -3.796  1.00 20.00     0.090 C 
HETATM   10 BR10 UNL     1     -34.054  15.200  -5.735  1.00 20.00    -0.096 Br
ENDBRANCH   8   9
ENDBRANCH   4   6
TORSDOF 2
ENDMDL
MODEL 5
REMARK VINA RESULT:      -3.9     11.930     12.657
REMARK  2 active torsions:
REMARK  status: ('A' for Active; 'I' for Inactive)
REMARK    1  A    between atoms: C4_4  and  C6_6 
REMARK    2  A    between atoms: C7_7  and  C8_8 
ROOT
HETATM    1  C1  UNL     1     -33.730  15.017  -3.860  1.00 20.00     0.034 A 
HETATM    2  C2  UNL     1     -34.322  14.969  -5.101  1.00 20.00     0.142 A 
HETATM    3  C3  UNL     1     -34.192  17.080  -4.573  1.00 20.00     0.148 A 
HETATM    4  C4  UNL     1     -33.647  16.388  -3.517  1.00 20.00    -0.029 A 
HETATM    5  O9  UNL     1     -34.607  16.223  -5.543  1.00 20.00    -0.334 OA
ENDROOT
BRANCH   4   6
HETATM    6  C6  UNL     1     -33.075  16.975  -2.248  1.00 20.00     0.026 A 
HETATM    7  C5  UNL     1     -32.739  18.449  -2.174  1.00 20.00     0.016 A 
HETATM    8  C7  UNL     1     -33.913  17.917  -1.407  1.00 20.00     0.005 A 
BRANCH   8   9
HETATM    9  C8  UNL     1     -33.862  17.836   0.080  1.00 20.00     0.090 C 
HETATM   10 BR10 UNL     1     -32.407  18.937   0.774  1.00 20.00    -0.096 Br
ENDBRANCH   8   9
ENDBRANCH   4   6
TORSDOF 2
ENDMDL
MODEL 6
REMARK VINA RESULT:      -3.8     12.021     12.990
REMARK  2 active torsions:
REMARK  status: ('A' for Active; 'I' for Inactive)
REMARK    1  A    between atoms: C4_4  and  C6_6 
REMARK    2  A    between atoms: C7_7  and  C8_8 
ROOT
HETATM    1  C1  UNL     1     -33.577  16.902  -1.722  1.00 20.00     0.034 A 
HETATM    2  C2  UNL     1     -33.564  18.199  -1.261  1.00 20.00     0.142 A 
HETATM    3  C3  UNL     1     -33.123  18.309  -3.393  1.00 20.00     0.148 A 
HETATM    4  C4  UNL     1     -33.290  16.974  -3.106  1.00 20.00    -0.029 A 
HETATM    5  O9  UNL     1     -33.288  19.062  -2.274  1.00 20.00    -0.334 OA
ENDROOT
BRANCH   4   6
HETATM    6  C6  UNL     1     -33.186  15.820  -4.075  1.00 20.00     0.026 A 
HETATM    7  C5  UNL     1     -34.043  14.586  -3.886  1.00 20.00     0.016 A 
HETATM    8  C7  UNL     1     -34.330  15.522  -5.022  1.00 20.00     0.005 A 
BRANCH   8   9
HETATM    9  C8  UNL     1     -34.050  15.106  -6.425  1.00 20.00     0.090 C 
HETATM   10 BR10 UNL     1     -34.457  16.561  -7.662  1.00 20.00    -0.096 Br
ENDBRANCH   8   9
ENDBRANCH   4   6
TORSDOF 2
ENDMDL
MODEL 7
REMARK VINA RESULT:      -3.8     12.046     12.404
REMARK  2 active torsions:
REMARK  status: ('A' for Active; 'I' for Inactive)
REMARK    1  A    between atoms: C4_4  and  C6_6 
REMARK    2  A    between atoms: C7_7  and  C8_8 
ROOT
HETATM    1  C1  UNL     1     -30.071  18.796   2.201  1.00 20.00     0.034 A 
HETATM    2  C2  UNL     1     -29.951  18.772   3.572  1.00 20.00     0.142 A 
HETATM    3  C3  UNL     1     -32.036  19.249   3.154  1.00 20.00     0.148 A 
HETATM    4  C4  UNL     1     -31.425  19.107   1.931  1.00 20.00    -0.029 A 
HETATM    5  O9  UNL     1     -31.144  19.047   4.160  1.00 20.00    -0.334 OA
ENDROOT
BRANCH   4   6
HETATM    6  C6  UNL     1     -32.072  19.253   0.573  1.00 20.00     0.026 A 
HETATM    7  C5  UNL     1     -31.284  18.949  -0.683  1.00 20.00     0.016 A 
HETATM    8  C7  UNL     1     -32.383  18.022  -0.254  1.00 20.00     0.005 A 
BRANCH   8   9
HETATM    9  C8  UNL     1     -33.648  17.947  -1.035  1.00 20.00     0.090 C 
HETATM   10 BR10 UNL     1     -33.439  16.743  -2.558  1.00 20.00    -0.096 Br
ENDBRANCH   8   9
ENDBRANCH   4   6
TORSDOF 2
ENDMDL
MODEL 8
REMARK VINA RESULT:      -3.6     10.010     10.557
REMARK  2 active torsions:
REMARK  status: ('A' for Active; 'I' for Inactive)
REMARK    1  A    between atoms: C4_4  and  C6_6 
REMARK    2  A    between atoms: C7_7  and  C8_8 
ROOT
HETATM    1  C1  UNL     1     -39.495  12.315   6.353  1.00 20.00     0.034 A 
HETATM    2  C2  UNL     1     -39.346  11.820   5.078  1.00 20.00     0.142 A 
HETATM    3  C3  UNL     1     -40.912  13.331   4.961  1.00 20.00     0.148 A 
HETATM    4  C4  UNL     1     -40.513  13.295   6.276  1.00 20.00    -0.029 A 
HETATM    5  O9  UNL     1     -40.205  12.434   4.223  1.00 20.00    -0.334 OA
ENDROOT
BRANCH   4   6
HETATM    6  C6  UNL     1     -41.055  14.135   7.410  1.00 20.00     0.026 A 
HETATM    7  C5  UNL     1     -40.259  14.296   8.687  1.00 20.00     0.016 A 
HETATM    8  C7  UNL     1     -40.401  15.459   7.750  1.00 20.00     0.005 A 
BRANCH   8   9
HETATM    9  C8  UNL     1     -41.240  16.630   8.130  1.00 20.00     0.090 C 
HETATM   10 BR10 UNL     1     -40.626  18.236   7.206  1.00 20.00    -0.096 Br
ENDBRANCH   8   9
ENDBRANCH   4   6
TORSDOF 2
ENDMDL
MODEL 9
REMARK VINA RESULT:      -3.6     11.902     12.859
REMARK  2 active torsions:
REMARK  status: ('A' for Active; 'I' for Inactive)
REMARK    1  A    between atoms: C4_4  and  C6_6 
REMARK    2  A    between atoms: C7_7  and  C8_8 
ROOT
HETATM    1  C1  UNL     1     -34.614  17.119  -4.875  1.00 20.00     0.034 A 
HETATM    2  C2  UNL     1     -34.420  15.988  -5.634  1.00 20.00     0.142 A 
HETATM    3  C3  UNL     1     -33.390  15.634  -3.746  1.00 20.00     0.148 A 
HETATM    4  C4  UNL     1     -33.944  16.889  -3.650  1.00 20.00    -0.029 A 
HETATM    5  O9  UNL     1     -33.675  15.078  -4.954  1.00 20.00    -0.334 OA
ENDROOT
BRANCH   4   6
HETATM    6  C6  UNL     1     -33.854  17.830  -2.471  1.00 20.00     0.026 A 
HETATM    7  C5  UNL     1     -33.761  17.282  -1.063  1.00 20.00     0.016 A 
HETATM    8  C7  UNL     1     -32.563  17.936  -1.685  1.00 20.00     0.005 A 
BRANCH   8   9
HETATM    9  C8  UNL     1     -32.094  19.262  -1.195  1.00 20.00     0.090 C 
HETATM   10 BR10 UNL     1     -31.210  19.075   0.536  1.00 20.00    -0.096 Br
ENDBRANCH   8   9
ENDBRANCH   4   6
TORSDOF 2
ENDMDL
