MODEL 1
REMARK VINA RESULT:      -4.0      0.000      0.000
REMARK  1 active torsions:
REMARK  status: ('A' for Active; 'I' for Inactive)
REMARK    1  A    between atoms: C5_5  and  C10_10 
ROOT
HETATM    1  C1  UNL     1     -35.258  13.959  -4.832  1.00 20.00     0.036 C 
HETATM    2  C2  UNL     1     -32.856  14.785  -4.394  1.00 20.00     0.016 A 
HETATM    3  C3  UNL     1     -34.492  16.087  -5.918  1.00 20.00     0.047 C 
HETATM    4  C4  UNL     1     -36.680  14.485  -4.931  1.00 20.00     0.169 C 
HETATM    5  C5  UNL     1     -33.725  15.542  -3.429  1.00 20.00     0.009 A 
HETATM    6  C6  UNL     1     -34.284  15.113  -4.779  1.00 20.00    -0.031 A 
HETATM    7  C7  UNL     1     -35.971  16.504  -6.050  1.00 20.00     0.054 C 
HETATM    8  C8  UNL     1     -36.404  17.490  -4.956  1.00 20.00     0.045 C 
HETATM    9  C9  UNL     1     -36.176  17.183  -7.413  1.00 20.00     0.045 C 
HETATM   10  O11 UNL     1     -36.825  15.347  -6.062  1.00 20.00    -0.381 OA
ENDROOT
BRANCH   5  11
HETATM   11  C10 UNL     1     -33.367  16.945  -3.078  1.00 20.00     0.120 C 
HETATM   12 CL12 UNL     1     -33.643  17.268  -1.344  1.00 20.00    -0.130 Cl
ENDBRANCH   5  11
TORSDOF 1
ENDMDL
MODEL 2
REMARK VINA RESULT:      -3.8      2.184      3.088
REMARK  1 active torsions:
REMARK  status: ('A' for Active; 'I' for Inactive)
REMARK    1  A    between atoms: C5_5  and  C10_10 
ROOT
HETATM    1  C1  UNL     1     -33.216  16.093  -3.353  1.00 20.00     0.036 C 
HETATM    2  C2  UNL     1     -32.458  17.747  -1.527  1.00 20.00     0.016 A 
HETATM    3  C3  UNL     1     -33.289  18.554  -3.841  1.00 20.00     0.047 C 
HETATM    4  C4  UNL     1     -34.313  15.911  -4.390  1.00 20.00     0.169 C 
HETATM    5  C5  UNL     1     -33.956  17.682  -1.416  1.00 20.00     0.009 A 
HETATM    6  C6  UNL     1     -33.285  17.485  -2.770  1.00 20.00    -0.031 A 
HETATM    7  C7  UNL     1     -34.342  18.265  -4.931  1.00 20.00     0.054 C 
HETATM    8  C8  UNL     1     -35.773  18.551  -4.457  1.00 20.00     0.045 C 
HETATM    9  C9  UNL     1     -34.055  19.157  -6.148  1.00 20.00     0.045 C 
HETATM   10  O11 UNL     1     -34.222  16.912  -5.407  1.00 20.00    -0.381 OA
ENDROOT
BRANCH   5  11
HETATM   11  C10 UNL     1     -34.707  18.908  -1.024  1.00 20.00     0.120 C 
HETATM   12 CL12 UNL     1     -34.689  19.138   0.747  1.00 20.00    -0.130 Cl
ENDBRANCH   5  11
TORSDOF 1
ENDMDL
MODEL 3
REMARK VINA RESULT:      -3.7     13.003     13.924
REMARK  1 active torsions:
REMARK  status: ('A' for Active; 'I' for Inactive)
REMARK    1  A    between atoms: C5_5  and  C10_10 
ROOT
HETATM    1  C1  UNL     1     -43.047  13.727   6.597  1.00 20.00     0.036 C 
HETATM    2  C2  UNL     1     -41.166  13.365   4.873  1.00 20.00     0.016 A 
HETATM    3  C3  UNL     1     -40.921  15.038   6.832  1.00 20.00     0.047 C 
HETATM    4  C4  UNL     1     -43.252  13.896   8.094  1.00 20.00     0.169 C 
HETATM    5  C5  UNL     1     -40.810  12.497   6.047  1.00 20.00     0.009 A 
HETATM    6  C6  UNL     1     -41.575  13.796   6.266  1.00 20.00    -0.031 A 
HETATM    7  C7  UNL     1     -41.250  15.227   8.327  1.00 20.00     0.054 C 
HETATM    8  C8  UNL     1     -40.478  14.253   9.227  1.00 20.00     0.045 C 
HETATM    9  C9  UNL     1     -40.877  16.658   8.741  1.00 20.00     0.045 C 
HETATM   10  O11 UNL     1     -42.667  15.117   8.552  1.00 20.00    -0.381 OA
ENDROOT
BRANCH   5  11
HETATM   11  C10 UNL     1     -39.374  12.302   6.394  1.00 20.00     0.120 C 
HETATM   12 CL12 UNL     1     -38.409  11.892   4.949  1.00 20.00    -0.130 Cl
ENDBRANCH   5  11
TORSDOF 1
ENDMDL
MODEL 4
REMARK VINA RESULT:      -3.7     13.137     13.997
REMARK  1 active torsions:
REMARK  status: ('A' for Active; 'I' for Inactive)
REMARK    1  A    between atoms: C5_5  and  C10_10 
ROOT
HETATM    1  C1  UNL     1     -42.585  13.626   8.622  1.00 20.00     0.036 C 
HETATM    2  C2  UNL     1     -41.309  15.828   9.028  1.00 20.00     0.016 A 
HETATM    3  C3  UNL     1     -40.469  14.053   7.342  1.00 20.00     0.047 C 
HETATM    4  C4  UNL     1     -43.022  12.714   7.486  1.00 20.00     0.169 C 
HETATM    5  C5  UNL     1     -42.147  16.067   7.803  1.00 20.00     0.009 A 
HETATM    6  C6  UNL     1     -41.623  14.669   8.104  1.00 20.00    -0.031 A 
HETATM    7  C7  UNL     1     -40.959  13.050   6.277  1.00 20.00     0.054 C 
HETATM    8  C8  UNL     1     -41.567  13.744   5.051  1.00 20.00     0.045 C 
HETATM    9  C9  UNL     1     -39.765  12.206   5.805  1.00 20.00     0.045 C 
HETATM   10  O11 UNL     1     -41.890  12.116   6.851  1.00 20.00    -0.381 OA
ENDROOT
BRANCH   5  11
HETATM   11  C10 UNL     1     -41.616  16.947   6.723  1.00 20.00     0.120 C 
HETATM   12 CL12 UNL     1     -40.494  18.170   7.379  1.00 20.00    -0.130 Cl
ENDBRANCH   5  11
TORSDOF 1
ENDMDL
MODEL 5
REMARK VINA RESULT:      -3.5      2.751      4.530
REMARK  1 active torsions:
REMARK  status: ('A' for Active; 'I' for Inactive)
REMARK    1  A    between atoms: C5_5  and  C10_10 
ROOT
HETATM    1  C1  UNL     1     -35.780  18.882  -4.076  1.00 20.00     0.036 C 
HETATM    2  C2  UNL     1     -34.549  17.771  -6.049  1.00 20.00     0.016 A 
HETATM    3  C3  UNL     1     -33.322  18.421  -3.865  1.00 20.00     0.047 C 
HETATM    4  C4  UNL     1     -35.866  18.818  -2.559  1.00 20.00     0.169 C 
HETATM    5  C5  UNL     1     -34.882  16.653  -5.100  1.00 20.00     0.009 A 
HETATM    6  C6  UNL     1     -34.614  18.053  -4.562  1.00 20.00    -0.031 A 
HETATM    7  C7  UNL     1     -33.489  18.453  -2.331  1.00 20.00     0.054 C 
HETATM    8  C8  UNL     1     -33.571  17.048  -1.720  1.00 20.00     0.045 C 
HETATM    9  C9  UNL     1     -32.281  19.173  -1.715  1.00 20.00     0.045 C 
HETATM   10  O11 UNL     1     -34.637  19.238  -1.963  1.00 20.00    -0.381 OA
ENDROOT
BRANCH   5  11
HETATM   11  C10 UNL     1     -33.937  15.509  -4.968  1.00 20.00     0.120 C 
HETATM   12 CL12 UNL     1     -34.735  14.092  -4.231  1.00 20.00    -0.130 Cl
ENDBRANCH   5  11
TORSDOF 1
ENDMDL
MODEL 6
REMARK VINA RESULT:      -3.4      1.618      3.199
REMARK  1 active torsions:
REMARK  status: ('A' for Active; 'I' for Inactive)
REMARK    1  A    between atoms: C5_5  and  C10_10 
ROOT
HETATM    1  C1  UNL     1     -34.740  17.135  -7.265  1.00 20.00     0.036 C 
HETATM    2  C2  UNL     1     -35.310  18.861  -5.438  1.00 20.00     0.016 A 
HETATM    3  C3  UNL     1     -35.661  16.323  -5.077  1.00 20.00     0.047 C 
HETATM    4  C4  UNL     1     -34.084  15.774  -7.431  1.00 20.00     0.169 C 
HETATM    5  C5  UNL     1     -33.938  18.351  -5.097  1.00 20.00     0.009 A 
HETATM    6  C6  UNL     1     -34.936  17.438  -5.798  1.00 20.00    -0.031 A 
HETATM    7  C7  UNL     1     -35.026  14.947  -5.367  1.00 20.00     0.054 C 
HETATM    8  C8  UNL     1     -33.701  14.742  -4.622  1.00 20.00     0.045 C 
HETATM    9  C9  UNL     1     -36.001  13.846  -4.921  1.00 20.00     0.045 C 
HETATM   10  O11 UNL     1     -34.851  14.757  -6.783  1.00 20.00    -0.381 OA
ENDROOT
BRANCH   5  11
HETATM   11  C10 UNL     1     -33.548  18.222  -3.665  1.00 20.00     0.120 C 
HETATM   12 CL12 UNL     1     -34.815  18.872  -2.589  1.00 20.00    -0.130 Cl
ENDBRANCH   5  11
TORSDOF 1
ENDMDL
MODEL 7
REMARK VINA RESULT:      -3.3     13.142     13.989
REMARK  1 active torsions:
REMARK  status: ('A' for Active; 'I' for Inactive)
REMARK    1  A    between atoms: C5_5  and  C10_10 
ROOT
HETATM    1  C1  UNL     1     -42.380  14.096   8.777  1.00 20.00     0.036 C 
HETATM    2  C2  UNL     1     -41.009  16.276   8.863  1.00 20.00     0.016 A 
HETATM    3  C3  UNL     1     -40.452  14.378   7.196  1.00 20.00     0.047 C 
HETATM    4  C4  UNL     1     -42.991  13.132   7.773  1.00 20.00     0.169 C 
HETATM    5  C5  UNL     1     -42.002  16.469   7.752  1.00 20.00     0.009 A 
HETATM    6  C6  UNL     1     -41.474  15.075   8.067  1.00 20.00    -0.031 A 
HETATM    7  C7  UNL     1     -41.108  13.328   6.274  1.00 20.00     0.054 C 
HETATM    8  C8  UNL     1     -41.864  13.966   5.101  1.00 20.00     0.045 C 
HETATM    9  C9  UNL     1     -40.012  12.419   5.698  1.00 20.00     0.045 C 
HETATM   10  O11 UNL     1     -41.973  12.461   7.029  1.00 20.00    -0.381 OA
ENDROOT
BRANCH   5  11
HETATM   11  C10 UNL     1     -41.607  17.264   6.555  1.00 20.00     0.120 C 
HETATM   12 CL12 UNL     1     -43.018  17.624   5.522  1.00 20.00    -0.130 Cl
ENDBRANCH   5  11
TORSDOF 1
ENDMDL
MODEL 8
REMARK VINA RESULT:      -3.3      2.111      3.197
REMARK  1 active torsions:
REMARK  status: ('A' for Active; 'I' for Inactive)
REMARK    1  A    between atoms: C5_5  and  C10_10 
ROOT
HETATM    1  C1  UNL     1     -33.322  16.613  -3.476  1.00 20.00     0.036 C 
HETATM    2  C2  UNL     1     -34.224  19.016  -3.707  1.00 20.00     0.016 A 
HETATM    3  C3  UNL     1     -34.338  17.322  -5.659  1.00 20.00     0.047 C 
HETATM    4  C4  UNL     1     -33.690  15.181  -3.834  1.00 20.00     0.169 C 
HETATM    5  C5  UNL     1     -35.420  18.167  -3.379  1.00 20.00     0.009 A 
HETATM    6  C6  UNL     1     -34.260  17.574  -4.169  1.00 20.00    -0.031 A 
HETATM    7  C7  UNL     1     -34.600  15.834  -5.973  1.00 20.00     0.054 C 
HETATM    8  C8  UNL     1     -36.052  15.422  -5.696  1.00 20.00     0.045 C 
HETATM    9  C9  UNL     1     -34.307  15.582  -7.460  1.00 20.00     0.045 C 
HETATM   10  O11 UNL     1     -33.683  14.994  -5.250  1.00 20.00    -0.381 OA
ENDROOT
BRANCH   5  11
HETATM   11  C10 UNL     1     -36.742  18.518  -3.969  1.00 20.00     0.120 C 
HETATM   12 CL12 UNL     1     -38.014  18.572  -2.717  1.00 20.00    -0.130 Cl
ENDBRANCH   5  11
TORSDOF 1
ENDMDL
MODEL 9
REMARK VINA RESULT:      -3.2      2.848      3.908
REMARK  1 active torsions:
REMARK  status: ('A' for Active; 'I' for Inactive)
REMARK    1  A    between atoms: C5_5  and  C10_10 
ROOT
HETATM    1  C1  UNL     1     -33.885  14.906  -4.172  1.00 20.00     0.036 C 
HETATM    2  C2  UNL     1     -35.560  14.752  -6.125  1.00 20.00     0.016 A 
HETATM    3  C3  UNL     1     -35.514  16.783  -4.522  1.00 20.00     0.047 C 
HETATM    4  C4  UNL     1     -32.964  15.906  -3.491  1.00 20.00     0.169 C 
HETATM    5  C5  UNL     1     -34.421  15.589  -6.636  1.00 20.00     0.009 A 
HETATM    6  C6  UNL     1     -34.783  15.619  -5.156  1.00 20.00    -0.031 A 
HETATM    7  C7  UNL     1     -34.552  17.707  -3.747  1.00 20.00     0.054 C 
HETATM    8  C8  UNL     1     -33.699  18.581  -4.677  1.00 20.00     0.045 C 
HETATM    9  C9  UNL     1     -35.377  18.635  -2.843  1.00 20.00     0.045 C 
HETATM   10  O11 UNL     1     -33.718  16.942  -2.859  1.00 20.00    -0.381 OA
ENDROOT
BRANCH   5  11
HETATM   11  C10 UNL     1     -34.707  16.697  -7.590  1.00 20.00     0.120 C 
HETATM   12 CL12 UNL     1     -36.458  16.837  -7.912  1.00 20.00    -0.130 Cl
ENDBRANCH   5  11
TORSDOF 1
ENDMDL
