MODEL 1
REMARK VINA RESULT:      -3.7      0.000      0.000
REMARK  1 active torsions:
REMARK  status: ('A' for Active; 'I' for Inactive)
REMARK    1  A    between atoms: C5_5  and  C7_7 
ROOT
HETATM    1  C1  UNL     1     -23.890  18.595  12.170  1.00 20.00     0.038 C 
HETATM    2  C2  UNL     1     -21.861  18.369  10.556  1.00 20.00     0.018 A 
HETATM    3  C3  UNL     1     -25.118  17.714  12.322  1.00 20.00     0.168 C 
HETATM    4  C4  UNL     1     -23.925  16.765  10.596  1.00 20.00     0.177 C 
HETATM    5  C5  UNL     1     -22.935  19.077   9.781  1.00 20.00     0.007 A 
HETATM    6  C6  UNL     1     -23.315  18.104  10.881  1.00 20.00    -0.012 A 
HETATM    7  O8  UNL     1     -24.739  16.456  11.744  1.00 20.00    -0.390 OA
ENDROOT
BRANCH   5   8
HETATM    8  C7  UNL     1     -23.135  18.763   8.337  1.00 20.00     0.090 C 
HETATM    9 BR9  UNL     1     -21.470  18.125   7.544  1.00 20.00    -0.096 Br
ENDBRANCH   5   8
TORSDOF 1
ENDMDL
MODEL 2
REMARK VINA RESULT:      -3.7     13.537     14.683
REMARK  1 active torsions:
REMARK  status: ('A' for Active; 'I' for Inactive)
REMARK    1  A    between atoms: C5_5  and  C7_7 
ROOT
HETATM    1  C1  UNL     1     -32.778  18.605   1.212  1.00 20.00     0.038 C 
HETATM    2  C2  UNL     1     -33.863  19.082  -1.105  1.00 20.00     0.018 A 
HETATM    3  C3  UNL     1     -31.324  18.360   1.575  1.00 20.00     0.168 C 
HETATM    4  C4  UNL     1     -31.322  18.609  -0.714  1.00 20.00     0.177 C 
HETATM    5  C5  UNL     1     -33.745  17.588  -0.998  1.00 20.00     0.007 A 
HETATM    6  C6  UNL     1     -32.750  18.478  -0.277  1.00 20.00    -0.012 A 
HETATM    7  O8  UNL     1     -30.575  18.910   0.481  1.00 20.00    -0.390 OA
ENDROOT
BRANCH   5   8
HETATM    8  C7  UNL     1     -33.371  16.789  -2.200  1.00 20.00     0.090 C 
HETATM    9 BR9  UNL     1     -33.928  17.708  -3.828  1.00 20.00    -0.096 Br
ENDBRANCH   5   8
TORSDOF 1
ENDMDL
MODEL 3
REMARK VINA RESULT:      -3.5     17.536     18.757
REMARK  1 active torsions:
REMARK  status: ('A' for Active; 'I' for Inactive)
REMARK    1  A    between atoms: C5_5  and  C7_7 
ROOT
HETATM    1  C1  UNL     1     -35.064  14.044  -4.496  1.00 20.00     0.038 C 
HETATM    2  C2  UNL     1     -32.654  14.975  -4.195  1.00 20.00     0.018 A 
HETATM    3  C3  UNL     1     -36.159  14.466  -5.460  1.00 20.00     0.168 C 
HETATM    4  C4  UNL     1     -34.418  15.911  -5.881  1.00 20.00     0.177 C 
HETATM    5  C5  UNL     1     -33.551  15.867  -3.384  1.00 20.00     0.007 A 
HETATM    6  C6  UNL     1     -34.092  15.172  -4.619  1.00 20.00    -0.012 A 
HETATM    7  O8  UNL     1     -35.473  15.160  -6.512  1.00 20.00    -0.390 OA
ENDROOT
BRANCH   5   8
HETATM    8  C7  UNL     1     -33.295  17.335  -3.345  1.00 20.00     0.090 C 
HETATM    9 BR9  UNL     1     -32.919  17.912  -1.519  1.00 20.00    -0.096 Br
ENDBRANCH   5   8
TORSDOF 1
ENDMDL
MODEL 4
REMARK VINA RESULT:      -3.5     14.543     15.780
REMARK  1 active torsions:
REMARK  status: ('A' for Active; 'I' for Inactive)
REMARK    1  A    between atoms: C5_5  and  C7_7 
ROOT
HETATM    1  C1  UNL     1     -34.826  18.575  -2.300  1.00 20.00     0.038 C 
HETATM    2  C2  UNL     1     -33.841  17.820  -0.013  1.00 20.00     0.018 A 
HETATM    3  C3  UNL     1     -34.560  18.047  -3.698  1.00 20.00     0.168 C 
HETATM    4  C4  UNL     1     -33.178  16.812  -2.331  1.00 20.00     0.177 C 
HETATM    5  C5  UNL     1     -32.847  18.782  -0.600  1.00 20.00     0.007 A 
HETATM    6  C6  UNL     1     -33.720  17.946  -1.515  1.00 20.00    -0.012 A 
HETATM    7  O8  UNL     1     -34.023  16.730  -3.496  1.00 20.00    -0.390 OA
ENDROOT
BRANCH   5   8
HETATM    8  C7  UNL     1     -31.387  18.524  -0.440  1.00 20.00     0.090 C 
HETATM    9 BR9  UNL     1     -30.906  18.478   1.450  1.00 20.00    -0.096 Br
ENDBRANCH   5   8
TORSDOF 1
ENDMDL
MODEL 5
REMARK VINA RESULT:      -3.4     17.811     18.716
REMARK  1 active torsions:
REMARK  status: ('A' for Active; 'I' for Inactive)
REMARK    1  A    between atoms: C5_5  and  C7_7 
ROOT
HETATM    1  C1  UNL     1     -42.724  13.453   7.690  1.00 20.00     0.038 C 
HETATM    2  C2  UNL     1     -41.420  13.597   5.443  1.00 20.00     0.018 A 
HETATM    3  C3  UNL     1     -42.318  13.900   9.083  1.00 20.00     0.168 C 
HETATM    4  C4  UNL     1     -40.490  14.365   7.762  1.00 20.00     0.177 C 
HETATM    5  C5  UNL     1     -40.948  12.342   6.121  1.00 20.00     0.007 A 
HETATM    6  C6  UNL     1     -41.425  13.517   6.953  1.00 20.00    -0.012 A 
HETATM    7  O8  UNL     1     -41.269  14.857   8.869  1.00 20.00    -0.390 OA
ENDROOT
BRANCH   5   8
HETATM    8  C7  UNL     1     -39.510  11.956   6.042  1.00 20.00     0.090 C 
HETATM    9 BR9  UNL     1     -38.979  11.689   4.183  1.00 20.00    -0.096 Br
ENDBRANCH   5   8
TORSDOF 1
ENDMDL
MODEL 6
REMARK VINA RESULT:      -3.4     15.401     16.309
REMARK  1 active torsions:
REMARK  status: ('A' for Active; 'I' for Inactive)
REMARK    1  A    between atoms: C5_5  and  C7_7 
ROOT
HETATM    1  C1  UNL     1     -34.238   7.177   4.867  1.00 20.00     0.038 C 
HETATM    2  C2  UNL     1     -31.824   7.855   4.174  1.00 20.00     0.018 A 
HETATM    3  C3  UNL     1     -35.024   5.915   4.556  1.00 20.00     0.168 C 
HETATM    4  C4  UNL     1     -33.019   5.644   3.457  1.00 20.00     0.177 C 
HETATM    5  C5  UNL     1     -32.711   8.233   3.022  1.00 20.00     0.007 A 
HETATM    6  C6  UNL     1     -33.090   7.068   3.917  1.00 20.00    -0.012 A 
HETATM    7  O8  UNL     1     -34.028   4.941   4.207  1.00 20.00    -0.390 OA
ENDROOT
BRANCH   5   8
HETATM    8  C7  UNL     1     -32.231   8.040   1.624  1.00 20.00     0.090 C 
HETATM    9 BR9  UNL     1     -32.867   9.487   0.480  1.00 20.00    -0.096 Br
ENDBRANCH   5   8
TORSDOF 1
ENDMDL
MODEL 7
REMARK VINA RESULT:      -3.3      2.120      2.760
REMARK  1 active torsions:
REMARK  status: ('A' for Active; 'I' for Inactive)
REMARK    1  A    between atoms: C5_5  and  C7_7 
ROOT
HETATM    1  C1  UNL     1     -26.150  17.363  12.306  1.00 20.00     0.038 C 
HETATM    2  C2  UNL     1     -24.058  16.781  10.871  1.00 20.00     0.018 A 
HETATM    3  C3  UNL     1     -27.000  18.620  12.326  1.00 20.00     0.168 C 
HETATM    4  C4  UNL     1     -25.336  19.061  10.797  1.00 20.00     0.177 C 
HETATM    5  C5  UNL     1     -23.553  17.563  12.050  1.00 20.00     0.007 A 
HETATM    6  C6  UNL     1     -24.955  17.808  11.527  1.00 20.00    -0.012 A 
HETATM    7  O8  UNL     1     -26.737  19.259  11.067  1.00 20.00    -0.390 OA
ENDROOT
BRANCH   5   8
HETATM    8  C7  UNL     1     -22.451  18.551  11.864  1.00 20.00     0.090 C 
HETATM    9 BR9  UNL     1     -21.686  18.388  10.077  1.00 20.00    -0.096 Br
ENDBRANCH   5   8
TORSDOF 1
ENDMDL
MODEL 8
REMARK VINA RESULT:      -3.3     14.381     15.541
REMARK  1 active torsions:
REMARK  status: ('A' for Active; 'I' for Inactive)
REMARK    1  A    between atoms: C5_5  and  C7_7 
ROOT
HETATM    1  C1  UNL     1     -31.629  18.454  -0.778  1.00 20.00     0.038 C 
HETATM    2  C2  UNL     1     -33.499  16.979  -1.824  1.00 20.00     0.018 A 
HETATM    3  C3  UNL     1     -31.596  19.191   0.549  1.00 20.00     0.168 C 
HETATM    4  C4  UNL     1     -33.687  18.230   0.463  1.00 20.00     0.177 C 
HETATM    5  C5  UNL     1     -33.844  18.399  -2.171  1.00 20.00     0.007 A 
HETATM    6  C6  UNL     1     -33.075  18.097  -0.899  1.00 20.00    -0.012 A 
HETATM    7  O8  UNL     1     -32.597  18.546   1.351  1.00 20.00    -0.390 OA
ENDROOT
BRANCH   5   8
HETATM    8  C7  UNL     1     -35.268  18.840  -2.154  1.00 20.00     0.090 C 
HETATM    9 BR9  UNL     1     -36.103  18.512  -3.887  1.00 20.00    -0.096 Br
ENDBRANCH   5   8
TORSDOF 1
ENDMDL
MODEL 9
REMARK VINA RESULT:      -3.2     18.651     19.968
REMARK  1 active torsions:
REMARK  status: ('A' for Active; 'I' for Inactive)
REMARK    1  A    between atoms: C5_5  and  C7_7 
ROOT
HETATM    1  C1  UNL     1     -35.256  16.672  -7.140  1.00 20.00     0.038 C 
HETATM    2  C2  UNL     1     -35.616  17.271  -4.634  1.00 20.00     0.018 A 
HETATM    3  C3  UNL     1     -35.308  15.324  -7.838  1.00 20.00     0.168 C 
HETATM    4  C4  UNL     1     -35.677  14.849  -5.616  1.00 20.00     0.177 C 
HETATM    5  C5  UNL     1     -34.179  16.853  -4.762  1.00 20.00     0.007 A 
HETATM    6  C6  UNL     1     -35.220  16.274  -5.700  1.00 20.00    -0.012 A 
HETATM    7  O8  UNL     1     -36.066  14.484  -6.954  1.00 20.00    -0.390 OA
ENDROOT
BRANCH   5   8
HETATM    8  C7  UNL     1     -33.545  16.046  -3.681  1.00 20.00     0.090 C 
HETATM    9 BR9  UNL     1     -33.436  17.082  -2.032  1.00 20.00    -0.096 Br
ENDBRANCH   5   8
TORSDOF 1
ENDMDL
