MODEL 1
REMARK VINA RESULT:      -3.6      0.000      0.000
REMARK  2 active torsions:
REMARK  status: ('A' for Active; 'I' for Inactive)
REMARK    1  A    between atoms: C4_4  and  C6_6 
REMARK    2  A    between atoms: C7_7  and  C8_8 
ROOT
HETATM    1  C1  UNL     1     -33.387  16.682  -2.281  1.00 20.00     0.015 A 
HETATM    2  C2  UNL     1     -33.297  16.907  -3.637  1.00 20.00     0.050 A 
HETATM    3  C3  UNL     1     -33.976  18.927  -2.409  1.00 20.00     0.057 A 
HETATM    4  C4  UNL     1     -33.781  17.852  -1.570  1.00 20.00    -0.047 A 
HETATM    5  S9  UNL     1     -33.685  18.523  -4.048  1.00 20.00    -0.113 SA
ENDROOT
BRANCH   4   6
HETATM    6  C6  UNL     1     -33.966  17.909  -0.043  1.00 20.00     0.024 A 
HETATM    7  C5  UNL     1     -34.130  19.262   0.614  1.00 20.00     0.016 A 
HETATM    8  C7  UNL     1     -32.875  18.475   0.846  1.00 20.00     0.004 A 
BRANCH   8   9
HETATM    9  C8  UNL     1     -31.575  18.965   0.304  1.00 20.00     0.090 C 
HETATM   10 BR10 UNL     1     -30.302  19.263   1.753  1.00 20.00    -0.096 Br
ENDBRANCH   8   9
ENDBRANCH   4   6
TORSDOF 2
ENDMDL
MODEL 2
REMARK VINA RESULT:      -3.5      3.227      4.566
REMARK  2 active torsions:
REMARK  status: ('A' for Active; 'I' for Inactive)
REMARK    1  A    between atoms: C4_4  and  C6_6 
REMARK    2  A    between atoms: C7_7  and  C8_8 
ROOT
HETATM    1  C1  UNL     1     -33.225  19.244   0.323  1.00 20.00     0.015 A 
HETATM    2  C2  UNL     1     -32.689  18.992   1.566  1.00 20.00     0.050 A 
HETATM    3  C3  UNL     1     -31.081  18.543  -0.239  1.00 20.00     0.057 A 
HETATM    4  C4  UNL     1     -32.293  18.983  -0.723  1.00 20.00    -0.047 A 
HETATM    5  S9  UNL     1     -31.069  18.445   1.471  1.00 20.00    -0.113 SA
ENDROOT
BRANCH   4   6
HETATM    6  C6  UNL     1     -32.604  19.171  -2.218  1.00 20.00     0.024 A 
HETATM    7  C5  UNL     1     -34.051  19.154  -2.661  1.00 20.00     0.016 A 
HETATM    8  C7  UNL     1     -33.147  18.021  -3.045  1.00 20.00     0.004 A 
BRANCH   8   9
HETATM    9  C8  UNL     1     -33.370  16.662  -2.475  1.00 20.00     0.090 C 
HETATM   10 BR10 UNL     1     -33.557  15.346  -3.904  1.00 20.00    -0.096 Br
ENDBRANCH   8   9
ENDBRANCH   4   6
TORSDOF 2
ENDMDL
MODEL 3
REMARK VINA RESULT:      -3.4      3.811      5.305
REMARK  2 active torsions:
REMARK  status: ('A' for Active; 'I' for Inactive)
REMARK    1  A    between atoms: C4_4  and  C6_6 
REMARK    2  A    between atoms: C7_7  and  C8_8 
ROOT
HETATM    1  C1  UNL     1     -36.200  15.622  -5.740  1.00 20.00     0.015 A 
HETATM    2  C2  UNL     1     -36.946  16.341  -6.648  1.00 20.00     0.050 A 
HETATM    3  C3  UNL     1     -34.549  16.369  -7.196  1.00 20.00     0.057 A 
HETATM    4  C4  UNL     1     -34.811  15.638  -6.058  1.00 20.00    -0.047 A 
HETATM    5  S9  UNL     1     -35.973  17.031  -7.877  1.00 20.00    -0.113 SA
ENDROOT
BRANCH   4   6
HETATM    6  C6  UNL     1     -33.731  14.923  -5.227  1.00 20.00     0.024 A 
HETATM    7  C5  UNL     1     -34.064  14.518  -3.808  1.00 20.00     0.016 A 
HETATM    8  C7  UNL     1     -33.076  15.620  -4.049  1.00 20.00     0.004 A 
BRANCH   8   9
HETATM    9  C8  UNL     1     -33.409  17.020  -3.661  1.00 20.00     0.090 C 
HETATM   10 BR10 UNL     1     -33.519  17.181  -1.720  1.00 20.00    -0.096 Br
ENDBRANCH   8   9
ENDBRANCH   4   6
TORSDOF 2
ENDMDL
MODEL 4
REMARK VINA RESULT:      -3.3     12.173     13.148
REMARK  2 active torsions:
REMARK  status: ('A' for Active; 'I' for Inactive)
REMARK    1  A    between atoms: C4_4  and  C6_6 
REMARK    2  A    between atoms: C7_7  and  C8_8 
ROOT
HETATM    1  C1  UNL     1     -40.239  15.254   8.469  1.00 20.00     0.015 A 
HETATM    2  C2  UNL     1     -40.176  15.093   9.835  1.00 20.00     0.050 A 
HETATM    3  C3  UNL     1     -42.188  14.054   8.874  1.00 20.00     0.057 A 
HETATM    4  C4  UNL     1     -41.405  14.653   7.912  1.00 20.00    -0.047 A 
HETATM    5  S9  UNL     1     -41.518  14.218  10.441  1.00 20.00    -0.113 SA
ENDROOT
BRANCH   4   6
HETATM    6  C6  UNL     1     -41.748  14.670   6.412  1.00 20.00     0.024 A 
HETATM    7  C5  UNL     1     -42.767  13.679   5.894  1.00 20.00     0.016 A 
HETATM    8  C7  UNL     1     -41.325  13.526   5.510  1.00 20.00     0.004 A 
BRANCH   8   9
HETATM    9  C8  UNL     1     -40.539  12.362   6.010  1.00 20.00     0.090 C 
HETATM   10 BR10 UNL     1     -39.265  11.769   4.657  1.00 20.00    -0.096 Br
ENDBRANCH   8   9
ENDBRANCH   4   6
TORSDOF 2
ENDMDL
MODEL 5
REMARK VINA RESULT:      -3.2      3.021      3.901
REMARK  2 active torsions:
REMARK  status: ('A' for Active; 'I' for Inactive)
REMARK    1  A    between atoms: C4_4  and  C6_6 
REMARK    2  A    between atoms: C7_7  and  C8_8 
ROOT
HETATM    1  C1  UNL     1     -33.474  15.837  -3.996  1.00 20.00     0.015 A 
HETATM    2  C2  UNL     1     -33.988  14.587  -4.256  1.00 20.00     0.050 A 
HETATM    3  C3  UNL     1     -35.315  16.368  -5.312  1.00 20.00     0.057 A 
HETATM    4  C4  UNL     1     -34.243  16.869  -4.608  1.00 20.00    -0.047 A 
HETATM    5  S9  UNL     1     -35.392  14.659  -5.234  1.00 20.00    -0.113 SA
ENDROOT
BRANCH   4   6
HETATM    6  C6  UNL     1     -33.913  18.368  -4.495  1.00 20.00     0.024 A 
HETATM    7  C5  UNL     1     -32.853  18.801  -3.506  1.00 20.00     0.016 A 
HETATM    8  C7  UNL     1     -34.289  19.150  -3.251  1.00 20.00     0.004 A 
BRANCH   8   9
HETATM    9  C8  UNL     1     -35.015  18.530  -2.106  1.00 20.00     0.090 C 
HETATM   10 BR10 UNL     1     -33.753  17.924  -0.747  1.00 20.00    -0.096 Br
ENDBRANCH   8   9
ENDBRANCH   4   6
TORSDOF 2
ENDMDL
MODEL 6
REMARK VINA RESULT:      -3.2      4.093      6.016
REMARK  2 active torsions:
REMARK  status: ('A' for Active; 'I' for Inactive)
REMARK    1  A    between atoms: C4_4  and  C6_6 
REMARK    2  A    between atoms: C7_7  and  C8_8 
ROOT
HETATM    1  C1  UNL     1     -33.556  16.339  -2.538  1.00 20.00     0.015 A 
HETATM    2  C2  UNL     1     -33.419  17.623  -2.058  1.00 20.00     0.050 A 
HETATM    3  C3  UNL     1     -33.686  17.576  -4.502  1.00 20.00     0.057 A 
HETATM    4  C4  UNL     1     -33.710  16.312  -3.954  1.00 20.00    -0.047 A 
HETATM    5  S9  UNL     1     -33.477  18.788  -3.311  1.00 20.00    -0.113 SA
ENDROOT
BRANCH   4   6
HETATM    6  C6  UNL     1     -33.884  15.022  -4.775  1.00 20.00     0.024 A 
HETATM    7  C5  UNL     1     -34.005  15.135  -6.279  1.00 20.00     0.016 A 
HETATM    8  C7  UNL     1     -35.198  14.720  -5.470  1.00 20.00     0.004 A 
BRANCH   8   9
HETATM    9  C8  UNL     1     -36.382  15.621  -5.370  1.00 20.00     0.090 C 
HETATM   10 BR10 UNL     1     -36.571  16.682  -6.997  1.00 20.00    -0.096 Br
ENDBRANCH   8   9
ENDBRANCH   4   6
TORSDOF 2
ENDMDL
MODEL 7
REMARK VINA RESULT:      -3.2     24.782     25.414
REMARK  2 active torsions:
REMARK  status: ('A' for Active; 'I' for Inactive)
REMARK    1  A    between atoms: C4_4  and  C6_6 
REMARK    2  A    between atoms: C7_7  and  C8_8 
ROOT
HETATM    1  C1  UNL     1     -25.754  -1.479  11.974  1.00 20.00     0.015 A 
HETATM    2  C2  UNL     1     -26.625  -0.452  11.684  1.00 20.00     0.050 A 
HETATM    3  C3  UNL     1     -26.944  -2.381  10.193  1.00 20.00     0.057 A 
HETATM    4  C4  UNL     1     -25.939  -2.597  11.110  1.00 20.00    -0.047 A 
HETATM    5  S9  UNL     1     -27.661  -0.837  10.376  1.00 20.00    -0.113 SA
ENDROOT
BRANCH   4   6
HETATM    6  C6  UNL     1     -25.113  -3.892  11.191  1.00 20.00     0.024 A 
HETATM    7  C5  UNL     1     -23.852  -3.892  12.028  1.00 20.00     0.016 A 
HETATM    8  C7  UNL     1     -23.748  -3.980  10.535  1.00 20.00     0.004 A 
BRANCH   8   9
HETATM    9  C8  UNL     1     -23.159  -2.851   9.759  1.00 20.00     0.090 C 
HETATM   10 BR10 UNL     1     -23.167  -3.259   7.851  1.00 20.00    -0.096 Br
ENDBRANCH   8   9
ENDBRANCH   4   6
TORSDOF 2
ENDMDL
MODEL 8
REMARK VINA RESULT:      -3.1     11.735     12.899
REMARK  2 active torsions:
REMARK  status: ('A' for Active; 'I' for Inactive)
REMARK    1  A    between atoms: C4_4  and  C6_6 
REMARK    2  A    between atoms: C7_7  and  C8_8 
ROOT
HETATM    1  C1  UNL     1     -41.265  16.159   7.415  1.00 20.00     0.015 A 
HETATM    2  C2  UNL     1     -40.738  16.740   8.546  1.00 20.00     0.050 A 
HETATM    3  C3  UNL     1     -41.435  14.416   8.943  1.00 20.00     0.057 A 
HETATM    4  C4  UNL     1     -41.669  14.812   7.644  1.00 20.00    -0.047 A 
HETATM    5  S9  UNL     1     -40.731  15.665   9.879  1.00 20.00    -0.113 SA
ENDROOT
BRANCH   4   6
HETATM    6  C6  UNL     1     -42.293  13.906   6.568  1.00 20.00     0.024 A 
HETATM    7  C5  UNL     1     -42.336  12.415   6.817  1.00 20.00     0.016 A 
HETATM    8  C7  UNL     1     -41.426  12.961   5.757  1.00 20.00     0.004 A 
BRANCH   8   9
HETATM    9  C8  UNL     1     -39.948  12.884   5.930  1.00 20.00     0.090 C 
HETATM   10 BR10 UNL     1     -39.157  11.759   4.545  1.00 20.00    -0.096 Br
ENDBRANCH   8   9
ENDBRANCH   4   6
TORSDOF 2
ENDMDL
MODEL 9
REMARK VINA RESULT:      -3.1      3.518      4.187
REMARK  2 active torsions:
REMARK  status: ('A' for Active; 'I' for Inactive)
REMARK    1  A    between atoms: C4_4  and  C6_6 
REMARK    2  A    between atoms: C7_7  and  C8_8 
ROOT
HETATM    1  C1  UNL     1     -33.492  15.586  -3.562  1.00 20.00     0.015 A 
HETATM    2  C2  UNL     1     -34.102  14.542  -4.222  1.00 20.00     0.050 A 
HETATM    3  C3  UNL     1     -34.555  16.705  -5.300  1.00 20.00     0.057 A 
HETATM    4  C4  UNL     1     -33.755  16.839  -4.187  1.00 20.00    -0.047 A 
HETATM    5  S9  UNL     1     -34.986  15.074  -5.589  1.00 20.00    -0.113 SA
ENDROOT
BRANCH   4   6
HETATM    6  C6  UNL     1     -33.208  18.184  -3.677  1.00 20.00     0.024 A 
HETATM    7  C5  UNL     1     -32.797  18.292  -2.225  1.00 20.00     0.016 A 
HETATM    8  C7  UNL     1     -34.013  19.027  -2.706  1.00 20.00     0.004 A 
BRANCH   8   9
HETATM    9  C8  UNL     1     -35.366  18.624  -2.229  1.00 20.00     0.090 C 
HETATM   10 BR10 UNL     1     -36.740  19.261  -3.460  1.00 20.00    -0.096 Br
ENDBRANCH   8   9
ENDBRANCH   4   6
TORSDOF 2
ENDMDL
