MODEL 1
REMARK VINA RESULT:      -4.2      0.000      0.000
REMARK  1 active torsions:
REMARK  status: ('A' for Active; 'I' for Inactive)
REMARK    1  A    between atoms: C1_1  and  C5_5 
ROOT
HETATM    1  C2  UNL     1     -33.431  15.774  -3.607  1.00 20.00     0.013 C 
HETATM    2  C3  UNL     1     -33.294  16.665  -2.371  1.00 20.00     0.009 C 
HETATM    3  C4  UNL     1     -33.387  18.512  -4.132  1.00 20.00     0.013 C 
HETATM    4  C5  UNL     1     -34.535  16.251  -4.547  1.00 20.00     0.059 C 
HETATM    5  C6  UNL     1     -34.227  17.655  -5.102  1.00 20.00    -0.007 C 
HETATM    6  C7  UNL     1     -33.544  18.173  -2.632  1.00 20.00    -0.047 C 
HETATM    7  C9  UNL     1     -35.510  18.373  -5.537  1.00 20.00     0.011 C 
HETATM    8  C10 UNL     1     -34.941  18.573  -2.118  1.00 20.00     0.015 C 
HETATM    9  C11 UNL     1     -32.514  19.000  -1.833  1.00 20.00     0.015 C 
ENDROOT
BRANCH   4  10
HETATM   10  C1  UNL     1     -34.664  15.276  -5.681  1.00 20.00     0.127 C 
HETATM   11  C8  UNL     1     -35.931  14.467  -5.736  1.00 20.00     0.091 C 
HETATM   12  O12 UNL     1     -33.779  15.147  -6.525  1.00 20.00    -0.298 OA
ENDBRANCH   4  10
TORSDOF 1
ENDMDL
MODEL 2
REMARK VINA RESULT:      -4.2      1.957      4.160
REMARK  1 active torsions:
REMARK  status: ('A' for Active; 'I' for Inactive)
REMARK    1  A    between atoms: C1_1  and  C5_5 
ROOT
HETATM    1  C2  UNL     1     -33.580  15.911  -3.137  1.00 20.00     0.013 C 
HETATM    2  C3  UNL     1     -33.943  14.910  -4.236  1.00 20.00     0.009 C 
HETATM    3  C4  UNL     1     -35.568  16.767  -4.894  1.00 20.00     0.013 C 
HETATM    4  C5  UNL     1     -33.372  17.321  -3.680  1.00 20.00     0.059 C 
HETATM    5  C6  UNL     1     -34.665  17.874  -4.308  1.00 20.00    -0.007 C 
HETATM    6  C7  UNL     1     -34.839  15.488  -5.362  1.00 20.00    -0.047 C 
HETATM    7  C9  UNL     1     -34.359  18.968  -5.337  1.00 20.00     0.011 C 
HETATM    8  C10 UNL     1     -33.992  15.764  -6.621  1.00 20.00     0.015 C 
HETATM    9  C11 UNL     1     -35.899  14.435  -5.753  1.00 20.00     0.015 C 
ENDROOT
BRANCH   4  10
HETATM   10  C1  UNL     1     -32.932  18.216  -2.559  1.00 20.00     0.127 C 
HETATM   11  C8  UNL     1     -33.361  17.823  -1.171  1.00 20.00     0.091 C 
HETATM   12  O12 UNL     1     -32.252  19.220  -2.764  1.00 20.00    -0.298 OA
ENDBRANCH   4  10
TORSDOF 1
ENDMDL
MODEL 3
REMARK VINA RESULT:      -3.7     12.963     14.263
REMARK  1 active torsions:
REMARK  status: ('A' for Active; 'I' for Inactive)
REMARK    1  A    between atoms: C1_1  and  C5_5 
ROOT
HETATM    1  C2  UNL     1     -40.421  14.717   7.087  1.00 20.00     0.013 C 
HETATM    2  C3  UNL     1     -40.782  15.286   8.460  1.00 20.00     0.009 C 
HETATM    3  C4  UNL     1     -43.123  14.549   7.754  1.00 20.00     0.013 C 
HETATM    4  C5  UNL     1     -41.043  13.345   6.845  1.00 20.00     0.059 C 
HETATM    5  C6  UNL     1     -42.581  13.421   6.850  1.00 20.00    -0.007 C 
HETATM    6  C7  UNL     1     -42.217  14.948   8.941  1.00 20.00    -0.047 C 
HETATM    7  C9  UNL     1     -43.203  12.062   7.196  1.00 20.00     0.011 C 
HETATM    8  C10 UNL     1     -42.169  13.829  10.000  1.00 20.00     0.015 C 
HETATM    9  C11 UNL     1     -42.826  16.192   9.624  1.00 20.00     0.015 C 
ENDROOT
BRANCH   4  10
HETATM   10  C1  UNL     1     -40.568  12.820   5.522  1.00 20.00     0.127 C 
HETATM   11  C8  UNL     1     -39.583  11.683   5.558  1.00 20.00     0.091 C 
HETATM   12  O12 UNL     1     -40.965  13.296   4.459  1.00 20.00    -0.298 OA
ENDBRANCH   4  10
TORSDOF 1
ENDMDL
MODEL 4
REMARK VINA RESULT:      -3.6     13.173     14.481
REMARK  1 active torsions:
REMARK  status: ('A' for Active; 'I' for Inactive)
REMARK    1  A    between atoms: C1_1  and  C5_5 
ROOT
HETATM    1  C2  UNL     1     -42.522  12.484   7.096  1.00 20.00     0.013 C 
HETATM    2  C3  UNL     1     -43.403  12.894   8.278  1.00 20.00     0.009 C 
HETATM    3  C4  UNL     1     -41.243  14.025   9.035  1.00 20.00     0.013 C 
HETATM    4  C5  UNL     1     -41.719  13.654   6.538  1.00 20.00     0.059 C 
HETATM    5  C6  UNL     1     -40.739  14.210   7.588  1.00 20.00    -0.007 C 
HETATM    6  C7  UNL     1     -42.778  13.967   9.206  1.00 20.00    -0.047 C 
HETATM    7  C9  UNL     1     -40.375  15.669   7.290  1.00 20.00     0.011 C 
HETATM    8  C10 UNL     1     -43.417  15.342   8.929  1.00 20.00     0.015 C 
HETATM    9  C11 UNL     1     -43.094  13.609  10.674  1.00 20.00     0.015 C 
ENDROOT
BRANCH   4  10
HETATM   10  C1  UNL     1     -40.956  13.189   5.331  1.00 20.00     0.127 C 
HETATM   11  C8  UNL     1     -39.895  12.148   5.560  1.00 20.00     0.091 C 
HETATM   12  O12 UNL     1     -41.188  13.638   4.209  1.00 20.00    -0.298 OA
ENDBRANCH   4  10
TORSDOF 1
ENDMDL
MODEL 5
REMARK VINA RESULT:      -3.6      1.730      4.433
REMARK  1 active torsions:
REMARK  status: ('A' for Active; 'I' for Inactive)
REMARK    1  A    between atoms: C1_1  and  C5_5 
ROOT
HETATM    1  C2  UNL     1     -34.615  17.391  -5.306  1.00 20.00     0.013 C 
HETATM    2  C3  UNL     1     -35.919  17.744  -6.024  1.00 20.00     0.009 C 
HETATM    3  C4  UNL     1     -35.840  15.264  -6.629  1.00 20.00     0.013 C 
HETATM    4  C5  UNL     1     -34.738  16.120  -4.471  1.00 20.00     0.059 C 
HETATM    5  C6  UNL     1     -35.046  14.898  -5.357  1.00 20.00    -0.007 C 
HETATM    6  C7  UNL     1     -36.733  16.521  -6.520  1.00 20.00    -0.047 C 
HETATM    7  C9  UNL     1     -35.733  13.788  -4.553  1.00 20.00     0.011 C 
HETATM    8  C10 UNL     1     -37.931  16.269  -5.583  1.00 20.00     0.015 C 
HETATM    9  C11 UNL     1     -37.311  16.834  -7.917  1.00 20.00     0.015 C 
ENDROOT
BRANCH   4  10
HETATM   10  C1  UNL     1     -33.451  15.896  -3.732  1.00 20.00     0.127 C 
HETATM   11  C8  UNL     1     -33.279  16.636  -2.433  1.00 20.00     0.091 C 
HETATM   12  O12 UNL     1     -32.580  15.142  -4.165  1.00 20.00    -0.298 OA
ENDBRANCH   4  10
TORSDOF 1
ENDMDL
MODEL 6
REMARK VINA RESULT:      -3.5      0.948      2.276
REMARK  1 active torsions:
REMARK  status: ('A' for Active; 'I' for Inactive)
REMARK    1  A    between atoms: C1_1  and  C5_5 
ROOT
HETATM    1  C2  UNL     1     -35.578  17.110  -4.599  1.00 20.00     0.013 C 
HETATM    2  C3  UNL     1     -35.160  18.299  -3.732  1.00 20.00     0.009 C 
HETATM    3  C4  UNL     1     -33.837  16.487  -2.512  1.00 20.00     0.013 C 
HETATM    4  C5  UNL     1     -34.390  16.244  -5.010  1.00 20.00     0.059 C 
HETATM    5  C6  UNL     1     -33.705  15.617  -3.781  1.00 20.00    -0.007 C 
HETATM    6  C7  UNL     1     -33.992  18.005  -2.755  1.00 20.00    -0.047 C 
HETATM    7  C9  UNL     1     -32.245  15.261  -4.082  1.00 20.00     0.011 C 
HETATM    8  C10 UNL     1     -32.683  18.614  -3.298  1.00 20.00     0.015 C 
HETATM    9  C11 UNL     1     -34.282  18.690  -1.403  1.00 20.00     0.015 C 
ENDROOT
BRANCH   4  10
HETATM   10  C1  UNL     1     -34.872  15.160  -5.928  1.00 20.00     0.127 C 
HETATM   11  C8  UNL     1     -36.034  14.333  -5.449  1.00 20.00     0.091 C 
HETATM   12  O12 UNL     1     -34.343  14.957  -7.020  1.00 20.00    -0.298 OA
ENDBRANCH   4  10
TORSDOF 1
ENDMDL
MODEL 7
REMARK VINA RESULT:      -3.5     12.631     13.815
REMARK  1 active torsions:
REMARK  status: ('A' for Active; 'I' for Inactive)
REMARK    1  A    between atoms: C1_1  and  C5_5 
ROOT
HETATM    1  C2  UNL     1     -42.225  14.826   5.633  1.00 20.00     0.013 C 
HETATM    2  C3  UNL     1     -42.325  16.349   5.739  1.00 20.00     0.009 C 
HETATM    3  C4  UNL     1     -42.330  15.818   8.236  1.00 20.00     0.013 C 
HETATM    4  C5  UNL     1     -41.168  14.247   6.568  1.00 20.00     0.059 C 
HETATM    5  C6  UNL     1     -41.517  14.520   8.043  1.00 20.00    -0.007 C 
HETATM    6  C7  UNL     1     -42.108  16.912   7.167  1.00 20.00    -0.047 C 
HETATM    7  C9  UNL     1     -40.263  14.492   8.924  1.00 20.00     0.011 C 
HETATM    8  C10 UNL     1     -40.696  17.521   7.285  1.00 20.00     0.015 C 
HETATM    9  C11 UNL     1     -43.116  18.054   7.418  1.00 20.00     0.015 C 
ENDROOT
BRANCH   4  10
HETATM   10  C1  UNL     1     -41.070  12.768   6.337  1.00 20.00     0.127 C 
HETATM   11  C8  UNL     1     -39.883  12.282   5.550  1.00 20.00     0.091 C 
HETATM   12  O12 UNL     1     -41.919  11.989   6.771  1.00 20.00    -0.298 OA
ENDBRANCH   4  10
TORSDOF 1
ENDMDL
MODEL 8
REMARK VINA RESULT:      -3.5     24.676     26.029
REMARK  1 active torsions:
REMARK  status: ('A' for Active; 'I' for Inactive)
REMARK    1  A    between atoms: C1_1  and  C5_5 
ROOT
HETATM    1  C2  UNL     1     -27.249  -4.121  11.718  1.00 20.00     0.013 C 
HETATM    2  C3  UNL     1     -25.837  -3.807  12.216  1.00 20.00     0.009 C 
HETATM    3  C4  UNL     1     -25.787  -2.394  10.090  1.00 20.00     0.013 C 
HETATM    4  C5  UNL     1     -28.007  -2.867  11.294  1.00 20.00     0.059 C 
HETATM    5  C6  UNL     1     -27.314  -2.171  10.107  1.00 20.00    -0.007 C 
HETATM    6  C7  UNL     1     -25.132  -2.647  11.467  1.00 20.00    -0.047 C 
HETATM    7  C9  UNL     1     -27.676  -0.682  10.049  1.00 20.00     0.011 C 
HETATM    8  C10 UNL     1     -25.154  -1.370  12.332  1.00 20.00     0.015 C 
HETATM    9  C11 UNL     1     -23.650  -3.016  11.244  1.00 20.00     0.015 C 
ENDROOT
BRANCH   4  10
HETATM   10  C1  UNL     1     -29.406  -3.249  10.908  1.00 20.00     0.127 C 
HETATM   11  C8  UNL     1     -29.570  -4.533  10.142  1.00 20.00     0.091 C 
HETATM   12  O12 UNL     1     -30.372  -2.548  11.207  1.00 20.00    -0.298 OA
ENDBRANCH   4  10
TORSDOF 1
ENDMDL
MODEL 9
REMARK VINA RESULT:      -3.5      1.811      4.534
REMARK  1 active torsions:
REMARK  status: ('A' for Active; 'I' for Inactive)
REMARK    1  A    between atoms: C1_1  and  C5_5 
ROOT
HETATM    1  C2  UNL     1     -35.336  17.747  -4.661  1.00 20.00     0.013 C 
HETATM    2  C3  UNL     1     -36.334  16.993  -5.542  1.00 20.00     0.009 C 
HETATM    3  C4  UNL     1     -34.231  15.704  -6.204  1.00 20.00     0.013 C 
HETATM    4  C5  UNL     1     -34.416  16.806  -3.890  1.00 20.00     0.059 C 
HETATM    5  C6  UNL     1     -33.547  15.967  -4.846  1.00 20.00    -0.007 C 
HETATM    6  C7  UNL     1     -35.777  15.695  -6.183  1.00 20.00    -0.047 C 
HETATM    7  C9  UNL     1     -33.081  14.668  -4.177  1.00 20.00     0.011 C 
HETATM    8  C10 UNL     1     -36.312  14.462  -5.428  1.00 20.00     0.015 C 
HETATM    9  C11 UNL     1     -36.286  15.592  -7.637  1.00 20.00     0.015 C 
ENDROOT
BRANCH   4  10
HETATM   10  C1  UNL     1     -33.535  17.617  -2.986  1.00 20.00     0.127 C 
HETATM   11  C8  UNL     1     -33.557  17.265  -1.524  1.00 20.00     0.091 C 
HETATM   12  O12 UNL     1     -32.827  18.526  -3.421  1.00 20.00    -0.298 OA
ENDBRANCH   4  10
TORSDOF 1
ENDMDL
