MODEL 1
REMARK VINA RESULT:      -3.6      0.000      0.000
REMARK  1 active torsions:
REMARK  status: ('A' for Active; 'I' for Inactive)
REMARK    1  A    between atoms: C5_5  and  C10_10 
ROOT
HETATM    1  C1  UNL     1     -42.512  15.452   8.869  1.00 20.00     0.019 C 
HETATM    2  C2  UNL     1     -41.934  13.988   5.410  1.00 20.00     0.017 A 
HETATM    3  C3  UNL     1     -43.047  14.408   9.850  1.00 20.00     0.075 C 
HETATM    4  C4  UNL     1     -43.406  13.306   7.365  1.00 20.00     0.084 C 
HETATM    5  C5  UNL     1     -41.193  12.879   6.086  1.00 20.00     0.006 A 
HETATM    6  C6  UNL     1     -42.049  13.846   6.928  1.00 20.00    -0.020 A 
HETATM    7  C7  UNL     1     -41.426  14.935   7.871  1.00 20.00    -0.038 C 
HETATM    8  C8  UNL     1     -40.241  14.385   8.695  1.00 20.00     0.015 C 
HETATM    9  C9  UNL     1     -40.937  16.180   7.100  1.00 20.00     0.015 C 
HETATM   10  S11 UNL     1     -43.417  12.802   9.092  1.00 20.00    -0.168 SA
ENDROOT
BRANCH   5  11
HETATM   11  C10 UNL     1     -39.709  12.855   5.976  1.00 20.00     0.090 C 
HETATM   12 BR12 UNL     1     -39.151  11.753   4.463  1.00 20.00    -0.096 Br
ENDBRANCH   5  11
TORSDOF 1
ENDMDL
MODEL 2
REMARK VINA RESULT:      -3.4     13.493     14.769
REMARK  1 active torsions:
REMARK  status: ('A' for Active; 'I' for Inactive)
REMARK    1  A    between atoms: C5_5  and  C10_10 
ROOT
HETATM    1  C1  UNL     1     -33.840  14.957  -5.918  1.00 20.00     0.019 C 
HETATM    2  C2  UNL     1     -36.236  17.895  -6.190  1.00 20.00     0.017 A 
HETATM    3  C3  UNL     1     -33.217  14.854  -4.526  1.00 20.00     0.075 C 
HETATM    4  C4  UNL     1     -34.285  17.377  -4.648  1.00 20.00     0.084 C 
HETATM    5  C5  UNL     1     -36.861  17.404  -4.924  1.00 20.00     0.006 A 
HETATM    6  C6  UNL     1     -35.506  16.827  -5.376  1.00 20.00    -0.020 A 
HETATM    7  C7  UNL     1     -35.347  15.372  -5.946  1.00 20.00    -0.038 C 
HETATM    8  C8  UNL     1     -36.146  14.334  -5.128  1.00 20.00     0.015 C 
HETATM    9  C9  UNL     1     -35.787  15.261  -7.422  1.00 20.00     0.015 C 
HETATM   10  S11 UNL     1     -33.644  16.228  -3.421  1.00 20.00    -0.168 SA
ENDROOT
BRANCH   5  11
HETATM   11  C10 UNL     1     -38.192  16.745  -5.006  1.00 20.00     0.090 C 
HETATM   12 BR12 UNL     1     -39.075  17.190  -6.691  1.00 20.00    -0.096 Br
ENDBRANCH   5  11
TORSDOF 1
ENDMDL
MODEL 3
REMARK VINA RESULT:      -3.2     12.737     14.262
REMARK  1 active torsions:
REMARK  status: ('A' for Active; 'I' for Inactive)
REMARK    1  A    between atoms: C5_5  and  C10_10 
ROOT
HETATM    1  C1  UNL     1     -35.263  16.706  -6.322  1.00 20.00     0.019 C 
HETATM    2  C2  UNL     1     -32.604  16.423  -3.622  1.00 20.00     0.017 A 
HETATM    3  C3  UNL     1     -36.320  15.608  -6.201  1.00 20.00     0.075 C 
HETATM    4  C4  UNL     1     -34.224  14.758  -4.650  1.00 20.00     0.084 C 
HETATM    5  C5  UNL     1     -33.723  16.312  -2.637  1.00 20.00     0.006 A 
HETATM    6  C6  UNL     1     -34.020  16.182  -4.144  1.00 20.00    -0.020 A 
HETATM    7  C7  UNL     1     -34.758  17.297  -4.966  1.00 20.00    -0.038 C 
HETATM    8  C8  UNL     1     -35.976  17.871  -4.210  1.00 20.00     0.015 C 
HETATM    9  C9  UNL     1     -33.829  18.473  -5.341  1.00 20.00     0.015 C 
HETATM   10  S11 UNL     1     -35.960  14.372  -4.923  1.00 20.00    -0.168 SA
ENDROOT
BRANCH   5  11
HETATM   11  C10 UNL     1     -34.009  17.481  -1.762  1.00 20.00     0.090 C 
HETATM   12 BR12 UNL     1     -32.346  18.267  -1.104  1.00 20.00    -0.096 Br
ENDBRANCH   5  11
TORSDOF 1
ENDMDL
MODEL 4
REMARK VINA RESULT:      -3.1     13.651     14.931
REMARK  1 active torsions:
REMARK  status: ('A' for Active; 'I' for Inactive)
REMARK    1  A    between atoms: C5_5  and  C10_10 
ROOT
HETATM    1  C1  UNL     1     -36.146  16.232  -7.671  1.00 20.00     0.019 C 
HETATM    2  C2  UNL     1     -34.338  14.290  -4.950  1.00 20.00     0.017 A 
HETATM    3  C3  UNL     1     -37.410  16.913  -7.145  1.00 20.00     0.075 C 
HETATM    4  C4  UNL     1     -36.740  15.066  -5.230  1.00 20.00     0.084 C 
HETATM    5  C5  UNL     1     -34.450  15.518  -4.105  1.00 20.00     0.006 A 
HETATM    6  C6  UNL     1     -35.267  15.414  -5.408  1.00 20.00    -0.020 A 
HETATM    7  C7  UNL     1     -34.925  16.245  -6.696  1.00 20.00    -0.038 C 
HETATM    8  C8  UNL     1     -34.588  17.716  -6.370  1.00 20.00     0.015 C 
HETATM    9  C9  UNL     1     -33.744  15.647  -7.492  1.00 20.00     0.015 C 
HETATM   10  S11 UNL     1     -37.810  16.500  -5.424  1.00 20.00    -0.168 SA
ENDROOT
BRANCH   5  11
HETATM   11  C10 UNL     1     -33.224  16.328  -3.874  1.00 20.00     0.090 C 
HETATM   12 BR12 UNL     1     -33.292  17.191  -2.123  1.00 20.00    -0.096 Br
ENDBRANCH   5  11
TORSDOF 1
ENDMDL
MODEL 5
REMARK VINA RESULT:      -3.0      1.752      2.838
REMARK  1 active torsions:
REMARK  status: ('A' for Active; 'I' for Inactive)
REMARK    1  A    between atoms: C5_5  and  C10_10 
ROOT
HETATM    1  C1  UNL     1     -43.294  14.822   8.131  1.00 20.00     0.019 C 
HETATM    2  C2  UNL     1     -40.135  12.863   7.342  1.00 20.00     0.017 A 
HETATM    3  C3  UNL     1     -43.125  16.316   7.857  1.00 20.00     0.075 C 
HETATM    4  C4  UNL     1     -40.577  15.302   7.899  1.00 20.00     0.084 C 
HETATM    5  C5  UNL     1     -40.115  13.571   6.026  1.00 20.00     0.006 A 
HETATM    6  C6  UNL     1     -41.055  14.067   7.142  1.00 20.00    -0.020 A 
HETATM    7  C7  UNL     1     -42.612  13.871   7.096  1.00 20.00    -0.038 C 
HETATM    8  C8  UNL     1     -43.197  14.182   5.701  1.00 20.00     0.015 C 
HETATM    9  C9  UNL     1     -43.043  12.441   7.489  1.00 20.00     0.015 C 
HETATM   10  S11 UNL     1     -41.439  16.795   7.385  1.00 20.00    -0.168 SA
ENDROOT
BRANCH   5  11
HETATM   11  C10 UNL     1     -40.492  12.804   4.809  1.00 20.00     0.090 C 
HETATM   12 BR12 UNL     1     -39.019  11.655   4.239  1.00 20.00    -0.096 Br
ENDBRANCH   5  11
TORSDOF 1
ENDMDL
MODEL 6
REMARK VINA RESULT:      -2.8      2.962      4.083
REMARK  1 active torsions:
REMARK  status: ('A' for Active; 'I' for Inactive)
REMARK    1  A    between atoms: C5_5  and  C10_10 
ROOT
HETATM    1  C1  UNL     1     -43.390  14.706   6.910  1.00 20.00     0.019 C 
HETATM    2  C2  UNL     1     -40.361  15.844   8.904  1.00 20.00     0.017 A 
HETATM    3  C3  UNL     1     -43.144  13.372   6.207  1.00 20.00     0.075 C 
HETATM    4  C4  UNL     1     -40.656  14.269   6.933  1.00 20.00     0.084 C 
HETATM    5  C5  UNL     1     -40.330  14.472   9.496  1.00 20.00     0.006 A 
HETATM    6  C6  UNL     1     -41.217  14.750   8.267  1.00 20.00    -0.020 A 
HETATM    7  C7  UNL     1     -42.783  14.827   8.345  1.00 20.00    -0.038 C 
HETATM    8  C8  UNL     1     -43.380  13.699   9.215  1.00 20.00     0.015 C 
HETATM    9  C9  UNL     1     -43.285  16.178   8.902  1.00 20.00     0.015 C 
HETATM   10  S11 UNL     1     -41.444  12.755   6.365  1.00 20.00    -0.168 SA
ENDROOT
BRANCH   5  11
HETATM   11  C10 UNL     1     -40.775  14.304  10.906  1.00 20.00     0.090 C 
HETATM   12 BR12 UNL     1     -40.760  16.020  11.839  1.00 20.00    -0.096 Br
ENDBRANCH   5  11
TORSDOF 1
ENDMDL
MODEL 7
REMARK VINA RESULT:      -2.8      2.474      3.725
REMARK  1 active torsions:
REMARK  status: ('A' for Active; 'I' for Inactive)
REMARK    1  A    between atoms: C5_5  and  C10_10 
ROOT
HETATM    1  C1  UNL     1     -42.291  12.301   6.790  1.00 20.00     0.019 C 
HETATM    2  C2  UNL     1     -40.349  15.511   7.398  1.00 20.00     0.017 A 
HETATM    3  C3  UNL     1     -43.404  12.101   7.819  1.00 20.00     0.075 C 
HETATM    4  C4  UNL     1     -41.773  14.028   8.891  1.00 20.00     0.084 C 
HETATM    5  C5  UNL     1     -41.671  16.204   7.487  1.00 20.00     0.006 A 
HETATM    6  C6  UNL     1     -41.616  14.664   7.514  1.00 20.00    -0.020 A 
HETATM    7  C7  UNL     1     -42.083  13.773   6.308  1.00 20.00    -0.038 C 
HETATM    8  C8  UNL     1     -43.411  14.270   5.696  1.00 20.00     0.015 C 
HETATM    9  C9  UNL     1     -41.032  13.703   5.179  1.00 20.00     0.015 C 
HETATM   10  S11 UNL     1     -43.416  13.340   9.145  1.00 20.00    -0.168 SA
ENDROOT
BRANCH   5  11
HETATM   11  C10 UNL     1     -42.089  17.069   6.351  1.00 20.00     0.090 C 
HETATM   12 BR12 UNL     1     -41.130  18.771   6.396  1.00 20.00    -0.096 Br
ENDBRANCH   5  11
TORSDOF 1
ENDMDL
MODEL 8
REMARK VINA RESULT:      -2.8     13.621     15.077
REMARK  1 active torsions:
REMARK  status: ('A' for Active; 'I' for Inactive)
REMARK    1  A    between atoms: C5_5  and  C10_10 
ROOT
HETATM    1  C1  UNL     1     -33.245  15.666  -4.480  1.00 20.00     0.019 C 
HETATM    2  C2  UNL     1     -34.583  17.992  -7.172  1.00 20.00     0.017 A 
HETATM    3  C3  UNL     1     -33.570  16.171  -3.075  1.00 20.00     0.075 C 
HETATM    4  C4  UNL     1     -33.991  18.322  -4.724  1.00 20.00     0.084 C 
HETATM    5  C5  UNL     1     -35.890  17.954  -6.448  1.00 20.00     0.006 A 
HETATM    6  C6  UNL     1     -34.625  17.403  -5.762  1.00 20.00    -0.020 A 
HETATM    7  C7  UNL     1     -34.376  15.869  -5.540  1.00 20.00    -0.038 C 
HETATM    8  C8  UNL     1     -35.641  15.139  -5.038  1.00 20.00     0.015 C 
HETATM    9  C9  UNL     1     -33.887  15.155  -6.820  1.00 20.00     0.015 C 
HETATM   10  S11 UNL     1     -34.357  17.806  -3.040  1.00 20.00    -0.168 SA
ENDROOT
BRANCH   5  11
HETATM   11  C10 UNL     1     -37.003  17.169  -7.046  1.00 20.00     0.090 C 
HETATM   12 BR12 UNL     1     -38.623  17.344  -5.968  1.00 20.00    -0.096 Br
ENDBRANCH   5  11
TORSDOF 1
ENDMDL
MODEL 9
REMARK VINA RESULT:      -2.8     13.605     15.153
REMARK  1 active torsions:
REMARK  status: ('A' for Active; 'I' for Inactive)
REMARK    1  A    between atoms: C5_5  and  C10_10 
ROOT
HETATM    1  C1  UNL     1     -34.640  16.531  -7.419  1.00 20.00     0.019 C 
HETATM    2  C2  UNL     1     -33.585  18.055  -4.101  1.00 20.00     0.017 A 
HETATM    3  C3  UNL     1     -35.492  15.276  -7.228  1.00 20.00     0.075 C 
HETATM    4  C4  UNL     1     -34.313  15.721  -4.792  1.00 20.00     0.084 C 
HETATM    5  C5  UNL     1     -35.018  17.956  -3.687  1.00 20.00     0.006 A 
HETATM    6  C6  UNL     1     -34.540  17.220  -4.953  1.00 20.00    -0.020 A 
HETATM    7  C7  UNL     1     -34.916  17.687  -6.404  1.00 20.00    -0.038 C 
HETATM    8  C8  UNL     1     -36.404  18.083  -6.523  1.00 20.00     0.015 C 
HETATM    9  C9  UNL     1     -34.063  18.882  -6.884  1.00 20.00     0.015 C 
HETATM   10  S11 UNL     1     -35.649  14.746  -5.500  1.00 20.00    -0.168 SA
ENDROOT
BRANCH   5  11
HETATM   11  C10 UNL     1     -35.819  19.208  -3.623  1.00 20.00     0.090 C 
HETATM   12 BR12 UNL     1     -37.617  18.839  -2.955  1.00 20.00    -0.096 Br
ENDBRANCH   5  11
TORSDOF 1
ENDMDL
