MODEL 1
REMARK VINA RESULT:      -3.8      0.000      0.000
REMARK  2 active torsions:
REMARK  status: ('A' for Active; 'I' for Inactive)
REMARK    1  A    between atoms: C7_7  and  C10_10 
REMARK    2  A    between atoms: C7_7  and  C11_11 
ROOT
HETATM    1  C1  UNL     1     -34.700  18.446  -1.808  1.00 20.00     0.140 C 
HETATM    2  C2  UNL     1     -32.281  19.263  -0.083  1.00 20.00     0.001 C 
HETATM    3  C3  UNL     1     -33.521  18.610   0.511  1.00 20.00     0.013 C 
HETATM    4  C4  UNL     1     -31.661  18.155  -0.924  1.00 20.00     0.007 C 
HETATM    5  C5  UNL     1     -34.052  17.729  -0.609  1.00 20.00     0.061 C 
HETATM    6  C6  UNL     1     -32.845  17.392  -1.530  1.00 20.00     0.013 C 
HETATM    7  C7  UNL     1     -33.626  17.916  -2.799  1.00 20.00     0.025 C 
HETATM    8  O12 UNL     1     -35.679  19.152  -1.927  1.00 20.00    -0.297 OA
ENDROOT
BRANCH   7   9
HETATM    9  C10 UNL     1     -34.147  16.787  -3.691  1.00 20.00     0.013 C 
HETATM   10  C8  UNL     1     -33.133  15.704  -3.854  1.00 20.00     0.006 C 
ENDBRANCH   7   9
BRANCH   7  11
HETATM   11  C11 UNL     1     -32.955  19.003  -3.631  1.00 20.00     0.013 C 
HETATM   12  C9  UNL     1     -33.642  19.200  -4.943  1.00 20.00     0.006 C 
ENDBRANCH   7  11
TORSDOF 2
ENDMDL
MODEL 2
REMARK VINA RESULT:      -3.5     11.688     12.741
REMARK  2 active torsions:
REMARK  status: ('A' for Active; 'I' for Inactive)
REMARK    1  A    between atoms: C7_7  and  C10_10 
REMARK    2  A    between atoms: C7_7  and  C11_11 
ROOT
HETATM    1  C1  UNL     1     -32.571   8.292   4.820  1.00 20.00     0.140 C 
HETATM    2  C2  UNL     1     -34.018   5.884   6.086  1.00 20.00     0.001 C 
HETATM    3  C3  UNL     1     -34.179   7.301   6.617  1.00 20.00     0.013 C 
HETATM    4  C4  UNL     1     -34.698   5.932   4.724  1.00 20.00     0.007 C 
HETATM    5  C5  UNL     1     -33.998   8.182   5.391  1.00 20.00     0.061 C 
HETATM    6  C6  UNL     1     -34.369   7.317   4.153  1.00 20.00     0.013 C 
HETATM    7  C7  UNL     1     -32.983   7.640   3.470  1.00 20.00     0.025 C 
HETATM    8  O12 UNL     1     -31.528   8.727   5.261  1.00 20.00    -0.297 OA
ENDROOT
BRANCH   7   9
HETATM    9  C10 UNL     1     -33.097   8.657   2.331  1.00 20.00     0.013 C 
HETATM   10  C8  UNL     1     -32.119   8.372   1.240  1.00 20.00     0.006 C 
ENDBRANCH   7   9
BRANCH   7  11
HETATM   11  C11 UNL     1     -32.114   6.457   3.059  1.00 20.00     0.013 C 
HETATM   12  C9  UNL     1     -32.927   5.355   2.459  1.00 20.00     0.006 C 
ENDBRANCH   7  11
TORSDOF 2
ENDMDL
MODEL 3
REMARK VINA RESULT:      -3.4      3.383      5.129
REMARK  2 active torsions:
REMARK  status: ('A' for Active; 'I' for Inactive)
REMARK    1  A    between atoms: C7_7  and  C10_10 
REMARK    2  A    between atoms: C7_7  and  C11_11 
ROOT
HETATM    1  C1  UNL     1     -35.628  14.628  -5.247  1.00 20.00     0.140 C 
HETATM    2  C2  UNL     1     -33.756  16.242  -3.407  1.00 20.00     0.001 C 
HETATM    3  C3  UNL     1     -33.313  14.959  -4.094  1.00 20.00     0.013 C 
HETATM    4  C4  UNL     1     -33.929  17.224  -4.558  1.00 20.00     0.007 C 
HETATM    5  C5  UNL     1     -34.122  14.926  -5.381  1.00 20.00     0.061 C 
HETATM    6  C6  UNL     1     -34.497  16.397  -5.717  1.00 20.00     0.013 C 
HETATM    7  C7  UNL     1     -36.028  16.019  -5.813  1.00 20.00     0.025 C 
HETATM    8  O12 UNL     1     -36.255  13.668  -4.851  1.00 20.00    -0.297 OA
ENDROOT
BRANCH   7   9
HETATM    9  C10 UNL     1     -36.540  15.949  -7.254  1.00 20.00     0.013 C 
HETATM   10  C8  UNL     1     -36.498  17.285  -7.917  1.00 20.00     0.006 C 
ENDBRANCH   7   9
BRANCH   7  11
HETATM   11  C11 UNL     1     -36.995  16.797  -4.928  1.00 20.00     0.013 C 
HETATM   12  C9  UNL     1     -38.415  16.408  -5.183  1.00 20.00     0.006 C 
ENDBRANCH   7  11
TORSDOF 2
ENDMDL
MODEL 4
REMARK VINA RESULT:      -3.4     11.845     13.256
REMARK  2 active torsions:
REMARK  status: ('A' for Active; 'I' for Inactive)
REMARK    1  A    between atoms: C7_7  and  C10_10 
REMARK    2  A    between atoms: C7_7  and  C11_11 
ROOT
HETATM    1  C1  UNL     1     -41.016  14.214   8.736  1.00 20.00     0.140 C 
HETATM    2  C2  UNL     1     -42.332  16.943   8.177  1.00 20.00     0.001 C 
HETATM    3  C3  UNL     1     -41.060  16.807   9.001  1.00 20.00     0.013 C 
HETATM    4  C4  UNL     1     -41.892  16.553   6.772  1.00 20.00     0.007 C 
HETATM    5  C5  UNL     1     -40.372  15.578   8.427  1.00 20.00     0.061 C 
HETATM    6  C6  UNL     1     -40.874  15.423   6.963  1.00 20.00     0.013 C 
HETATM    7  C7  UNL     1     -41.312  13.931   7.237  1.00 20.00     0.025 C 
HETATM    8  O12 UNL     1     -41.212  13.598   9.763  1.00 20.00    -0.297 OA
ENDROOT
BRANCH   7   9
HETATM    9  C10 UNL     1     -40.355  12.903   6.627  1.00 20.00     0.013 C 
HETATM   10  C8  UNL     1     -40.470  12.860   5.139  1.00 20.00     0.006 C 
ENDBRANCH   7   9
BRANCH   7  11
HETATM   11  C11 UNL     1     -42.763  13.565   6.946  1.00 20.00     0.013 C 
HETATM   12  C9  UNL     1     -43.027  12.113   7.184  1.00 20.00     0.006 C 
ENDBRANCH   7  11
TORSDOF 2
ENDMDL
MODEL 5
REMARK VINA RESULT:      -3.4     24.578     25.545
REMARK  2 active torsions:
REMARK  status: ('A' for Active; 'I' for Inactive)
REMARK    1  A    between atoms: C7_7  and  C10_10 
REMARK    2  A    between atoms: C7_7  and  C11_11 
ROOT
HETATM    1  C1  UNL     1     -27.427  -1.666  10.248  1.00 20.00     0.140 C 
HETATM    2  C2  UNL     1     -29.307  -2.943  12.329  1.00 20.00     0.001 C 
HETATM    3  C3  UNL     1     -29.707  -2.765  10.871  1.00 20.00     0.013 C 
HETATM    4  C4  UNL     1     -28.203  -3.990  12.272  1.00 20.00     0.007 C 
HETATM    5  C5  UNL     1     -28.395  -2.856  10.109  1.00 20.00     0.061 C 
HETATM    6  C6  UNL     1     -27.417  -3.685  10.991  1.00 20.00     0.013 C 
HETATM    7  C7  UNL     1     -26.332  -2.540  10.920  1.00 20.00     0.025 C 
HETATM    8  O12 UNL     1     -27.499  -0.494   9.943  1.00 20.00    -0.297 OA
ENDROOT
BRANCH   7   9
HETATM    9  C10 UNL     1     -25.173  -2.869   9.976  1.00 20.00     0.013 C 
HETATM   10  C8  UNL     1     -24.574  -4.201  10.285  1.00 20.00     0.006 C 
ENDBRANCH   7   9
BRANCH   7  11
HETATM   11  C11 UNL     1     -25.816  -1.984  12.243  1.00 20.00     0.013 C 
HETATM   12  C9  UNL     1     -24.483  -1.327  12.087  1.00 20.00     0.006 C 
ENDBRANCH   7  11
TORSDOF 2
ENDMDL
MODEL 6
REMARK VINA RESULT:      -3.3      2.671      4.052
REMARK  2 active torsions:
REMARK  status: ('A' for Active; 'I' for Inactive)
REMARK    1  A    between atoms: C7_7  and  C10_10 
REMARK    2  A    between atoms: C7_7  and  C11_11 
ROOT
HETATM    1  C1  UNL     1     -34.014  15.155  -4.159  1.00 20.00     0.140 C 
HETATM    2  C2  UNL     1     -34.433  17.658  -2.412  1.00 20.00     0.001 C 
HETATM    3  C3  UNL     1     -33.199  16.776  -2.287  1.00 20.00     0.013 C 
HETATM    4  C4  UNL     1     -34.276  18.300  -3.784  1.00 20.00     0.007 C 
HETATM    5  C5  UNL     1     -32.999  16.213  -3.685  1.00 20.00     0.061 C 
HETATM    6  C6  UNL     1     -33.661  17.213  -4.674  1.00 20.00     0.013 C 
HETATM    7  C7  UNL     1     -34.526  16.058  -5.315  1.00 20.00     0.025 C 
HETATM    8  O12 UNL     1     -34.298  14.040  -3.773  1.00 20.00    -0.297 OA
ENDROOT
BRANCH   7   9
HETATM    9  C10 UNL     1     -34.012  15.614  -6.687  1.00 20.00     0.013 C 
HETATM   10  C8  UNL     1     -34.338  16.615  -7.746  1.00 20.00     0.006 C 
ENDBRANCH   7   9
BRANCH   7  11
HETATM   11  C11 UNL     1     -36.039  16.248  -5.335  1.00 20.00     0.013 C 
HETATM   12  C9  UNL     1     -36.750  14.993  -5.727  1.00 20.00     0.006 C 
ENDBRANCH   7  11
TORSDOF 2
ENDMDL
MODEL 7
REMARK VINA RESULT:      -3.3     11.794     13.193
REMARK  2 active torsions:
REMARK  status: ('A' for Active; 'I' for Inactive)
REMARK    1  A    between atoms: C7_7  and  C10_10 
REMARK    2  A    between atoms: C7_7  and  C11_11 
ROOT
HETATM    1  C1  UNL     1     -40.681  14.428   7.860  1.00 20.00     0.140 C 
HETATM    2  C2  UNL     1     -42.364  16.753   8.983  1.00 20.00     0.001 C 
HETATM    3  C3  UNL     1     -40.851  16.841   8.833  1.00 20.00     0.013 C 
HETATM    4  C4  UNL     1     -42.864  16.717   7.545  1.00 20.00     0.007 C 
HETATM    5  C5  UNL     1     -40.541  15.947   7.643  1.00 20.00     0.061 C 
HETATM    6  C6  UNL     1     -41.829  15.888   6.774  1.00 20.00     0.013 C 
HETATM    7  C7  UNL     1     -41.819  14.309   6.808  1.00 20.00     0.025 C 
HETATM    8  O12 UNL     1     -40.113  13.634   8.579  1.00 20.00    -0.297 OA
ENDROOT
BRANCH   7   9
HETATM    9  C10 UNL     1     -41.347  13.684   5.492  1.00 20.00     0.013 C 
HETATM   10  C8  UNL     1     -42.091  14.239   4.323  1.00 20.00     0.006 C 
ENDBRANCH   7   9
BRANCH   7  11
HETATM   11  C11 UNL     1     -43.074  13.614   7.323  1.00 20.00     0.013 C 
HETATM   12  C9  UNL     1     -43.014  12.135   7.115  1.00 20.00     0.006 C 
ENDBRANCH   7  11
TORSDOF 2
ENDMDL
MODEL 8
REMARK VINA RESULT:      -3.3      3.600      5.906
REMARK  2 active torsions:
REMARK  status: ('A' for Active; 'I' for Inactive)
REMARK    1  A    between atoms: C7_7  and  C10_10 
REMARK    2  A    between atoms: C7_7  and  C11_11 
ROOT
HETATM    1  C1  UNL     1     -34.387  15.226  -6.708  1.00 20.00     0.140 C 
HETATM    2  C2  UNL     1     -36.809  17.020  -7.350  1.00 20.00     0.001 C 
HETATM    3  C3  UNL     1     -36.663  15.615  -7.918  1.00 20.00     0.013 C 
HETATM    4  C4  UNL     1     -37.025  16.783  -5.861  1.00 20.00     0.007 C 
HETATM    5  C5  UNL     1     -35.877  14.863  -6.856  1.00 20.00     0.061 C 
HETATM    6  C6  UNL     1     -36.133  15.588  -5.505  1.00 20.00     0.013 C 
HETATM    7  C7  UNL     1     -34.581  15.738  -5.254  1.00 20.00     0.025 C 
HETATM    8  O12 UNL     1     -33.431  15.140  -7.449  1.00 20.00    -0.297 OA
ENDROOT
BRANCH   7   9
HETATM    9  C10 UNL     1     -34.046  14.761  -4.204  1.00 20.00     0.013 C 
HETATM   10  C8  UNL     1     -32.553  14.760  -4.166  1.00 20.00     0.006 C 
ENDBRANCH   7   9
BRANCH   7  11
HETATM   11  C11 UNL     1     -34.047  17.145  -5.012  1.00 20.00     0.013 C 
HETATM   12  C9  UNL     1     -34.223  17.568  -3.589  1.00 20.00     0.006 C 
ENDBRANCH   7  11
TORSDOF 2
ENDMDL
MODEL 9
REMARK VINA RESULT:      -3.1     12.105     13.603
REMARK  2 active torsions:
REMARK  status: ('A' for Active; 'I' for Inactive)
REMARK    1  A    between atoms: C7_7  and  C10_10 
REMARK    2  A    between atoms: C7_7  and  C11_11 
ROOT
HETATM    1  C1  UNL     1     -41.290  14.154   8.583  1.00 20.00     0.140 C 
HETATM    2  C2  UNL     1     -41.231  13.516   5.569  1.00 20.00     0.001 C 
HETATM    3  C3  UNL     1     -41.867  12.579   6.587  1.00 20.00     0.013 C 
HETATM    4  C4  UNL     1     -42.150  14.731   5.578  1.00 20.00     0.007 C 
HETATM    5  C5  UNL     1     -42.362  13.505   7.688  1.00 20.00     0.061 C 
HETATM    6  C6  UNL     1     -42.588  14.899   7.038  1.00 20.00     0.013 C 
HETATM    7  C7  UNL     1     -41.668  15.589   8.120  1.00 20.00     0.025 C 
HETATM    8  O12 UNL     1     -40.467  13.709   9.356  1.00 20.00    -0.297 OA
ENDROOT
BRANCH   7   9
HETATM    9  C10 UNL     1     -42.461  16.363   9.177  1.00 20.00     0.013 C 
HETATM   10  C8  UNL     1     -41.581  16.839  10.284  1.00 20.00     0.006 C 
ENDBRANCH   7   9
BRANCH   7  11
HETATM   11  C11 UNL     1     -40.489  16.411   7.612  1.00 20.00     0.013 C 
HETATM   12  C9  UNL     1     -40.913  17.776   7.175  1.00 20.00     0.006 C 
ENDBRANCH   7  11
TORSDOF 2
ENDMDL
