MODEL 1
REMARK VINA RESULT:      -4.0      0.000      0.000
REMARK  1 active torsions:
REMARK  status: ('A' for Active; 'I' for Inactive)
REMARK    1  A    between atoms: C5_5  and  C10_10 
ROOT
HETATM    1  C1  UNL     1     -34.389  17.745  -1.928  1.00 20.00     0.017 A 
HETATM    2  C2  UNL     1     -33.577  15.832  -3.510  1.00 20.00     0.020 C 
HETATM    3  C3  UNL     1     -33.380  18.260  -4.260  1.00 20.00     0.083 C 
HETATM    4  C4  UNL     1     -35.496  16.601  -5.028  1.00 20.00     0.082 C 
HETATM    5  C5  UNL     1     -32.901  17.604  -1.771  1.00 20.00     0.005 A 
HETATM    6  C6  UNL     1     -33.554  17.301  -3.117  1.00 20.00    -0.026 A 
HETATM    7  C7  UNL     1     -34.444  15.507  -4.755  1.00 20.00    -0.038 C 
HETATM    8  C8  UNL     1     -33.544  15.283  -5.990  1.00 20.00     0.015 C 
HETATM    9  C9  UNL     1     -35.196  14.182  -4.498  1.00 20.00     0.015 C 
HETATM   10  S11 UNL     1     -34.826  18.266  -5.354  1.00 20.00    -0.168 SA
ENDROOT
BRANCH   5  11
HETATM   11  C10 UNL     1     -32.054  18.805  -1.526  1.00 20.00     0.090 C 
HETATM   12 BR12 UNL     1     -31.163  18.669   0.205  1.00 20.00    -0.096 Br
ENDBRANCH   5  11
TORSDOF 1
ENDMDL
MODEL 2
REMARK VINA RESULT:      -3.8      2.666      4.650
REMARK  1 active torsions:
REMARK  status: ('A' for Active; 'I' for Inactive)
REMARK    1  A    between atoms: C5_5  and  C10_10 
ROOT
HETATM    1  C1  UNL     1     -32.675  15.917  -4.075  1.00 20.00     0.017 A 
HETATM    2  C2  UNL     1     -33.567  16.858  -1.807  1.00 20.00     0.020 C 
HETATM    3  C3  UNL     1     -34.611  17.639  -3.997  1.00 20.00     0.083 C 
HETATM    4  C4  UNL     1     -32.642  19.097  -2.650  1.00 20.00     0.082 C 
HETATM    5  C5  UNL     1     -33.902  15.138  -3.692  1.00 20.00     0.005 A 
HETATM    6  C6  UNL     1     -33.780  16.606  -3.292  1.00 20.00    -0.026 A 
HETATM    7  C7  UNL     1     -33.210  18.323  -1.443  1.00 20.00    -0.038 C 
HETATM    8  C8  UNL     1     -34.443  19.043  -0.854  1.00 20.00     0.015 C 
HETATM    9  C9  UNL     1     -32.128  18.306  -0.340  1.00 20.00     0.015 C 
HETATM   10  S11 UNL     1     -33.759  19.237  -4.085  1.00 20.00    -0.168 SA
ENDROOT
BRANCH   5  11
HETATM   11  C10 UNL     1     -34.842  14.652  -4.741  1.00 20.00     0.090 C 
HETATM   12 BR12 UNL     1     -34.194  15.141  -6.516  1.00 20.00    -0.096 Br
ENDBRANCH   5  11
TORSDOF 1
ENDMDL
MODEL 3
REMARK VINA RESULT:      -3.7     12.803     13.918
REMARK  1 active torsions:
REMARK  status: ('A' for Active; 'I' for Inactive)
REMARK    1  A    between atoms: C5_5  and  C10_10 
ROOT
HETATM    1  C1  UNL     1     -42.222  12.805   6.737  1.00 20.00     0.017 A 
HETATM    2  C2  UNL     1     -41.690  15.329   6.324  1.00 20.00     0.020 C 
HETATM    3  C3  UNL     1     -40.374  14.032   8.080  1.00 20.00     0.083 C 
HETATM    4  C4  UNL     1     -42.560  15.655   8.714  1.00 20.00     0.082 C 
HETATM    5  C5  UNL     1     -41.037  12.892   5.818  1.00 20.00     0.005 A 
HETATM    6  C6  UNL     1     -41.262  13.975   6.869  1.00 20.00    -0.026 A 
HETATM    7  C7  UNL     1     -42.142  16.348   7.402  1.00 20.00    -0.038 C 
HETATM    8  C8  UNL     1     -41.029  17.388   7.655  1.00 20.00     0.015 C 
HETATM    9  C9  UNL     1     -43.368  17.121   6.864  1.00 20.00     0.015 C 
HETATM   10  S11 UNL     1     -41.258  14.672   9.528  1.00 20.00    -0.168 SA
ENDROOT
BRANCH   5  11
HETATM   11  C10 UNL     1     -39.943  11.884   5.905  1.00 20.00     0.090 C 
HETATM   12 BR12 UNL     1     -39.029  11.719   4.189  1.00 20.00    -0.096 Br
ENDBRANCH   5  11
TORSDOF 1
ENDMDL
MODEL 4
REMARK VINA RESULT:      -3.5      1.105      1.221
REMARK  1 active torsions:
REMARK  status: ('A' for Active; 'I' for Inactive)
REMARK    1  A    between atoms: C5_5  and  C10_10 
ROOT
HETATM    1  C1  UNL     1     -34.013  17.544  -1.353  1.00 20.00     0.017 A 
HETATM    2  C2  UNL     1     -33.473  16.791  -3.796  1.00 20.00     0.020 C 
HETATM    3  C3  UNL     1     -33.985  19.241  -3.312  1.00 20.00     0.083 C 
HETATM    4  C4  UNL     1     -35.905  17.452  -4.278  1.00 20.00     0.082 C 
HETATM    5  C5  UNL     1     -32.563  17.832  -1.626  1.00 20.00     0.005 A 
HETATM    6  C6  UNL     1     -33.578  17.904  -2.763  1.00 20.00    -0.026 A 
HETATM    7  C7  UNL     1     -34.646  16.736  -4.810  1.00 20.00    -0.038 C 
HETATM    8  C8  UNL     1     -34.206  17.325  -6.168  1.00 20.00     0.015 C 
HETATM    9  C9  UNL     1     -35.013  15.256  -5.057  1.00 20.00     0.015 C 
HETATM   10  S11 UNL     1     -35.697  19.226  -3.909  1.00 20.00    -0.168 SA
ENDROOT
BRANCH   5  11
HETATM   11  C10 UNL     1     -31.912  19.034  -1.034  1.00 20.00     0.090 C 
HETATM   12 BR12 UNL     1     -31.053  18.582   0.658  1.00 20.00    -0.096 Br
ENDBRANCH   5  11
TORSDOF 1
ENDMDL
MODEL 5
REMARK VINA RESULT:      -3.4     12.616     13.696
REMARK  1 active torsions:
REMARK  status: ('A' for Active; 'I' for Inactive)
REMARK    1  A    between atoms: C5_5  and  C10_10 
ROOT
HETATM    1  C1  UNL     1     -40.603  14.377   9.320  1.00 20.00     0.017 A 
HETATM    2  C2  UNL     1     -40.438  14.534   6.718  1.00 20.00     0.020 C 
HETATM    3  C3  UNL     1     -42.667  14.976   7.871  1.00 20.00     0.083 C 
HETATM    4  C4  UNL     1     -42.009  12.507   6.738  1.00 20.00     0.082 C 
HETATM    5  C5  UNL     1     -40.435  15.822   8.945  1.00 20.00     0.005 A 
HETATM    6  C6  UNL     1     -41.175  14.876   8.004  1.00 20.00    -0.026 A 
HETATM    7  C7  UNL     1     -41.084  13.397   5.883  1.00 20.00    -0.038 C 
HETATM    8  C8  UNL     1     -41.843  13.986   4.675  1.00 20.00     0.015 C 
HETATM    9  C9  UNL     1     -39.958  12.502   5.317  1.00 20.00     0.015 C 
HETATM   10  S11 UNL     1     -43.417  13.364   7.517  1.00 20.00    -0.168 SA
ENDROOT
BRANCH   5  11
HETATM   11  C10 UNL     1     -41.115  16.887   9.734  1.00 20.00     0.090 C 
HETATM   12 BR12 UNL     1     -41.194  18.548   8.713  1.00 20.00    -0.096 Br
ENDBRANCH   5  11
TORSDOF 1
ENDMDL
MODEL 6
REMARK VINA RESULT:      -3.2     13.846     15.390
REMARK  1 active torsions:
REMARK  status: ('A' for Active; 'I' for Inactive)
REMARK    1  A    between atoms: C5_5  and  C10_10 
ROOT
HETATM    1  C1  UNL     1     -40.615  15.529   7.499  1.00 20.00     0.017 A 
HETATM    2  C2  UNL     1     -40.260  14.291   9.772  1.00 20.00     0.020 C 
HETATM    3  C3  UNL     1     -42.479  14.058   8.540  1.00 20.00     0.083 C 
HETATM    4  C4  UNL     1     -42.091  15.866  10.638  1.00 20.00     0.082 C 
HETATM    5  C5  UNL     1     -40.228  14.106   7.206  1.00 20.00     0.005 A 
HETATM    6  C6  UNL     1     -41.026  14.431   8.465  1.00 20.00    -0.026 A 
HETATM    7  C7  UNL     1     -40.999  14.845  11.018  1.00 20.00    -0.038 C 
HETATM    8  C8  UNL     1     -41.590  13.685  11.849  1.00 20.00     0.015 C 
HETATM    9  C9  UNL     1     -39.971  15.567  11.919  1.00 20.00     0.015 C 
HETATM   10  S11 UNL     1     -43.417  15.226   9.562  1.00 20.00    -0.168 SA
ENDROOT
BRANCH   5  11
HETATM   11  C10 UNL     1     -40.807  13.397   6.031  1.00 20.00     0.090 C 
HETATM   12 BR12 UNL     1     -39.687  11.880   5.530  1.00 20.00    -0.096 Br
ENDBRANCH   5  11
TORSDOF 1
ENDMDL
MODEL 7
REMARK VINA RESULT:      -3.2      1.590      2.650
REMARK  1 active torsions:
REMARK  status: ('A' for Active; 'I' for Inactive)
REMARK    1  A    between atoms: C5_5  and  C10_10 
ROOT
HETATM    1  C1  UNL     1     -33.193  18.140  -3.911  1.00 20.00     0.017 A 
HETATM    2  C2  UNL     1     -35.697  17.650  -4.472  1.00 20.00     0.020 C 
HETATM    3  C3  UNL     1     -34.132  15.724  -3.891  1.00 20.00     0.083 C 
HETATM    4  C4  UNL     1     -34.748  16.437  -6.523  1.00 20.00     0.082 C 
HETATM    5  C5  UNL     1     -33.948  18.004  -2.619  1.00 20.00     0.005 A 
HETATM    6  C6  UNL     1     -34.387  17.203  -3.841  1.00 20.00    -0.026 A 
HETATM    7  C7  UNL     1     -36.014  16.992  -5.841  1.00 20.00    -0.038 C 
HETATM    8  C8  UNL     1     -37.080  15.888  -5.668  1.00 20.00     0.015 C 
HETATM    9  C9  UNL     1     -36.623  18.064  -6.773  1.00 20.00     0.015 C 
HETATM   10  S11 UNL     1     -33.857  15.149  -5.588  1.00 20.00    -0.168 SA
ENDROOT
BRANCH   5  11
HETATM   11  C10 UNL     1     -33.296  17.388  -1.429  1.00 20.00     0.090 C 
HETATM   12 BR12 UNL     1     -31.833  18.513  -0.793  1.00 20.00    -0.096 Br
ENDBRANCH   5  11
TORSDOF 1
ENDMDL
MODEL 8
REMARK VINA RESULT:      -3.1     25.164     25.958
REMARK  1 active torsions:
REMARK  status: ('A' for Active; 'I' for Inactive)
REMARK    1  A    between atoms: C5_5  and  C10_10 
ROOT
HETATM    1  C1  UNL     1     -24.591  -3.104  10.044  1.00 20.00     0.017 A 
HETATM    2  C2  UNL     1     -26.200  -1.467  11.292  1.00 20.00     0.020 C 
HETATM    3  C3  UNL     1     -26.250  -3.955  11.845  1.00 20.00     0.083 C 
HETATM    4  C4  UNL     1     -28.059  -2.755  10.082  1.00 20.00     0.082 C 
HETATM    5  C5  UNL     1     -23.974  -2.755  11.368  1.00 20.00     0.005 A 
HETATM    6  C6  UNL     1     -25.492  -2.813  11.232  1.00 20.00    -0.026 A 
HETATM    7  C7  UNL     1     -27.705  -1.510  10.920  1.00 20.00    -0.038 C 
HETATM    8  C8  UNL     1     -28.574  -1.434  12.194  1.00 20.00     0.015 C 
HETATM    9  C9  UNL     1     -28.037  -0.260  10.072  1.00 20.00     0.015 C 
HETATM   10  S11 UNL     1     -27.740  -4.358  10.892  1.00 20.00    -0.168 SA
ENDROOT
BRANCH   5  11
HETATM   11  C10 UNL     1     -23.181  -3.770  12.118  1.00 20.00     0.090 C 
HETATM   12 BR12 UNL     1     -21.993  -4.737  10.909  1.00 20.00    -0.096 Br
ENDBRANCH   5  11
TORSDOF 1
ENDMDL
MODEL 9
REMARK VINA RESULT:      -3.1     24.944     25.760
REMARK  1 active torsions:
REMARK  status: ('A' for Active; 'I' for Inactive)
REMARK    1  A    between atoms: C5_5  and  C10_10 
ROOT
HETATM    1  C1  UNL     1     -24.983  -4.352  11.490  1.00 20.00     0.017 A 
HETATM    2  C2  UNL     1     -26.718  -2.978  10.102  1.00 20.00     0.020 C 
HETATM    3  C3  UNL     1     -24.585  -1.853  10.926  1.00 20.00     0.083 C 
HETATM    4  C4  UNL     1     -27.029  -1.639  12.267  1.00 20.00     0.082 C 
HETATM    5  C5  UNL     1     -24.524  -4.322  10.059  1.00 20.00     0.005 A 
HETATM    6  C6  UNL     1     -25.301  -3.139  10.631  1.00 20.00    -0.026 A 
HETATM    7  C7  UNL     1     -27.575  -1.927  10.854  1.00 20.00    -0.038 C 
HETATM    8  C8  UNL     1     -27.678  -0.628  10.025  1.00 20.00     0.015 C 
HETATM    9  C9  UNL     1     -29.010  -2.480  11.006  1.00 20.00     0.015 C 
HETATM   10  S11 UNL     1     -25.330  -0.978  12.328  1.00 20.00    -0.168 SA
ENDROOT
BRANCH   5  11
HETATM   11  C10 UNL     1     -23.071  -4.266   9.737  1.00 20.00     0.090 C 
HETATM   12 BR12 UNL     1     -22.803  -3.719   7.883  1.00 20.00    -0.096 Br
ENDBRANCH   5  11
TORSDOF 1
ENDMDL
