MODEL 1
REMARK VINA RESULT:      -4.2      0.000      0.000
REMARK  1 active torsions:
REMARK  status: ('A' for Active; 'I' for Inactive)
REMARK    1  A    between atoms: C5_5  and  C7_7 
ROOT
HETATM    1  C1  UNL     1     -34.593   4.696   4.465  1.00 20.00     0.002 C 
HETATM    2  C2  UNL     1     -33.311   5.529   4.302  1.00 20.00     0.010 C 
HETATM    3  C3  UNL     1     -35.365   6.012   4.658  1.00 20.00     0.010 C 
HETATM    4  C4  UNL     1     -33.690   7.133   6.385  1.00 20.00     0.016 A 
HETATM    5  C5  UNL     1     -33.709   8.029   5.170  1.00 20.00     0.005 A 
HETATM    6  C6  UNL     1     -34.050   6.580   5.040  1.00 20.00    -0.036 A 
ENDROOT
BRANCH   5   7
HETATM    7  C7  UNL     1     -32.433   8.570   4.625  1.00 20.00     0.090 C 
HETATM    8 BR8  UNL     1     -32.547   8.761   2.686  1.00 20.00    -0.096 Br
ENDBRANCH   5   7
TORSDOF 1
ENDMDL
MODEL 2
REMARK VINA RESULT:      -3.6      1.453      2.259
REMARK  1 active torsions:
REMARK  status: ('A' for Active; 'I' for Inactive)
REMARK    1  A    between atoms: C5_5  and  C7_7 
ROOT
HETATM    1  C1  UNL     1     -34.208   6.654   5.885  1.00 20.00     0.002 C 
HETATM    2  C2  UNL     1     -33.598   6.316   4.514  1.00 20.00     0.010 C 
HETATM    3  C3  UNL     1     -34.238   8.130   5.453  1.00 20.00     0.010 C 
HETATM    4  C4  UNL     1     -31.772   8.245   4.480  1.00 20.00     0.016 A 
HETATM    5  C5  UNL     1     -32.697   8.537   3.324  1.00 20.00     0.005 A 
HETATM    6  C6  UNL     1     -33.182   7.738   4.490  1.00 20.00    -0.036 A 
ENDROOT
BRANCH   5   7
HETATM    7  C7  UNL     1     -32.460   7.898   2.000  1.00 20.00     0.090 C 
HETATM    8 BR8  UNL     1     -32.710   9.194   0.562  1.00 20.00    -0.096 Br
ENDBRANCH   5   7
TORSDOF 1
ENDMDL
MODEL 3
REMARK VINA RESULT:      -3.5      9.007      9.659
REMARK  1 active torsions:
REMARK  status: ('A' for Active; 'I' for Inactive)
REMARK    1  A    between atoms: C5_5  and  C7_7 
ROOT
HETATM    1  C1  UNL     1     -39.364  11.563   4.732  1.00 20.00     0.002 C 
HETATM    2  C2  UNL     1     -39.229  11.973   6.208  1.00 20.00     0.010 C 
HETATM    3  C3  UNL     1     -40.220  12.822   4.512  1.00 20.00     0.010 C 
HETATM    4  C4  UNL     1     -41.790  12.534   6.631  1.00 20.00     0.016 A 
HETATM    5  C5  UNL     1     -41.049  13.834   6.828  1.00 20.00     0.005 A 
HETATM    6  C6  UNL     1     -40.463  12.757   5.972  1.00 20.00    -0.036 A 
ENDROOT
BRANCH   5   7
HETATM    7  C7  UNL     1     -40.463  14.164   8.156  1.00 20.00     0.090 C 
HETATM    8 BR8  UNL     1     -40.620  16.076   8.516  1.00 20.00    -0.096 Br
ENDBRANCH   5   7
TORSDOF 1
ENDMDL
MODEL 4
REMARK VINA RESULT:      -3.5      0.992      2.768
REMARK  1 active torsions:
REMARK  status: ('A' for Active; 'I' for Inactive)
REMARK    1  A    between atoms: C5_5  and  C7_7 
ROOT
HETATM    1  C1  UNL     1     -34.033   8.020   6.325  1.00 20.00     0.002 C 
HETATM    2  C2  UNL     1     -33.741   7.840   4.826  1.00 20.00     0.010 C 
HETATM    3  C3  UNL     1     -33.847   6.503   6.494  1.00 20.00     0.010 C 
HETATM    4  C4  UNL     1     -35.332   5.751   4.427  1.00 20.00     0.016 A 
HETATM    5  C5  UNL     1     -33.934   5.259   4.144  1.00 20.00     0.005 A 
HETATM    6  C6  UNL     1     -34.150   6.433   5.044  1.00 20.00    -0.036 A 
ENDROOT
BRANCH   5   7
HETATM    7  C7  UNL     1     -33.344   5.430   2.787  1.00 20.00     0.090 C 
HETATM    8 BR8  UNL     1     -32.130   6.958   2.759  1.00 20.00    -0.096 Br
ENDBRANCH   5   7
TORSDOF 1
ENDMDL
MODEL 5
REMARK VINA RESULT:      -3.5      1.628      2.380
REMARK  1 active torsions:
REMARK  status: ('A' for Active; 'I' for Inactive)
REMARK    1  A    between atoms: C5_5  and  C7_7 
ROOT
HETATM    1  C1  UNL     1     -35.329   5.065   5.172  1.00 20.00     0.002 C 
HETATM    2  C2  UNL     1     -34.951   6.356   4.427  1.00 20.00     0.010 C 
HETATM    3  C3  UNL     1     -33.848   4.654   5.112  1.00 20.00     0.010 C 
HETATM    4  C4  UNL     1     -33.445   5.227   2.553  1.00 20.00     0.016 A 
HETATM    5  C5  UNL     1     -32.518   6.122   3.338  1.00 20.00     0.005 A 
HETATM    6  C6  UNL     1     -33.765   5.595   3.969  1.00 20.00    -0.036 A 
ENDROOT
BRANCH   5   7
HETATM    7  C7  UNL     1     -32.389   7.561   2.977  1.00 20.00     0.090 C 
HETATM    8 BR8  UNL     1     -32.325   8.665   4.585  1.00 20.00    -0.096 Br
ENDBRANCH   5   7
TORSDOF 1
ENDMDL
MODEL 6
REMARK VINA RESULT:      -3.4     11.962     12.717
REMARK  1 active torsions:
REMARK  status: ('A' for Active; 'I' for Inactive)
REMARK    1  A    between atoms: C5_5  and  C7_7 
ROOT
HETATM    1  C1  UNL     1     -32.497  18.839   0.427  1.00 20.00     0.002 C 
HETATM    2  C2  UNL     1     -31.947  18.307  -0.906  1.00 20.00     0.010 C 
HETATM    3  C3  UNL     1     -33.696  17.891   0.255  1.00 20.00     0.010 C 
HETATM    4  C4  UNL     1     -34.211  18.462  -2.285  1.00 20.00     0.016 A 
HETATM    5  C5  UNL     1     -33.857  16.996  -2.245  1.00 20.00     0.005 A 
HETATM    6  C6  UNL     1     -33.349  17.921  -1.186  1.00 20.00    -0.036 A 
ENDROOT
BRANCH   5   7
HETATM    7  C7  UNL     1     -32.940  16.423  -3.269  1.00 20.00     0.090 C 
HETATM    8 BR8  UNL     1     -33.779  14.904  -4.162  1.00 20.00    -0.096 Br
ENDBRANCH   5   7
TORSDOF 1
ENDMDL
MODEL 7
REMARK VINA RESULT:      -3.4      2.168      3.354
REMARK  1 active torsions:
REMARK  status: ('A' for Active; 'I' for Inactive)
REMARK    1  A    between atoms: C5_5  and  C7_7 
ROOT
HETATM    1  C1  UNL     1     -32.743   8.907   3.502  1.00 20.00     0.002 C 
HETATM    2  C2  UNL     1     -33.905   7.940   3.789  1.00 20.00     0.010 C 
HETATM    3  C3  UNL     1     -31.987   8.270   4.680  1.00 20.00     0.010 C 
HETATM    4  C4  UNL     1     -33.992   8.298   6.419  1.00 20.00     0.016 A 
HETATM    5  C5  UNL     1     -33.629   6.847   6.215  1.00 20.00     0.005 A 
HETATM    6  C6  UNL     1     -33.330   7.853   5.151  1.00 20.00    -0.036 A 
ENDROOT
BRANCH   5   7
HETATM    7  C7  UNL     1     -34.701   5.830   6.032  1.00 20.00     0.090 C 
HETATM    8 BR8  UNL     1     -34.200   4.555   4.642  1.00 20.00    -0.096 Br
ENDBRANCH   5   7
TORSDOF 1
ENDMDL
MODEL 8
REMARK VINA RESULT:      -3.3     12.122     12.926
REMARK  1 active torsions:
REMARK  status: ('A' for Active; 'I' for Inactive)
REMARK    1  A    between atoms: C5_5  and  C7_7 
ROOT
HETATM    1  C1  UNL     1     -35.491  15.013  -6.707  1.00 20.00     0.002 C 
HETATM    2  C2  UNL     1     -34.574  16.115  -6.151  1.00 20.00     0.010 C 
HETATM    3  C3  UNL     1     -35.697  14.524  -5.263  1.00 20.00     0.010 C 
HETATM    4  C4  UNL     1     -33.148  14.572  -4.526  1.00 20.00     0.016 A 
HETATM    5  C5  UNL     1     -33.867  15.554  -3.632  1.00 20.00     0.005 A 
HETATM    6  C6  UNL     1     -34.420  15.221  -4.979  1.00 20.00    -0.036 A 
ENDROOT
BRANCH   5   7
HETATM    7  C7  UNL     1     -33.265  16.888  -3.357  1.00 20.00     0.090 C 
HETATM    8 BR8  UNL     1     -33.564  17.401  -1.497  1.00 20.00    -0.096 Br
ENDBRANCH   5   7
TORSDOF 1
ENDMDL
MODEL 9
REMARK VINA RESULT:      -3.1      9.310     10.174
REMARK  1 active torsions:
REMARK  status: ('A' for Active; 'I' for Inactive)
REMARK    1  A    between atoms: C5_5  and  C7_7 
ROOT
HETATM    1  C1  UNL     1     -42.098  14.589   8.553  1.00 20.00     0.002 C 
HETATM    2  C2  UNL     1     -40.704  14.264   7.990  1.00 20.00     0.010 C 
HETATM    3  C3  UNL     1     -42.617  13.312   7.871  1.00 20.00     0.010 C 
HETATM    4  C4  UNL     1     -41.471  13.704   5.509  1.00 20.00     0.016 A 
HETATM    5  C5  UNL     1     -40.887  12.423   6.056  1.00 20.00     0.005 A 
HETATM    6  C6  UNL     1     -41.436  13.456   6.987  1.00 20.00    -0.036 A 
ENDROOT
BRANCH   5   7
HETATM    7  C7  UNL     1     -39.422  12.174   5.963  1.00 20.00     0.090 C 
HETATM    8 BR8  UNL     1     -38.941  11.602   4.160  1.00 20.00    -0.096 Br
ENDBRANCH   5   7
TORSDOF 1
ENDMDL
