MODEL 1
REMARK VINA RESULT:      -4.1      0.000      0.000
REMARK  1 active torsions:
REMARK  status: ('A' for Active; 'I' for Inactive)
REMARK    1  A    between atoms: C6_6  and  C8_8 
ROOT
HETATM    1  C1  UNL     1     -25.029  16.439  12.316  1.00 20.00     0.027 C 
HETATM    2  C2  UNL     1     -24.224  16.528  11.020  1.00 20.00     0.014 C 
HETATM    3  C3  UNL     1     -22.494  18.461  11.196  1.00 20.00     0.018 A 
HETATM    4  C4  UNL     1     -26.178  17.440  12.305  1.00 20.00     0.167 C 
HETATM    5  C5  UNL     1     -25.029  18.909  10.839  1.00 20.00     0.177 C 
HETATM    6  C6  UNL     1     -22.776  18.301   9.726  1.00 20.00     0.011 A 
HETATM    7  C7  UNL     1     -23.853  17.967  10.744  1.00 20.00    -0.014 A 
HETATM    8  O9  UNL     1     -25.681  18.764  12.104  1.00 20.00    -0.390 OA
ENDROOT
BRANCH   6   9
HETATM    9  C8  UNL     1     -22.068  17.256   8.933  1.00 20.00     0.120 C 
HETATM   10 CL10 UNL     1     -21.458  17.917   7.391  1.00 20.00    -0.130 Cl
ENDBRANCH   6   9
TORSDOF 1
ENDMDL
MODEL 2
REMARK VINA RESULT:      -4.0     19.104     19.610
REMARK  1 active torsions:
REMARK  status: ('A' for Active; 'I' for Inactive)
REMARK    1  A    between atoms: C6_6  and  C8_8 
ROOT
HETATM    1  C1  UNL     1     -34.692  16.102  -7.579  1.00 20.00     0.027 C 
HETATM    2  C2  UNL     1     -34.400  16.575  -6.156  1.00 20.00     0.014 C 
HETATM    3  C3  UNL     1     -33.275  14.658  -4.809  1.00 20.00     0.018 A 
HETATM    4  C4  UNL     1     -36.002  15.326  -7.630  1.00 20.00     0.167 C 
HETATM    5  C5  UNL     1     -35.814  14.645  -5.366  1.00 20.00     0.177 C 
HETATM    6  C6  UNL     1     -33.964  15.521  -3.787  1.00 20.00     0.011 A 
HETATM    7  C7  UNL     1     -34.528  15.418  -5.193  1.00 20.00    -0.014 A 
HETATM    8  O9  UNL     1     -35.961  14.222  -6.725  1.00 20.00    -0.390 OA
ENDROOT
BRANCH   6   9
HETATM    9  C8  UNL     1     -33.302  16.755  -3.276  1.00 20.00     0.120 C 
HETATM   10 CL10 UNL     1     -33.645  17.002  -1.541  1.00 20.00    -0.130 Cl
ENDBRANCH   6   9
TORSDOF 1
ENDMDL
MODEL 3
REMARK VINA RESULT:      -4.0     15.012     15.633
REMARK  1 active torsions:
REMARK  status: ('A' for Active; 'I' for Inactive)
REMARK    1  A    between atoms: C6_6  and  C8_8 
ROOT
HETATM    1  C1  UNL     1     -33.966   5.212   4.859  1.00 20.00     0.027 C 
HETATM    2  C2  UNL     1     -33.741   6.138   3.665  1.00 20.00     0.014 C 
HETATM    3  C3  UNL     1     -31.701   7.682   4.127  1.00 20.00     0.018 A 
HETATM    4  C4  UNL     1     -34.772   5.918   5.943  1.00 20.00     0.167 C 
HETATM    5  C5  UNL     1     -34.002   8.060   5.275  1.00 20.00     0.177 C 
HETATM    6  C6  UNL     1     -32.569   8.437   3.156  1.00 20.00     0.011 A 
HETATM    7  C7  UNL     1     -33.201   7.467   4.140  1.00 20.00    -0.014 A 
HETATM    8  O9  UNL     1     -34.115   7.119   6.348  1.00 20.00    -0.390 OA
ENDROOT
BRANCH   6   9
HETATM    9  C8  UNL     1     -32.484   8.156   1.695  1.00 20.00     0.120 C 
HETATM   10 CL10 UNL     1     -32.786   9.630   0.734  1.00 20.00    -0.130 Cl
ENDBRANCH   6   9
TORSDOF 1
ENDMDL
MODEL 4
REMARK VINA RESULT:      -3.8     14.492     15.073
REMARK  1 active torsions:
REMARK  status: ('A' for Active; 'I' for Inactive)
REMARK    1  A    between atoms: C6_6  and  C8_8 
ROOT
HETATM    1  C1  UNL     1     -31.424  19.263   0.204  1.00 20.00     0.027 C 
HETATM    2  C2  UNL     1     -31.757  18.142  -0.780  1.00 20.00     0.014 C 
HETATM    3  C3  UNL     1     -33.899  18.761  -2.116  1.00 20.00     0.018 A 
HETATM    4  C4  UNL     1     -32.239  19.116   1.483  1.00 20.00     0.167 C 
HETATM    5  C5  UNL     1     -33.998  17.987   0.363  1.00 20.00     0.177 C 
HETATM    6  C6  UNL     1     -33.844  17.257  -2.112  1.00 20.00     0.011 A 
HETATM    7  C7  UNL     1     -33.255  18.039  -0.951  1.00 20.00    -0.014 A 
HETATM    8  O9  UNL     1     -33.635  19.102   1.184  1.00 20.00    -0.390 OA
ENDROOT
BRANCH   6   9
HETATM    9  C8  UNL     1     -32.998  16.533  -3.103  1.00 20.00     0.120 C 
HETATM   10 CL10 UNL     1     -33.858  15.119  -3.776  1.00 20.00    -0.130 Cl
ENDBRANCH   6   9
TORSDOF 1
ENDMDL
MODEL 5
REMARK VINA RESULT:      -3.7     17.434     18.292
REMARK  1 active torsions:
REMARK  status: ('A' for Active; 'I' for Inactive)
REMARK    1  A    between atoms: C6_6  and  C8_8 
ROOT
HETATM    1  C1  UNL     1     -41.138  15.473   8.205  1.00 20.00     0.027 C 
HETATM    2  C2  UNL     1     -40.395  14.224   7.731  1.00 20.00     0.014 C 
HETATM    3  C3  UNL     1     -41.281  13.514   5.393  1.00 20.00     0.018 A 
HETATM    4  C4  UNL     1     -42.468  15.096   8.846  1.00 20.00     0.167 C 
HETATM    5  C5  UNL     1     -42.649  13.108   7.565  1.00 20.00     0.177 C 
HETATM    6  C6  UNL     1     -40.755  12.255   6.027  1.00 20.00     0.011 A 
HETATM    7  C7  UNL     1     -41.318  13.363   6.900  1.00 20.00    -0.014 A 
HETATM    8  O9  UNL     1     -43.267  14.346   7.930  1.00 20.00    -0.390 OA
ENDROOT
BRANCH   6   9
HETATM    9  C8  UNL     1     -39.299  11.936   5.972  1.00 20.00     0.120 C 
HETATM   10 CL10 UNL     1     -38.753  11.693   4.290  1.00 20.00    -0.130 Cl
ENDBRANCH   6   9
TORSDOF 1
ENDMDL
MODEL 6
REMARK VINA RESULT:      -3.7     14.778     15.384
REMARK  1 active torsions:
REMARK  status: ('A' for Active; 'I' for Inactive)
REMARK    1  A    between atoms: C6_6  and  C8_8 
ROOT
HETATM    1  C1  UNL     1     -33.500  16.688  -2.810  1.00 20.00     0.027 C 
HETATM    2  C2  UNL     1     -32.555  17.539  -1.962  1.00 20.00     0.014 C 
HETATM    3  C3  UNL     1     -33.678  18.084   0.318  1.00 20.00     0.018 A 
HETATM    4  C4  UNL     1     -34.508  17.567  -3.540  1.00 20.00     0.167 C 
HETATM    5  C5  UNL     1     -34.392  19.263  -1.885  1.00 20.00     0.177 C 
HETATM    6  C6  UNL     1     -32.702  19.202   0.069  1.00 20.00     0.011 A 
HETATM    7  C7  UNL     1     -33.355  18.493  -1.105  1.00 20.00    -0.014 A 
HETATM    8  O9  UNL     1     -35.240  18.364  -2.608  1.00 20.00    -0.390 OA
ENDROOT
BRANCH   6   9
HETATM    9  C8  UNL     1     -31.261  19.032   0.410  1.00 20.00     0.120 C 
HETATM   10 CL10 UNL     1     -31.060  18.216   1.985  1.00 20.00    -0.130 Cl
ENDBRANCH   6   9
TORSDOF 1
ENDMDL
MODEL 7
REMARK VINA RESULT:      -3.6     14.457     15.160
REMARK  1 active torsions:
REMARK  status: ('A' for Active; 'I' for Inactive)
REMARK    1  A    between atoms: C6_6  and  C8_8 
ROOT
HETATM    1  C1  UNL     1     -32.155  18.598   1.502  1.00 20.00     0.027 C 
HETATM    2  C2  UNL     1     -33.335  19.050   0.642  1.00 20.00     0.014 C 
HETATM    3  C3  UNL     1     -33.682  17.376  -1.316  1.00 20.00     0.018 A 
HETATM    4  C4  UNL     1     -30.838  19.066   0.896  1.00 20.00     0.167 C 
HETATM    5  C5  UNL     1     -31.731  19.093  -1.301  1.00 20.00     0.177 C 
HETATM    6  C6  UNL     1     -34.235  18.689  -1.802  1.00 20.00     0.011 A 
HETATM    7  C7  UNL     1     -33.093  18.673  -0.801  1.00 20.00    -0.014 A 
HETATM    8  O9  UNL     1     -30.707  18.584  -0.442  1.00 20.00    -0.390 OA
ENDROOT
BRANCH   6   9
HETATM    9  C8  UNL     1     -35.619  19.105  -1.435  1.00 20.00     0.120 C 
HETATM   10 CL10 UNL     1     -36.761  18.806  -2.775  1.00 20.00    -0.130 Cl
ENDBRANCH   6   9
TORSDOF 1
ENDMDL
MODEL 8
REMARK VINA RESULT:      -3.4     17.957     18.769
REMARK  1 active torsions:
REMARK  status: ('A' for Active; 'I' for Inactive)
REMARK    1  A    between atoms: C6_6  and  C8_8 
ROOT
HETATM    1  C1  UNL     1     -42.971  14.987   4.379  1.00 20.00     0.027 C 
HETATM    2  C2  UNL     1     -41.782  14.039   4.531  1.00 20.00     0.014 C 
HETATM    3  C3  UNL     1     -42.079  12.600   6.675  1.00 20.00     0.018 A 
HETATM    4  C4  UNL     1     -42.771  16.240   5.222  1.00 20.00     0.167 C 
HETATM    5  C5  UNL     1     -41.390  15.104   6.781  1.00 20.00     0.177 C 
HETATM    6  C6  UNL     1     -40.595  12.669   6.434  1.00 20.00     0.011 A 
HETATM    7  C7  UNL     1     -41.486  13.818   5.996  1.00 20.00    -0.014 A 
HETATM    8  O9  UNL     1     -42.571  15.890   6.592  1.00 20.00    -0.390 OA
ENDROOT
BRANCH   6   9
HETATM    9  C8  UNL     1     -39.946  11.741   5.465  1.00 20.00     0.120 C 
HETATM   10 CL10 UNL     1     -38.188  12.038   5.362  1.00 20.00    -0.130 Cl
ENDBRANCH   6   9
TORSDOF 1
ENDMDL
MODEL 9
REMARK VINA RESULT:      -3.4     18.538     19.032
REMARK  1 active torsions:
REMARK  status: ('A' for Active; 'I' for Inactive)
REMARK    1  A    between atoms: C6_6  and  C8_8 
ROOT
HETATM    1  C1  UNL     1     -34.966  17.945  -3.587  1.00 20.00     0.027 C 
HETATM    2  C2  UNL     1     -34.577  17.400  -4.960  1.00 20.00     0.014 C 
HETATM    3  C3  UNL     1     -35.180  14.876  -5.103  1.00 20.00     0.018 A 
HETATM    4  C4  UNL     1     -33.878  17.648  -2.562  1.00 20.00     0.167 C 
HETATM    5  C5  UNL     1     -33.137  15.728  -3.741  1.00 20.00     0.177 C 
HETATM    6  C6  UNL     1     -34.047  15.077  -6.072  1.00 20.00     0.011 A 
HETATM    7  C7  UNL     1     -34.151  15.955  -4.837  1.00 20.00    -0.014 A 
HETATM    8  O9  UNL     1     -33.625  16.244  -2.499  1.00 20.00    -0.390 OA
ENDROOT
BRANCH   6   9
HETATM    9  C8  UNL     1     -34.314  15.589  -7.446  1.00 20.00     0.120 C 
HETATM   10 CL10 UNL     1     -36.015  15.319  -7.918  1.00 20.00    -0.130 Cl
ENDBRANCH   6   9
TORSDOF 1
ENDMDL
