MODEL 1
REMARK VINA RESULT:      -4.3      0.000      0.000
REMARK  1 active torsions:
REMARK  status: ('A' for Active; 'I' for Inactive)
REMARK    1  A    between atoms: C5_5  and  C9_9 
ROOT
HETATM    1  C1  UNL     1     -33.709  18.266   0.335  1.00 20.00     0.036 C 
HETATM    2  C2  UNL     1     -32.566  19.249  -1.787  1.00 20.00     0.016 A 
HETATM    3  C3  UNL     1     -31.200  18.251   0.194  1.00 20.00     0.041 C 
HETATM    4  C4  UNL     1     -33.562  19.263   1.482  1.00 20.00     0.169 C 
HETATM    5  C5  UNL     1     -32.539  17.755  -1.967  1.00 20.00     0.009 A 
HETATM    6  C6  UNL     1     -31.196  19.260   1.346  1.00 20.00     0.118 C 
HETATM    7  C7  UNL     1     -32.502  18.350  -0.571  1.00 20.00    -0.031 A 
HETATM    8  C8  UNL     1     -29.950  19.106   2.207  1.00 20.00     0.039 C 
HETATM    9  O10 UNL     1     -32.338  19.043   2.187  1.00 20.00    -0.386 OA
ENDROOT
BRANCH   5  10
HETATM   10  C9  UNL     1     -33.731  17.042  -2.504  1.00 20.00     0.120 C 
HETATM   11 CL11 UNL     1     -33.252  15.712  -3.596  1.00 20.00    -0.130 Cl
ENDBRANCH   5  10
TORSDOF 1
ENDMDL
MODEL 2
REMARK VINA RESULT:      -4.2      2.480      4.067
REMARK  1 active torsions:
REMARK  status: ('A' for Active; 'I' for Inactive)
REMARK    1  A    between atoms: C5_5  and  C9_9 
ROOT
HETATM    1  C1  UNL     1     -33.949  17.691  -4.281  1.00 20.00     0.036 C 
HETATM    2  C2  UNL     1     -32.619  15.464  -4.056  1.00 20.00     0.016 A 
HETATM    3  C3  UNL     1     -33.556  16.742  -1.988  1.00 20.00     0.041 C 
HETATM    4  C4  UNL     1     -33.044  18.850  -3.873  1.00 20.00     0.169 C 
HETATM    5  C5  UNL     1     -34.069  15.086  -3.914  1.00 20.00     0.009 A 
HETATM    6  C6  UNL     1     -32.661  17.954  -1.713  1.00 20.00     0.118 C 
HETATM    7  C7  UNL     1     -33.598  16.462  -3.474  1.00 20.00    -0.031 A 
HETATM    8  C8  UNL     1     -32.691  18.335  -0.239  1.00 20.00     0.039 C 
HETATM    9  O10 UNL     1     -33.128  19.083  -2.465  1.00 20.00    -0.386 OA
ENDROOT
BRANCH   5  10
HETATM   10  C9  UNL     1     -34.913  14.876  -5.123  1.00 20.00     0.120 C 
HETATM   11 CL11 UNL     1     -33.949  15.023  -6.618  1.00 20.00    -0.130 Cl
ENDBRANCH   5  10
TORSDOF 1
ENDMDL
MODEL 3
REMARK VINA RESULT:      -4.2      3.434      5.450
REMARK  1 active torsions:
REMARK  status: ('A' for Active; 'I' for Inactive)
REMARK    1  A    between atoms: C5_5  and  C9_9 
ROOT
HETATM    1  C1  UNL     1     -33.232  18.774  -3.558  1.00 20.00     0.036 C 
HETATM    2  C2  UNL     1     -34.035  17.815  -1.275  1.00 20.00     0.016 A 
HETATM    3  C3  UNL     1     -33.157  16.288  -3.194  1.00 20.00     0.041 C 
HETATM    4  C4  UNL     1     -34.306  18.510  -4.609  1.00 20.00     0.169 C 
HETATM    5  C5  UNL     1     -32.531  17.825  -1.204  1.00 20.00     0.009 A 
HETATM    6  C6  UNL     1     -34.247  16.167  -4.263  1.00 20.00     0.118 C 
HETATM    7  C7  UNL     1     -33.225  17.653  -2.544  1.00 20.00    -0.031 A 
HETATM    8  C8  UNL     1     -34.131  14.849  -5.018  1.00 20.00     0.039 C 
HETATM    9  O10 UNL     1     -34.114  17.230  -5.216  1.00 20.00    -0.386 OA
ENDROOT
BRANCH   5  10
HETATM   10  C9  UNL     1     -31.804  19.070  -0.831  1.00 20.00     0.120 C 
HETATM   11 CL11 UNL     1     -30.871  18.847   0.675  1.00 20.00    -0.130 Cl
ENDBRANCH   5  10
TORSDOF 1
ENDMDL
MODEL 4
REMARK VINA RESULT:      -3.8      3.181      5.368
REMARK  1 active torsions:
REMARK  status: ('A' for Active; 'I' for Inactive)
REMARK    1  A    between atoms: C5_5  and  C9_9 
ROOT
HETATM    1  C1  UNL     1     -33.334  16.629  -2.290  1.00 20.00     0.036 C 
HETATM    2  C2  UNL     1     -32.625  19.134  -2.311  1.00 20.00     0.016 A 
HETATM    3  C3  UNL     1     -34.978  18.346  -3.107  1.00 20.00     0.041 C 
HETATM    4  C4  UNL     1     -33.299  16.094  -3.719  1.00 20.00     0.169 C 
HETATM    5  C5  UNL     1     -33.481  18.965  -1.084  1.00 20.00     0.009 A 
HETATM    6  C6  UNL     1     -34.841  17.717  -4.496  1.00 20.00     0.118 C 
HETATM    7  C7  UNL     1     -33.722  18.090  -2.302  1.00 20.00    -0.031 A 
HETATM    8  C8  UNL     1     -36.133  17.854  -5.290  1.00 20.00     0.039 C 
HETATM    9  O10 UNL     1     -34.552  16.318  -4.371  1.00 20.00    -0.386 OA
ENDROOT
BRANCH   5  10
HETATM   10  C9  UNL     1     -32.891  18.439   0.178  1.00 20.00     0.120 C 
HETATM   11 CL11 UNL     1     -31.106  18.468   0.118  1.00 20.00    -0.130 Cl
ENDBRANCH   5  10
TORSDOF 1
ENDMDL
MODEL 5
REMARK VINA RESULT:      -3.7      3.929      6.326
REMARK  1 active torsions:
REMARK  status: ('A' for Active; 'I' for Inactive)
REMARK    1  A    between atoms: C5_5  and  C9_9 
ROOT
HETATM    1  C1  UNL     1     -33.568  15.712  -3.315  1.00 20.00     0.036 C 
HETATM    2  C2  UNL     1     -33.146  18.248  -3.721  1.00 20.00     0.016 A 
HETATM    3  C3  UNL     1     -35.164  16.985  -4.780  1.00 20.00     0.041 C 
HETATM    4  C4  UNL     1     -33.159  14.937  -4.564  1.00 20.00     0.169 C 
HETATM    5  C5  UNL     1     -34.230  18.180  -2.679  1.00 20.00     0.009 A 
HETATM    6  C6  UNL     1     -34.655  16.142  -5.952  1.00 20.00     0.118 C 
HETATM    7  C7  UNL     1     -34.099  17.071  -3.709  1.00 20.00    -0.031 A 
HETATM    8  C8  UNL     1     -35.745  15.937  -6.996  1.00 20.00     0.039 C 
HETATM    9  O10 UNL     1     -34.252  14.848  -5.482  1.00 20.00    -0.386 OA
ENDROOT
BRANCH   5  10
HETATM   10  C9  UNL     1     -33.882  17.987  -1.244  1.00 20.00     0.120 C 
HETATM   11 CL11 UNL     1     -32.132  18.211  -0.967  1.00 20.00    -0.130 Cl
ENDBRANCH   5  10
TORSDOF 1
ENDMDL
MODEL 6
REMARK VINA RESULT:      -3.6     11.644     12.388
REMARK  1 active torsions:
REMARK  status: ('A' for Active; 'I' for Inactive)
REMARK    1  A    between atoms: C5_5  and  C9_9 
ROOT
HETATM    1  C1  UNL     1     -40.402  14.073   8.017  1.00 20.00     0.036 C 
HETATM    2  C2  UNL     1     -42.092  12.576   6.721  1.00 20.00     0.016 A 
HETATM    3  C3  UNL     1     -41.897  15.140   6.302  1.00 20.00     0.041 C 
HETATM    4  C4  UNL     1     -41.161  14.878   9.068  1.00 20.00     0.169 C 
HETATM    5  C5  UNL     1     -40.937  12.791   5.780  1.00 20.00     0.009 A 
HETATM    6  C6  UNL     1     -42.580  15.879   7.456  1.00 20.00     0.118 C 
HETATM    7  C7  UNL     1     -41.283  13.853   6.809  1.00 20.00    -0.031 A 
HETATM    8  C8  UNL     1     -43.106  17.235   7.004  1.00 20.00     0.039 C 
HETATM    9  O10 UNL     1     -41.638  16.106   8.513  1.00 20.00    -0.386 OA
ENDROOT
BRANCH   5  10
HETATM   10  C9  UNL     1     -39.716  11.943   5.882  1.00 20.00     0.120 C 
HETATM   11 CL11 UNL     1     -38.967  11.692   4.281  1.00 20.00    -0.130 Cl
ENDBRANCH   5  10
TORSDOF 1
ENDMDL
MODEL 7
REMARK VINA RESULT:      -3.5     11.317     12.662
REMARK  1 active torsions:
REMARK  status: ('A' for Active; 'I' for Inactive)
REMARK    1  A    between atoms: C5_5  and  C9_9 
ROOT
HETATM    1  C1  UNL     1     -41.993  14.926   5.854  1.00 20.00     0.036 C 
HETATM    2  C2  UNL     1     -42.472  13.372   7.888  1.00 20.00     0.016 A 
HETATM    3  C3  UNL     1     -40.255  13.238   6.525  1.00 20.00     0.041 C 
HETATM    4  C4  UNL     1     -42.166  14.123   4.568  1.00 20.00     0.169 C 
HETATM    5  C5  UNL     1     -41.560  14.450   8.408  1.00 20.00     0.009 A 
HETATM    6  C6  UNL     1     -40.536  12.523   5.201  1.00 20.00     0.118 C 
HETATM    7  C7  UNL     1     -41.476  14.024   6.952  1.00 20.00    -0.031 A 
HETATM    8  C8  UNL     1     -39.289  11.818   4.683  1.00 20.00     0.039 C 
HETATM    9  O10 UNL     1     -40.941  13.477   4.209  1.00 20.00    -0.386 OA
ENDROOT
BRANCH   5  10
HETATM   10  C9  UNL     1     -42.115  15.767   8.828  1.00 20.00     0.120 C 
HETATM   11 CL11 UNL     1     -40.896  17.062   8.674  1.00 20.00    -0.130 Cl
ENDBRANCH   5  10
TORSDOF 1
ENDMDL
MODEL 8
REMARK VINA RESULT:      -3.4      3.445      5.486
REMARK  1 active torsions:
REMARK  status: ('A' for Active; 'I' for Inactive)
REMARK    1  A    between atoms: C5_5  and  C9_9 
ROOT
HETATM    1  C1  UNL     1     -34.697  19.057  -2.810  1.00 20.00     0.036 C 
HETATM    2  C2  UNL     1     -33.672  17.135  -1.384  1.00 20.00     0.016 A 
HETATM    3  C3  UNL     1     -33.487  17.191  -3.983  1.00 20.00     0.041 C 
HETATM    4  C4  UNL     1     -35.970  18.549  -3.480  1.00 20.00     0.169 C 
HETATM    5  C5  UNL     1     -32.520  18.039  -1.733  1.00 20.00     0.009 A 
HETATM    6  C6  UNL     1     -34.837  16.782  -4.580  1.00 20.00     0.118 C 
HETATM    7  C7  UNL     1     -33.705  17.924  -2.676  1.00 20.00    -0.031 A 
HETATM    8  C8  UNL     1     -34.660  16.147  -5.952  1.00 20.00     0.039 C 
HETATM    9  O10 UNL     1     -35.669  17.939  -4.738  1.00 20.00    -0.386 OA
ENDROOT
BRANCH   5  10
HETATM   10  C9  UNL     1     -32.253  19.262  -0.926  1.00 20.00     0.120 C 
HETATM   11 CL11 UNL     1     -31.112  18.922   0.405  1.00 20.00    -0.130 Cl
ENDBRANCH   5  10
TORSDOF 1
ENDMDL
MODEL 9
REMARK VINA RESULT:      -3.4      1.465      1.880
REMARK  1 active torsions:
REMARK  status: ('A' for Active; 'I' for Inactive)
REMARK    1  A    between atoms: C5_5  and  C9_9 
ROOT
HETATM    1  C1  UNL     1     -34.610  18.285  -1.543  1.00 20.00     0.036 C 
HETATM    2  C2  UNL     1     -33.032  19.079  -3.456  1.00 20.00     0.016 A 
HETATM    3  C3  UNL     1     -32.135  17.918  -1.303  1.00 20.00     0.041 C 
HETATM    4  C4  UNL     1     -34.500  19.263  -0.376  1.00 20.00     0.169 C 
HETATM    5  C5  UNL     1     -33.187  17.594  -3.648  1.00 20.00     0.009 A 
HETATM    6  C6  UNL     1     -32.165  18.928  -0.152  1.00 20.00     0.118 C 
HETATM    7  C7  UNL     1     -33.279  18.191  -2.255  1.00 20.00    -0.031 A 
HETATM    8  C8  UNL     1     -31.097  18.609   0.886  1.00 20.00     0.039 C 
HETATM    9  O10 UNL     1     -33.440  18.880   0.503  1.00 20.00    -0.386 OA
ENDROOT
BRANCH   5  10
HETATM   10  C9  UNL     1     -34.372  17.048  -4.367  1.00 20.00     0.120 C 
HETATM   11 CL11 UNL     1     -34.055  15.402  -4.982  1.00 20.00    -0.130 Cl
ENDBRANCH   5  10
TORSDOF 1
ENDMDL
