MODEL 1
REMARK VINA RESULT:      -4.1      0.000      0.000
REMARK  3 active torsions:
REMARK  status: ('A' for Active; 'I' for Inactive)
REMARK    1  A    between atoms: C4_4  and  C6_6 
REMARK    2  A    between atoms: C5_5  and  C8_8 
REMARK    3  A    between atoms: C6_6  and  C9_9 
ROOT
HETATM    1  C3  UNL     1     -31.961   8.229   4.410  1.00 20.00     0.017 A 
HETATM    2  C5  UNL     1     -32.794   8.440   3.178  1.00 20.00     0.009 A 
HETATM    3  C6  UNL     1     -33.085   7.257   4.091  1.00 20.00    -0.032 A 
ENDROOT
BRANCH   3   4
HETATM    4  C4  UNL     1     -32.763   5.813   3.681  1.00 20.00    -0.006 A 
HETATM    5  C1  UNL     1     -33.770   4.700   3.768  1.00 20.00     0.006 A 
HETATM    6  C2  UNL     1     -33.302   5.186   2.425  1.00 20.00     0.006 A 
ENDBRANCH   3   4
BRANCH   3   7
HETATM    7  C9  UNL     1     -34.331   7.370   4.936  1.00 20.00     0.006 C 
HETATM    8  C7  UNL     1     -34.073   7.047   6.378  1.00 20.00     0.006 C 
ENDBRANCH   3   7
BRANCH   2   9
HETATM    9  C8  UNL     1     -32.190   8.266   1.826  1.00 20.00     0.120 C 
HETATM   10 CL10 UNL     1     -32.759   9.526   0.697  1.00 20.00    -0.130 Cl
ENDBRANCH   2   9
TORSDOF 3
ENDMDL
MODEL 2
REMARK VINA RESULT:      -3.9      2.090      3.410
REMARK  3 active torsions:
REMARK  status: ('A' for Active; 'I' for Inactive)
REMARK    1  A    between atoms: C4_4  and  C6_6 
REMARK    2  A    between atoms: C5_5  and  C8_8 
REMARK    3  A    between atoms: C6_6  and  C9_9 
ROOT
HETATM    1  C3  UNL     1     -35.168   6.034   4.138  1.00 20.00     0.017 A 
HETATM    2  C5  UNL     1     -33.772   5.506   3.969  1.00 20.00     0.009 A 
HETATM    3  C6  UNL     1     -34.019   6.706   4.873  1.00 20.00    -0.032 A 
ENDROOT
BRANCH   3   4
HETATM    4  C4  UNL     1     -33.578   8.124   4.483  1.00 20.00    -0.006 A 
HETATM    5  C1  UNL     1     -32.605   8.926   5.301  1.00 20.00     0.006 A 
HETATM    6  C2  UNL     1     -32.210   8.428   3.939  1.00 20.00     0.006 A 
ENDBRANCH   3   4
BRANCH   3   7
HETATM    7  C9  UNL     1     -33.925   6.443   6.357  1.00 20.00     0.006 C 
HETATM    8  C7  UNL     1     -34.781   5.287   6.785  1.00 20.00     0.006 C 
ENDBRANCH   3   7
BRANCH   2   9
HETATM    9  C8  UNL     1     -33.075   5.634   2.658  1.00 20.00     0.120 C 
HETATM   10 CL10 UNL     1     -32.766   4.033   1.931  1.00 20.00    -0.130 Cl
ENDBRANCH   2   9
TORSDOF 3
ENDMDL
MODEL 3
REMARK VINA RESULT:      -3.7      1.318      1.681
REMARK  3 active torsions:
REMARK  status: ('A' for Active; 'I' for Inactive)
REMARK    1  A    between atoms: C4_4  and  C6_6 
REMARK    2  A    between atoms: C5_5  and  C8_8 
REMARK    3  A    between atoms: C6_6  and  C9_9 
ROOT
HETATM    1  C3  UNL     1     -33.136   7.363   5.840  1.00 20.00     0.017 A 
HETATM    2  C5  UNL     1     -33.538   8.315   4.750  1.00 20.00     0.009 A 
HETATM    3  C6  UNL     1     -33.608   6.814   4.503  1.00 20.00    -0.032 A 
ENDROOT
BRANCH   3   4
HETATM    4  C4  UNL     1     -32.621   6.095   3.573  1.00 20.00    -0.006 A 
HETATM    5  C1  UNL     1     -33.035   4.977   2.656  1.00 20.00     0.006 A 
HETATM    6  C2  UNL     1     -32.611   6.301   2.084  1.00 20.00     0.006 A 
ENDBRANCH   3   4
BRANCH   3   7
HETATM    7  C9  UNL     1     -34.994   6.216   4.474  1.00 20.00     0.006 C 
HETATM    8  C7  UNL     1     -35.189   5.179   5.541  1.00 20.00     0.006 C 
ENDBRANCH   3   7
BRANCH   2   9
HETATM    9  C8  UNL     1     -32.516   9.177   4.093  1.00 20.00     0.120 C 
HETATM   10 CL10 UNL     1     -33.016   9.628   2.439  1.00 20.00    -0.130 Cl
ENDBRANCH   2   9
TORSDOF 3
ENDMDL
MODEL 4
REMARK VINA RESULT:      -3.5      9.533     10.854
REMARK  3 active torsions:
REMARK  status: ('A' for Active; 'I' for Inactive)
REMARK    1  A    between atoms: C4_4  and  C6_6 
REMARK    2  A    between atoms: C5_5  and  C8_8 
REMARK    3  A    between atoms: C6_6  and  C9_9 
ROOT
HETATM    1  C3  UNL     1     -42.399  13.275   6.938  1.00 20.00     0.017 A 
HETATM    2  C5  UNL     1     -41.243  14.207   7.161  1.00 20.00     0.009 A 
HETATM    3  C6  UNL     1     -41.249  13.292   5.944  1.00 20.00    -0.032 A 
ENDROOT
BRANCH   3   4
HETATM    4  C4  UNL     1     -40.311  12.083   5.829  1.00 20.00    -0.006 A 
HETATM    5  C1  UNL     1     -39.560  11.753   4.569  1.00 20.00     0.006 A 
HETATM    6  C2  UNL     1     -38.813  12.218   5.788  1.00 20.00     0.006 A 
ENDBRANCH   3   4
BRANCH   3   7
HETATM    7  C9  UNL     1     -41.517  13.964   4.618  1.00 20.00     0.006 C 
HETATM    8  C7  UNL     1     -42.972  14.271   4.419  1.00 20.00     0.006 C 
ENDBRANCH   3   7
BRANCH   2   9
HETATM    9  C8  UNL     1     -40.317  13.990   8.309  1.00 20.00     0.120 C 
HETATM   10 CL10 UNL     1     -40.112  15.484   9.266  1.00 20.00    -0.130 Cl
ENDBRANCH   2   9
TORSDOF 3
ENDMDL
MODEL 5
REMARK VINA RESULT:      -3.5      2.369      3.497
REMARK  3 active torsions:
REMARK  status: ('A' for Active; 'I' for Inactive)
REMARK    1  A    between atoms: C4_4  and  C6_6 
REMARK    2  A    between atoms: C5_5  and  C8_8 
REMARK    3  A    between atoms: C6_6  and  C9_9 
ROOT
HETATM    1  C3  UNL     1     -34.375   7.847   4.387  1.00 20.00     0.017 A 
HETATM    2  C5  UNL     1     -33.340   7.776   5.473  1.00 20.00     0.009 A 
HETATM    3  C6  UNL     1     -32.946   7.465   4.035  1.00 20.00    -0.032 A 
ENDROOT
BRANCH   3   4
HETATM    4  C4  UNL     1     -32.623   6.038   3.570  1.00 20.00    -0.006 A 
HETATM    5  C1  UNL     1     -33.683   4.997   3.343  1.00 20.00     0.006 A 
HETATM    6  C2  UNL     1     -32.914   5.553   2.177  1.00 20.00     0.006 A 
ENDBRANCH   3   4
BRANCH   3   7
HETATM    7  C9  UNL     1     -32.121   8.518   3.337  1.00 20.00     0.006 C 
HETATM    8  C7  UNL     1     -32.826   9.098   2.146  1.00 20.00     0.006 C 
ENDBRANCH   3   7
BRANCH   2   9
HETATM    9  C8  UNL     1     -33.422   6.716   6.517  1.00 20.00     0.120 C 
HETATM   10 CL10 UNL     1     -34.956   5.809   6.399  1.00 20.00    -0.130 Cl
ENDBRANCH   2   9
TORSDOF 3
ENDMDL
MODEL 6
REMARK VINA RESULT:      -3.4      9.570     11.075
REMARK  3 active torsions:
REMARK  status: ('A' for Active; 'I' for Inactive)
REMARK    1  A    between atoms: C4_4  and  C6_6 
REMARK    2  A    between atoms: C5_5  and  C8_8 
REMARK    3  A    between atoms: C6_6  and  C9_9 
ROOT
HETATM    1  C3  UNL     1     -41.288  13.631   5.276  1.00 20.00     0.017 A 
HETATM    2  C5  UNL     1     -40.834  12.326   5.867  1.00 20.00     0.009 A 
HETATM    3  C6  UNL     1     -41.745  13.242   6.673  1.00 20.00    -0.032 A 
ENDROOT
BRANCH   3   4
HETATM    4  C4  UNL     1     -41.240  14.023   7.895  1.00 20.00    -0.006 A 
HETATM    5  C1  UNL     1     -40.400  15.264   7.775  1.00 20.00     0.006 A 
HETATM    6  C2  UNL     1     -41.807  15.356   8.297  1.00 20.00     0.006 A 
ENDBRANCH   3   4
BRANCH   3   7
HETATM    7  C9  UNL     1     -43.179  12.789   6.810  1.00 20.00     0.006 C 
HETATM    8  C7  UNL     1     -43.417  12.027   8.080  1.00 20.00     0.006 C 
ENDBRANCH   3   7
BRANCH   2   9
HETATM    9  C8  UNL     1     -39.401  12.123   6.223  1.00 20.00     0.120 C 
HETATM   10 CL10 UNL     1     -38.406  11.846   4.766  1.00 20.00    -0.130 Cl
ENDBRANCH   2   9
TORSDOF 3
ENDMDL
MODEL 7
REMARK VINA RESULT:      -3.2     11.432     12.719
REMARK  3 active torsions:
REMARK  status: ('A' for Active; 'I' for Inactive)
REMARK    1  A    between atoms: C4_4  and  C6_6 
REMARK    2  A    between atoms: C5_5  and  C8_8 
REMARK    3  A    between atoms: C6_6  and  C9_9 
ROOT
HETATM    1  C3  UNL     1     -31.994  18.353  -1.247  1.00 20.00     0.017 A 
HETATM    2  C5  UNL     1     -33.030  18.131  -0.183  1.00 20.00     0.009 A 
HETATM    3  C6  UNL     1     -33.424  18.030  -1.650  1.00 20.00    -0.032 A 
ENDROOT
BRANCH   3   4
HETATM    4  C4  UNL     1     -34.291  19.095  -2.336  1.00 20.00    -0.006 A 
HETATM    5  C1  UNL     1     -35.289  18.762  -3.410  1.00 20.00     0.006 A 
HETATM    6  C2  UNL     1     -35.763  19.241  -2.066  1.00 20.00     0.006 A 
ENDBRANCH   3   4
BRANCH   3   7
HETATM    7  C9  UNL     1     -33.676  16.635  -2.169  1.00 20.00     0.006 C 
HETATM    8  C7  UNL     1     -32.922  16.352  -3.434  1.00 20.00     0.006 C 
ENDBRANCH   3   7
BRANCH   2   9
HETATM    9  C8  UNL     1     -33.475  19.263   0.679  1.00 20.00     0.120 C 
HETATM   10 CL10 UNL     1     -35.041  18.906   1.459  1.00 20.00    -0.130 Cl
ENDBRANCH   2   9
TORSDOF 3
ENDMDL
MODEL 8
REMARK VINA RESULT:      -3.1     11.308     12.497
REMARK  3 active torsions:
REMARK  status: ('A' for Active; 'I' for Inactive)
REMARK    1  A    between atoms: C4_4  and  C6_6 
REMARK    2  A    between atoms: C5_5  and  C8_8 
REMARK    3  A    between atoms: C6_6  and  C9_9 
ROOT
HETATM    1  C3  UNL     1     -33.707  18.591  -4.119  1.00 20.00     0.017 A 
HETATM    2  C5  UNL     1     -35.122  18.138  -3.901  1.00 20.00     0.009 A 
HETATM    3  C6  UNL     1     -33.975  17.166  -3.661  1.00 20.00    -0.032 A 
ENDROOT
BRANCH   3   4
HETATM    4  C4  UNL     1     -33.695  15.987  -4.603  1.00 20.00    -0.006 A 
HETATM    5  C1  UNL     1     -32.944  14.759  -4.168  1.00 20.00     0.006 A 
HETATM    6  C2  UNL     1     -34.410  14.669  -4.490  1.00 20.00     0.006 A 
ENDBRANCH   3   4
BRANCH   3   7
HETATM    7  C9  UNL     1     -33.667  16.856  -2.215  1.00 20.00     0.006 C 
HETATM    8  C7  UNL     1     -32.623  17.771  -1.646  1.00 20.00     0.006 C 
ENDBRANCH   3   7
BRANCH   2   9
HETATM    9  C8  UNL     1     -36.050  17.995  -5.059  1.00 20.00     0.120 C 
HETATM   10 CL10 UNL     1     -37.645  17.385  -4.537  1.00 20.00    -0.130 Cl
ENDBRANCH   2   9
TORSDOF 3
ENDMDL
MODEL 9
REMARK VINA RESULT:      -3.1      9.671     10.510
REMARK  3 active torsions:
REMARK  status: ('A' for Active; 'I' for Inactive)
REMARK    1  A    between atoms: C4_4  and  C6_6 
REMARK    2  A    between atoms: C5_5  and  C8_8 
REMARK    3  A    between atoms: C6_6  and  C9_9 
ROOT
HETATM    1  C3  UNL     1     -40.979   5.544  -0.372  1.00 20.00     0.017 A 
HETATM    2  C5  UNL     1     -41.921   5.505  -1.540  1.00 20.00     0.009 A 
HETATM    3  C6  UNL     1     -42.254   6.371  -0.334  1.00 20.00    -0.032 A 
ENDROOT
BRANCH   3   4
HETATM    4  C4  UNL     1     -43.379   6.008   0.645  1.00 20.00    -0.006 A 
HETATM    5  C1  UNL     1     -43.185   5.052   1.788  1.00 20.00     0.006 A 
HETATM    6  C2  UNL     1     -43.417   6.512   2.061  1.00 20.00     0.006 A 
ENDBRANCH   3   4
BRANCH   3   7
HETATM    7  C9  UNL     1     -42.096   7.860  -0.530  1.00 20.00     0.006 C 
HETATM    8  C7  UNL     1     -40.796   8.372   0.018  1.00 20.00     0.006 C 
ENDBRANCH   3   7
BRANCH   2   9
HETATM    9  C8  UNL     1     -42.678   4.258  -1.851  1.00 20.00     0.120 C 
HETATM   10 CL10 UNL     1     -41.994   3.425  -3.275  1.00 20.00    -0.130 Cl
ENDBRANCH   2   9
TORSDOF 3
ENDMDL
