MODEL 1
REMARK VINA RESULT:      -5.1      0.000      0.000
REMARK  3 active torsions:
REMARK  status: ('A' for Active; 'I' for Inactive)
REMARK    1  A    between atoms: C2_2  and  C5_5 
REMARK    2  A    between atoms: C3_3  and  C6_6 
REMARK    3  A    between atoms: C5_5  and  C7_7 
ROOT
HETATM    1  C1  UNL     1     -32.821   8.934   4.803  1.00 20.00     0.011 A 
HETATM    2  C2  UNL     1     -33.710   7.732   4.986  1.00 20.00    -0.009 A 
HETATM    3  C3  UNL     1     -32.365   7.581   4.325  1.00 20.00     0.004 A 
ENDROOT
BRANCH   2   4
HETATM    4  C5  UNL     1     -33.941   7.172   6.347  1.00 20.00     0.005 C 
BRANCH   4   5
HETATM    5  C7  UNL     1     -34.443   5.719   6.310  1.00 20.00    -0.004 C 
HETATM    6  C4  UNL     1     -35.206   5.397   5.035  1.00 20.00     0.005 C 
ENDBRANCH   4   5
ENDBRANCH   2   4
BRANCH   3   7
HETATM    7  C6  UNL     1     -32.277   7.292   2.866  1.00 20.00     0.119 C 
HETATM    8 CL8  UNL     1     -32.743   5.605   2.510  1.00 20.00    -0.130 Cl
ENDBRANCH   3   7
TORSDOF 3
ENDMDL
MODEL 2
REMARK VINA RESULT:      -4.9      0.945      3.044
REMARK  3 active torsions:
REMARK  status: ('A' for Active; 'I' for Inactive)
REMARK    1  A    between atoms: C2_2  and  C5_5 
REMARK    2  A    between atoms: C3_3  and  C6_6 
REMARK    3  A    between atoms: C5_5  and  C7_7 
ROOT
HETATM    1  C1  UNL     1     -34.778   5.872   6.283  1.00 20.00     0.011 A 
HETATM    2  C2  UNL     1     -33.674   6.672   5.642  1.00 20.00    -0.009 A 
HETATM    3  C3  UNL     1     -34.591   5.833   4.790  1.00 20.00     0.004 A 
ENDROOT
BRANCH   2   4
HETATM    4  C5  UNL     1     -33.758   8.158   5.591  1.00 20.00     0.005 C 
BRANCH   4   5
HETATM    5  C7  UNL     1     -32.534   8.796   4.912  1.00 20.00    -0.004 C 
HETATM    6  C4  UNL     1     -32.470   8.497   3.423  1.00 20.00     0.005 C 
ENDBRANCH   4   5
ENDBRANCH   2   4
BRANCH   3   7
HETATM    7  C6  UNL     1     -34.078   4.599   4.131  1.00 20.00     0.119 C 
HETATM    8 CL8  UNL     1     -33.038   4.994   2.735  1.00 20.00    -0.130 Cl
ENDBRANCH   3   7
TORSDOF 3
ENDMDL
MODEL 3
REMARK VINA RESULT:      -4.8      1.323      1.323
REMARK  3 active torsions:
REMARK  status: ('A' for Active; 'I' for Inactive)
REMARK    1  A    between atoms: C2_2  and  C5_5 
REMARK    2  A    between atoms: C3_3  and  C6_6 
REMARK    3  A    between atoms: C5_5  and  C7_7 
ROOT
HETATM    1  C1  UNL     1     -32.569   8.975   4.870  1.00 20.00     0.011 A 
HETATM    2  C2  UNL     1     -33.573   7.854   4.944  1.00 20.00    -0.009 A 
HETATM    3  C3  UNL     1     -32.301   7.676   4.158  1.00 20.00     0.004 A 
ENDROOT
BRANCH   2   4
HETATM    4  C5  UNL     1     -33.773   7.111   6.220  1.00 20.00     0.005 C 
BRANCH   4   5
HETATM    5  C7  UNL     1     -34.571   5.810   6.026  1.00 20.00    -0.004 C 
HETATM    6  C4  UNL     1     -35.203   5.712   4.647  1.00 20.00     0.005 C 
ENDBRANCH   4   5
ENDBRANCH   2   4
BRANCH   3   7
HETATM    7  C6  UNL     1     -32.344   7.614   2.669  1.00 20.00     0.119 C 
HETATM    8 CL8  UNL     1     -32.721   9.211   1.965  1.00 20.00    -0.130 Cl
ENDBRANCH   3   7
TORSDOF 3
ENDMDL
MODEL 4
REMARK VINA RESULT:      -4.6      1.807      2.617
REMARK  3 active torsions:
REMARK  status: ('A' for Active; 'I' for Inactive)
REMARK    1  A    between atoms: C2_2  and  C5_5 
REMARK    2  A    between atoms: C3_3  and  C6_6 
REMARK    3  A    between atoms: C5_5  and  C7_7 
ROOT
HETATM    1  C1  UNL     1     -32.983   5.212   2.659  1.00 20.00     0.011 A 
HETATM    2  C2  UNL     1     -33.335   5.502   4.095  1.00 20.00    -0.009 A 
HETATM    3  C3  UNL     1     -33.184   6.634   3.113  1.00 20.00     0.004 A 
ENDROOT
BRANCH   2   4
HETATM    4  C5  UNL     1     -34.681   5.145   4.623  1.00 20.00     0.005 C 
BRANCH   4   5
HETATM    5  C7  UNL     1     -34.807   5.393   6.136  1.00 20.00    -0.004 C 
HETATM    6  C4  UNL     1     -34.261   6.748   6.553  1.00 20.00     0.005 C 
ENDBRANCH   4   5
ENDBRANCH   2   4
BRANCH   3   7
HETATM    7  C6  UNL     1     -32.022   7.561   3.212  1.00 20.00     0.119 C 
HETATM    8 CL8  UNL     1     -32.253   8.753   4.520  1.00 20.00    -0.130 Cl
ENDBRANCH   3   7
TORSDOF 3
ENDMDL
MODEL 5
REMARK VINA RESULT:      -4.3      1.702      2.639
REMARK  3 active torsions:
REMARK  status: ('A' for Active; 'I' for Inactive)
REMARK    1  A    between atoms: C2_2  and  C5_5 
REMARK    2  A    between atoms: C3_3  and  C6_6 
REMARK    3  A    between atoms: C5_5  and  C7_7 
ROOT
HETATM    1  C1  UNL     1     -34.383   6.877   6.545  1.00 20.00     0.011 A 
HETATM    2  C2  UNL     1     -34.638   6.536   5.100  1.00 20.00    -0.009 A 
HETATM    3  C3  UNL     1     -33.300   7.084   5.520  1.00 20.00     0.004 A 
ENDROOT
BRANCH   2   4
HETATM    4  C5  UNL     1     -34.764   5.114   4.676  1.00 20.00     0.005 C 
BRANCH   4   5
HETATM    5  C7  UNL     1     -33.474   4.572   4.038  1.00 20.00    -0.004 C 
HETATM    6  C4  UNL     1     -33.208   5.163   2.663  1.00 20.00     0.005 C 
ENDBRANCH   4   5
ENDBRANCH   2   4
BRANCH   3   7
HETATM    7  C6  UNL     1     -32.897   8.463   5.124  1.00 20.00     0.119 C 
HETATM    8 CL8  UNL     1     -32.547   8.559   3.376  1.00 20.00    -0.130 Cl
ENDBRANCH   3   7
TORSDOF 3
ENDMDL
MODEL 6
REMARK VINA RESULT:      -4.2      1.780      3.215
REMARK  3 active torsions:
REMARK  status: ('A' for Active; 'I' for Inactive)
REMARK    1  A    between atoms: C2_2  and  C5_5 
REMARK    2  A    between atoms: C3_3  and  C6_6 
REMARK    3  A    between atoms: C5_5  and  C7_7 
ROOT
HETATM    1  C1  UNL     1     -32.643   8.975   5.232  1.00 20.00     0.011 A 
HETATM    2  C2  UNL     1     -32.464   7.740   4.388  1.00 20.00    -0.009 A 
HETATM    3  C3  UNL     1     -33.712   7.914   5.214  1.00 20.00     0.004 A 
ENDROOT
BRANCH   2   4
HETATM    4  C5  UNL     1     -32.532   7.830   2.903  1.00 20.00     0.005 C 
BRANCH   4   5
HETATM    5  C7  UNL     1     -32.239   6.485   2.216  1.00 20.00    -0.004 C 
HETATM    6  C4  UNL     1     -33.039   5.338   2.812  1.00 20.00     0.005 C 
ENDBRANCH   4   5
ENDBRANCH   2   4
BRANCH   3   7
HETATM    7  C6  UNL     1     -33.940   7.061   6.414  1.00 20.00     0.119 C 
HETATM    8 CL8  UNL     1     -34.797   5.555   5.986  1.00 20.00    -0.130 Cl
ENDBRANCH   3   7
TORSDOF 3
ENDMDL
MODEL 7
REMARK VINA RESULT:      -4.2      2.103      4.053
REMARK  3 active torsions:
REMARK  status: ('A' for Active; 'I' for Inactive)
REMARK    1  A    between atoms: C2_2  and  C5_5 
REMARK    2  A    between atoms: C3_3  and  C6_6 
REMARK    3  A    between atoms: C5_5  and  C7_7 
ROOT
HETATM    1  C1  UNL     1     -35.518   5.613   4.197  1.00 20.00     0.011 A 
HETATM    2  C2  UNL     1     -34.082   6.065   4.130  1.00 20.00    -0.009 A 
HETATM    3  C3  UNL     1     -34.509   5.063   5.171  1.00 20.00     0.004 A 
ENDROOT
BRANCH   2   4
HETATM    4  C5  UNL     1     -33.215   5.640   2.996  1.00 20.00     0.005 C 
BRANCH   4   5
HETATM    5  C7  UNL     1     -32.193   6.719   2.598  1.00 20.00    -0.004 C 
HETATM    6  C4  UNL     1     -32.202   7.909   3.543  1.00 20.00     0.005 C 
ENDBRANCH   4   5
ENDBRANCH   2   4
BRANCH   3   7
HETATM    7  C6  UNL     1     -34.565   5.455   6.608  1.00 20.00     0.119 C 
HETATM    8 CL8  UNL     1     -34.244   7.198   6.818  1.00 20.00    -0.130 Cl
ENDBRANCH   3   7
TORSDOF 3
ENDMDL
MODEL 8
REMARK VINA RESULT:      -4.1      2.017      3.606
REMARK  3 active torsions:
REMARK  status: ('A' for Active; 'I' for Inactive)
REMARK    1  A    between atoms: C2_2  and  C5_5 
REMARK    2  A    between atoms: C3_3  and  C6_6 
REMARK    3  A    between atoms: C5_5  and  C7_7 
ROOT
HETATM    1  C1  UNL     1     -33.026   5.162   2.590  1.00 20.00     0.011 A 
HETATM    2  C2  UNL     1     -33.236   6.537   3.168  1.00 20.00    -0.009 A 
HETATM    3  C3  UNL     1     -33.287   5.327   4.063  1.00 20.00     0.004 A 
ENDROOT
BRANCH   2   4
HETATM    4  C5  UNL     1     -32.096   7.491   3.266  1.00 20.00     0.005 C 
BRANCH   4   5
HETATM    5  C7  UNL     1     -32.177   8.383   4.516  1.00 20.00    -0.004 C 
HETATM    6  C4  UNL     1     -33.598   8.531   5.037  1.00 20.00     0.005 C 
ENDBRANCH   4   5
ENDBRANCH   2   4
BRANCH   3   7
HETATM    7  C6  UNL     1     -34.583   4.884   4.649  1.00 20.00     0.119 C 
HETATM    8 CL8  UNL     1     -34.739   5.406   6.349  1.00 20.00    -0.130 Cl
ENDBRANCH   3   7
TORSDOF 3
ENDMDL
MODEL 9
REMARK VINA RESULT:      -4.0      1.331      3.434
REMARK  3 active torsions:
REMARK  status: ('A' for Active; 'I' for Inactive)
REMARK    1  A    between atoms: C2_2  and  C5_5 
REMARK    2  A    between atoms: C3_3  and  C6_6 
REMARK    3  A    between atoms: C5_5  and  C7_7 
ROOT
HETATM    1  C1  UNL     1     -33.995   7.963   6.009  1.00 20.00     0.011 A 
HETATM    2  C2  UNL     1     -32.994   7.447   5.007  1.00 20.00    -0.009 A 
HETATM    3  C3  UNL     1     -34.388   6.876   5.043  1.00 20.00     0.004 A 
ENDROOT
BRANCH   2   4
HETATM    4  C5  UNL     1     -32.567   8.303   3.866  1.00 20.00     0.005 C 
BRANCH   4   5
HETATM    5  C7  UNL     1     -32.189   7.483   2.621  1.00 20.00    -0.004 C 
HETATM    6  C4  UNL     1     -32.208   8.313   1.347  1.00 20.00     0.005 C 
ENDBRANCH   4   5
ENDBRANCH   2   4
BRANCH   3   7
HETATM    7  C6  UNL     1     -34.615   5.487   5.530  1.00 20.00     0.119 C 
HETATM    8 CL8  UNL     1     -34.049   4.282   4.341  1.00 20.00    -0.130 Cl
ENDBRANCH   3   7
TORSDOF 3
ENDMDL
