MODEL 1
REMARK VINA RESULT:      -4.4      0.000      0.000
REMARK  2 active torsions:
REMARK  status: ('A' for Active; 'I' for Inactive)
REMARK    1  A    between atoms: C6_6  and  C7_7 
REMARK    2  A    between atoms: C8_8  and  C9_9 
ROOT
HETATM    1  C1  UNL     1     -34.031   7.656   5.807  1.00 20.00     0.031 C 
HETATM    2  C2  UNL     1     -35.012   6.017   4.178  1.00 20.00     0.031 C 
HETATM    3  C4  UNL     1     -33.685   6.464   6.691  1.00 20.00     0.168 C 
HETATM    4  C5  UNL     1     -34.612   4.916   5.154  1.00 20.00     0.168 C 
HETATM    5  C6  UNL     1     -34.135   7.268   4.327  1.00 20.00    -0.006 C 
HETATM    6  O10 UNL     1     -34.618   5.402   6.495  1.00 20.00    -0.391 OA
ENDROOT
BRANCH   5   7
HETATM    7  C7  UNL     1     -32.755   7.065   3.699  1.00 20.00    -0.005 A 
HETATM    8  C3  UNL     1     -31.640   8.012   4.028  1.00 20.00     0.011 A 
HETATM    9  C8  UNL     1     -32.219   7.986   2.638  1.00 20.00     0.004 A 
BRANCH   9  10
HETATM   10  C9  UNL     1     -32.983   9.154   2.119  1.00 20.00     0.119 C 
HETATM   11 CL11 UNL     1     -32.680   9.403   0.376  1.00 20.00    -0.130 Cl
ENDBRANCH   9  10
ENDBRANCH   5   7
TORSDOF 2
ENDMDL
MODEL 2
REMARK VINA RESULT:      -4.2      1.201      1.272
REMARK  2 active torsions:
REMARK  status: ('A' for Active; 'I' for Inactive)
REMARK    1  A    between atoms: C6_6  and  C7_7 
REMARK    2  A    between atoms: C8_8  and  C9_9 
ROOT
HETATM    1  C1  UNL     1     -34.636   6.571   6.229  1.00 20.00     0.031 C 
HETATM    2  C2  UNL     1     -34.467   6.197   3.753  1.00 20.00     0.031 C 
HETATM    3  C4  UNL     1     -34.129   5.145   6.409  1.00 20.00     0.168 C 
HETATM    4  C5  UNL     1     -33.970   4.791   4.071  1.00 20.00     0.168 C 
HETATM    5  C6  UNL     1     -34.187   7.181   4.896  1.00 20.00    -0.006 C 
HETATM    6  O10 UNL     1     -34.517   4.328   5.305  1.00 20.00    -0.391 OA
ENDROOT
BRANCH   5   7
HETATM    7  C7  UNL     1     -32.714   7.595   4.933  1.00 20.00    -0.005 A 
HETATM    8  C3  UNL     1     -32.349   9.034   5.139  1.00 20.00     0.011 A 
HETATM    9  C8  UNL     1     -32.075   8.371   3.815  1.00 20.00     0.004 A 
BRANCH   9  10
HETATM   10  C9  UNL     1     -32.818   8.792   2.595  1.00 20.00     0.119 C 
HETATM   11 CL11 UNL     1     -32.054   8.145   1.116  1.00 20.00    -0.130 Cl
ENDBRANCH   9  10
ENDBRANCH   5   7
TORSDOF 2
ENDMDL
MODEL 3
REMARK VINA RESULT:      -4.1     11.874     12.679
REMARK  2 active torsions:
REMARK  status: ('A' for Active; 'I' for Inactive)
REMARK    1  A    between atoms: C6_6  and  C7_7 
REMARK    2  A    between atoms: C8_8  and  C9_9 
ROOT
HETATM    1  C1  UNL     1     -34.061  17.650  -4.520  1.00 20.00     0.031 C 
HETATM    2  C2  UNL     1     -32.945  15.493  -3.886  1.00 20.00     0.031 C 
HETATM    3  C4  UNL     1     -35.279  16.824  -4.913  1.00 20.00     0.168 C 
HETATM    4  C5  UNL     1     -34.226  14.787  -4.316  1.00 20.00     0.168 C 
HETATM    5  C6  UNL     1     -33.200  16.946  -3.465  1.00 20.00    -0.006 C 
HETATM    6  O10 UNL     1     -34.889  15.520  -5.344  1.00 20.00    -0.391 OA
ENDROOT
BRANCH   5   7
HETATM    7  C7  UNL     1     -33.836  17.025  -2.075  1.00 20.00    -0.005 A 
HETATM    8  C3  UNL     1     -34.445  18.312  -1.606  1.00 20.00     0.011 A 
HETATM    9  C8  UNL     1     -33.196  17.787  -0.948  1.00 20.00     0.004 A 
BRANCH   9  10
HETATM   10  C9  UNL     1     -31.905  18.516  -1.093  1.00 20.00     0.119 C 
HETATM   11 CL11 UNL     1     -30.951  18.448   0.414  1.00 20.00    -0.130 Cl
ENDBRANCH   9  10
ENDBRANCH   5   7
TORSDOF 2
ENDMDL
MODEL 4
REMARK VINA RESULT:      -3.8     11.939     13.138
REMARK  2 active torsions:
REMARK  status: ('A' for Active; 'I' for Inactive)
REMARK    1  A    between atoms: C6_6  and  C7_7 
REMARK    2  A    between atoms: C8_8  and  C9_9 
ROOT
HETATM    1  C1  UNL     1     -34.051  15.617  -6.702  1.00 20.00     0.031 C 
HETATM    2  C2  UNL     1     -34.835  14.474  -4.609  1.00 20.00     0.031 C 
HETATM    3  C4  UNL     1     -35.426  15.328  -7.292  1.00 20.00     0.168 C 
HETATM    4  C5  UNL     1     -36.167  14.247  -5.317  1.00 20.00     0.168 C 
HETATM    5  C6  UNL     1     -34.082  15.687  -5.171  1.00 20.00    -0.006 C 
HETATM    6  O10 UNL     1     -35.979  14.139  -6.727  1.00 20.00    -0.391 OA
ENDROOT
BRANCH   5   7
HETATM    7  C7  UNL     1     -34.689  17.003  -4.679  1.00 20.00    -0.005 A 
HETATM    8  C3  UNL     1     -33.855  18.248  -4.661  1.00 20.00     0.011 A 
HETATM    9  C8  UNL     1     -34.297  17.620  -3.365  1.00 20.00     0.004 A 
BRANCH   9  10
HETATM   10  C9  UNL     1     -33.297  17.005  -2.448  1.00 20.00     0.119 C 
HETATM   11 CL11 UNL     1     -33.651  17.403  -0.744  1.00 20.00    -0.130 Cl
ENDBRANCH   9  10
ENDBRANCH   5   7
TORSDOF 2
ENDMDL
MODEL 5
REMARK VINA RESULT:      -3.5     11.805     13.418
REMARK  2 active torsions:
REMARK  status: ('A' for Active; 'I' for Inactive)
REMARK    1  A    between atoms: C6_6  and  C7_7 
REMARK    2  A    between atoms: C8_8  and  C9_9 
ROOT
HETATM    1  C1  UNL     1     -36.015  15.693  -5.399  1.00 20.00     0.031 C 
HETATM    2  C2  UNL     1     -34.484  17.011  -6.889  1.00 20.00     0.031 C 
HETATM    3  C4  UNL     1     -35.812  14.518  -6.347  1.00 20.00     0.168 C 
HETATM    4  C5  UNL     1     -34.368  15.761  -7.755  1.00 20.00     0.168 C 
HETATM    5  C6  UNL     1     -34.838  16.675  -5.434  1.00 20.00    -0.006 C 
HETATM    6  O10 UNL     1     -35.556  14.977  -7.675  1.00 20.00    -0.391 OA
ENDROOT
BRANCH   5   7
HETATM    7  C7  UNL     1     -33.627  16.130  -4.673  1.00 20.00    -0.005 A 
HETATM    8  C3  UNL     1     -33.833  15.223  -3.497  1.00 20.00     0.011 A 
HETATM    9  C8  UNL     1     -33.274  16.606  -3.291  1.00 20.00     0.004 A 
BRANCH   9  10
HETATM   10  C9  UNL     1     -34.066  17.636  -2.563  1.00 20.00     0.119 C 
HETATM   11 CL11 UNL     1     -33.743  17.579  -0.808  1.00 20.00    -0.130 Cl
ENDBRANCH   9  10
ENDBRANCH   5   7
TORSDOF 2
ENDMDL
MODEL 6
REMARK VINA RESULT:      -3.5     10.232     11.259
REMARK  2 active torsions:
REMARK  status: ('A' for Active; 'I' for Inactive)
REMARK    1  A    between atoms: C6_6  and  C7_7 
REMARK    2  A    between atoms: C8_8  and  C9_9 
ROOT
HETATM    1  C1  UNL     1     -41.024  14.180   9.092  1.00 20.00     0.031 C 
HETATM    2  C2  UNL     1     -40.389  16.155   7.678  1.00 20.00     0.031 C 
HETATM    3  C4  UNL     1     -42.261  14.966   9.510  1.00 20.00     0.168 C 
HETATM    4  C5  UNL     1     -41.662  16.831   8.177  1.00 20.00     0.168 C 
HETATM    5  C6  UNL     1     -40.492  14.625   7.724  1.00 20.00    -0.006 C 
HETATM    6  O10 UNL     1     -42.002  16.370   9.483  1.00 20.00    -0.391 OA
ENDROOT
BRANCH   5   7
HETATM    7  C7  UNL     1     -41.355  14.085   6.581  1.00 20.00    -0.005 A 
HETATM    8  C3  UNL     1     -41.975  12.725   6.694  1.00 20.00     0.011 A 
HETATM    9  C8  UNL     1     -40.885  12.973   5.685  1.00 20.00     0.004 A 
BRANCH   9  10
HETATM   10  C9  UNL     1     -39.556  12.318   5.837  1.00 20.00     0.119 C 
HETATM   11 CL11 UNL     1     -38.956  11.700   4.272  1.00 20.00    -0.130 Cl
ENDBRANCH   9  10
ENDBRANCH   5   7
TORSDOF 2
ENDMDL
MODEL 7
REMARK VINA RESULT:      -3.4     12.070     13.866
REMARK  2 active torsions:
REMARK  status: ('A' for Active; 'I' for Inactive)
REMARK    1  A    between atoms: C6_6  and  C7_7 
REMARK    2  A    between atoms: C8_8  and  C9_9 
ROOT
HETATM    1  C1  UNL     1     -36.437  16.072  -5.590  1.00 20.00     0.031 C 
HETATM    2  C2  UNL     1     -34.934  18.074  -5.782  1.00 20.00     0.031 C 
HETATM    3  C4  UNL     1     -36.309  15.918  -7.100  1.00 20.00     0.168 C 
HETATM    4  C5  UNL     1     -34.891  17.808  -7.283  1.00 20.00     0.168 C 
HETATM    5  C6  UNL     1     -35.234  16.802  -4.978  1.00 20.00    -0.006 C 
HETATM    6  O10 UNL     1     -36.097  17.186  -7.722  1.00 20.00    -0.391 OA
ENDROOT
BRANCH   5   7
HETATM    7  C7  UNL     1     -34.008  15.890  -4.890  1.00 20.00    -0.005 A 
HETATM    8  C3  UNL     1     -34.053  14.663  -4.030  1.00 20.00     0.011 A 
HETATM    9  C8  UNL     1     -33.159  15.814  -3.651  1.00 20.00     0.004 A 
BRANCH   9  10
HETATM   10  C9  UNL     1     -33.440  16.614  -2.427  1.00 20.00     0.119 C 
HETATM   11 CL11 UNL     1     -32.877  18.299  -2.611  1.00 20.00    -0.130 Cl
ENDBRANCH   9  10
ENDBRANCH   5   7
TORSDOF 2
ENDMDL
MODEL 8
REMARK VINA RESULT:      -3.4     12.805     13.813
REMARK  2 active torsions:
REMARK  status: ('A' for Active; 'I' for Inactive)
REMARK    1  A    between atoms: C6_6  and  C7_7 
REMARK    2  A    between atoms: C8_8  and  C9_9 
ROOT
HETATM    1  C1  UNL     1     -27.070  -0.402  11.206  1.00 20.00     0.031 C 
HETATM    2  C2  UNL     1     -27.975  -2.413  10.005  1.00 20.00     0.031 C 
HETATM    3  C4  UNL     1     -28.123  -0.656  12.278  1.00 20.00     0.168 C 
HETATM    4  C5  UNL     1     -28.979  -2.552  11.144  1.00 20.00     0.168 C 
HETATM    5  C6  UNL     1     -26.699  -1.682  10.445  1.00 20.00    -0.006 C 
HETATM    6  O10 UNL     1     -29.277  -1.280  11.716  1.00 20.00    -0.391 OA
ENDROOT
BRANCH   5   7
HETATM    7  C7  UNL     1     -25.791  -2.589  11.278  1.00 20.00    -0.005 A 
HETATM    8  C3  UNL     1     -24.414  -2.127  11.648  1.00 20.00     0.011 A 
HETATM    9  C8  UNL     1     -24.589  -3.272  10.686  1.00 20.00     0.004 A 
BRANCH   9  10
HETATM   10  C9  UNL     1     -24.194  -3.122   9.258  1.00 20.00     0.119 C 
HETATM   11 CL11 UNL     1     -22.613  -3.889   8.940  1.00 20.00    -0.130 Cl
ENDBRANCH   9  10
ENDBRANCH   5   7
TORSDOF 2
ENDMDL
MODEL 9
REMARK VINA RESULT:      -3.3     11.773     12.783
REMARK  2 active torsions:
REMARK  status: ('A' for Active; 'I' for Inactive)
REMARK    1  A    between atoms: C6_6  and  C7_7 
REMARK    2  A    between atoms: C8_8  and  C9_9 
ROOT
HETATM    1  C1  UNL     1     -32.850  17.409  -2.419  1.00 20.00     0.031 C 
HETATM    2  C2  UNL     1     -34.577  18.081  -4.113  1.00 20.00     0.031 C 
HETATM    3  C4  UNL     1     -33.890  17.706  -1.345  1.00 20.00     0.168 C 
HETATM    4  C5  UNL     1     -35.520  18.340  -2.943  1.00 20.00     0.168 C 
HETATM    5  C6  UNL     1     -33.494  17.051  -3.764  1.00 20.00    -0.006 C 
HETATM    6  O10 UNL     1     -34.790  18.725  -1.780  1.00 20.00    -0.391 OA
ENDROOT
BRANCH   5   7
HETATM    7  C7  UNL     1     -34.053  15.626  -3.760  1.00 20.00    -0.005 A 
HETATM    8  C3  UNL     1     -33.192  14.487  -4.215  1.00 20.00     0.011 A 
HETATM    9  C8  UNL     1     -34.388  14.898  -5.031  1.00 20.00     0.004 A 
BRANCH   9  10
HETATM   10  C9  UNL     1     -34.207  15.501  -6.381  1.00 20.00     0.119 C 
HETATM   11 CL11 UNL     1     -35.736  15.492  -7.304  1.00 20.00    -0.130 Cl
ENDBRANCH   9  10
ENDBRANCH   5   7
TORSDOF 2
ENDMDL
