MODEL 1
REMARK VINA RESULT:      -5.0      0.000      0.000
REMARK  2 active torsions:
REMARK  status: ('A' for Active; 'I' for Inactive)
REMARK    1  A    between atoms: C5_5  and  C8_8 
REMARK    2  A    between atoms: C9_9  and  C10_10 
ROOT
HETATM    1  C1  UNL     1     -31.145  18.264  -0.197  1.00 20.00     0.009 A 
HETATM    2  C2  UNL     1     -33.470  18.658   0.332  1.00 20.00     0.009 A 
HETATM    3  C3  UNL     1     -30.797  18.543   1.124  1.00 20.00     0.019 A 
HETATM    4  C4  UNL     1     -33.121  18.938   1.653  1.00 20.00     0.019 A 
HETATM    5  C5  UNL     1     -32.482  18.321  -0.593  1.00 20.00    -0.053 A 
HETATM    6  C6  UNL     1     -31.785  18.880   2.049  1.00 20.00     0.011 A 
HETATM    7 BR12 UNL     1     -31.313  19.259   3.840  1.00 20.00    -0.051 Br
ENDROOT
BRANCH   5   8
HETATM    8  C8  UNL     1     -32.859  18.018  -2.024  1.00 20.00     0.024 A 
HETATM    9  C7  UNL     1     -34.316  17.937  -2.428  1.00 20.00     0.016 A 
HETATM   10  C9  UNL     1     -33.490  16.687  -2.375  1.00 20.00     0.008 A 
BRANCH  10  11
HETATM   11  C10 UNL     1     -33.106  15.987  -3.632  1.00 20.00     0.119 C 
HETATM   12 CL11 UNL     1     -34.044  14.483  -3.847  1.00 20.00    -0.130 Cl
ENDBRANCH  10  11
ENDBRANCH   5   8
TORSDOF 2
ENDMDL
MODEL 2
REMARK VINA RESULT:      -4.5      4.322      6.310
REMARK  2 active torsions:
REMARK  status: ('A' for Active; 'I' for Inactive)
REMARK    1  A    between atoms: C5_5  and  C8_8 
REMARK    2  A    between atoms: C9_9  and  C10_10 
ROOT
HETATM    1  C1  UNL     1     -34.536  17.612  -3.781  1.00 20.00     0.009 A 
HETATM    2  C2  UNL     1     -33.301  15.540  -3.639  1.00 20.00     0.009 A 
HETATM    3  C3  UNL     1     -34.951  17.277  -5.069  1.00 20.00     0.019 A 
HETATM    4  C4  UNL     1     -33.716  15.205  -4.928  1.00 20.00     0.019 A 
HETATM    5  C5  UNL     1     -33.712  16.743  -3.066  1.00 20.00    -0.053 A 
HETATM    6  C6  UNL     1     -34.541  16.073  -5.643  1.00 20.00     0.011 A 
HETATM    7 BR12 UNL     1     -35.103  15.619  -7.390  1.00 20.00    -0.051 Br
ENDROOT
BRANCH   5   8
HETATM    8  C8  UNL     1     -33.262  17.107  -1.670  1.00 20.00     0.024 A 
HETATM    9  C7  UNL     1     -33.902  18.271  -0.942  1.00 20.00     0.016 A 
HETATM   10  C9  UNL     1     -32.490  18.388  -1.433  1.00 20.00     0.008 A 
BRANCH  10  11
HETATM   11  C10 UNL     1     -31.358  18.409  -0.466  1.00 20.00     0.119 C 
HETATM   12 CL11 UNL     1     -31.943  18.597   1.210  1.00 20.00    -0.130 Cl
ENDBRANCH  10  11
ENDBRANCH   5   8
TORSDOF 2
ENDMDL
MODEL 3
REMARK VINA RESULT:      -4.5      4.365      6.301
REMARK  2 active torsions:
REMARK  status: ('A' for Active; 'I' for Inactive)
REMARK    1  A    between atoms: C5_5  and  C8_8 
REMARK    2  A    between atoms: C9_9  and  C10_10 
ROOT
HETATM    1  C1  UNL     1     -33.371  15.428  -3.791  1.00 20.00     0.009 A 
HETATM    2  C2  UNL     1     -34.396  17.607  -3.990  1.00 20.00     0.009 A 
HETATM    3  C3  UNL     1     -33.780  15.117  -5.087  1.00 20.00     0.019 A 
HETATM    4  C4  UNL     1     -34.805  17.295  -5.287  1.00 20.00     0.019 A 
HETATM    5  C5  UNL     1     -33.679  16.673  -3.243  1.00 20.00    -0.053 A 
HETATM    6  C6  UNL     1     -34.498  16.050  -5.835  1.00 20.00     0.011 A 
HETATM    7 BR12 UNL     1     -35.051  15.628  -7.593  1.00 20.00    -0.051 Br
ENDROOT
BRANCH   5   8
HETATM    8  C8  UNL     1     -33.236  17.009  -1.838  1.00 20.00     0.024 A 
HETATM    9  C7  UNL     1     -33.980  18.055  -1.034  1.00 20.00     0.016 A 
HETATM   10  C9  UNL     1     -32.603  18.354  -1.546  1.00 20.00     0.008 A 
BRANCH  10  11
HETATM   11  C10 UNL     1     -31.455  18.450  -0.602  1.00 20.00     0.119 C 
HETATM   12 CL11 UNL     1     -32.016  18.536   1.091  1.00 20.00    -0.130 Cl
ENDBRANCH  10  11
ENDBRANCH   5   8
TORSDOF 2
ENDMDL
MODEL 4
REMARK VINA RESULT:      -4.2      4.212      6.128
REMARK  2 active torsions:
REMARK  status: ('A' for Active; 'I' for Inactive)
REMARK    1  A    between atoms: C5_5  and  C8_8 
REMARK    2  A    between atoms: C9_9  and  C10_10 
ROOT
HETATM    1  C1  UNL     1     -34.739  18.149  -3.648  1.00 20.00     0.009 A 
HETATM    2  C2  UNL     1     -33.248  16.388  -2.931  1.00 20.00     0.009 A 
HETATM    3  C3  UNL     1     -35.211  17.331  -4.675  1.00 20.00     0.019 A 
HETATM    4  C4  UNL     1     -33.719  15.571  -3.959  1.00 20.00     0.019 A 
HETATM    5  C5  UNL     1     -33.758  17.677  -2.776  1.00 20.00    -0.053 A 
HETATM    6  C6  UNL     1     -34.700  16.042  -4.830  1.00 20.00     0.011 A 
HETATM    7 BR12 UNL     1     -35.339  14.934  -6.222  1.00 20.00    -0.051 Br
ENDROOT
BRANCH   5   8
HETATM    8  C8  UNL     1     -33.248  18.562  -1.664  1.00 20.00     0.024 A 
HETATM    9  C7  UNL     1     -32.047  18.141  -0.844  1.00 20.00     0.016 A 
HETATM   10  C9  UNL     1     -33.410  18.134  -0.220  1.00 20.00     0.008 A 
BRANCH  10  11
HETATM   11  C10 UNL     1     -33.765  19.138   0.821  1.00 20.00     0.119 C 
HETATM   12 CL11 UNL     1     -32.487  19.262   2.061  1.00 20.00    -0.130 Cl
ENDBRANCH  10  11
ENDBRANCH   5   8
TORSDOF 2
ENDMDL
MODEL 5
REMARK VINA RESULT:      -3.9     11.738     12.746
REMARK  2 active torsions:
REMARK  status: ('A' for Active; 'I' for Inactive)
REMARK    1  A    between atoms: C5_5  and  C8_8 
REMARK    2  A    between atoms: C9_9  and  C10_10 
ROOT
HETATM    1  C1  UNL     1     -40.269  14.430   9.050  1.00 20.00     0.009 A 
HETATM    2  C2  UNL     1     -42.365  13.774   8.042  1.00 20.00     0.009 A 
HETATM    3  C3  UNL     1     -40.918  14.628  10.268  1.00 20.00     0.019 A 
HETATM    4  C4  UNL     1     -43.013  13.973   9.261  1.00 20.00     0.019 A 
HETATM    5  C5  UNL     1     -40.993  14.002   7.937  1.00 20.00    -0.053 A 
HETATM    6  C6  UNL     1     -42.290  14.400  10.373  1.00 20.00     0.011 A 
HETATM    7 BR12 UNL     1     -43.169  14.670  12.025  1.00 20.00    -0.051 Br
ENDROOT
BRANCH   5   8
HETATM    8  C8  UNL     1     -40.290  13.786   6.617  1.00 20.00     0.024 A 
HETATM    9  C7  UNL     1     -41.035  13.179   5.447  1.00 20.00     0.016 A 
HETATM   10  C9  UNL     1     -39.976  12.381   6.148  1.00 20.00     0.008 A 
BRANCH  10  11
HETATM   11  C10 UNL     1     -38.682  12.092   5.469  1.00 20.00     0.119 C 
HETATM   12 CL11 UNL     1     -38.933  11.643   3.760  1.00 20.00    -0.130 Cl
ENDBRANCH  10  11
ENDBRANCH   5   8
TORSDOF 2
ENDMDL
MODEL 6
REMARK VINA RESULT:      -3.9     11.658     12.722
REMARK  2 active torsions:
REMARK  status: ('A' for Active; 'I' for Inactive)
REMARK    1  A    between atoms: C5_5  and  C8_8 
REMARK    2  A    between atoms: C9_9  and  C10_10 
ROOT
HETATM    1  C1  UNL     1     -42.338  13.816   8.077  1.00 20.00     0.009 A 
HETATM    2  C2  UNL     1     -40.194  14.544   8.921  1.00 20.00     0.009 A 
HETATM    3  C3  UNL     1     -42.918  14.088   9.316  1.00 20.00     0.019 A 
HETATM    4  C4  UNL     1     -40.775  14.815  10.160  1.00 20.00     0.019 A 
HETATM    5  C5  UNL     1     -40.976  14.045   7.880  1.00 20.00    -0.053 A 
HETATM    6  C6  UNL     1     -42.136  14.588  10.357  1.00 20.00     0.011 A 
HETATM    7 BR12 UNL     1     -42.923  14.956  12.036  1.00 20.00    -0.051 Br
ENDROOT
BRANCH   5   8
HETATM    8  C8  UNL     1     -40.348  13.750   6.538  1.00 20.00     0.024 A 
HETATM    9  C7  UNL     1     -41.097  12.928   5.510  1.00 20.00     0.016 A 
HETATM   10  C9  UNL     1     -39.905  12.341   6.203  1.00 20.00     0.008 A 
BRANCH  10  11
HETATM   11  C10 UNL     1     -38.637  12.115   5.455  1.00 20.00     0.119 C 
HETATM   12 CL11 UNL     1     -38.959  11.661   3.759  1.00 20.00    -0.130 Cl
ENDBRANCH  10  11
ENDBRANCH   5   8
TORSDOF 2
ENDMDL
MODEL 7
REMARK VINA RESULT:      -3.8     11.245     12.287
REMARK  2 active torsions:
REMARK  status: ('A' for Active; 'I' for Inactive)
REMARK    1  A    between atoms: C5_5  and  C8_8 
REMARK    2  A    between atoms: C9_9  and  C10_10 
ROOT
HETATM    1  C1  UNL     1     -40.266  15.481   7.985  1.00 20.00     0.009 A 
HETATM    2  C2  UNL     1     -42.020  13.839   8.245  1.00 20.00     0.009 A 
HETATM    3  C3  UNL     1     -40.715  16.140   9.129  1.00 20.00     0.019 A 
HETATM    4  C4  UNL     1     -42.469  14.499   9.388  1.00 20.00     0.019 A 
HETATM    5  C5  UNL     1     -40.919  14.329   7.543  1.00 20.00    -0.053 A 
HETATM    6  C6  UNL     1     -41.816  15.650   9.830  1.00 20.00     0.011 A 
HETATM    7 BR12 UNL     1     -42.424  16.545  11.381  1.00 20.00    -0.051 Br
ENDROOT
BRANCH   5   8
HETATM    8  C8  UNL     1     -40.433  13.615   6.304  1.00 20.00     0.024 A 
HETATM    9  C7  UNL     1     -41.010  12.267   5.926  1.00 20.00     0.016 A 
HETATM   10  C9  UNL     1     -39.602  12.355   6.434  1.00 20.00     0.008 A 
BRANCH  10  11
HETATM   11  C10 UNL     1     -38.455  12.119   5.514  1.00 20.00     0.119 C 
HETATM   12 CL11 UNL     1     -39.016  11.584   3.906  1.00 20.00    -0.130 Cl
ENDBRANCH  10  11
ENDBRANCH   5   8
TORSDOF 2
ENDMDL
MODEL 8
REMARK VINA RESULT:      -3.7      2.728      4.057
REMARK  2 active torsions:
REMARK  status: ('A' for Active; 'I' for Inactive)
REMARK    1  A    between atoms: C5_5  and  C8_8 
REMARK    2  A    between atoms: C9_9  and  C10_10 
ROOT
HETATM    1  C1  UNL     1     -35.158  18.428  -3.126  1.00 20.00     0.009 A 
HETATM    2  C2  UNL     1     -33.385  16.818  -2.805  1.00 20.00     0.009 A 
HETATM    3  C3  UNL     1     -34.968  18.896  -1.827  1.00 20.00     0.019 A 
HETATM    4  C4  UNL     1     -33.195  17.287  -1.505  1.00 20.00     0.019 A 
HETATM    5  C5  UNL     1     -34.366  17.389  -3.616  1.00 20.00    -0.053 A 
HETATM    6  C6  UNL     1     -33.987  18.325  -1.016  1.00 20.00     0.011 A 
HETATM    7 BR12 UNL     1     -33.729  18.961   0.746  1.00 20.00    -0.051 Br
ENDROOT
BRANCH   5   8
HETATM    8  C8  UNL     1     -34.572  16.882  -5.024  1.00 20.00     0.024 A 
HETATM    9  C7  UNL     1     -35.757  17.356  -5.839  1.00 20.00     0.016 A 
HETATM   10  C9  UNL     1     -35.722  15.946  -5.330  1.00 20.00     0.008 A 
BRANCH  10  11
HETATM   11  C10 UNL     1     -35.529  14.811  -6.275  1.00 20.00     0.119 C 
HETATM   12 CL11 UNL     1     -36.083  15.237  -7.918  1.00 20.00    -0.130 Cl
ENDBRANCH  10  11
ENDBRANCH   5   8
TORSDOF 2
ENDMDL
MODEL 9
REMARK VINA RESULT:      -3.6     10.538     11.473
REMARK  2 active torsions:
REMARK  status: ('A' for Active; 'I' for Inactive)
REMARK    1  A    between atoms: C5_5  and  C8_8 
REMARK    2  A    between atoms: C9_9  and  C10_10 
ROOT
HETATM    1  C1  UNL     1     -42.122  14.152   5.552  1.00 20.00     0.009 A 
HETATM    2  C2  UNL     1     -40.484  14.430   7.307  1.00 20.00     0.009 A 
HETATM    3  C3  UNL     1     -42.678  15.390   5.876  1.00 20.00     0.019 A 
HETATM    4  C4  UNL     1     -41.041  15.667   7.630  1.00 20.00     0.019 A 
HETATM    5  C5  UNL     1     -41.024  13.673   6.267  1.00 20.00    -0.053 A 
HETATM    6  C6  UNL     1     -42.137  16.147   6.915  1.00 20.00     0.011 A 
HETATM    7 BR12 UNL     1     -42.892  17.824   7.354  1.00 20.00    -0.051 Br
ENDROOT
BRANCH   5   8
HETATM    8  C8  UNL     1     -40.422  12.333   5.917  1.00 20.00     0.024 A 
HETATM    9  C7  UNL     1     -39.056  11.949   6.445  1.00 20.00     0.016 A 
HETATM   10  C9  UNL     1     -39.227  12.260   4.989  1.00 20.00     0.008 A 
BRANCH  10  11
HETATM   11  C10 UNL     1     -39.136  11.174   3.973  1.00 20.00     0.119 C 
HETATM   12 CL11 UNL     1     -38.833  11.836   2.343  1.00 20.00    -0.130 Cl
ENDBRANCH  10  11
ENDBRANCH   5   8
TORSDOF 2
ENDMDL
