MODEL 1
REMARK VINA RESULT:      -4.6      0.000      0.000
REMARK  3 active torsions:
REMARK  status: ('A' for Active; 'I' for Inactive)
REMARK    1  A    between atoms: C2_2  and  C7_7 
REMARK    2  A    between atoms: C3_3  and  C9_9 
REMARK    3  A    between atoms: C8_8  and  C9_9 
ROOT
HETATM    1  C1  UNL     1     -31.548   7.433   3.618  1.00 20.00     0.016 A 
HETATM    2  C2  UNL     1     -32.344   7.795   2.396  1.00 20.00     0.009 A 
HETATM    3  C3  UNL     1     -32.895   6.766   3.383  1.00 20.00    -0.036 A 
HETATM    4  C4  UNL     1     -32.900   5.326   2.943  1.00 20.00     0.016 C 
ENDROOT
BRANCH   3   5
HETATM    5  C9  UNL     1     -34.035   7.134   4.294  1.00 20.00    -0.010 C 
HETATM    6  C6  UNL     1     -33.510   7.797   5.580  1.00 20.00     0.011 C 
BRANCH   5   7
HETATM    7  C8  UNL     1     -34.919   5.925   4.688  1.00 20.00     0.000 C 
HETATM    8  C5  UNL     1     -34.697   5.462   6.121  1.00 20.00     0.005 C 
ENDBRANCH   5   7
ENDBRANCH   3   5
BRANCH   2   9
HETATM    9  C7  UNL     1     -32.919   9.162   2.253  1.00 20.00     0.120 C 
HETATM   10 CL10 UNL     1     -32.833   9.725   0.561  1.00 20.00    -0.130 Cl
ENDBRANCH   2   9
TORSDOF 3
ENDMDL
MODEL 2
REMARK VINA RESULT:      -4.4      1.385      2.800
REMARK  3 active torsions:
REMARK  status: ('A' for Active; 'I' for Inactive)
REMARK    1  A    between atoms: C2_2  and  C7_7 
REMARK    2  A    between atoms: C3_3  and  C9_9 
REMARK    3  A    between atoms: C8_8  and  C9_9 
ROOT
HETATM    1  C1  UNL     1     -34.023   8.554   5.228  1.00 20.00     0.016 A 
HETATM    2  C2  UNL     1     -32.659   7.940   5.086  1.00 20.00     0.009 A 
HETATM    3  C3  UNL     1     -33.881   7.041   5.266  1.00 20.00    -0.036 A 
HETATM    4  C4  UNL     1     -34.038   6.352   6.596  1.00 20.00     0.016 C 
ENDROOT
BRANCH   3   5
HETATM    5  C9  UNL     1     -34.412   6.251   4.100  1.00 20.00    -0.010 C 
HETATM    6  C6  UNL     1     -35.908   5.941   4.291  1.00 20.00     0.011 C 
BRANCH   5   7
HETATM    7  C8  UNL     1     -33.659   4.918   3.868  1.00 20.00     0.000 C 
HETATM    8  C5  UNL     1     -32.883   4.888   2.559  1.00 20.00     0.005 C 
ENDBRANCH   5   7
ENDBRANCH   3   5
BRANCH   2   9
HETATM    9  C7  UNL     1     -31.919   8.045   3.796  1.00 20.00     0.120 C 
HETATM   10 CL10 UNL     1     -32.731   9.171   2.675  1.00 20.00    -0.130 Cl
ENDBRANCH   2   9
TORSDOF 3
ENDMDL
MODEL 3
REMARK VINA RESULT:      -4.3      1.674      2.940
REMARK  3 active torsions:
REMARK  status: ('A' for Active; 'I' for Inactive)
REMARK    1  A    between atoms: C2_2  and  C7_7 
REMARK    2  A    between atoms: C3_3  and  C9_9 
REMARK    3  A    between atoms: C8_8  and  C9_9 
ROOT
HETATM    1  C1  UNL     1     -33.908   4.486   4.187  1.00 20.00     0.016 A 
HETATM    2  C2  UNL     1     -33.657   5.491   3.099  1.00 20.00     0.009 A 
HETATM    3  C3  UNL     1     -34.399   5.914   4.366  1.00 20.00    -0.036 A 
HETATM    4  C4  UNL     1     -35.878   6.170   4.243  1.00 20.00     0.016 C 
ENDROOT
BRANCH   3   5
HETATM    5  C9  UNL     1     -33.711   6.776   5.390  1.00 20.00    -0.010 C 
HETATM    6  C6  UNL     1     -34.315   6.548   6.787  1.00 20.00     0.011 C 
BRANCH   5   7
HETATM    7  C8  UNL     1     -33.780   8.288   5.065  1.00 20.00     0.000 C 
HETATM    8  C5  UNL     1     -32.411   8.942   4.953  1.00 20.00     0.005 C 
ENDBRANCH   5   7
ENDBRANCH   3   5
BRANCH   2   9
HETATM    9  C7  UNL     1     -32.267   5.936   2.794  1.00 20.00     0.120 C 
HETATM   10 CL10 UNL     1     -32.266   7.470   1.881  1.00 20.00    -0.130 Cl
ENDBRANCH   2   9
TORSDOF 3
ENDMDL
MODEL 4
REMARK VINA RESULT:      -3.8      2.539      4.180
REMARK  3 active torsions:
REMARK  status: ('A' for Active; 'I' for Inactive)
REMARK    1  A    between atoms: C2_2  and  C7_7 
REMARK    2  A    between atoms: C3_3  and  C9_9 
REMARK    3  A    between atoms: C8_8  and  C9_9 
ROOT
HETATM    1  C1  UNL     1     -35.229   5.827   4.253  1.00 20.00     0.016 A 
HETATM    2  C2  UNL     1     -34.285   4.918   4.987  1.00 20.00     0.009 A 
HETATM    3  C3  UNL     1     -33.753   5.839   3.889  1.00 20.00    -0.036 A 
HETATM    4  C4  UNL     1     -33.343   5.194   2.592  1.00 20.00     0.016 C 
ENDROOT
BRANCH   3   5
HETATM    5  C9  UNL     1     -32.944   7.055   4.253  1.00 20.00    -0.010 C 
HETATM    6  C6  UNL     1     -33.865   8.218   4.661  1.00 20.00     0.011 C 
BRANCH   5   7
HETATM    7  C8  UNL     1     -32.017   7.538   3.111  1.00 20.00     0.000 C 
HETATM    8  C5  UNL     1     -32.501   8.817   2.445  1.00 20.00     0.005 C 
ENDBRANCH   5   7
ENDBRANCH   3   5
BRANCH   2   9
HETATM    9  C7  UNL     1     -33.999   5.142   6.433  1.00 20.00     0.120 C 
HETATM   10 CL10 UNL     1     -34.928   6.528   7.069  1.00 20.00    -0.130 Cl
ENDBRANCH   2   9
TORSDOF 3
ENDMDL
MODEL 5
REMARK VINA RESULT:      -3.6     10.217     11.334
REMARK  3 active torsions:
REMARK  status: ('A' for Active; 'I' for Inactive)
REMARK    1  A    between atoms: C2_2  and  C7_7 
REMARK    2  A    between atoms: C3_3  and  C9_9 
REMARK    3  A    between atoms: C8_8  and  C9_9 
ROOT
HETATM    1  C1  UNL     1     -42.745  14.698   7.567  1.00 20.00     0.016 A 
HETATM    2  C2  UNL     1     -41.751  14.022   8.467  1.00 20.00     0.009 A 
HETATM    3  C3  UNL     1     -42.088  13.405   7.111  1.00 20.00    -0.036 A 
HETATM    4  C4  UNL     1     -42.922  12.152   7.114  1.00 20.00     0.016 C 
ENDROOT
BRANCH   3   5
HETATM    5  C9  UNL     1     -41.093  13.476   5.983  1.00 20.00    -0.010 C 
HETATM    6  C6  UNL     1     -41.758  14.016   4.705  1.00 20.00     0.011 C 
BRANCH   5   7
HETATM    7  C8  UNL     1     -40.436  12.112   5.658  1.00 20.00     0.000 C 
HETATM    8  C5  UNL     1     -38.968  12.044   6.051  1.00 20.00     0.005 C 
ENDBRANCH   5   7
ENDBRANCH   3   5
BRANCH   2   9
HETATM    9  C7  UNL     1     -40.438  14.667   8.755  1.00 20.00     0.120 C 
HETATM   10 CL10 UNL     1     -40.403  16.352   8.165  1.00 20.00    -0.130 Cl
ENDBRANCH   2   9
TORSDOF 3
ENDMDL
MODEL 6
REMARK VINA RESULT:      -3.5      9.983     11.129
REMARK  3 active torsions:
REMARK  status: ('A' for Active; 'I' for Inactive)
REMARK    1  A    between atoms: C2_2  and  C7_7 
REMARK    2  A    between atoms: C3_3  and  C9_9 
REMARK    3  A    between atoms: C8_8  and  C9_9 
ROOT
HETATM    1  C1  UNL     1     -42.007  12.510   6.671  1.00 20.00     0.016 A 
HETATM    2  C2  UNL     1     -40.870  12.789   5.728  1.00 20.00     0.009 A 
HETATM    3  C3  UNL     1     -41.458  13.924   6.565  1.00 20.00    -0.036 A 
HETATM    4  C4  UNL     1     -42.290  14.950   5.844  1.00 20.00     0.016 C 
ENDROOT
BRANCH   3   5
HETATM    5  C9  UNL     1     -40.686  14.473   7.735  1.00 20.00    -0.010 C 
HETATM    6  C6  UNL     1     -41.442  14.218   9.052  1.00 20.00     0.011 C 
BRANCH   5   7
HETATM    7  C8  UNL     1     -40.395  15.990   7.621  1.00 20.00     0.000 C 
HETATM    8  C5  UNL     1     -40.946  16.796   8.788  1.00 20.00     0.005 C 
ENDBRANCH   5   7
ENDBRANCH   3   5
BRANCH   2   9
HETATM    9  C7  UNL     1     -39.521  12.212   5.988  1.00 20.00     0.120 C 
HETATM   10 CL10 UNL     1     -38.705  11.764   4.464  1.00 20.00    -0.130 Cl
ENDBRANCH   2   9
TORSDOF 3
ENDMDL
MODEL 7
REMARK VINA RESULT:      -3.4     11.438     12.655
REMARK  3 active torsions:
REMARK  status: ('A' for Active; 'I' for Inactive)
REMARK    1  A    between atoms: C2_2  and  C7_7 
REMARK    2  A    between atoms: C3_3  and  C9_9 
REMARK    3  A    between atoms: C8_8  and  C9_9 
ROOT
HETATM    1  C1  UNL     1     -34.436  16.061  -6.327  1.00 20.00     0.016 A 
HETATM    2  C2  UNL     1     -35.613  15.453  -5.618  1.00 20.00     0.009 A 
HETATM    3  C3  UNL     1     -34.323  15.728  -4.847  1.00 20.00    -0.036 A 
HETATM    4  C4  UNL     1     -33.489  14.537  -4.456  1.00 20.00     0.016 C 
ENDROOT
BRANCH   3   5
HETATM    5  C9  UNL     1     -34.259  16.869  -3.868  1.00 20.00    -0.010 C 
HETATM    6  C6  UNL     1     -33.743  18.146  -4.554  1.00 20.00     0.011 C 
BRANCH   5   7
HETATM    7  C8  UNL     1     -33.364  16.574  -2.639  1.00 20.00     0.000 C 
HETATM    8  C5  UNL     1     -33.699  17.436  -1.432  1.00 20.00     0.005 C 
ENDBRANCH   5   7
ENDBRANCH   3   5
BRANCH   2   9
HETATM    9  C7  UNL     1     -36.858  16.246  -5.413  1.00 20.00     0.120 C 
HETATM   10 CL10 UNL     1     -36.909  17.661  -6.501  1.00 20.00    -0.130 Cl
ENDBRANCH   2   9
TORSDOF 3
ENDMDL
MODEL 8
REMARK VINA RESULT:      -3.4     11.194     12.614
REMARK  3 active torsions:
REMARK  status: ('A' for Active; 'I' for Inactive)
REMARK    1  A    between atoms: C2_2  and  C7_7 
REMARK    2  A    between atoms: C3_3  and  C9_9 
REMARK    3  A    between atoms: C8_8  and  C9_9 
ROOT
HETATM    1  C1  UNL     1     -32.632  15.599  -4.054  1.00 20.00     0.016 A 
HETATM    2  C2  UNL     1     -34.033  15.097  -3.853  1.00 20.00     0.009 A 
HETATM    3  C3  UNL     1     -33.663  16.511  -3.410  1.00 20.00    -0.036 A 
HETATM    4  C4  UNL     1     -33.555  16.761  -1.929  1.00 20.00     0.016 C 
ENDROOT
BRANCH   3   5
HETATM    5  C9  UNL     1     -34.148  17.698  -4.198  1.00 20.00    -0.010 C 
HETATM    6  C6  UNL     1     -33.105  18.830  -4.173  1.00 20.00     0.011 C 
BRANCH   5   7
HETATM    7  C8  UNL     1     -35.498  18.262  -3.691  1.00 20.00     0.000 C 
HETATM    8  C5  UNL     1     -36.635  18.084  -4.686  1.00 20.00     0.005 C 
ENDBRANCH   5   7
ENDBRANCH   3   5
BRANCH   2   9
HETATM    9  C7  UNL     1     -34.909  14.824  -5.028  1.00 20.00     0.120 C 
HETATM   10 CL10 UNL     1     -34.017  15.034  -6.561  1.00 20.00    -0.130 Cl
ENDBRANCH   2   9
TORSDOF 3
ENDMDL
MODEL 9
REMARK VINA RESULT:      -3.3     11.001     12.915
REMARK  3 active torsions:
REMARK  status: ('A' for Active; 'I' for Inactive)
REMARK    1  A    between atoms: C2_2  and  C7_7 
REMARK    2  A    between atoms: C3_3  and  C9_9 
REMARK    3  A    between atoms: C8_8  and  C9_9 
ROOT
HETATM    1  C1  UNL     1     -34.304  14.349  -4.178  1.00 20.00     0.016 A 
HETATM    2  C2  UNL     1     -33.357  15.507  -4.043  1.00 20.00     0.009 A 
HETATM    3  C3  UNL     1     -34.361  15.479  -5.194  1.00 20.00    -0.036 A 
HETATM    4  C4  UNL     1     -33.819  15.212  -6.573  1.00 20.00     0.016 C 
ENDROOT
BRANCH   3   5
HETATM    5  C9  UNL     1     -35.558  16.392  -5.172  1.00 20.00    -0.010 C 
HETATM    6  C6  UNL     1     -36.842  15.611  -5.504  1.00 20.00     0.011 C 
BRANCH   5   7
HETATM    7  C8  UNL     1     -35.438  17.583  -6.153  1.00 20.00     0.000 C 
HETATM    8  C5  UNL     1     -35.736  18.927  -5.504  1.00 20.00     0.005 C 
ENDBRANCH   5   7
ENDBRANCH   3   5
BRANCH   2   9
HETATM    9  C7  UNL     1     -33.477  16.446  -2.892  1.00 20.00     0.120 C 
HETATM   10 CL10 UNL     1     -32.945  18.090  -3.341  1.00 20.00    -0.130 Cl
ENDBRANCH   2   9
TORSDOF 3
ENDMDL
