MODEL 1
REMARK VINA RESULT:      -3.5      0.000      0.000
REMARK  1 active torsions:
REMARK  status: ('A' for Active; 'I' for Inactive)
REMARK    1  A    between atoms: C5_5  and  C7_7 
ROOT
HETATM    1  C1  UNL     1     -34.984  18.614  -2.219  1.00 20.00     0.020 C 
HETATM    2  C2  UNL     1     -33.899  17.901   0.025  1.00 20.00     0.017 A 
HETATM    3  C3  UNL     1     -34.634  18.579  -3.693  1.00 20.00     0.075 C 
HETATM    4  C4  UNL     1     -33.356  16.723  -2.222  1.00 20.00     0.083 C 
HETATM    5  C5  UNL     1     -32.909  18.803  -0.655  1.00 20.00     0.005 A 
HETATM    6  C6  UNL     1     -33.850  17.942  -1.488  1.00 20.00    -0.026 A 
HETATM    7  S8  UNL     1     -33.944  16.925  -3.936  1.00 20.00    -0.168 SA
ENDROOT
BRANCH   5   8
HETATM    8  C7  UNL     1     -31.450  18.528  -0.530  1.00 20.00     0.090 C 
HETATM    9 BR9  UNL     1     -30.917  18.521   1.347  1.00 20.00    -0.096 Br
ENDBRANCH   5   8
TORSDOF 1
ENDMDL
MODEL 2
REMARK VINA RESULT:      -3.4     11.796     12.746
REMARK  1 active torsions:
REMARK  status: ('A' for Active; 'I' for Inactive)
REMARK    1  A    between atoms: C5_5  and  C7_7 
ROOT
HETATM    1  C1  UNL     1     -42.751  13.675   7.402  1.00 20.00     0.020 C 
HETATM    2  C2  UNL     1     -41.354  13.581   5.220  1.00 20.00     0.017 A 
HETATM    3  C3  UNL     1     -42.495  13.665   8.897  1.00 20.00     0.075 C 
HETATM    4  C4  UNL     1     -40.411  14.543   7.438  1.00 20.00     0.083 C 
HETATM    5  C5  UNL     1     -40.960  12.377   6.027  1.00 20.00     0.005 A 
HETATM    6  C6  UNL     1     -41.401  13.654   6.732  1.00 20.00    -0.026 A 
HETATM    7  S8  UNL     1     -41.101  14.797   9.106  1.00 20.00    -0.168 SA
ENDROOT
BRANCH   5   8
HETATM    8  C7  UNL     1     -39.547  11.905   6.007  1.00 20.00     0.090 C 
HETATM    9 BR9  UNL     1     -38.939  11.650   4.170  1.00 20.00    -0.096 Br
ENDBRANCH   5   8
TORSDOF 1
ENDMDL
MODEL 3
REMARK VINA RESULT:      -3.3      3.340      4.367
REMARK  1 active torsions:
REMARK  status: ('A' for Active; 'I' for Inactive)
REMARK    1  A    between atoms: C5_5  and  C7_7 
ROOT
HETATM    1  C1  UNL     1     -35.178  14.008  -4.712  1.00 20.00     0.020 C 
HETATM    2  C2  UNL     1     -32.765  14.834  -4.250  1.00 20.00     0.017 A 
HETATM    3  C3  UNL     1     -36.482  14.588  -5.224  1.00 20.00     0.075 C 
HETATM    4  C4  UNL     1     -34.295  15.931  -6.036  1.00 20.00     0.083 C 
HETATM    5  C5  UNL     1     -33.678  15.740  -3.473  1.00 20.00     0.005 A 
HETATM    6  C6  UNL     1     -34.157  15.114  -4.777  1.00 20.00    -0.026 A 
HETATM    7  S8  UNL     1     -35.983  15.596  -6.640  1.00 20.00    -0.168 SA
ENDROOT
BRANCH   5   8
HETATM    8  C7  UNL     1     -33.345  17.186  -3.338  1.00 20.00     0.090 C 
HETATM    9 BR9  UNL     1     -33.283  17.697  -1.455  1.00 20.00    -0.096 Br
ENDBRANCH   5   8
TORSDOF 1
ENDMDL
MODEL 4
REMARK VINA RESULT:      -3.2     11.331     12.522
REMARK  1 active torsions:
REMARK  status: ('A' for Active; 'I' for Inactive)
REMARK    1  A    between atoms: C5_5  and  C7_7 
ROOT
HETATM    1  C1  UNL     1     -41.101  14.230   8.609  1.00 20.00     0.020 C 
HETATM    2  C2  UNL     1     -42.303  12.745   6.857  1.00 20.00     0.017 A 
HETATM    3  C3  UNL     1     -40.270  15.498   8.622  1.00 20.00     0.075 C 
HETATM    4  C4  UNL     1     -41.903  15.283   6.494  1.00 20.00     0.083 C 
HETATM    5  C5  UNL     1     -40.872  12.852   6.411  1.00 20.00     0.005 A 
HETATM    6  C6  UNL     1     -41.517  13.999   7.179  1.00 20.00    -0.026 A 
HETATM    7  S8  UNL     1     -41.153  16.606   7.499  1.00 20.00    -0.168 SA
ENDROOT
BRANCH   5   8
HETATM    8  C7  UNL     1     -40.554  12.922   4.957  1.00 20.00     0.090 C 
HETATM    9 BR9  UNL     1     -39.114  11.682   4.513  1.00 20.00    -0.096 Br
ENDBRANCH   5   8
TORSDOF 1
ENDMDL
MODEL 5
REMARK VINA RESULT:      -3.2      3.208      4.260
REMARK  1 active torsions:
REMARK  status: ('A' for Active; 'I' for Inactive)
REMARK    1  A    between atoms: C5_5  and  C7_7 
ROOT
HETATM    1  C1  UNL     1     -31.533  18.109  -0.769  1.00 20.00     0.020 C 
HETATM    2  C2  UNL     1     -33.480  16.904  -1.985  1.00 20.00     0.017 A 
HETATM    3  C3  UNL     1     -31.361  19.261   0.202  1.00 20.00     0.075 C 
HETATM    4  C4  UNL     1     -33.793  18.110   0.291  1.00 20.00     0.083 C 
HETATM    5  C5  UNL     1     -33.601  18.360  -2.333  1.00 20.00     0.005 A 
HETATM    6  C6  UNL     1     -33.015  17.946  -0.989  1.00 20.00    -0.026 A 
HETATM    7  S8  UNL     1     -32.671  19.000   1.420  1.00 20.00    -0.168 SA
ENDROOT
BRANCH   5   8
HETATM    8  C7  UNL     1     -34.950  18.975  -2.478  1.00 20.00     0.090 C 
HETATM    9 BR9  UNL     1     -35.819  18.338  -4.105  1.00 20.00    -0.096 Br
ENDBRANCH   5   8
TORSDOF 1
ENDMDL
MODEL 6
REMARK VINA RESULT:      -3.2      1.642      2.385
REMARK  1 active torsions:
REMARK  status: ('A' for Active; 'I' for Inactive)
REMARK    1  A    between atoms: C5_5  and  C7_7 
ROOT
HETATM    1  C1  UNL     1     -33.252  16.299  -3.383  1.00 20.00     0.020 C 
HETATM    2  C2  UNL     1     -32.318  17.773  -1.466  1.00 20.00     0.017 A 
HETATM    3  C3  UNL     1     -34.364  16.370  -4.411  1.00 20.00     0.075 C 
HETATM    4  C4  UNL     1     -33.538  18.774  -3.526  1.00 20.00     0.083 C 
HETATM    5  C5  UNL     1     -33.780  17.583  -1.180  1.00 20.00     0.005 A 
HETATM    6  C6  UNL     1     -33.283  17.598  -2.620  1.00 20.00    -0.026 A 
HETATM    7  S8  UNL     1     -34.267  18.062  -5.039  1.00 20.00    -0.168 SA
ENDROOT
BRANCH   5   8
HETATM    8  C7  UNL     1     -34.566  18.697  -0.578  1.00 20.00     0.090 C 
HETATM    9 BR9  UNL     1     -33.766  19.263   1.109  1.00 20.00    -0.096 Br
ENDBRANCH   5   8
TORSDOF 1
ENDMDL
MODEL 7
REMARK VINA RESULT:      -3.0      3.753      4.632
REMARK  1 active torsions:
REMARK  status: ('A' for Active; 'I' for Inactive)
REMARK    1  A    between atoms: C5_5  and  C7_7 
ROOT
HETATM    1  C1  UNL     1     -36.533  16.110  -5.589  1.00 20.00     0.020 C 
HETATM    2  C2  UNL     1     -34.217  15.024  -6.009  1.00 20.00     0.017 A 
HETATM    3  C3  UNL     1     -37.077  17.393  -4.992  1.00 20.00     0.075 C 
HETATM    4  C4  UNL     1     -34.552  17.595  -5.902  1.00 20.00     0.083 C 
HETATM    5  C5  UNL     1     -34.274  15.346  -4.543  1.00 20.00     0.005 A 
HETATM    6  C6  UNL     1     -35.030  16.213  -5.541  1.00 20.00    -0.026 A 
HETATM    7  S8  UNL     1     -36.001  18.677  -5.672  1.00 20.00    -0.168 SA
ENDROOT
BRANCH   5   8
HETATM    8  C7  UNL     1     -33.042  15.801  -3.838  1.00 20.00     0.090 C 
HETATM    9 BR9  UNL     1     -33.509  16.869  -2.272  1.00 20.00    -0.096 Br
ENDBRANCH   5   8
TORSDOF 1
ENDMDL
MODEL 8
REMARK VINA RESULT:      -2.9     24.508     25.203
REMARK  1 active torsions:
REMARK  status: ('A' for Active; 'I' for Inactive)
REMARK    1  A    between atoms: C5_5  and  C7_7 
ROOT
HETATM    1  C1  UNL     1     -26.539  -1.215  11.248  1.00 20.00     0.020 C 
HETATM    2  C2  UNL     1     -24.804  -2.965  12.053  1.00 20.00     0.017 A 
HETATM    3  C3  UNL     1     -27.583  -1.093  10.156  1.00 20.00     0.075 C 
HETATM    4  C4  UNL     1     -26.988  -3.633  10.821  1.00 20.00     0.083 C 
HETATM    5  C5  UNL     1     -24.517  -2.723  10.599  1.00 20.00     0.005 A 
HETATM    6  C6  UNL     1     -25.941  -2.593  11.124  1.00 20.00    -0.026 A 
HETATM    7  S8  UNL     1     -28.412  -2.700  10.168  1.00 20.00    -0.168 SA
ENDROOT
BRANCH   5   8
HETATM    8  C7  UNL     1     -24.067  -3.851   9.736  1.00 20.00     0.090 C 
HETATM    9 BR9  UNL     1     -23.242  -3.174   8.103  1.00 20.00    -0.096 Br
ENDBRANCH   5   8
TORSDOF 1
ENDMDL
MODEL 9
REMARK VINA RESULT:      -2.8      4.620      5.859
REMARK  1 active torsions:
REMARK  status: ('A' for Active; 'I' for Inactive)
REMARK    1  A    between atoms: C5_5  and  C7_7 
ROOT
HETATM    1  C1  UNL     1     -33.655  15.525  -3.400  1.00 20.00     0.020 C 
HETATM    2  C2  UNL     1     -35.238  14.594  -5.230  1.00 20.00     0.017 A 
HETATM    3  C3  UNL     1     -32.937  16.825  -3.096  1.00 20.00     0.075 C 
HETATM    4  C4  UNL     1     -35.121  17.118  -4.641  1.00 20.00     0.083 C 
HETATM    5  C5  UNL     1     -34.019  15.102  -5.944  1.00 20.00     0.005 A 
HETATM    6  C6  UNL     1     -34.468  15.761  -4.647  1.00 20.00    -0.026 A 
HETATM    7  S8  UNL     1     -34.183  18.095  -3.419  1.00 20.00    -0.168 SA
ENDROOT
BRANCH   5   8
HETATM    8  C7  UNL     1     -34.160  15.750  -7.279  1.00 20.00     0.090 C 
HETATM    9 BR9  UNL     1     -35.998  15.605  -7.916  1.00 20.00    -0.096 Br
ENDBRANCH   5   8
TORSDOF 1
ENDMDL
