MODEL 1
REMARK VINA RESULT:      -3.9      0.000      0.000
REMARK  2 active torsions:
REMARK  status: ('A' for Active; 'I' for Inactive)
REMARK    1  A    between atoms: C3_3  and  C6_6 
REMARK    2  A    between atoms: C7_7  and  C9_9 
ROOT
HETATM    1  C1  UNL     1     -31.348  18.790  -0.419  1.00 20.00     0.016 A 
HETATM    2  C2  UNL     1     -30.799  18.688   0.892  1.00 20.00     0.015 A 
HETATM    3  C3  UNL     1     -32.693  19.088  -0.395  1.00 20.00    -0.013 A 
HETATM    4  C4  UNL     1     -31.745  18.913   1.868  1.00 20.00    -0.021 A 
HETATM    5  C8  UNL     1     -31.573  18.902   3.337  1.00 20.00     0.056 C 
HETATM    6  S10 UNL     1     -33.288  19.244   1.203  1.00 20.00    -0.099 SA
ENDROOT
BRANCH   3   7
HETATM    7  C6  UNL     1     -33.563  19.263  -1.652  1.00 20.00     0.031 A 
HETATM    8  C5  UNL     1     -32.917  19.071  -3.007  1.00 20.00     0.016 A 
HETATM    9  C7  UNL     1     -33.917  18.067  -2.516  1.00 20.00     0.005 A 
BRANCH   9  10
HETATM   10  C9  UNL     1     -33.482  16.680  -2.183  1.00 20.00     0.090 C 
HETATM   11 BR11 UNL     1     -33.521  15.553  -3.775  1.00 20.00    -0.096 Br
ENDBRANCH   9  10
ENDBRANCH   3   7
TORSDOF 2
ENDMDL
MODEL 2
REMARK VINA RESULT:      -3.7      3.585      4.931
REMARK  2 active torsions:
REMARK  status: ('A' for Active; 'I' for Inactive)
REMARK    1  A    between atoms: C3_3  and  C6_6 
REMARK    2  A    between atoms: C7_7  and  C9_9 
ROOT
HETATM    1  C1  UNL     1     -33.404  16.147  -3.615  1.00 20.00     0.016 A 
HETATM    2  C2  UNL     1     -33.363  16.680  -2.293  1.00 20.00     0.015 A 
HETATM    3  C3  UNL     1     -34.192  16.905  -4.453  1.00 20.00    -0.013 A 
HETATM    4  C4  UNL     1     -34.120  17.826  -2.174  1.00 20.00    -0.021 A 
HETATM    5  C8  UNL     1     -34.328  18.670  -0.978  1.00 20.00     0.056 C 
HETATM    6  S10 UNL     1     -34.876  18.253  -3.649  1.00 20.00    -0.099 SA
ENDROOT
BRANCH   3   7
HETATM    7  C6  UNL     1     -34.430  16.585  -5.939  1.00 20.00     0.031 A 
HETATM    8  C5  UNL     1     -34.276  15.152  -6.401  1.00 20.00     0.016 A 
HETATM    9  C7  UNL     1     -35.640  15.776  -6.369  1.00 20.00     0.005 A 
BRANCH   9  10
HETATM   10  C9  UNL     1     -36.662  15.288  -5.400  1.00 20.00     0.090 C 
HETATM   11 BR11 UNL     1     -38.164  16.530  -5.311  1.00 20.00    -0.096 Br
ENDBRANCH   9  10
ENDBRANCH   3   7
TORSDOF 2
ENDMDL
MODEL 3
REMARK VINA RESULT:      -3.7      3.052      4.283
REMARK  2 active torsions:
REMARK  status: ('A' for Active; 'I' for Inactive)
REMARK    1  A    between atoms: C3_3  and  C6_6 
REMARK    2  A    between atoms: C7_7  and  C9_9 
ROOT
HETATM    1  C1  UNL     1     -33.469  16.647  -3.724  1.00 20.00     0.016 A 
HETATM    2  C2  UNL     1     -33.238  16.626  -2.318  1.00 20.00     0.015 A 
HETATM    3  C3  UNL     1     -34.280  17.695  -4.099  1.00 20.00    -0.013 A 
HETATM    4  C4  UNL     1     -33.880  17.661  -1.673  1.00 20.00    -0.021 A 
HETATM    5  C8  UNL     1     -33.883  17.984  -0.230  1.00 20.00     0.056 C 
HETATM    6  S10 UNL     1     -34.757  18.650  -2.760  1.00 20.00    -0.099 SA
ENDROOT
BRANCH   3   7
HETATM    7  C6  UNL     1     -34.707  17.982  -5.549  1.00 20.00     0.031 A 
HETATM    8  C5  UNL     1     -34.517  16.895  -6.584  1.00 20.00     0.016 A 
HETATM    9  C7  UNL     1     -35.904  17.273  -6.154  1.00 20.00     0.005 A 
BRANCH   9  10
HETATM   10  C9  UNL     1     -36.736  16.305  -5.383  1.00 20.00     0.090 C 
HETATM   11 BR11 UNL     1     -35.994  14.506  -5.524  1.00 20.00    -0.096 Br
ENDBRANCH   9  10
ENDBRANCH   3   7
TORSDOF 2
ENDMDL
MODEL 4
REMARK VINA RESULT:      -3.7      4.806      7.570
REMARK  2 active torsions:
REMARK  status: ('A' for Active; 'I' for Inactive)
REMARK    1  A    between atoms: C3_3  and  C6_6 
REMARK    2  A    between atoms: C7_7  and  C9_9 
ROOT
HETATM    1  C1  UNL     1     -34.312  15.467  -6.938  1.00 20.00     0.016 A 
HETATM    2  C2  UNL     1     -35.214  16.071  -7.862  1.00 20.00     0.015 A 
HETATM    3  C3  UNL     1     -34.884  15.292  -5.697  1.00 20.00    -0.013 A 
HETATM    4  C4  UNL     1     -36.441  16.333  -7.291  1.00 20.00    -0.021 A 
HETATM    5  C8  UNL     1     -37.634  16.943  -7.916  1.00 20.00     0.056 C 
HETATM    6  S10 UNL     1     -36.501  15.853  -5.649  1.00 20.00    -0.099 SA
ENDROOT
BRANCH   3   7
HETATM    7  C6  UNL     1     -34.160  14.665  -4.493  1.00 20.00     0.031 A 
HETATM    8  C5  UNL     1     -32.649  14.733  -4.445  1.00 20.00     0.016 A 
HETATM    9  C7  UNL     1     -33.457  15.542  -3.474  1.00 20.00     0.005 A 
BRANCH   9  10
HETATM   10  C9  UNL     1     -33.458  17.031  -3.562  1.00 20.00     0.090 C 
HETATM   11 BR11 UNL     1     -33.238  17.818  -1.790  1.00 20.00    -0.096 Br
ENDBRANCH   9  10
ENDBRANCH   3   7
TORSDOF 2
ENDMDL
MODEL 5
REMARK VINA RESULT:      -3.6      3.633      5.901
REMARK  2 active torsions:
REMARK  status: ('A' for Active; 'I' for Inactive)
REMARK    1  A    between atoms: C3_3  and  C6_6 
REMARK    2  A    between atoms: C7_7  and  C9_9 
ROOT
HETATM    1  C1  UNL     1     -33.089  15.600  -3.835  1.00 20.00     0.016 A 
HETATM    2  C2  UNL     1     -33.864  14.568  -4.440  1.00 20.00     0.015 A 
HETATM    3  C3  UNL     1     -33.629  16.848  -4.054  1.00 20.00    -0.013 A 
HETATM    4  C4  UNL     1     -34.968  15.068  -5.095  1.00 20.00    -0.021 A 
HETATM    5  C8  UNL     1     -36.012  14.326  -5.835  1.00 20.00     0.056 C 
HETATM    6  S10 UNL     1     -35.066  16.773  -4.982  1.00 20.00    -0.099 SA
ENDROOT
BRANCH   3   7
HETATM    7  C6  UNL     1     -33.020  18.159  -3.526  1.00 20.00     0.031 A 
HETATM    8  C5  UNL     1     -33.956  19.262  -3.084  1.00 20.00     0.016 A 
HETATM    9  C7  UNL     1     -33.142  18.530  -2.060  1.00 20.00     0.005 A 
BRANCH   9  10
HETATM   10  C9  UNL     1     -33.814  17.647  -1.063  1.00 20.00     0.090 C 
HETATM   11 BR11 UNL     1     -33.759  18.458   0.711  1.00 20.00    -0.096 Br
ENDBRANCH   9  10
ENDBRANCH   3   7
TORSDOF 2
ENDMDL
MODEL 6
REMARK VINA RESULT:      -3.4     11.401     12.239
REMARK  2 active torsions:
REMARK  status: ('A' for Active; 'I' for Inactive)
REMARK    1  A    between atoms: C3_3  and  C6_6 
REMARK    2  A    between atoms: C7_7  and  C9_9 
ROOT
HETATM    1  C1  UNL     1     -40.514  15.793   7.830  1.00 20.00     0.016 A 
HETATM    2  C2  UNL     1     -40.592  17.173   7.483  1.00 20.00     0.015 A 
HETATM    3  C3  UNL     1     -41.575  15.073   7.328  1.00 20.00    -0.013 A 
HETATM    4  C4  UNL     1     -41.711  17.454   6.728  1.00 20.00    -0.021 A 
HETATM    5  C8  UNL     1     -42.144  18.754   6.173  1.00 20.00     0.056 C 
HETATM    6  S10 UNL     1     -42.660  16.058   6.443  1.00 20.00    -0.099 SA
ENDROOT
BRANCH   3   7
HETATM    7  C6  UNL     1     -41.768  13.560   7.535  1.00 20.00     0.031 A 
HETATM    8  C5  UNL     1     -42.813  12.847   6.704  1.00 20.00     0.016 A 
HETATM    9  C7  UNL     1     -41.359  12.577   6.454  1.00 20.00     0.005 A 
BRANCH   9  10
HETATM   10  C9  UNL     1     -40.728  13.010   5.174  1.00 20.00     0.090 C 
HETATM   11 BR11 UNL     1     -39.246  11.828   4.711  1.00 20.00    -0.096 Br
ENDBRANCH   9  10
ENDBRANCH   3   7
TORSDOF 2
ENDMDL
MODEL 7
REMARK VINA RESULT:      -3.4      3.307      4.497
REMARK  2 active torsions:
REMARK  status: ('A' for Active; 'I' for Inactive)
REMARK    1  A    between atoms: C3_3  and  C6_6 
REMARK    2  A    between atoms: C7_7  and  C9_9 
ROOT
HETATM    1  C1  UNL     1     -33.529  16.606  -3.733  1.00 20.00     0.016 A 
HETATM    2  C2  UNL     1     -33.303  16.579  -2.326  1.00 20.00     0.015 A 
HETATM    3  C3  UNL     1     -34.272  17.701  -4.116  1.00 20.00    -0.013 A 
HETATM    4  C4  UNL     1     -33.880  17.655  -1.689  1.00 20.00    -0.021 A 
HETATM    5  C8  UNL     1     -33.867  17.987  -0.248  1.00 20.00     0.056 C 
HETATM    6  S10 UNL     1     -34.692  18.691  -2.784  1.00 20.00    -0.099 SA
ENDROOT
BRANCH   3   7
HETATM    7  C6  UNL     1     -34.677  18.005  -5.569  1.00 20.00     0.031 A 
HETATM    8  C5  UNL     1     -34.680  16.870  -6.569  1.00 20.00     0.016 A 
HETATM    9  C7  UNL     1     -35.982  17.473  -6.132  1.00 20.00     0.005 A 
BRANCH   9  10
HETATM   10  C9  UNL     1     -36.940  16.673  -5.317  1.00 20.00     0.090 C 
HETATM   11 BR11 UNL     1     -38.284  17.835  -4.511  1.00 20.00    -0.096 Br
ENDBRANCH   9  10
ENDBRANCH   3   7
TORSDOF 2
ENDMDL
MODEL 8
REMARK VINA RESULT:      -3.3      4.024      5.566
REMARK  2 active torsions:
REMARK  status: ('A' for Active; 'I' for Inactive)
REMARK    1  A    between atoms: C3_3  and  C6_6 
REMARK    2  A    between atoms: C7_7  and  C9_9 
ROOT
HETATM    1  C1  UNL     1     -33.806  15.339  -3.928  1.00 20.00     0.016 A 
HETATM    2  C2  UNL     1     -33.061  16.187  -3.058  1.00 20.00     0.015 A 
HETATM    3  C3  UNL     1     -34.765  16.034  -4.630  1.00 20.00    -0.013 A 
HETATM    4  C4  UNL     1     -33.480  17.498  -3.130  1.00 20.00    -0.021 A 
HETATM    5  C8  UNL     1     -32.961  18.671  -2.394  1.00 20.00     0.056 C 
HETATM    6  S10 UNL     1     -34.766  17.701  -4.241  1.00 20.00    -0.099 SA
ENDROOT
BRANCH   3   7
HETATM    7  C6  UNL     1     -35.726  15.394  -5.648  1.00 20.00     0.031 A 
HETATM    8  C5  UNL     1     -36.418  16.292  -6.650  1.00 20.00     0.016 A 
HETATM    9  C7  UNL     1     -35.362  15.337  -7.120  1.00 20.00     0.005 A 
BRANCH   9  10
HETATM   10  C9  UNL     1     -34.067  15.855  -7.646  1.00 20.00     0.090 C 
HETATM   11 BR11 UNL     1     -34.165  17.785  -7.916  1.00 20.00    -0.096 Br
ENDBRANCH   9  10
ENDBRANCH   3   7
TORSDOF 2
ENDMDL
MODEL 9
REMARK VINA RESULT:      -3.3     11.923     12.534
REMARK  2 active torsions:
REMARK  status: ('A' for Active; 'I' for Inactive)
REMARK    1  A    between atoms: C3_3  and  C6_6 
REMARK    2  A    between atoms: C7_7  and  C9_9 
ROOT
HETATM    1  C1  UNL     1     -40.877  15.571   7.580  1.00 20.00     0.016 A 
HETATM    2  C2  UNL     1     -40.436  16.183   8.789  1.00 20.00     0.015 A 
HETATM    3  C3  UNL     1     -41.586  14.414   7.814  1.00 20.00    -0.013 A 
HETATM    4  C4  UNL     1     -40.828  15.470   9.902  1.00 20.00    -0.021 A 
HETATM    5  C8  UNL     1     -40.574  15.776  11.326  1.00 20.00     0.056 C 
HETATM    6  S10 UNL     1     -41.721  14.070   9.486  1.00 20.00    -0.099 SA
ENDROOT
BRANCH   3   7
HETATM    7  C6  UNL     1     -42.192  13.532   6.708  1.00 20.00     0.031 A 
HETATM    8  C5  UNL     1     -41.808  13.813   5.272  1.00 20.00     0.016 A 
HETATM    9  C7  UNL     1     -41.321  12.560   5.935  1.00 20.00     0.005 A 
BRANCH   9  10
HETATM   10  C9  UNL     1     -39.869  12.383   6.222  1.00 20.00     0.090 C 
HETATM   11 BR11 UNL     1     -38.932  11.756   4.629  1.00 20.00    -0.096 Br
ENDBRANCH   9  10
ENDBRANCH   3   7
TORSDOF 2
ENDMDL
