MODEL 1
REMARK VINA RESULT:      -4.3      0.000      0.000
REMARK  2 active torsions:
REMARK  status: ('A' for Active; 'I' for Inactive)
REMARK    1  A    between atoms: C2_2  and  C6_6 
REMARK    2  A    between atoms: C3_3  and  C7_7 
ROOT
HETATM    1  C1  UNL     1     -33.985   8.580   4.779  1.00 20.00     0.011 A 
HETATM    2  C2  UNL     1     -32.588   8.042   4.624  1.00 20.00     0.004 A 
HETATM    3  C3  UNL     1     -33.563   7.359   5.553  1.00 20.00    -0.006 A 
ENDROOT
BRANCH   3   4
HETATM    4  C7  UNL     1     -34.164   6.031   5.247  1.00 20.00    -0.018 C 
HETATM    5  C4  UNL     1     -34.458   5.225   6.527  1.00 20.00     0.010 C 
HETATM    6  C5  UNL     1     -35.459   6.161   4.423  1.00 20.00     0.010 C 
ENDBRANCH   3   4
BRANCH   2   7
HETATM    7  C6  UNL     1     -32.154   7.436   3.334  1.00 20.00     0.119 C 
HETATM    8 CL8  UNL     1     -32.480   8.532   1.962  1.00 20.00    -0.130 Cl
ENDBRANCH   2   7
TORSDOF 2
ENDMDL
MODEL 2
REMARK VINA RESULT:      -4.1      1.653      3.334
REMARK  2 active torsions:
REMARK  status: ('A' for Active; 'I' for Inactive)
REMARK    1  A    between atoms: C2_2  and  C6_6 
REMARK    2  A    between atoms: C3_3  and  C7_7 
ROOT
HETATM    1  C1  UNL     1     -34.470   6.602   6.020  1.00 20.00     0.011 A 
HETATM    2  C2  UNL     1     -34.629   5.915   4.689  1.00 20.00     0.004 A 
HETATM    3  C3  UNL     1     -34.144   7.344   4.750  1.00 20.00    -0.006 A 
ENDROOT
BRANCH   3   4
HETATM    4  C7  UNL     1     -32.737   7.726   4.444  1.00 20.00    -0.018 C 
HETATM    5  C4  UNL     1     -32.535   8.014   2.944  1.00 20.00     0.010 C 
HETATM    6  C5  UNL     1     -32.284   8.951   5.260  1.00 20.00     0.010 C 
ENDBRANCH   3   4
BRANCH   2   7
HETATM    7  C6  UNL     1     -33.734   4.783   4.317  1.00 20.00     0.119 C 
HETATM    8 CL8  UNL     1     -33.291   4.851   2.588  1.00 20.00    -0.130 Cl
ENDBRANCH   2   7
TORSDOF 2
ENDMDL
MODEL 3
REMARK VINA RESULT:      -4.1      2.469      3.392
REMARK  2 active torsions:
REMARK  status: ('A' for Active; 'I' for Inactive)
REMARK    1  A    between atoms: C2_2  and  C6_6 
REMARK    2  A    between atoms: C3_3  and  C7_7 
ROOT
HETATM    1  C1  UNL     1     -32.875   8.851   5.172  1.00 20.00     0.011 A 
HETATM    2  C2  UNL     1     -33.883   7.797   5.546  1.00 20.00     0.004 A 
HETATM    3  C3  UNL     1     -33.452   7.954   4.108  1.00 20.00    -0.006 A 
ENDROOT
BRANCH   3   4
HETATM    4  C7  UNL     1     -32.588   6.957   3.417  1.00 20.00    -0.018 C 
HETATM    5  C4  UNL     1     -33.364   5.675   3.061  1.00 20.00     0.010 C 
HETATM    6  C5  UNL     1     -31.953   7.535   2.138  1.00 20.00     0.010 C 
ENDBRANCH   3   4
BRANCH   2   7
HETATM    7  C6  UNL     1     -33.475   6.631   6.380  1.00 20.00     0.119 C 
HETATM    8 CL8  UNL     1     -34.717   5.348   6.349  1.00 20.00    -0.130 Cl
ENDBRANCH   2   7
TORSDOF 2
ENDMDL
MODEL 4
REMARK VINA RESULT:      -4.0      2.401      3.841
REMARK  2 active torsions:
REMARK  status: ('A' for Active; 'I' for Inactive)
REMARK    1  A    between atoms: C2_2  and  C6_6 
REMARK    2  A    between atoms: C3_3  and  C7_7 
ROOT
HETATM    1  C1  UNL     1     -33.203   5.677   2.483  1.00 20.00     0.011 A 
HETATM    2  C2  UNL     1     -33.470   5.420   3.942  1.00 20.00     0.004 A 
HETATM    3  C3  UNL     1     -32.576   6.564   3.527  1.00 20.00    -0.006 A 
ENDROOT
BRANCH   3   4
HETATM    4  C7  UNL     1     -32.990   7.989   3.649  1.00 20.00    -0.018 C 
HETATM    5  C4  UNL     1     -32.395   8.654   4.906  1.00 20.00     0.010 C 
HETATM    6  C5  UNL     1     -32.596   8.811   2.408  1.00 20.00     0.010 C 
ENDBRANCH   3   4
BRANCH   2   7
HETATM    7  C6  UNL     1     -34.833   5.634   4.507  1.00 20.00     0.119 C 
HETATM    8 CL8  UNL     1     -34.798   5.649   6.292  1.00 20.00    -0.130 Cl
ENDBRANCH   2   7
TORSDOF 2
ENDMDL
MODEL 5
REMARK VINA RESULT:      -3.9      1.678      3.247
REMARK  2 active torsions:
REMARK  status: ('A' for Active; 'I' for Inactive)
REMARK    1  A    between atoms: C2_2  and  C6_6 
REMARK    2  A    between atoms: C3_3  and  C7_7 
ROOT
HETATM    1  C1  UNL     1     -34.982   5.364   6.014  1.00 20.00     0.011 A 
HETATM    2  C2  UNL     1     -34.741   5.119   4.548  1.00 20.00     0.004 A 
HETATM    3  C3  UNL     1     -34.700   6.525   5.096  1.00 20.00    -0.006 A 
ENDROOT
BRANCH   3   4
HETATM    4  C7  UNL     1     -33.433   7.297   5.228  1.00 20.00    -0.018 C 
HETATM    5  C4  UNL     1     -33.184   8.204   4.007  1.00 20.00     0.010 C 
HETATM    6  C5  UNL     1     -33.413   8.154   6.507  1.00 20.00     0.010 C 
ENDBRANCH   3   4
BRANCH   2   7
HETATM    7  C6  UNL     1     -33.515   4.400   4.098  1.00 20.00     0.119 C 
HETATM    8 CL8  UNL     1     -32.954   5.008   2.515  1.00 20.00    -0.130 Cl
ENDBRANCH   2   7
TORSDOF 2
ENDMDL
MODEL 6
REMARK VINA RESULT:      -3.9      1.303      1.589
REMARK  2 active torsions:
REMARK  status: ('A' for Active; 'I' for Inactive)
REMARK    1  A    between atoms: C2_2  and  C6_6 
REMARK    2  A    between atoms: C3_3  and  C7_7 
ROOT
HETATM    1  C1  UNL     1     -33.378   8.418   5.300  1.00 20.00     0.011 A 
HETATM    2  C2  UNL     1     -32.440   8.331   4.126  1.00 20.00     0.004 A 
HETATM    3  C3  UNL     1     -33.006   7.071   4.736  1.00 20.00    -0.006 A 
ENDROOT
BRANCH   3   4
HETATM    4  C7  UNL     1     -34.030   6.237   4.047  1.00 20.00    -0.018 C 
HETATM    5  C4  UNL     1     -33.386   5.121   3.202  1.00 20.00     0.010 C 
HETATM    6  C5  UNL     1     -35.024   5.610   5.041  1.00 20.00     0.010 C 
ENDBRANCH   3   4
BRANCH   2   7
HETATM    7  C6  UNL     1     -32.864   8.831   2.787  1.00 20.00     0.119 C 
HETATM    8 CL8  UNL     1     -31.983   7.997   1.476  1.00 20.00    -0.130 Cl
ENDBRANCH   2   7
TORSDOF 2
ENDMDL
MODEL 7
REMARK VINA RESULT:      -3.8      2.215      3.761
REMARK  2 active torsions:
REMARK  status: ('A' for Active; 'I' for Inactive)
REMARK    1  A    between atoms: C2_2  and  C6_6 
REMARK    2  A    between atoms: C3_3  and  C7_7 
ROOT
HETATM    1  C1  UNL     1     -35.446   6.068   4.346  1.00 20.00     0.011 A 
HETATM    2  C2  UNL     1     -34.597   5.013   5.002  1.00 20.00     0.004 A 
HETATM    3  C3  UNL     1     -34.069   5.776   3.810  1.00 20.00    -0.006 A 
ENDROOT
BRANCH   3   4
HETATM    4  C7  UNL     1     -32.986   6.792   3.926  1.00 20.00    -0.018 C 
HETATM    5  C4  UNL     1     -32.145   6.882   2.638  1.00 20.00     0.010 C 
HETATM    6  C5  UNL     1     -33.542   8.187   4.265  1.00 20.00     0.010 C 
ENDBRANCH   3   4
BRANCH   2   7
HETATM    7  C6  UNL     1     -34.071   5.221   6.381  1.00 20.00     0.119 C 
HETATM    8 CL8  UNL     1     -34.545   6.820   7.019  1.00 20.00    -0.130 Cl
ENDBRANCH   2   7
TORSDOF 2
ENDMDL
MODEL 8
REMARK VINA RESULT:      -3.8      1.189      1.302
REMARK  2 active torsions:
REMARK  status: ('A' for Active; 'I' for Inactive)
REMARK    1  A    between atoms: C2_2  and  C6_6 
REMARK    2  A    between atoms: C3_3  and  C7_7 
ROOT
HETATM    1  C1  UNL     1     -34.152   7.802   6.014  1.00 20.00     0.011 A 
HETATM    2  C2  UNL     1     -32.875   7.853   5.217  1.00 20.00     0.004 A 
HETATM    3  C3  UNL     1     -33.563   6.530   5.460  1.00 20.00    -0.006 A 
ENDROOT
BRANCH   3   4
HETATM    4  C7  UNL     1     -34.268   5.785   4.380  1.00 20.00    -0.018 C 
HETATM    5  C4  UNL     1     -33.964   4.275   4.433  1.00 20.00     0.010 C 
HETATM    6  C5  UNL     1     -35.793   5.995   4.437  1.00 20.00     0.010 C 
ENDBRANCH   3   4
BRANCH   2   7
HETATM    7  C6  UNL     1     -32.851   8.507   3.878  1.00 20.00     0.119 C 
HETATM    8 CL8  UNL     1     -31.992   7.498   2.681  1.00 20.00    -0.130 Cl
ENDBRANCH   2   7
TORSDOF 2
ENDMDL
MODEL 9
REMARK VINA RESULT:      -3.7      1.515      2.147
REMARK  2 active torsions:
REMARK  status: ('A' for Active; 'I' for Inactive)
REMARK    1  A    between atoms: C2_2  and  C6_6 
REMARK    2  A    between atoms: C3_3  and  C7_7 
ROOT
HETATM    1  C1  UNL     1     -33.168   5.618   3.162  1.00 20.00     0.011 A 
HETATM    2  C2  UNL     1     -33.055   7.113   3.309  1.00 20.00     0.004 A 
HETATM    3  C3  UNL     1     -34.025   6.339   4.170  1.00 20.00    -0.006 A 
ENDROOT
BRANCH   3   4
HETATM    4  C7  UNL     1     -33.809   6.126   5.628  1.00 20.00    -0.018 C 
HETATM    5  C4  UNL     1     -34.278   7.336   6.459  1.00 20.00     0.010 C 
HETATM    6  C5  UNL     1     -34.520   4.858   6.135  1.00 20.00     0.010 C 
ENDBRANCH   3   4
BRANCH   2   7
HETATM    7  C6  UNL     1     -31.810   7.722   3.858  1.00 20.00     0.119 C 
HETATM    8 CL8  UNL     1     -32.156   9.264   4.688  1.00 20.00    -0.130 Cl
ENDBRANCH   2   7
TORSDOF 2
ENDMDL
