MODEL 1
REMARK VINA RESULT:      -4.2      0.000      0.000
REMARK  1 active torsions:
REMARK  status: ('A' for Active; 'I' for Inactive)
REMARK    1  A    between atoms: C7_7  and  C11_11 
ROOT
HETATM    1  C1  UNL     1     -34.006  14.720  -4.423  1.00 20.00     0.005 C 
HETATM    2  C2  UNL     1     -32.864  15.539  -3.818  1.00 20.00     0.010 C 
HETATM    3  C3  UNL     1     -34.101  17.725  -4.178  1.00 20.00     0.014 C 
HETATM    4  C4  UNL     1     -33.904  16.736  -1.776  1.00 20.00     0.016 A 
HETATM    5  C5  UNL     1     -35.124  15.578  -5.058  1.00 20.00    -0.015 C 
HETATM    6  C6  UNL     1     -34.600  16.981  -5.438  1.00 20.00    -0.014 C 
HETATM    7  C7  UNL     1     -32.593  17.415  -2.050  1.00 20.00     0.009 A 
HETATM    8  C8  UNL     1     -33.385  16.811  -3.201  1.00 20.00    -0.035 A 
HETATM    9  C9  UNL     1     -35.752  14.817  -6.228  1.00 20.00     0.010 C 
HETATM   10  C10 UNL     1     -35.638  17.844  -6.158  1.00 20.00     0.010 C 
ENDROOT
BRANCH   7  11
HETATM   11  C11 UNL     1     -32.465  18.886  -1.848  1.00 20.00     0.120 C 
HETATM   12 CL12 UNL     1     -31.539  19.257  -0.367  1.00 20.00    -0.130 Cl
ENDBRANCH   7  11
TORSDOF 1
ENDMDL
MODEL 2
REMARK VINA RESULT:      -4.2      1.223      2.600
REMARK  1 active torsions:
REMARK  status: ('A' for Active; 'I' for Inactive)
REMARK    1  A    between atoms: C7_7  and  C11_11 
ROOT
HETATM    1  C1  UNL     1     -35.081  18.112  -4.485  1.00 20.00     0.005 C 
HETATM    2  C2  UNL     1     -35.180  18.301  -2.970  1.00 20.00     0.010 C 
HETATM    3  C3  UNL     1     -33.300  16.653  -2.535  1.00 20.00     0.014 C 
HETATM    4  C4  UNL     1     -32.868  19.207  -2.252  1.00 20.00     0.016 A 
HETATM    5  C5  UNL     1     -34.118  16.981  -4.913  1.00 20.00    -0.015 C 
HETATM    6  C6  UNL     1     -33.918  15.959  -3.770  1.00 20.00    -0.014 C 
HETATM    7  C7  UNL     1     -33.565  18.766  -0.997  1.00 20.00     0.009 A 
HETATM    8  C8  UNL     1     -33.849  18.050  -2.310  1.00 20.00    -0.035 A 
HETATM    9  C9  UNL     1     -34.612  16.354  -6.219  1.00 20.00     0.010 C 
HETATM   10  C10 UNL     1     -33.049  14.764  -4.168  1.00 20.00     0.010 C 
ENDROOT
BRANCH   7  11
HETATM   11  C11 UNL     1     -32.780  18.141   0.105  1.00 20.00     0.120 C 
HETATM   12 CL12 UNL     1     -31.043  18.529  -0.037  1.00 20.00    -0.130 Cl
ENDBRANCH   7  11
TORSDOF 1
ENDMDL
MODEL 3
REMARK VINA RESULT:      -4.1     12.447     14.286
REMARK  1 active torsions:
REMARK  status: ('A' for Active; 'I' for Inactive)
REMARK    1  A    between atoms: C7_7  and  C11_11 
ROOT
HETATM    1  C1  UNL     1     -42.792  15.789   7.347  1.00 20.00     0.005 C 
HETATM    2  C2  UNL     1     -41.918  15.155   6.263  1.00 20.00     0.010 C 
HETATM    3  C3  UNL     1     -40.383  14.087   7.977  1.00 20.00     0.014 C 
HETATM    4  C4  UNL     1     -42.084  12.608   6.671  1.00 20.00     0.016 A 
HETATM    5  C5  UNL     1     -42.229  15.631   8.777  1.00 20.00    -0.015 C 
HETATM    6  C6  UNL     1     -40.703  15.387   8.749  1.00 20.00    -0.014 C 
HETATM    7  C7  UNL     1     -40.924  12.819   5.741  1.00 20.00     0.009 A 
HETATM    8  C8  UNL     1     -41.275  13.889   6.765  1.00 20.00    -0.035 A 
HETATM    9  C9  UNL     1     -42.645  16.833   9.628  1.00 20.00     0.010 C 
HETATM   10  C10 UNL     1     -40.072  15.317  10.142  1.00 20.00     0.010 C 
ENDROOT
BRANCH   7  11
HETATM   11  C11 UNL     1     -39.713  11.959   5.861  1.00 20.00     0.120 C 
HETATM   12 CL12 UNL     1     -38.947  11.694   4.269  1.00 20.00    -0.130 Cl
ENDBRANCH   7  11
TORSDOF 1
ENDMDL
MODEL 4
REMARK VINA RESULT:      -3.6     12.674     14.725
REMARK  1 active torsions:
REMARK  status: ('A' for Active; 'I' for Inactive)
REMARK    1  A    between atoms: C7_7  and  C11_11 
ROOT
HETATM    1  C1  UNL     1     -41.199  17.057   8.397  1.00 20.00     0.005 C 
HETATM    2  C2  UNL     1     -40.441  16.213   7.370  1.00 20.00     0.010 C 
HETATM    3  C3  UNL     1     -40.415  14.188   8.897  1.00 20.00     0.014 C 
HETATM    4  C4  UNL     1     -42.010  14.230   6.838  1.00 20.00     0.016 A 
HETATM    5  C5  UNL     1     -41.367  16.370   9.771  1.00 20.00    -0.015 C 
HETATM    6  C6  UNL     1     -40.290  15.281   9.983  1.00 20.00    -0.014 C 
HETATM    7  C7  UNL     1     -40.657  13.862   6.303  1.00 20.00     0.009 A 
HETATM    8  C8  UNL     1     -40.766  14.751   7.533  1.00 20.00    -0.035 A 
HETATM    9  C9  UNL     1     -41.394  17.431  10.874  1.00 20.00     0.010 C 
HETATM   10  C10 UNL     1     -40.346  14.631  11.367  1.00 20.00     0.010 C 
ENDROOT
BRANCH   7  11
HETATM   11  C11 UNL     1     -40.192  12.447   6.372  1.00 20.00     0.120 C 
HETATM   12 CL12 UNL     1     -38.681  12.217   5.449  1.00 20.00    -0.130 Cl
ENDBRANCH   7  11
TORSDOF 1
ENDMDL
MODEL 5
REMARK VINA RESULT:      -3.6     11.330     12.784
REMARK  1 active torsions:
REMARK  status: ('A' for Active; 'I' for Inactive)
REMARK    1  A    between atoms: C7_7  and  C11_11 
ROOT
HETATM    1  C1  UNL     1     -33.573   7.656   5.947  1.00 20.00     0.005 C 
HETATM    2  C2  UNL     1     -32.459   8.136   5.015  1.00 20.00     0.010 C 
HETATM    3  C3  UNL     1     -33.113   6.481   3.207  1.00 20.00     0.014 C 
HETATM    4  C4  UNL     1     -33.674   9.007   2.906  1.00 20.00     0.016 A 
HETATM    5  C5  UNL     1     -34.320   6.403   5.436  1.00 20.00    -0.015 C 
HETATM    6  C6  UNL     1     -33.450   5.607   4.437  1.00 20.00    -0.014 C 
HETATM    7  C7  UNL     1     -32.226   8.860   2.537  1.00 20.00     0.009 A 
HETATM    8  C8  UNL     1     -32.840   7.928   3.572  1.00 20.00    -0.035 A 
HETATM    9  C9  UNL     1     -34.804   5.574   6.628  1.00 20.00     0.010 C 
HETATM   10  C10 UNL     1     -34.100   4.303   3.970  1.00 20.00     0.010 C 
ENDROOT
BRANCH   7  11
HETATM   11  C11 UNL     1     -31.853   8.406   1.168  1.00 20.00     0.120 C 
HETATM   12 CL12 UNL     1     -32.938   9.108  -0.065  1.00 20.00    -0.130 Cl
ENDBRANCH   7  11
TORSDOF 1
ENDMDL
MODEL 6
REMARK VINA RESULT:      -3.6      1.834      2.512
REMARK  1 active torsions:
REMARK  status: ('A' for Active; 'I' for Inactive)
REMARK    1  A    between atoms: C7_7  and  C11_11 
ROOT
HETATM    1  C1  UNL     1     -34.664  17.782  -5.135  1.00 20.00     0.005 C 
HETATM    2  C2  UNL     1     -33.579  18.360  -4.225  1.00 20.00     0.010 C 
HETATM    3  C3  UNL     1     -35.183  18.568  -2.270  1.00 20.00     0.014 C 
HETATM    4  C4  UNL     1     -33.382  16.685  -2.266  1.00 20.00     0.016 A 
HETATM    5  C5  UNL     1     -36.080  17.806  -4.516  1.00 20.00    -0.015 C 
HETATM    6  C6  UNL     1     -36.183  18.878  -3.407  1.00 20.00    -0.014 C 
HETATM    7  C7  UNL     1     -32.671  17.936  -1.835  1.00 20.00     0.009 A 
HETATM    8  C8  UNL     1     -33.859  18.031  -2.782  1.00 20.00    -0.035 A 
HETATM    9  C9  UNL     1     -37.122  17.967  -5.625  1.00 20.00     0.010 C 
HETATM   10  C10 UNL     1     -37.590  19.015  -2.821  1.00 20.00     0.010 C 
ENDROOT
BRANCH   7  11
HETATM   11  C11 UNL     1     -32.740  18.375  -0.412  1.00 20.00     0.120 C 
HETATM   12 CL12 UNL     1     -31.111  18.480   0.312  1.00 20.00    -0.130 Cl
ENDBRANCH   7  11
TORSDOF 1
ENDMDL
MODEL 7
REMARK VINA RESULT:      -3.5      3.073      4.906
REMARK  1 active torsions:
REMARK  status: ('A' for Active; 'I' for Inactive)
REMARK    1  A    between atoms: C7_7  and  C11_11 
ROOT
HETATM    1  C1  UNL     1     -33.675  15.275  -3.787  1.00 20.00     0.005 C 
HETATM    2  C2  UNL     1     -34.844  14.936  -4.714  1.00 20.00     0.010 C 
HETATM    3  C3  UNL     1     -35.250  17.378  -5.270  1.00 20.00     0.014 C 
HETATM    4  C4  UNL     1     -34.140  15.820  -7.038  1.00 20.00     0.016 A 
HETATM    5  C5  UNL     1     -33.491  16.790  -3.541  1.00 20.00    -0.015 C 
HETATM    6  C6  UNL     1     -34.807  17.559  -3.800  1.00 20.00    -0.014 C 
HETATM    7  C7  UNL     1     -35.614  15.542  -7.113  1.00 20.00     0.009 A 
HETATM    8  C8  UNL     1     -34.993  15.976  -5.793  1.00 20.00    -0.035 A 
HETATM    9  C9  UNL     1     -32.913  17.015  -2.141  1.00 20.00     0.010 C 
HETATM   10  C10 UNL     1     -34.712  19.052  -3.480  1.00 20.00     0.010 C 
ENDROOT
BRANCH   7  11
HETATM   11  C11 UNL     1     -36.496  16.434  -7.918  1.00 20.00     0.120 C 
HETATM   12 CL12 UNL     1     -38.091  16.638  -7.142  1.00 20.00    -0.130 Cl
ENDBRANCH   7  11
TORSDOF 1
ENDMDL
MODEL 8
REMARK VINA RESULT:      -3.4      3.112      5.387
REMARK  1 active torsions:
REMARK  status: ('A' for Active; 'I' for Inactive)
REMARK    1  A    between atoms: C7_7  and  C11_11 
ROOT
HETATM    1  C1  UNL     1     -32.133  17.784  -1.453  1.00 20.00     0.005 C 
HETATM    2  C2  UNL     1     -33.220  17.219  -2.369  1.00 20.00     0.010 C 
HETATM    3  C3  UNL     1     -35.022  18.633  -1.278  1.00 20.00     0.014 C 
HETATM    4  C4  UNL     1     -34.148  19.263  -3.651  1.00 20.00     0.016 A 
HETATM    5  C5  UNL     1     -32.674  18.685  -0.320  1.00 20.00    -0.015 C 
HETATM    6  C6  UNL     1     -34.159  18.372  -0.023  1.00 20.00    -0.014 C 
HETATM    7  C7  UNL     1     -35.130  18.145  -3.857  1.00 20.00     0.009 A 
HETATM    8  C8  UNL     1     -34.330  18.219  -2.564  1.00 20.00    -0.035 A 
HETATM    9  C9  UNL     1     -31.764  18.572   0.905  1.00 20.00     0.010 C 
HETATM   10  C10 UNL     1     -34.724  19.168   1.156  1.00 20.00     0.010 C 
ENDROOT
BRANCH   7  11
HETATM   11  C11 UNL     1     -36.589  18.442  -3.917  1.00 20.00     0.120 C 
HETATM   12 CL12 UNL     1     -37.445  17.273  -4.961  1.00 20.00    -0.130 Cl
ENDBRANCH   7  11
TORSDOF 1
ENDMDL
MODEL 9
REMARK VINA RESULT:      -3.2     11.666     12.905
REMARK  1 active torsions:
REMARK  status: ('A' for Active; 'I' for Inactive)
REMARK    1  A    between atoms: C7_7  and  C11_11 
ROOT
HETATM    1  C1  UNL     1     -42.255  14.813   7.460  1.00 20.00     0.005 C 
HETATM    2  C2  UNL     1     -42.012  13.321   7.224  1.00 20.00     0.010 C 
HETATM    3  C3  UNL     1     -41.463  13.690   4.775  1.00 20.00     0.014 C 
HETATM    4  C4  UNL     1     -39.548  13.154   6.458  1.00 20.00     0.016 A 
HETATM    5  C5  UNL     1     -42.236  15.662   6.168  1.00 20.00    -0.015 C 
HETATM    6  C6  UNL     1     -42.536  14.792   4.927  1.00 20.00    -0.014 C 
HETATM    7  C7  UNL     1     -40.189  11.836   6.131  1.00 20.00     0.009 A 
HETATM    8  C8  UNL     1     -41.024  13.109   6.106  1.00 20.00    -0.035 A 
HETATM    9  C9  UNL     1     -43.181  16.856   6.326  1.00 20.00     0.010 C 
HETATM   10  C10 UNL     1     -42.625  15.596   3.628  1.00 20.00     0.010 C 
ENDROOT
BRANCH   7  11
HETATM   11  C11 UNL     1     -39.796  11.108   4.892  1.00 20.00     0.120 C 
HETATM   12 CL12 UNL     1     -38.257  11.732   4.236  1.00 20.00    -0.130 Cl
ENDBRANCH   7  11
TORSDOF 1
ENDMDL
