MODEL 1
REMARK VINA RESULT:      -4.9      0.000      0.000
REMARK  1 active torsions:
REMARK  status: ('A' for Active; 'I' for Inactive)
REMARK    1  A    between atoms: C4_4  and  C10_10 
ROOT
HETATM    1  C1  UNL     1     -33.084   5.901   2.710  1.00 20.00     0.006 C 
HETATM    2  C2  UNL     1     -33.597   5.059   3.877  1.00 20.00     0.009 C 
HETATM    3  C3  UNL     1     -33.601   7.107   5.350  1.00 20.00     0.013 C 
HETATM    4  C4  UNL     1     -32.269   7.114   3.186  1.00 20.00    -0.001 C 
HETATM    5  C5  UNL     1     -33.082   7.971   4.184  1.00 20.00    -0.013 C 
HETATM    6  C6  UNL     1     -34.412   5.871   4.902  1.00 20.00    -0.047 C 
HETATM    7  C7  UNL     1     -32.266   9.139   4.749  1.00 20.00     0.010 C 
HETATM    8  C8  UNL     1     -34.692   4.986   6.132  1.00 20.00     0.015 C 
HETATM    9  C9  UNL     1     -35.769   6.296   4.309  1.00 20.00     0.015 C 
ENDROOT
BRANCH   4  10
HETATM   10  C10 UNL     1     -31.801   7.917   1.967  1.00 20.00     0.090 C 
HETATM   11 BR11 UNL     1     -33.073   9.332   1.607  1.00 20.00    -0.096 Br
ENDBRANCH   4  10
TORSDOF 1
ENDMDL
MODEL 2
REMARK VINA RESULT:      -4.4     11.720     13.033
REMARK  1 active torsions:
REMARK  status: ('A' for Active; 'I' for Inactive)
REMARK    1  A    between atoms: C4_4  and  C10_10 
ROOT
HETATM    1  C1  UNL     1     -34.931  18.490  -3.881  1.00 20.00     0.006 C 
HETATM    2  C2  UNL     1     -34.943  18.575  -2.355  1.00 20.00     0.009 C 
HETATM    3  C3  UNL     1     -33.432  16.558  -2.233  1.00 20.00     0.013 C 
HETATM    4  C4  UNL     1     -34.701  17.055  -4.379  1.00 20.00    -0.001 C 
HETATM    5  C5  UNL     1     -33.410  16.458  -3.771  1.00 20.00    -0.013 C 
HETATM    6  C6  UNL     1     -33.677  17.988  -1.702  1.00 20.00    -0.047 C 
HETATM    7  C7  UNL     1     -33.198  14.994  -4.176  1.00 20.00     0.010 C 
HETATM    8  C8  UNL     1     -33.885  17.924  -0.176  1.00 20.00     0.015 C 
HETATM    9  C9  UNL     1     -32.455  18.887  -1.974  1.00 20.00     0.015 C 
ENDROOT
BRANCH   4  10
HETATM   10  C10 UNL     1     -34.686  17.049  -5.911  1.00 20.00     0.090 C 
HETATM   11 BR11 UNL     1     -36.105  15.900  -6.560  1.00 20.00    -0.096 Br
ENDBRANCH   4  10
TORSDOF 1
ENDMDL
MODEL 3
REMARK VINA RESULT:      -4.1     11.515     12.998
REMARK  1 active torsions:
REMARK  status: ('A' for Active; 'I' for Inactive)
REMARK    1  A    between atoms: C4_4  and  C10_10 
ROOT
HETATM    1  C1  UNL     1     -33.145  16.063  -3.514  1.00 20.00     0.006 C 
HETATM    2  C2  UNL     1     -34.084  14.933  -3.931  1.00 20.00     0.009 C 
HETATM    3  C3  UNL     1     -35.590  16.605  -5.071  1.00 20.00     0.013 C 
HETATM    4  C4  UNL     1     -33.882  17.403  -3.366  1.00 20.00    -0.001 C 
HETATM    5  C5  UNL     1     -34.653  17.758  -4.659  1.00 20.00    -0.013 C 
HETATM    6  C6  UNL     1     -34.879  15.241  -5.214  1.00 20.00    -0.047 C 
HETATM    7  C7  UNL     1     -35.475  19.044  -4.513  1.00 20.00     0.010 C 
HETATM    8  C8  UNL     1     -35.942  14.144  -5.420  1.00 20.00     0.015 C 
HETATM    9  C9  UNL     1     -33.952  15.236  -6.445  1.00 20.00     0.015 C 
ENDROOT
BRANCH   4  10
HETATM   10  C10 UNL     1     -32.879  18.489  -2.963  1.00 20.00     0.090 C 
HETATM   11 BR11 UNL     1     -32.410  18.267  -1.097  1.00 20.00    -0.096 Br
ENDBRANCH   4  10
TORSDOF 1
ENDMDL
MODEL 4
REMARK VINA RESULT:      -3.9     10.646     11.922
REMARK  1 active torsions:
REMARK  status: ('A' for Active; 'I' for Inactive)
REMARK    1  A    between atoms: C4_4  and  C10_10 
ROOT
HETATM    1  C1  UNL     1     -40.385  13.998   7.862  1.00 20.00     0.006 C 
HETATM    2  C2  UNL     1     -40.313  15.476   8.245  1.00 20.00     0.009 C 
HETATM    3  C3  UNL     1     -41.935  16.033   6.394  1.00 20.00     0.013 C 
HETATM    4  C4  UNL     1     -40.718  13.801   6.375  1.00 20.00    -0.001 C 
HETATM    5  C5  UNL     1     -42.019  14.546   5.994  1.00 20.00    -0.013 C 
HETATM    6  C6  UNL     1     -41.587  16.263   7.882  1.00 20.00    -0.047 C 
HETATM    7  C7  UNL     1     -42.330  14.447   4.496  1.00 20.00     0.010 C 
HETATM    8  C8  UNL     1     -41.328  17.765   8.106  1.00 20.00     0.015 C 
HETATM    9  C9  UNL     1     -42.763  15.847   8.787  1.00 20.00     0.015 C 
ENDROOT
BRANCH   4  10
HETATM   10  C10 UNL     1     -40.788  12.301   6.068  1.00 20.00     0.090 C 
HETATM   11 BR11 UNL     1     -39.373  11.834   4.830  1.00 20.00    -0.096 Br
ENDBRANCH   4  10
TORSDOF 1
ENDMDL
MODEL 5
REMARK VINA RESULT:      -3.7     10.723     11.823
REMARK  1 active torsions:
REMARK  status: ('A' for Active; 'I' for Inactive)
REMARK    1  A    between atoms: C4_4  and  C10_10 
ROOT
HETATM    1  C1  UNL     1     -42.397  15.150   5.604  1.00 20.00     0.006 C 
HETATM    2  C2  UNL     1     -41.613  13.918   5.157  1.00 20.00     0.009 C 
HETATM    3  C3  UNL     1     -40.486  13.817   7.411  1.00 20.00     0.013 C 
HETATM    4  C4  UNL     1     -41.647  15.956   6.676  1.00 20.00    -0.001 C 
HETATM    5  C5  UNL     1     -41.269  15.060   7.879  1.00 20.00    -0.013 C 
HETATM    6  C6  UNL     1     -41.210  12.994   6.322  1.00 20.00    -0.047 C 
HETATM    7  C7  UNL     1     -40.438  15.811   8.926  1.00 20.00     0.010 C 
HETATM    8  C8  UNL     1     -40.248  11.912   5.794  1.00 20.00     0.015 C 
HETATM    9  C9  UNL     1     -42.445  12.282   6.907  1.00 20.00     0.015 C 
ENDROOT
BRANCH   4  10
HETATM   10  C10 UNL     1     -42.496  17.163   7.087  1.00 20.00     0.090 C 
HETATM   11 BR11 UNL     1     -41.528  18.792   6.686  1.00 20.00    -0.096 Br
ENDBRANCH   4  10
TORSDOF 1
ENDMDL
MODEL 6
REMARK VINA RESULT:      -3.7     11.605     13.663
REMARK  1 active torsions:
REMARK  status: ('A' for Active; 'I' for Inactive)
REMARK    1  A    between atoms: C4_4  and  C10_10 
ROOT
HETATM    1  C1  UNL     1     -34.790  18.161  -3.766  1.00 20.00     0.006 C 
HETATM    2  C2  UNL     1     -35.144  18.451  -5.224  1.00 20.00     0.009 C 
HETATM    3  C3  UNL     1     -34.536  16.083  -5.843  1.00 20.00     0.013 C 
HETATM    4  C4  UNL     1     -33.730  17.056  -3.637  1.00 20.00    -0.001 C 
HETATM    5  C5  UNL     1     -34.174  15.772  -4.377  1.00 20.00    -0.013 C 
HETATM    6  C6  UNL     1     -35.590  17.200  -6.005  1.00 20.00    -0.047 C 
HETATM    7  C7  UNL     1     -33.098  14.680  -4.346  1.00 20.00     0.010 C 
HETATM    8  C8  UNL     1     -35.709  17.559  -7.499  1.00 20.00     0.015 C 
HETATM    9  C9  UNL     1     -36.972  16.720  -5.523  1.00 20.00     0.015 C 
ENDROOT
BRANCH   4  10
HETATM   10  C10 UNL     1     -33.437  16.808  -2.154  1.00 20.00     0.090 C 
HETATM   11 BR11 UNL     1     -32.574  18.371  -1.401  1.00 20.00    -0.096 Br
ENDBRANCH   4  10
TORSDOF 1
ENDMDL
MODEL 7
REMARK VINA RESULT:      -3.6     10.609     11.896
REMARK  1 active torsions:
REMARK  status: ('A' for Active; 'I' for Inactive)
REMARK    1  A    between atoms: C4_4  and  C10_10 
ROOT
HETATM    1  C1  UNL     1     -40.464  14.998   7.046  1.00 20.00     0.006 C 
HETATM    2  C2  UNL     1     -41.015  15.859   8.182  1.00 20.00     0.009 C 
HETATM    3  C3  UNL     1     -42.704  14.065   8.721  1.00 20.00     0.013 C 
HETATM    4  C4  UNL     1     -41.529  14.054   6.467  1.00 20.00    -0.001 C 
HETATM    5  C5  UNL     1     -42.162  13.184   7.578  1.00 20.00    -0.013 C 
HETATM    6  C6  UNL     1     -41.659  15.036   9.314  1.00 20.00    -0.047 C 
HETATM    7  C7  UNL     1     -43.294  12.295   7.049  1.00 20.00     0.010 C 
HETATM    8  C8  UNL     1     -42.368  15.996  10.289  1.00 20.00     0.015 C 
HETATM    9  C9  UNL     1     -40.587  14.264  10.107  1.00 20.00     0.015 C 
ENDROOT
BRANCH   4  10
HETATM   10  C10 UNL     1     -40.905  13.215   5.347  1.00 20.00     0.090 C 
HETATM   11 BR11 UNL     1     -39.497  12.108   6.086  1.00 20.00    -0.096 Br
ENDBRANCH   4  10
TORSDOF 1
ENDMDL
MODEL 8
REMARK VINA RESULT:      -3.6     11.928     13.477
REMARK  1 active torsions:
REMARK  status: ('A' for Active; 'I' for Inactive)
REMARK    1  A    between atoms: C4_4  and  C10_10 
ROOT
HETATM    1  C1  UNL     1     -34.261  16.098  -3.853  1.00 20.00     0.006 C 
HETATM    2  C2  UNL     1     -33.306  16.525  -2.739  1.00 20.00     0.009 C 
HETATM    3  C3  UNL     1     -33.178  18.838  -3.736  1.00 20.00     0.013 C 
HETATM    4  C4  UNL     1     -34.043  16.906  -5.142  1.00 20.00    -0.001 C 
HETATM    5  C5  UNL     1     -34.140  18.425  -4.867  1.00 20.00    -0.013 C 
HETATM    6  C6  UNL     1     -33.363  18.033  -2.431  1.00 20.00    -0.047 C 
HETATM    7  C7  UNL     1     -33.836  19.263  -6.115  1.00 20.00     0.010 C 
HETATM    8  C8  UNL     1     -32.220  18.389  -1.459  1.00 20.00     0.015 C 
HETATM    9  C9  UNL     1     -34.694  18.401  -1.747  1.00 20.00     0.015 C 
ENDROOT
BRANCH   4  10
HETATM   10  C10 UNL     1     -35.042  16.436  -6.206  1.00 20.00     0.090 C 
HETATM   11 BR11 UNL     1     -35.793  14.733  -5.672  1.00 20.00    -0.096 Br
ENDBRANCH   4  10
TORSDOF 1
ENDMDL
MODEL 9
REMARK VINA RESULT:      -3.4     10.805     12.181
REMARK  1 active torsions:
REMARK  status: ('A' for Active; 'I' for Inactive)
REMARK    1  A    between atoms: C4_4  and  C10_10 
ROOT
HETATM    1  C1  UNL     1     -43.041  12.911   8.227  1.00 20.00     0.006 C 
HETATM    2  C2  UNL     1     -43.085  13.241   6.736  1.00 20.00     0.009 C 
HETATM    3  C3  UNL     1     -41.072  14.737   7.010  1.00 20.00     0.013 C 
HETATM    4  C4  UNL     1     -42.417  14.046   9.053  1.00 20.00    -0.001 C 
HETATM    5  C5  UNL     1     -41.014  14.415   8.516  1.00 20.00    -0.013 C 
HETATM    6  C6  UNL     1     -41.709  13.620   6.154  1.00 20.00    -0.047 C 
HETATM    7  C7  UNL     1     -40.400  15.607   9.260  1.00 20.00     0.010 C 
HETATM    8  C8  UNL     1     -41.900  14.141   4.716  1.00 20.00     0.015 C 
HETATM    9  C9  UNL     1     -40.785  12.388   6.091  1.00 20.00     0.015 C 
ENDROOT
BRANCH   4  10
HETATM   10  C10 UNL     1     -42.392  13.640  10.531  1.00 20.00     0.090 C 
HETATM   11 BR11 UNL     1     -43.417  12.013  10.765  1.00 20.00    -0.096 Br
ENDBRANCH   4  10
TORSDOF 1
ENDMDL
