MODEL 1
REMARK VINA RESULT:      -3.9      0.000      0.000
REMARK  1 active torsions:
REMARK  status: ('A' for Active; 'I' for Inactive)
REMARK    1  A    between atoms: C4_4  and  C8_8 
ROOT
HETATM    1  C1  UNL     1     -32.701  15.378  -4.059  1.00 20.00     0.017 A 
HETATM    2  C2  UNL     1     -33.547  16.677  -1.970  1.00 20.00     0.025 C 
HETATM    3  C3  UNL     1     -33.682  17.782  -4.197  1.00 20.00     0.084 C 
HETATM    4  C4  UNL     1     -34.194  15.213  -4.019  1.00 20.00     0.009 A 
HETATM    5  C5  UNL     1     -32.638  17.870  -1.702  1.00 20.00     0.044 C 
HETATM    6  C6  UNL     1     -33.561  16.475  -3.463  1.00 20.00    -0.026 A 
HETATM    7  C7  UNL     1     -32.866  18.490  -0.335  1.00 20.00     0.021 C 
HETATM    8  S9  UNL     1     -33.041  19.037  -3.039  1.00 20.00    -0.164 SA
ENDROOT
BRANCH   4   9
HETATM    9  C8  UNL     1     -34.978  15.210  -5.286  1.00 20.00     0.120 C 
HETATM   10 CL10 UNL     1     -33.905  15.086  -6.708  1.00 20.00    -0.130 Cl
ENDBRANCH   4   9
TORSDOF 1
ENDMDL
MODEL 2
REMARK VINA RESULT:      -3.9      3.054      4.653
REMARK  1 active torsions:
REMARK  status: ('A' for Active; 'I' for Inactive)
REMARK    1  A    between atoms: C4_4  and  C8_8 
ROOT
HETATM    1  C1  UNL     1     -34.014  17.763  -1.171  1.00 20.00     0.017 A 
HETATM    2  C2  UNL     1     -33.221  16.302  -3.170  1.00 20.00     0.025 C 
HETATM    3  C3  UNL     1     -33.415  18.762  -3.496  1.00 20.00     0.084 C 
HETATM    4  C4  UNL     1     -32.514  17.848  -1.204  1.00 20.00     0.009 A 
HETATM    5  C5  UNL     1     -34.275  16.317  -4.271  1.00 20.00     0.044 C 
HETATM    6  C6  UNL     1     -33.286  17.646  -2.495  1.00 20.00    -0.026 A 
HETATM    7  C7  UNL     1     -34.043  15.250  -5.326  1.00 20.00     0.021 C 
HETATM    8  S9  UNL     1     -34.149  17.990  -4.975  1.00 20.00    -0.164 SA
ENDROOT
BRANCH   4   9
HETATM    9  C8  UNL     1     -31.833  19.133  -0.880  1.00 20.00     0.120 C 
HETATM   10 CL10 UNL     1     -30.875  18.996   0.621  1.00 20.00    -0.130 Cl
ENDBRANCH   4   9
TORSDOF 1
ENDMDL
MODEL 3
REMARK VINA RESULT:      -3.5      2.175      3.230
REMARK  1 active torsions:
REMARK  status: ('A' for Active; 'I' for Inactive)
REMARK    1  A    between atoms: C4_4  and  C8_8 
ROOT
HETATM    1  C1  UNL     1     -32.927  19.205  -2.761  1.00 20.00     0.017 A 
HETATM    2  C2  UNL     1     -31.508  18.335  -0.763  1.00 20.00     0.025 C 
HETATM    3  C3  UNL     1     -33.990  18.281  -0.576  1.00 20.00     0.084 C 
HETATM    4  C4  UNL     1     -32.875  17.708  -2.883  1.00 20.00     0.009 A 
HETATM    5  C5  UNL     1     -31.680  19.263   0.434  1.00 20.00     0.044 C 
HETATM    6  C6  UNL     1     -32.815  18.355  -1.511  1.00 20.00    -0.026 A 
HETATM    7  C7  UNL     1     -30.655  19.014   1.526  1.00 20.00     0.021 C 
HETATM    8  S9  UNL     1     -33.370  18.919   1.015  1.00 20.00    -0.164 SA
ENDROOT
BRANCH   4   9
HETATM    9  C8  UNL     1     -34.072  16.957  -3.354  1.00 20.00     0.120 C 
HETATM   10 CL10 UNL     1     -33.656  15.269  -3.763  1.00 20.00    -0.130 Cl
ENDBRANCH   4   9
TORSDOF 1
ENDMDL
MODEL 4
REMARK VINA RESULT:      -3.5     12.411     13.104
REMARK  1 active torsions:
REMARK  status: ('A' for Active; 'I' for Inactive)
REMARK    1  A    between atoms: C4_4  and  C8_8 
ROOT
HETATM    1  C1  UNL     1     -42.077  12.518   6.765  1.00 20.00     0.017 A 
HETATM    2  C2  UNL     1     -41.905  15.037   6.145  1.00 20.00     0.025 C 
HETATM    3  C3  UNL     1     -40.296  14.105   7.800  1.00 20.00     0.084 C 
HETATM    4  C4  UNL     1     -40.991  12.639   5.734  1.00 20.00     0.009 A 
HETATM    5  C5  UNL     1     -42.277  15.892   7.350  1.00 20.00     0.044 C 
HETATM    6  C6  UNL     1     -41.258  13.790   6.686  1.00 20.00    -0.026 A 
HETATM    7  C7  UNL     1     -42.510  17.349   6.992  1.00 20.00     0.021 C 
HETATM    8  S9  UNL     1     -40.860  15.701   8.476  1.00 20.00    -0.164 SA
ENDROOT
BRANCH   4   9
HETATM    9  C8  UNL     1     -39.769  11.792   5.837  1.00 20.00     0.120 C 
HETATM   10 CL10 UNL     1     -38.910  11.705   4.273  1.00 20.00    -0.130 Cl
ENDBRANCH   4   9
TORSDOF 1
ENDMDL
MODEL 5
REMARK VINA RESULT:      -3.4      2.899      4.595
REMARK  1 active torsions:
REMARK  status: ('A' for Active; 'I' for Inactive)
REMARK    1  A    between atoms: C4_4  and  C8_8 
ROOT
HETATM    1  C1  UNL     1     -33.148  18.354  -3.586  1.00 20.00     0.017 A 
HETATM    2  C2  UNL     1     -35.208  17.184  -4.657  1.00 20.00     0.025 C 
HETATM    3  C3  UNL     1     -33.455  15.772  -3.594  1.00 20.00     0.084 C 
HETATM    4  C4  UNL     1     -34.107  18.054  -2.469  1.00 20.00     0.009 A 
HETATM    5  C5  UNL     1     -34.770  16.383  -5.878  1.00 20.00     0.044 C 
HETATM    6  C6  UNL     1     -34.059  17.147  -3.685  1.00 20.00    -0.026 A 
HETATM    7  C7  UNL     1     -35.937  15.934  -6.739  1.00 20.00     0.021 C 
HETATM    8  S9  UNL     1     -33.876  14.964  -5.173  1.00 20.00    -0.164 SA
ENDROOT
BRANCH   4   9
HETATM    9  C8  UNL     1     -33.591  17.625  -1.139  1.00 20.00     0.120 C 
HETATM   10 CL10 UNL     1     -31.935  18.234  -0.861  1.00 20.00    -0.130 Cl
ENDBRANCH   4   9
TORSDOF 1
ENDMDL
MODEL 6
REMARK VINA RESULT:      -3.3      1.292      1.530
REMARK  1 active torsions:
REMARK  status: ('A' for Active; 'I' for Inactive)
REMARK    1  A    between atoms: C4_4  and  C8_8 
ROOT
HETATM    1  C1  UNL     1     -33.659  15.467  -5.630  1.00 20.00     0.017 A 
HETATM    2  C2  UNL     1     -33.578  16.094  -3.108  1.00 20.00     0.025 C 
HETATM    3  C3  UNL     1     -35.204  17.274  -4.578  1.00 20.00     0.084 C 
HETATM    4  C4  UNL     1     -34.771  14.711  -4.957  1.00 20.00     0.009 A 
HETATM    5  C5  UNL     1     -33.059  17.518  -2.947  1.00 20.00     0.044 C 
HETATM    6  C6  UNL     1     -34.335  16.058  -4.409  1.00 20.00    -0.026 A 
HETATM    7  C7  UNL     1     -32.682  17.851  -1.514  1.00 20.00     0.021 C 
HETATM    8  S9  UNL     1     -34.436  18.554  -3.531  1.00 20.00    -0.164 SA
ENDROOT
BRANCH   4   9
HETATM    9  C8  UNL     1     -36.073  14.524  -5.656  1.00 20.00     0.120 C 
HETATM   10 CL10 UNL     1     -35.925  14.870  -7.402  1.00 20.00    -0.130 Cl
ENDBRANCH   4   9
TORSDOF 1
ENDMDL
MODEL 7
REMARK VINA RESULT:      -3.2      3.056      4.616
REMARK  1 active torsions:
REMARK  status: ('A' for Active; 'I' for Inactive)
REMARK    1  A    between atoms: C4_4  and  C8_8 
ROOT
HETATM    1  C1  UNL     1     -33.668  17.013  -1.538  1.00 20.00     0.017 A 
HETATM    2  C2  UNL     1     -33.663  17.163  -4.133  1.00 20.00     0.025 C 
HETATM    3  C3  UNL     1     -34.758  18.984  -2.836  1.00 20.00     0.084 C 
HETATM    4  C4  UNL     1     -32.536  17.925  -1.919  1.00 20.00     0.009 A 
HETATM    5  C5  UNL     1     -35.085  17.014  -4.661  1.00 20.00     0.044 C 
HETATM    6  C6  UNL     1     -33.772  17.849  -2.797  1.00 20.00    -0.026 A 
HETATM    7  C7  UNL     1     -35.137  16.773  -6.159  1.00 20.00     0.021 C 
HETATM    8  S9  UNL     1     -35.886  18.585  -4.211  1.00 20.00    -0.164 SA
ENDROOT
BRANCH   4   9
HETATM    9  C8  UNL     1     -32.230  19.120  -1.084  1.00 20.00     0.120 C 
HETATM   10 CL10 UNL     1     -31.063  18.723   0.209  1.00 20.00    -0.130 Cl
ENDBRANCH   4   9
TORSDOF 1
ENDMDL
MODEL 8
REMARK VINA RESULT:      -3.1     12.942     13.742
REMARK  1 active torsions:
REMARK  status: ('A' for Active; 'I' for Inactive)
REMARK    1  A    between atoms: C4_4  and  C8_8 
ROOT
HETATM    1  C1  UNL     1     -41.511  13.927   5.405  1.00 20.00     0.017 A 
HETATM    2  C2  UNL     1     -41.271  14.680   7.883  1.00 20.00     0.025 C 
HETATM    3  C3  UNL     1     -42.395  12.512   7.399  1.00 20.00     0.084 C 
HETATM    4  C4  UNL     1     -40.311  13.214   5.963  1.00 20.00     0.009 A 
HETATM    5  C5  UNL     1     -42.646  14.986   8.464  1.00 20.00     0.044 C 
HETATM    6  C6  UNL     1     -41.466  13.575   6.879  1.00 20.00    -0.026 A 
HETATM    7  C7  UNL     1     -42.576  15.728   9.787  1.00 20.00     0.021 C 
HETATM    8  S9  UNL     1     -43.414  13.348   8.658  1.00 20.00    -0.164 SA
ENDROOT
BRANCH   4   9
HETATM    9  C8  UNL     1     -40.027  11.808   5.560  1.00 20.00     0.120 C 
HETATM   10 CL10 UNL     1     -39.031  11.748   4.079  1.00 20.00    -0.130 Cl
ENDBRANCH   4   9
TORSDOF 1
ENDMDL
MODEL 9
REMARK VINA RESULT:      -3.0     11.576     12.186
REMARK  1 active torsions:
REMARK  status: ('A' for Active; 'I' for Inactive)
REMARK    1  A    between atoms: C4_4  and  C8_8 
ROOT
HETATM    1  C1  UNL     1     -31.594   7.489   3.431  1.00 20.00     0.017 A 
HETATM    2  C2  UNL     1     -33.764   6.257   4.160  1.00 20.00     0.025 C 
HETATM    3  C3  UNL     1     -33.388   8.583   4.963  1.00 20.00     0.084 C 
HETATM    4  C4  UNL     1     -32.688   7.953   2.511  1.00 20.00     0.009 A 
HETATM    5  C5  UNL     1     -33.728   5.992   5.661  1.00 20.00     0.044 C 
HETATM    6  C6  UNL     1     -33.022   7.547   3.935  1.00 20.00    -0.026 A 
HETATM    7  C7  UNL     1     -34.793   5.008   6.113  1.00 20.00     0.021 C 
HETATM    8  S9  UNL     1     -33.980   7.634   6.402  1.00 20.00    -0.164 SA
ENDROOT
BRANCH   4   9
HETATM    9  C8  UNL     1     -32.730   9.372   2.060  1.00 20.00     0.120 C 
HETATM   10 CL10 UNL     1     -32.726   9.484   0.277  1.00 20.00    -0.130 Cl
ENDBRANCH   4   9
TORSDOF 1
ENDMDL
