MODEL 1
REMARK VINA RESULT:      -4.3      0.000      0.000
REMARK  3 active torsions:
REMARK  status: ('A' for Active; 'I' for Inactive)
REMARK    1  A    between atoms: C2_2  and  C6_6 
REMARK    2  A    between atoms: C3_3  and  C7_7 
REMARK    3  A    between atoms: C3_3  and  C8_8 
ROOT
HETATM    1  C1  UNL     1     -33.923   8.530   4.783  1.00 20.00     0.016 A 
HETATM    2  C2  UNL     1     -32.605   7.872   4.472  1.00 20.00     0.009 A 
HETATM    3  C3  UNL     1     -33.774   7.034   4.965  1.00 20.00    -0.036 A 
ENDROOT
BRANCH   3   4
HETATM    4  C7  UNL     1     -34.509   6.129   4.011  1.00 20.00     0.005 C 
HETATM    5  C4  UNL     1     -33.787   4.834   3.780  1.00 20.00     0.006 C 
ENDBRANCH   3   4
BRANCH   3   6
HETATM    6  C8  UNL     1     -33.692   6.501   6.371  1.00 20.00     0.005 C 
HETATM    7  C5  UNL     1     -34.795   5.532   6.681  1.00 20.00     0.006 C 
ENDBRANCH   3   6
BRANCH   2   8
HETATM    8  C6  UNL     1     -32.107   7.811   3.068  1.00 20.00     0.120 C 
HETATM    9 CL9  UNL     1     -32.725   9.182   2.104  1.00 20.00    -0.130 Cl
ENDBRANCH   2   8
TORSDOF 3
ENDMDL
MODEL 2
REMARK VINA RESULT:      -3.9     15.235     16.611
REMARK  3 active torsions:
REMARK  status: ('A' for Active; 'I' for Inactive)
REMARK    1  A    between atoms: C2_2  and  C6_6 
REMARK    2  A    between atoms: C3_3  and  C7_7 
REMARK    3  A    between atoms: C3_3  and  C8_8 
ROOT
HETATM    1  C1  UNL     1     -24.379  18.011   9.957  1.00 20.00     0.016 A 
HETATM    2  C2  UNL     1     -23.920  16.743  10.626  1.00 20.00     0.009 A 
HETATM    3  C3  UNL     1     -22.975  17.929  10.517  1.00 20.00    -0.036 A 
ENDROOT
BRANCH   3   4
HETATM    4  C7  UNL     1     -22.651  18.751  11.737  1.00 20.00     0.005 C 
HETATM    5  C4  UNL     1     -21.319  18.394  12.331  1.00 20.00     0.006 C 
ENDBRANCH   3   4
BRANCH   3   6
HETATM    6  C8  UNL     1     -21.834  17.810   9.540  1.00 20.00     0.005 C 
HETATM    7  C5  UNL     1     -21.970  18.758   8.384  1.00 20.00     0.006 C 
ENDBRANCH   3   6
BRANCH   2   8
HETATM    8  C6  UNL     1     -24.524  16.313  11.919  1.00 20.00     0.120 C 
HETATM    9 CL9  UNL     1     -25.949  17.308  12.329  1.00 20.00    -0.130 Cl
ENDBRANCH   2   8
TORSDOF 3
ENDMDL
MODEL 3
REMARK VINA RESULT:      -3.9      2.076      3.708
REMARK  3 active torsions:
REMARK  status: ('A' for Active; 'I' for Inactive)
REMARK    1  A    between atoms: C2_2  and  C6_6 
REMARK    2  A    between atoms: C3_3  and  C7_7 
REMARK    3  A    between atoms: C3_3  and  C8_8 
ROOT
HETATM    1  C1  UNL     1     -32.195   8.805   4.718  1.00 20.00     0.016 A 
HETATM    2  C2  UNL     1     -33.554   8.158   4.725  1.00 20.00     0.009 A 
HETATM    3  C3  UNL     1     -32.663   8.039   3.499  1.00 20.00    -0.036 A 
ENDROOT
BRANCH   3   4
HETATM    4  C7  UNL     1     -31.986   6.732   3.182  1.00 20.00     0.005 C 
HETATM    5  C4  UNL     1     -32.921   5.739   2.556  1.00 20.00     0.006 C 
ENDBRANCH   3   4
BRANCH   3   6
HETATM    6  C8  UNL     1     -33.061   8.830   2.281  1.00 20.00     0.005 C 
HETATM    7  C5  UNL     1     -32.132   8.606   1.123  1.00 20.00     0.006 C 
ENDBRANCH   3   6
BRANCH   2   8
HETATM    8  C6  UNL     1     -33.835   7.008   5.630  1.00 20.00     0.120 C 
HETATM    9 CL9  UNL     1     -35.194   6.022   5.019  1.00 20.00    -0.130 Cl
ENDBRANCH   2   8
TORSDOF 3
ENDMDL
MODEL 4
REMARK VINA RESULT:      -3.8      1.366      2.429
REMARK  3 active torsions:
REMARK  status: ('A' for Active; 'I' for Inactive)
REMARK    1  A    between atoms: C2_2  and  C6_6 
REMARK    2  A    between atoms: C3_3  and  C7_7 
REMARK    3  A    between atoms: C3_3  and  C8_8 
ROOT
HETATM    1  C1  UNL     1     -31.589   7.605   3.750  1.00 20.00     0.016 A 
HETATM    2  C2  UNL     1     -32.392   7.856   2.501  1.00 20.00     0.009 A 
HETATM    3  C3  UNL     1     -33.002   7.073   3.652  1.00 20.00    -0.036 A 
ENDROOT
BRANCH   3   4
HETATM    4  C7  UNL     1     -34.058   7.707   4.520  1.00 20.00     0.005 C 
HETATM    5  C4  UNL     1     -33.584   7.931   5.927  1.00 20.00     0.006 C 
ENDBRANCH   3   4
BRANCH   3   6
HETATM    6  C8  UNL     1     -33.184   5.591   3.455  1.00 20.00     0.005 C 
HETATM    7  C5  UNL     1     -34.308   5.037   4.282  1.00 20.00     0.006 C 
ENDBRANCH   3   6
BRANCH   2   8
HETATM    8  C6  UNL     1     -32.824   9.238   2.150  1.00 20.00     0.120 C 
HETATM    9 CL9  UNL     1     -32.748   9.510   0.386  1.00 20.00    -0.130 Cl
ENDBRANCH   2   8
TORSDOF 3
ENDMDL
MODEL 5
REMARK VINA RESULT:      -3.8     11.900     13.054
REMARK  3 active torsions:
REMARK  status: ('A' for Active; 'I' for Inactive)
REMARK    1  A    between atoms: C2_2  and  C6_6 
REMARK    2  A    between atoms: C3_3  and  C7_7 
REMARK    3  A    between atoms: C3_3  and  C8_8 
ROOT
HETATM    1  C1  UNL     1     -32.635  19.237  -2.460  1.00 20.00     0.016 A 
HETATM    2  C2  UNL     1     -32.422  19.249  -0.970  1.00 20.00     0.009 A 
HETATM    3  C3  UNL     1     -33.609  18.506  -1.561  1.00 20.00    -0.036 A 
ENDROOT
BRANCH   3   4
HETATM    4  C7  UNL     1     -33.614  17.000  -1.600  1.00 20.00     0.005 C 
HETATM    5  C4  UNL     1     -33.296  16.462  -2.965  1.00 20.00     0.006 C 
ENDBRANCH   3   4
BRANCH   3   6
HETATM    6  C8  UNL     1     -34.972  19.115  -1.357  1.00 20.00     0.005 C 
HETATM    7  C5  UNL     1     -35.877  18.900  -2.535  1.00 20.00     0.006 C 
ENDBRANCH   3   6
BRANCH   2   8
HETATM    8  C6  UNL     1     -31.251  18.548  -0.371  1.00 20.00     0.120 C 
HETATM    9 CL9  UNL     1     -31.428  18.390   1.399  1.00 20.00    -0.130 Cl
ENDBRANCH   2   8
TORSDOF 3
ENDMDL
MODEL 6
REMARK VINA RESULT:      -3.8     11.728     13.146
REMARK  3 active torsions:
REMARK  status: ('A' for Active; 'I' for Inactive)
REMARK    1  A    between atoms: C2_2  and  C6_6 
REMARK    2  A    between atoms: C3_3  and  C7_7 
REMARK    3  A    between atoms: C3_3  and  C8_8 
ROOT
HETATM    1  C1  UNL     1     -33.175  18.297  -3.642  1.00 20.00     0.016 A 
HETATM    2  C2  UNL     1     -34.129  17.843  -2.570  1.00 20.00     0.009 A 
HETATM    3  C3  UNL     1     -33.934  16.999  -3.819  1.00 20.00    -0.036 A 
ENDROOT
BRANCH   3   4
HETATM    4  C7  UNL     1     -33.157  15.711  -3.746  1.00 20.00     0.005 C 
HETATM    5  C4  UNL     1     -33.971  14.525  -4.176  1.00 20.00     0.006 C 
ENDBRANCH   3   4
BRANCH   3   6
HETATM    6  C8  UNL     1     -35.064  16.974  -4.815  1.00 20.00     0.005 C 
HETATM    7  C5  UNL     1     -34.673  17.562  -6.139  1.00 20.00     0.006 C 
ENDBRANCH   3   6
BRANCH   2   8
HETATM    8  C6  UNL     1     -33.616  17.431  -1.232  1.00 20.00     0.120 C 
HETATM    9 CL9  UNL     1     -32.035  18.186  -0.886  1.00 20.00    -0.130 Cl
ENDBRANCH   2   8
TORSDOF 3
ENDMDL
MODEL 7
REMARK VINA RESULT:      -3.7      2.289      3.553
REMARK  3 active torsions:
REMARK  status: ('A' for Active; 'I' for Inactive)
REMARK    1  A    between atoms: C2_2  and  C6_6 
REMARK    2  A    between atoms: C3_3  and  C7_7 
REMARK    3  A    between atoms: C3_3  and  C8_8 
ROOT
HETATM    1  C1  UNL     1     -33.307   6.895   5.814  1.00 20.00     0.016 A 
HETATM    2  C2  UNL     1     -34.574   7.002   5.008  1.00 20.00     0.009 A 
HETATM    3  C3  UNL     1     -33.256   7.481   4.419  1.00 20.00    -0.036 A 
ENDROOT
BRANCH   3   4
HETATM    4  C7  UNL     1     -32.576   6.679   3.341  1.00 20.00     0.005 C 
HETATM    5  C4  UNL     1     -32.220   7.513   2.145  1.00 20.00     0.006 C 
ENDBRANCH   3   4
BRANCH   3   6
HETATM    6  C8  UNL     1     -33.063   8.969   4.287  1.00 20.00     0.005 C 
HETATM    7  C5  UNL     1     -31.935   9.477   5.138  1.00 20.00     0.006 C 
ENDBRANCH   3   6
BRANCH   2   8
HETATM    8  C6  UNL     1     -35.268   5.773   4.531  1.00 20.00     0.120 C 
HETATM    9 CL9  UNL     1     -34.293   4.312   4.856  1.00 20.00    -0.130 Cl
ENDBRANCH   2   8
TORSDOF 3
ENDMDL
MODEL 8
REMARK VINA RESULT:      -3.7      9.231     10.639
REMARK  3 active torsions:
REMARK  status: ('A' for Active; 'I' for Inactive)
REMARK    1  A    between atoms: C2_2  and  C6_6 
REMARK    2  A    between atoms: C3_3  and  C7_7 
REMARK    3  A    between atoms: C3_3  and  C8_8 
ROOT
HETATM    1  C1  UNL     1     -42.065  12.563   6.719  1.00 20.00     0.016 A 
HETATM    2  C2  UNL     1     -40.908  12.768   5.779  1.00 20.00     0.009 A 
HETATM    3  C3  UNL     1     -41.277  13.855   6.775  1.00 20.00    -0.036 A 
ENDROOT
BRANCH   3   4
HETATM    4  C7  UNL     1     -40.408  14.101   7.980  1.00 20.00     0.005 C 
HETATM    5  C4  UNL     1     -40.325  15.557   8.339  1.00 20.00     0.006 C 
ENDBRANCH   3   4
BRANCH   3   6
HETATM    6  C8  UNL     1     -41.925  15.099   6.225  1.00 20.00     0.005 C 
HETATM    7  C5  UNL     1     -43.417  15.086   6.387  1.00 20.00     0.006 C 
ENDBRANCH   3   6
BRANCH   2   8
HETATM    8  C6  UNL     1     -39.675  11.940   5.911  1.00 20.00     0.120 C 
HETATM    9 CL9  UNL     1     -38.865  11.730   4.333  1.00 20.00    -0.130 Cl
ENDBRANCH   2   8
TORSDOF 3
ENDMDL
MODEL 9
REMARK VINA RESULT:      -3.6     11.744     12.707
REMARK  3 active torsions:
REMARK  status: ('A' for Active; 'I' for Inactive)
REMARK    1  A    between atoms: C2_2  and  C6_6 
REMARK    2  A    between atoms: C3_3  and  C7_7 
REMARK    3  A    between atoms: C3_3  and  C8_8 
ROOT
HETATM    1  C1  UNL     1     -32.531  15.607  -3.955  1.00 20.00     0.016 A 
HETATM    2  C2  UNL     1     -33.937  15.090  -3.804  1.00 20.00     0.009 A 
HETATM    3  C3  UNL     1     -33.611  16.525  -3.424  1.00 20.00    -0.036 A 
ENDROOT
BRANCH   3   4
HETATM    4  C7  UNL     1     -34.067  17.661  -4.303  1.00 20.00     0.005 C 
HETATM    5  C4  UNL     1     -35.351  18.275  -3.825  1.00 20.00     0.006 C 
ENDBRANCH   3   4
BRANCH   3   6
HETATM    6  C8  UNL     1     -33.591  16.860  -1.956  1.00 20.00     0.005 C 
HETATM    7  C5  UNL     1     -32.549  17.885  -1.616  1.00 20.00     0.006 C 
ENDBRANCH   3   6
BRANCH   2   8
HETATM    8  C6  UNL     1     -34.742  14.739  -5.008  1.00 20.00     0.120 C 
HETATM    9 CL9  UNL     1     -36.051  13.595  -4.599  1.00 20.00    -0.130 Cl
ENDBRANCH   2   8
TORSDOF 3
ENDMDL
