MODEL 1
REMARK VINA RESULT:      -3.5      0.000      0.000
REMARK  1 active torsions:
REMARK  status: ('A' for Active; 'I' for Inactive)
REMARK    1  A    between atoms: C5_5  and  C10_10 
ROOT
HETATM    1  C1  UNL     1     -41.415  16.094   7.726  1.00 20.00     0.017 A 
HETATM    2  C2  UNL     1     -40.296  13.776   7.251  1.00 20.00     0.020 C 
HETATM    3  C3  UNL     1     -42.284  13.904   8.839  1.00 20.00     0.083 C 
HETATM    4  C4  UNL     1     -42.205  12.170   6.709  1.00 20.00     0.082 C 
HETATM    5  C5  UNL     1     -40.472  15.781   8.853  1.00 20.00     0.009 A 
HETATM    6  C6  UNL     1     -41.186  14.647   8.122  1.00 20.00    -0.026 A 
HETATM    7  C7  UNL     1     -41.046  13.012   6.132  1.00 20.00    -0.038 C 
HETATM    8  C8  UNL     1     -41.551  13.981   5.044  1.00 20.00     0.015 C 
HETATM    9  C9  UNL     1     -40.045  12.046   5.461  1.00 20.00     0.015 C 
HETATM   10  S11 UNL     1     -43.417  13.136   7.659  1.00 20.00    -0.168 SA
ENDROOT
BRANCH   5  11
HETATM   11  C10 UNL     1     -40.805  16.193  10.246  1.00 20.00     0.120 C 
HETATM   12 CL12 UNL     1     -40.006  15.136  11.442  1.00 20.00    -0.130 Cl
ENDBRANCH   5  11
TORSDOF 1
ENDMDL
MODEL 2
REMARK VINA RESULT:      -3.5     12.338     13.369
REMARK  1 active torsions:
REMARK  status: ('A' for Active; 'I' for Inactive)
REMARK    1  A    between atoms: C5_5  and  C10_10 
ROOT
HETATM    1  C1  UNL     1     -32.297  19.263  -1.917  1.00 20.00     0.017 A 
HETATM    2  C2  UNL     1     -33.429  17.119  -2.906  1.00 20.00     0.020 C 
HETATM    3  C3  UNL     1     -34.741  18.601  -1.301  1.00 20.00     0.083 C 
HETATM    4  C4  UNL     1     -35.716  17.861  -3.761  1.00 20.00     0.082 C 
HETATM    5  C5  UNL     1     -32.201  18.162  -0.900  1.00 20.00     0.009 A 
HETATM    6  C6  UNL     1     -33.392  18.214  -1.852  1.00 20.00    -0.026 A 
HETATM    7  C7  UNL     1     -34.278  17.461  -4.154  1.00 20.00    -0.038 C 
HETATM    8  C8  UNL     1     -33.605  18.564  -4.996  1.00 20.00     0.015 C 
HETATM    9  C9  UNL     1     -34.361  16.194  -5.035  1.00 20.00     0.015 C 
HETATM   10  S11 UNL     1     -35.803  19.262  -2.606  1.00 20.00    -0.168 SA
ENDROOT
BRANCH   5  11
HETATM   11  C10 UNL     1     -32.302  18.474   0.554  1.00 20.00     0.120 C 
HETATM   12 CL12 UNL     1     -30.690  18.516   1.319  1.00 20.00    -0.130 Cl
ENDBRANCH   5  11
TORSDOF 1
ENDMDL
MODEL 3
REMARK VINA RESULT:      -3.5      2.673      4.606
REMARK  1 active torsions:
REMARK  status: ('A' for Active; 'I' for Inactive)
REMARK    1  A    between atoms: C5_5  and  C10_10 
ROOT
HETATM    1  C1  UNL     1     -41.884  12.665   6.962  1.00 20.00     0.017 A 
HETATM    2  C2  UNL     1     -40.372  14.193   8.456  1.00 20.00     0.020 C 
HETATM    3  C3  UNL     1     -41.539  15.190   6.421  1.00 20.00     0.083 C 
HETATM    4  C4  UNL     1     -41.744  16.293   8.930  1.00 20.00     0.082 C 
HETATM    5  C5  UNL     1     -40.536  12.784   6.310  1.00 20.00     0.009 A 
HETATM    6  C6  UNL     1     -41.085  13.943   7.137  1.00 20.00    -0.026 A 
HETATM    7  C7  UNL     1     -41.216  14.960   9.503  1.00 20.00    -0.038 C 
HETATM    8  C8  UNL     1     -42.371  14.085  10.031  1.00 20.00     0.015 C 
HETATM    9  C9  UNL     1     -40.300  15.289  10.703  1.00 20.00     0.015 C 
HETATM   10  S11 UNL     1     -42.738  16.104   7.420  1.00 20.00    -0.168 SA
ENDROOT
BRANCH   5  11
HETATM   11  C10 UNL     1     -40.424  12.822   4.824  1.00 20.00     0.120 C 
HETATM   12 CL12 UNL     1     -39.141  11.723   4.245  1.00 20.00    -0.130 Cl
ENDBRANCH   5  11
TORSDOF 1
ENDMDL
MODEL 4
REMARK VINA RESULT:      -3.5      2.756      4.548
REMARK  1 active torsions:
REMARK  status: ('A' for Active; 'I' for Inactive)
REMARK    1  A    between atoms: C5_5  and  C10_10 
ROOT
HETATM    1  C1  UNL     1     -41.863  12.449   6.718  1.00 20.00     0.017 A 
HETATM    2  C2  UNL     1     -41.014  14.917   6.928  1.00 20.00     0.020 C 
HETATM    3  C3  UNL     1     -41.623  13.992   4.632  1.00 20.00     0.083 C 
HETATM    4  C4  UNL     1     -42.664  16.344   5.601  1.00 20.00     0.082 C 
HETATM    5  C5  UNL     1     -40.401  12.481   6.373  1.00 20.00     0.009 A 
HETATM    6  C6  UNL     1     -41.280  13.691   6.069  1.00 20.00    -0.026 A 
HETATM    7  C7  UNL     1     -42.199  15.910   7.008  1.00 20.00    -0.038 C 
HETATM    8  C8  UNL     1     -43.367  15.313   7.819  1.00 20.00     0.015 C 
HETATM    9  C9  UNL     1     -41.713  17.171   7.758  1.00 20.00     0.015 C 
HETATM   10  S11 UNL     1     -43.146  14.961   4.524  1.00 20.00    -0.168 SA
ENDROOT
BRANCH   5  11
HETATM   11  C10 UNL     1     -39.861  11.578   5.317  1.00 20.00     0.120 C 
HETATM   12 CL12 UNL     1     -38.130  11.896   5.019  1.00 20.00    -0.130 Cl
ENDBRANCH   5  11
TORSDOF 1
ENDMDL
MODEL 5
REMARK VINA RESULT:      -3.3      2.812      4.628
REMARK  1 active torsions:
REMARK  status: ('A' for Active; 'I' for Inactive)
REMARK    1  A    between atoms: C5_5  and  C10_10 
ROOT
HETATM    1  C1  UNL     1     -39.336  12.315   7.210  1.00 20.00     0.017 A 
HETATM    2  C2  UNL     1     -40.284  14.717   6.777  1.00 20.00     0.020 C 
HETATM    3  C3  UNL     1     -41.815  12.697   6.502  1.00 20.00     0.083 C 
HETATM    4  C4  UNL     1     -42.478  14.851   8.075  1.00 20.00     0.082 C 
HETATM    5  C5  UNL     1     -39.326  12.572   5.729  1.00 20.00     0.009 A 
HETATM    6  C6  UNL     1     -40.401  13.211   6.604  1.00 20.00    -0.026 A 
HETATM    7  C7  UNL     1     -40.993  15.272   8.037  1.00 20.00    -0.038 C 
HETATM    8  C8  UNL     1     -40.260  14.837   9.322  1.00 20.00     0.015 C 
HETATM    9  C9  UNL     1     -40.938  16.815   7.973  1.00 20.00     0.015 C 
HETATM   10  S11 UNL     1     -42.738  13.053   8.016  1.00 20.00    -0.168 SA
ENDROOT
BRANCH   5  11
HETATM   11  C10 UNL     1     -39.603  11.461   4.774  1.00 20.00     0.120 C 
HETATM   12 CL12 UNL     1     -38.905  11.802   3.167  1.00 20.00    -0.130 Cl
ENDBRANCH   5  11
TORSDOF 1
ENDMDL
MODEL 6
REMARK VINA RESULT:      -3.3     13.105     14.315
REMARK  1 active torsions:
REMARK  status: ('A' for Active; 'I' for Inactive)
REMARK    1  A    between atoms: C5_5  and  C10_10 
ROOT
HETATM    1  C1  UNL     1     -34.853  17.958  -2.803  1.00 20.00     0.017 A 
HETATM    2  C2  UNL     1     -34.096  17.789  -5.304  1.00 20.00     0.020 C 
HETATM    3  C3  UNL     1     -33.116  16.180  -3.587  1.00 20.00     0.083 C 
HETATM    4  C4  UNL     1     -34.272  15.319  -5.927  1.00 20.00     0.082 C 
HETATM    5  C5  UNL     1     -33.541  18.675  -2.954  1.00 20.00     0.009 A 
HETATM    6  C6  UNL     1     -33.854  17.471  -3.837  1.00 20.00    -0.026 A 
HETATM    7  C7  UNL     1     -34.915  16.716  -6.063  1.00 20.00    -0.038 C 
HETATM    8  C8  UNL     1     -36.382  16.701  -5.588  1.00 20.00     0.015 C 
HETATM    9  C9  UNL     1     -34.919  17.093  -7.562  1.00 20.00     0.015 C 
HETATM   10  S11 UNL     1     -34.060  14.769  -4.207  1.00 20.00    -0.168 SA
ENDROOT
BRANCH   5  11
HETATM   11  C10 UNL     1     -32.538  18.642  -1.852  1.00 20.00     0.120 C 
HETATM   12 CL12 UNL     1     -33.268  18.056  -0.331  1.00 20.00    -0.130 Cl
ENDBRANCH   5  11
TORSDOF 1
ENDMDL
MODEL 7
REMARK VINA RESULT:      -3.3     12.791     13.820
REMARK  1 active torsions:
REMARK  status: ('A' for Active; 'I' for Inactive)
REMARK    1  A    between atoms: C5_5  and  C10_10 
ROOT
HETATM    1  C1  UNL     1     -32.833  19.111  -3.102  1.00 20.00     0.017 A 
HETATM    2  C2  UNL     1     -34.102  16.958  -3.879  1.00 20.00     0.020 C 
HETATM    3  C3  UNL     1     -35.256  18.590  -2.298  1.00 20.00     0.083 C 
HETATM    4  C4  UNL     1     -36.410  17.738  -4.642  1.00 20.00     0.082 C 
HETATM    5  C5  UNL     1     -32.714  18.073  -2.023  1.00 20.00     0.009 A 
HETATM    6  C6  UNL     1     -33.959  18.115  -2.903  1.00 20.00    -0.026 A 
HETATM    7  C7  UNL     1     -35.015  17.255  -5.094  1.00 20.00    -0.038 C 
HETATM    8  C8  UNL     1     -34.355  18.275  -6.044  1.00 20.00     0.015 C 
HETATM    9  C9  UNL     1     -35.199  15.940  -5.883  1.00 20.00     0.015 C 
HETATM   10  S11 UNL     1     -36.372  19.211  -3.577  1.00 20.00    -0.168 SA
ENDROOT
BRANCH   5  11
HETATM   11  C10 UNL     1     -32.712  18.480  -0.589  1.00 20.00     0.120 C 
HETATM   12 CL12 UNL     1     -31.065  18.424   0.097  1.00 20.00    -0.130 Cl
ENDBRANCH   5  11
TORSDOF 1
ENDMDL
MODEL 8
REMARK VINA RESULT:      -3.3     13.024     13.897
REMARK  1 active torsions:
REMARK  status: ('A' for Active; 'I' for Inactive)
REMARK    1  A    between atoms: C5_5  and  C10_10 
ROOT
HETATM    1  C1  UNL     1     -33.269  16.732  -2.739  1.00 20.00     0.017 A 
HETATM    2  C2  UNL     1     -35.446  18.152  -3.054  1.00 20.00     0.020 C 
HETATM    3  C3  UNL     1     -33.178  19.216  -3.523  1.00 20.00     0.083 C 
HETATM    4  C4  UNL     1     -35.237  19.263  -5.343  1.00 20.00     0.082 C 
HETATM    5  C5  UNL     1     -33.468  17.578  -1.513  1.00 20.00     0.009 A 
HETATM    6  C6  UNL     1     -33.938  18.088  -2.872  1.00 20.00    -0.026 A 
HETATM    7  C7  UNL     1     -35.913  18.138  -4.530  1.00 20.00    -0.038 C 
HETATM    8  C8  UNL     1     -35.664  16.760  -5.176  1.00 20.00     0.015 C 
HETATM    9  C9  UNL     1     -37.438  18.388  -4.550  1.00 20.00     0.015 C 
HETATM   10  S11 UNL     1     -33.420  19.204  -5.314  1.00 20.00    -0.168 SA
ENDROOT
BRANCH   5  11
HETATM   11  C10 UNL     1     -32.291  18.140  -0.791  1.00 20.00     0.120 C 
HETATM   12 CL12 UNL     1     -32.695  18.521   0.905  1.00 20.00    -0.130 Cl
ENDBRANCH   5  11
TORSDOF 1
ENDMDL
MODEL 9
REMARK VINA RESULT:      -3.1     14.475     15.237
REMARK  1 active torsions:
REMARK  status: ('A' for Active; 'I' for Inactive)
REMARK    1  A    between atoms: C5_5  and  C10_10 
ROOT
HETATM    1  C1  UNL     1     -34.132  15.247  -6.064  1.00 20.00     0.017 A 
HETATM    2  C2  UNL     1     -36.420  16.347  -5.425  1.00 20.00     0.020 C 
HETATM    3  C3  UNL     1     -34.329  17.797  -5.562  1.00 20.00     0.083 C 
HETATM    4  C4  UNL     1     -36.646  18.414  -6.906  1.00 20.00     0.082 C 
HETATM    5  C5  UNL     1     -34.192  15.389  -4.569  1.00 20.00     0.009 A 
HETATM    6  C6  UNL     1     -34.902  16.406  -5.458  1.00 20.00    -0.026 A 
HETATM    7  C7  UNL     1     -37.111  16.962  -6.667  1.00 20.00    -0.038 C 
HETATM    8  C8  UNL     1     -36.876  16.091  -7.918  1.00 20.00     0.015 C 
HETATM    9  C9  UNL     1     -38.632  16.987  -6.402  1.00 20.00     0.015 C 
HETATM   10  S11 UNL     1     -34.847  18.591  -7.102  1.00 20.00    -0.168 SA
ENDROOT
BRANCH   5  11
HETATM   11  C10 UNL     1     -32.956  15.699  -3.796  1.00 20.00     0.120 C 
HETATM   12 CL12 UNL     1     -33.338  16.600  -2.303  1.00 20.00    -0.130 Cl
ENDBRANCH   5  11
TORSDOF 1
ENDMDL
