MODEL 1
REMARK VINA RESULT:      -4.0      0.000      0.000
REMARK  1 active torsions:
REMARK  status: ('A' for Active; 'I' for Inactive)
REMARK    1  A    between atoms: C4_4  and  C10_10 
ROOT
HETATM    1  C1  UNL     1     -32.371   6.139   2.876  1.00 20.00     0.007 C 
HETATM    2  C2  UNL     1     -33.836   5.731   3.027  1.00 20.00     0.009 C 
HETATM    3  C3  UNL     1     -34.093   7.400   4.921  1.00 20.00     0.013 C 
HETATM    4  C4  UNL     1     -32.103   7.587   3.320  1.00 20.00     0.003 C 
HETATM    5  C5  UNL     1     -32.616   7.806   4.762  1.00 20.00    -0.013 C 
HETATM    6  C6  UNL     1     -34.394   5.958   4.449  1.00 20.00    -0.047 C 
HETATM    7  C7  UNL     1     -32.405   9.240   5.257  1.00 20.00     0.010 C 
HETATM    8  C8  UNL     1     -35.921   5.748   4.427  1.00 20.00     0.015 C 
HETATM    9  C9  UNL     1     -33.795   4.932   5.433  1.00 20.00     0.015 C 
ENDROOT
BRANCH   4  10
HETATM   10  C10 UNL     1     -32.670   8.583   2.300  1.00 20.00     0.119 C 
HETATM   11 CL11 UNL     1     -32.005   8.247   0.695  1.00 20.00    -0.130 Cl
ENDBRANCH   4  10
TORSDOF 1
ENDMDL
MODEL 2
REMARK VINA RESULT:      -3.5     11.655     13.006
REMARK  1 active torsions:
REMARK  status: ('A' for Active; 'I' for Inactive)
REMARK    1  A    between atoms: C4_4  and  C10_10 
ROOT
HETATM    1  C1  UNL     1     -35.182  18.601  -2.843  1.00 20.00     0.007 C 
HETATM    2  C2  UNL     1     -34.035  19.262  -2.078  1.00 20.00     0.009 C 
HETATM    3  C3  UNL     1     -32.683  17.125  -2.285  1.00 20.00     0.013 C 
HETATM    4  C4  UNL     1     -34.705  17.505  -3.810  1.00 20.00     0.003 C 
HETATM    5  C5  UNL     1     -33.843  16.466  -3.055  1.00 20.00    -0.013 C 
HETATM    6  C6  UNL     1     -33.135  18.255  -1.330  1.00 20.00    -0.047 C 
HETATM    7  C7  UNL     1     -33.312  15.359  -3.969  1.00 20.00     0.010 C 
HETATM    8  C8  UNL     1     -31.888  18.993  -0.806  1.00 20.00     0.015 C 
HETATM    9  C9  UNL     1     -33.879  17.668  -0.113  1.00 20.00     0.015 C 
ENDROOT
BRANCH   4  10
HETATM   10  C10 UNL     1     -34.011  18.120  -5.031  1.00 20.00     0.119 C 
HETATM   11 CL11 UNL     1     -34.750  17.507  -6.518  1.00 20.00    -0.130 Cl
ENDBRANCH   4  10
TORSDOF 1
ENDMDL
MODEL 3
REMARK VINA RESULT:      -3.5     10.863     11.974
REMARK  1 active torsions:
REMARK  status: ('A' for Active; 'I' for Inactive)
REMARK    1  A    between atoms: C4_4  and  C10_10 
ROOT
HETATM    1  C1  UNL     1     -43.261  13.552   7.469  1.00 20.00     0.007 C 
HETATM    2  C2  UNL     1     -42.321  12.506   6.871  1.00 20.00     0.009 C 
HETATM    3  C3  UNL     1     -40.405  14.163   7.018  1.00 20.00     0.013 C 
HETATM    4  C4  UNL     1     -42.538  14.559   8.379  1.00 20.00     0.003 C 
HETATM    5  C5  UNL     1     -41.358  15.212   7.620  1.00 20.00    -0.013 C 
HETATM    6  C6  UNL     1     -41.115  13.119   6.125  1.00 20.00    -0.047 C 
HETATM    7  C7  UNL     1     -40.576  16.207   8.481  1.00 20.00     0.010 C 
HETATM    8  C8  UNL     1     -40.117  11.996   5.781  1.00 20.00     0.015 C 
HETATM    9  C9  UNL     1     -41.572  13.762   4.800  1.00 20.00     0.015 C 
ENDROOT
BRANCH   4  10
HETATM   10  C10 UNL     1     -42.137  13.904   9.706  1.00 20.00     0.119 C 
HETATM   11 CL11 UNL     1     -43.417  12.810  10.250  1.00 20.00    -0.130 Cl
ENDBRANCH   4  10
TORSDOF 1
ENDMDL
MODEL 4
REMARK VINA RESULT:      -3.4     11.622     13.067
REMARK  1 active torsions:
REMARK  status: ('A' for Active; 'I' for Inactive)
REMARK    1  A    between atoms: C4_4  and  C10_10 
ROOT
HETATM    1  C1  UNL     1     -33.685  15.939  -3.071  1.00 20.00     0.007 C 
HETATM    2  C2  UNL     1     -33.289  15.406  -4.447  1.00 20.00     0.009 C 
HETATM    3  C3  UNL     1     -34.883  17.057  -5.530  1.00 20.00     0.013 C 
HETATM    4  C4  UNL     1     -34.141  17.407  -3.104  1.00 20.00     0.003 C 
HETATM    5  C5  UNL     1     -35.276  17.588  -4.139  1.00 20.00    -0.013 C 
HETATM    6  C6  UNL     1     -34.388  15.591  -5.517  1.00 20.00    -0.047 C 
HETATM    7  C7  UNL     1     -35.760  19.037  -4.242  1.00 20.00     0.010 C 
HETATM    8  C8  UNL     1     -33.801  15.251  -6.901  1.00 20.00     0.015 C 
HETATM    9  C9  UNL     1     -35.562  14.626  -5.255  1.00 20.00     0.015 C 
ENDROOT
BRANCH   4  10
HETATM   10  C10 UNL     1     -32.947  18.344  -3.319  1.00 20.00     0.119 C 
HETATM   11 CL11 UNL     1     -32.252  18.804  -1.758  1.00 20.00    -0.130 Cl
ENDBRANCH   4  10
TORSDOF 1
ENDMDL
MODEL 5
REMARK VINA RESULT:      -3.3     11.487     13.061
REMARK  1 active torsions:
REMARK  status: ('A' for Active; 'I' for Inactive)
REMARK    1  A    between atoms: C4_4  and  C10_10 
ROOT
HETATM    1  C1  UNL     1     -33.106  16.210  -3.304  1.00 20.00     0.007 C 
HETATM    2  C2  UNL     1     -33.655  16.665  -1.951  1.00 20.00     0.009 C 
HETATM    3  C3  UNL     1     -34.185  18.939  -2.946  1.00 20.00     0.013 C 
HETATM    4  C4  UNL     1     -33.755  16.942  -4.491  1.00 20.00     0.003 C 
HETATM    5  C5  UNL     1     -33.631  18.472  -4.305  1.00 20.00    -0.013 C 
HETATM    6  C6  UNL     1     -33.572  18.193  -1.737  1.00 20.00    -0.047 C 
HETATM    7  C7  UNL     1     -34.283  19.263  -5.443  1.00 20.00     0.010 C 
HETATM    8  C8  UNL     1     -34.364  18.563  -0.469  1.00 20.00     0.015 C 
HETATM    9  C9  UNL     1     -32.108  18.627  -1.520  1.00 20.00     0.015 C 
ENDROOT
BRANCH   4  10
HETATM   10  C10 UNL     1     -35.192  16.456  -4.711  1.00 20.00     0.119 C 
HETATM   11 CL11 UNL     1     -35.183  14.931  -5.609  1.00 20.00    -0.130 Cl
ENDBRANCH   4  10
TORSDOF 1
ENDMDL
MODEL 6
REMARK VINA RESULT:      -3.2     11.355     13.643
REMARK  1 active torsions:
REMARK  status: ('A' for Active; 'I' for Inactive)
REMARK    1  A    between atoms: C4_4  and  C10_10 
ROOT
HETATM    1  C1  UNL     1     -33.019  18.712  -3.472  1.00 20.00     0.007 C 
HETATM    2  C2  UNL     1     -34.401  19.258  -3.830  1.00 20.00     0.009 C 
HETATM    3  C3  UNL     1     -35.092  16.949  -4.623  1.00 20.00     0.013 C 
HETATM    4  C4  UNL     1     -33.038  17.216  -3.117  1.00 20.00     0.003 C 
HETATM    5  C5  UNL     1     -33.698  16.407  -4.258  1.00 20.00    -0.013 C 
HETATM    6  C6  UNL     1     -35.105  18.460  -4.951  1.00 20.00    -0.047 C 
HETATM    7  C7  UNL     1     -33.774  14.908  -3.956  1.00 20.00     0.010 C 
HETATM    8  C8  UNL     1     -36.566  18.935  -5.060  1.00 20.00     0.015 C 
HETATM    9  C9  UNL     1     -34.423  18.724  -6.309  1.00 20.00     0.015 C 
ENDROOT
BRANCH   4  10
HETATM   10  C10 UNL     1     -33.679  16.990  -1.743  1.00 20.00     0.119 C 
HETATM   11 CL11 UNL     1     -32.936  18.062  -0.547  1.00 20.00    -0.130 Cl
ENDBRANCH   4  10
TORSDOF 1
ENDMDL
MODEL 7
REMARK VINA RESULT:      -3.2     10.771     12.011
REMARK  1 active torsions:
REMARK  status: ('A' for Active; 'I' for Inactive)
REMARK    1  A    between atoms: C4_4  and  C10_10 
ROOT
HETATM    1  C1  UNL     1     -40.417  15.399   7.447  1.00 20.00     0.007 C 
HETATM    2  C2  UNL     1     -40.195  15.164   8.941  1.00 20.00     0.009 C 
HETATM    3  C3  UNL     1     -42.246  13.671   8.998  1.00 20.00     0.013 C 
HETATM    4  C4  UNL     1     -41.140  14.230   6.757  1.00 20.00     0.003 C 
HETATM    5  C5  UNL     1     -42.463  13.913   7.493  1.00 20.00    -0.013 C 
HETATM    6  C6  UNL     1     -41.491  14.819   9.708  1.00 20.00    -0.047 C 
HETATM    7  C7  UNL     1     -43.221  12.737   6.871  1.00 20.00     0.010 C 
HETATM    8  C8  UNL     1     -41.121  14.366  11.134  1.00 20.00     0.015 C 
HETATM    9  C9  UNL     1     -42.391  16.065   9.830  1.00 20.00     0.015 C 
ENDROOT
BRANCH   4  10
HETATM   10  C10 UNL     1     -40.206  13.023   6.608  1.00 20.00     0.119 C 
HETATM   11 CL11 UNL     1     -40.166  12.496   4.920  1.00 20.00    -0.130 Cl
ENDBRANCH   4  10
TORSDOF 1
ENDMDL
MODEL 8
REMARK VINA RESULT:      -3.1     10.771     11.917
REMARK  1 active torsions:
REMARK  status: ('A' for Active; 'I' for Inactive)
REMARK    1  A    between atoms: C4_4  and  C10_10 
ROOT
HETATM    1  C1  UNL     1     -43.321  14.358   6.642  1.00 20.00     0.007 C 
HETATM    2  C2  UNL     1     -42.565  15.462   7.381  1.00 20.00     0.009 C 
HETATM    3  C3  UNL     1     -40.467  14.034   7.340  1.00 20.00     0.013 C 
HETATM    4  C4  UNL     1     -42.407  13.493   5.758  1.00 20.00     0.003 C 
HETATM    5  C5  UNL     1     -41.236  12.927   6.595  1.00 20.00    -0.013 C 
HETATM    6  C6  UNL     1     -41.371  14.940   8.210  1.00 20.00    -0.047 C 
HETATM    7  C7  UNL     1     -40.269  12.077   5.767  1.00 20.00     0.010 C 
HETATM    8  C8  UNL     1     -40.544  16.141   8.707  1.00 20.00     0.015 C 
HETATM    9  C9  UNL     1     -41.872  14.171   9.450  1.00 20.00     0.015 C 
ENDROOT
BRANCH   4  10
HETATM   10  C10 UNL     1     -41.962  14.268   4.511  1.00 20.00     0.119 C 
HETATM   11 CL11 UNL     1     -43.365  14.632   3.496  1.00 20.00    -0.130 Cl
ENDBRANCH   4  10
TORSDOF 1
ENDMDL
MODEL 9
REMARK VINA RESULT:      -3.0     12.043     13.174
REMARK  1 active torsions:
REMARK  status: ('A' for Active; 'I' for Inactive)
REMARK    1  A    between atoms: C4_4  and  C10_10 
ROOT
HETATM    1  C1  UNL     1     -34.992  17.977  -5.554  1.00 20.00     0.007 C 
HETATM    2  C2  UNL     1     -35.772  16.673  -5.717  1.00 20.00     0.009 C 
HETATM    3  C3  UNL     1     -34.316  15.597  -3.938  1.00 20.00     0.013 C 
HETATM    4  C4  UNL     1     -34.395  18.148  -4.147  1.00 20.00     0.003 C 
HETATM    5  C5  UNL     1     -33.536  16.915  -3.780  1.00 20.00    -0.013 C 
HETATM    6  C6  UNL     1     -34.955  15.418  -5.335  1.00 20.00    -0.047 C 
HETATM    7  C7  UNL     1     -32.932  17.009  -2.376  1.00 20.00     0.010 C 
HETATM    8  C8  UNL     1     -35.899  14.200  -5.300  1.00 20.00     0.015 C 
HETATM    9  C9  UNL     1     -33.870  15.140  -6.395  1.00 20.00     0.015 C 
ENDROOT
BRANCH   4  10
HETATM   10  C10 UNL     1     -35.492  18.469  -3.125  1.00 20.00     0.119 C 
HETATM   11 CL11 UNL     1     -36.853  19.263  -3.930  1.00 20.00    -0.130 Cl
ENDBRANCH   4  10
TORSDOF 1
ENDMDL
