MODEL 1
REMARK VINA RESULT:      -5.3      0.000      0.000
REMARK  2 active torsions:
REMARK  status: ('A' for Active; 'I' for Inactive)
REMARK    1  A    between atoms: C1_1  and  C11_11 
REMARK    2  A    between atoms: C5_5  and  C11_11 
ROOT
HETATM    1  C2  UNL     1     -33.145   5.855   2.703  1.00 20.00     0.006 C 
HETATM    2  C3  UNL     1     -33.455   5.062   3.974  1.00 20.00     0.009 C 
HETATM    3  C4  UNL     1     -33.737   7.186   5.345  1.00 20.00     0.013 C 
HETATM    4  C5  UNL     1     -32.970   7.370   2.928  1.00 20.00    -0.001 C 
HETATM    5  C6  UNL     1     -32.617   7.675   4.399  1.00 20.00    -0.013 C 
HETATM    6  C7  UNL     1     -34.356   5.813   4.969  1.00 20.00    -0.047 C 
HETATM    7  C8  UNL     1     -32.348   9.159   4.662  1.00 20.00     0.010 C 
HETATM    8  C9  UNL     1     -35.763   6.011   4.367  1.00 20.00     0.015 C 
HETATM    9  C10 UNL     1     -34.514   4.958   6.242  1.00 20.00     0.015 C 
ENDROOT
BRANCH   4  10
HETATM   10  C11 UNL     1     -31.950   7.921   1.928  1.00 20.00     0.118 C 
BRANCH  10  11
HETATM   11  C1  UNL     1     -32.529   8.869   0.882  1.00 20.00     0.172 C 
HETATM   12  O12 UNL     1     -32.585   8.451  -0.307  1.00 20.00    -0.648 OA
HETATM   13  O13 UNL     1     -32.889   9.985   1.357  1.00 20.00    -0.648 OA
ENDBRANCH  10  11
ENDBRANCH   4  10
TORSDOF 2
ENDMDL
MODEL 2
REMARK VINA RESULT:      -4.3     11.294     12.835
REMARK  2 active torsions:
REMARK  status: ('A' for Active; 'I' for Inactive)
REMARK    1  A    between atoms: C1_1  and  C11_11 
REMARK    2  A    between atoms: C5_5  and  C11_11 
ROOT
HETATM    1  C2  UNL     1     -35.207  18.037  -4.309  1.00 20.00     0.006 C 
HETATM    2  C3  UNL     1     -35.094  18.211  -2.793  1.00 20.00     0.009 C 
HETATM    3  C4  UNL     1     -33.221  16.498  -2.640  1.00 20.00     0.013 C 
HETATM    4  C5  UNL     1     -34.365  16.878  -4.878  1.00 20.00    -0.001 C 
HETATM    5  C6  UNL     1     -34.031  15.845  -3.783  1.00 20.00    -0.013 C 
HETATM    6  C7  UNL     1     -33.688  17.923  -2.239  1.00 20.00    -0.047 C 
HETATM    7  C8  UNL     1     -33.267  14.627  -4.310  1.00 20.00     0.010 C 
HETATM    8  C9  UNL     1     -32.686  18.976  -2.755  1.00 20.00     0.015 C 
HETATM    9  C10 UNL     1     -33.725  18.035  -0.702  1.00 20.00     0.015 C 
ENDROOT
BRANCH   4  10
HETATM   10  C11 UNL     1     -35.078  16.275  -6.091  1.00 20.00     0.118 C 
BRANCH  10  11
HETATM   11  C1  UNL     1     -34.260  16.275  -7.379  1.00 20.00     0.172 C 
HETATM   12  O12 UNL     1     -34.028  17.393  -7.915  1.00 20.00    -0.648 OA
HETATM   13  O13 UNL     1     -33.909  15.118  -7.754  1.00 20.00    -0.648 OA
ENDBRANCH  10  11
ENDBRANCH   4  10
TORSDOF 2
ENDMDL
MODEL 3
REMARK VINA RESULT:      -4.2     11.253     12.601
REMARK  2 active torsions:
REMARK  status: ('A' for Active; 'I' for Inactive)
REMARK    1  A    between atoms: C1_1  and  C11_11 
REMARK    2  A    between atoms: C5_5  and  C11_11 
ROOT
HETATM    1  C2  UNL     1     -35.147  18.067  -4.386  1.00 20.00     0.006 C 
HETATM    2  C3  UNL     1     -35.115  18.167  -2.860  1.00 20.00     0.009 C 
HETATM    3  C4  UNL     1     -33.250  16.445  -2.691  1.00 20.00     0.013 C 
HETATM    4  C5  UNL     1     -34.275  16.935  -4.965  1.00 20.00    -0.001 C 
HETATM    5  C6  UNL     1     -33.998  15.849  -3.905  1.00 20.00    -0.013 C 
HETATM    6  C7  UNL     1     -33.740  17.850  -2.247  1.00 20.00    -0.047 C 
HETATM    7  C8  UNL     1     -33.207  14.658  -4.449  1.00 20.00     0.010 C 
HETATM    8  C9  UNL     1     -32.712  18.925  -2.658  1.00 20.00     0.015 C 
HETATM    9  C10 UNL     1     -33.858  17.887  -0.710  1.00 20.00     0.015 C 
ENDROOT
BRANCH   4  10
HETATM   10  C11 UNL     1     -34.923  16.392  -6.242  1.00 20.00     0.118 C 
BRANCH  10  11
HETATM   11  C1  UNL     1     -36.112  15.465  -6.011  1.00 20.00     0.172 C 
HETATM   12  O12 UNL     1     -37.092  15.934  -5.371  1.00 20.00    -0.648 OA
HETATM   13  O13 UNL     1     -35.955  14.311  -6.507  1.00 20.00    -0.648 OA
ENDBRANCH  10  11
ENDBRANCH   4  10
TORSDOF 2
ENDMDL
MODEL 4
REMARK VINA RESULT:      -4.1     10.317     11.529
REMARK  2 active torsions:
REMARK  status: ('A' for Active; 'I' for Inactive)
REMARK    1  A    between atoms: C1_1  and  C11_11 
REMARK    2  A    between atoms: C5_5  and  C11_11 
ROOT
HETATM    1  C2  UNL     1     -40.430  15.034   7.446  1.00 20.00     0.006 C 
HETATM    2  C3  UNL     1     -41.251  15.807   8.479  1.00 20.00     0.009 C 
HETATM    3  C4  UNL     1     -42.659  13.762   9.031  1.00 20.00     0.013 C 
HETATM    4  C5  UNL     1     -40.961  13.618   7.145  1.00 20.00    -0.001 C 
HETATM    5  C6  UNL     1     -42.451  13.492   7.524  1.00 20.00    -0.013 C 
HETATM    6  C7  UNL     1     -41.812  14.927   9.610  1.00 20.00    -0.047 C 
HETATM    7  C8  UNL     1     -43.053  12.131   7.167  1.00 20.00     0.010 C 
HETATM    8  C9  UNL     1     -40.660  14.370  10.471  1.00 20.00     0.015 C 
HETATM    9  C10 UNL     1     -42.697  15.796  10.526  1.00 20.00     0.015 C 
ENDROOT
BRANCH   4  10
HETATM   10  C11 UNL     1     -40.668  13.262   5.685  1.00 20.00     0.118 C 
BRANCH  10  11
HETATM   11  C1  UNL     1     -39.663  12.131   5.492  1.00 20.00     0.172 C 
HETATM   12  O12 UNL     1     -39.398  11.791   4.307  1.00 20.00    -0.648 OA
HETATM   13  O13 UNL     1     -39.211  11.667   6.579  1.00 20.00    -0.648 OA
ENDBRANCH  10  11
ENDBRANCH   4  10
TORSDOF 2
ENDMDL
MODEL 5
REMARK VINA RESULT:      -3.9     11.107     12.505
REMARK  2 active torsions:
REMARK  status: ('A' for Active; 'I' for Inactive)
REMARK    1  A    between atoms: C1_1  and  C11_11 
REMARK    2  A    between atoms: C5_5  and  C11_11 
ROOT
HETATM    1  C2  UNL     1     -33.088  16.131  -3.497  1.00 20.00     0.006 C 
HETATM    2  C3  UNL     1     -34.121  15.057  -3.841  1.00 20.00     0.009 C 
HETATM    3  C4  UNL     1     -35.556  16.715  -5.130  1.00 20.00     0.013 C 
HETATM    4  C5  UNL     1     -33.509  17.563  -3.883  1.00 20.00    -0.001 C 
HETATM    5  C6  UNL     1     -35.041  17.670  -4.029  1.00 20.00    -0.013 C 
HETATM    6  C7  UNL     1     -34.875  15.321  -5.157  1.00 20.00    -0.047 C 
HETATM    7  C8  UNL     1     -35.524  19.092  -4.329  1.00 20.00     0.010 C 
HETATM    8  C9  UNL     1     -33.906  15.226  -6.354  1.00 20.00     0.015 C 
HETATM    9  C10 UNL     1     -35.949  14.231  -5.343  1.00 20.00     0.015 C 
ENDROOT
BRANCH   4  10
HETATM   10  C11 UNL     1     -32.919  18.558  -2.880  1.00 20.00     0.118 C 
BRANCH  10  11
HETATM   11  C1  UNL     1     -32.901  18.074  -1.434  1.00 20.00     0.172 C 
HETATM   12  O12 UNL     1     -34.005  17.736  -0.926  1.00 20.00    -0.648 OA
HETATM   13  O13 UNL     1     -31.747  18.074  -0.916  1.00 20.00    -0.648 OA
ENDBRANCH  10  11
ENDBRANCH   4  10
TORSDOF 2
ENDMDL
MODEL 6
REMARK VINA RESULT:      -3.7     10.902     13.258
REMARK  2 active torsions:
REMARK  status: ('A' for Active; 'I' for Inactive)
REMARK    1  A    between atoms: C1_1  and  C11_11 
REMARK    2  A    between atoms: C5_5  and  C11_11 
ROOT
HETATM    1  C2  UNL     1     -33.979  18.334  -4.351  1.00 20.00     0.006 C 
HETATM    2  C3  UNL     1     -34.450  18.360  -5.806  1.00 20.00     0.009 C 
HETATM    3  C4  UNL     1     -35.303  15.967  -5.673  1.00 20.00     0.013 C 
HETATM    4  C5  UNL     1     -34.058  16.947  -3.684  1.00 20.00    -0.001 C 
HETATM    5  C6  UNL     1     -34.078  15.823  -4.741  1.00 20.00    -0.013 C 
HETATM    6  C7  UNL     1     -35.638  17.424  -6.090  1.00 20.00    -0.047 C 
HETATM    7  C8  UNL     1     -34.071  14.418  -4.132  1.00 20.00     0.010 C 
HETATM    8  C9  UNL     1     -36.894  17.915  -5.340  1.00 20.00     0.015 C 
HETATM    9  C10 UNL     1     -35.955  17.463  -7.598  1.00 20.00     0.015 C 
ENDROOT
BRANCH   4  10
HETATM   10  C11 UNL     1     -32.927  16.805  -2.662  1.00 20.00     0.118 C 
BRANCH  10  11
HETATM   11  C1  UNL     1     -32.912  17.874  -1.573  1.00 20.00     0.172 C 
HETATM   12  O12 UNL     1     -31.924  18.657  -1.549  1.00 20.00    -0.648 OA
HETATM   13  O13 UNL     1     -33.923  17.835  -0.813  1.00 20.00    -0.648 OA
ENDBRANCH  10  11
ENDBRANCH   4  10
TORSDOF 2
ENDMDL
MODEL 7
REMARK VINA RESULT:      -3.7     10.710     12.026
REMARK  2 active torsions:
REMARK  status: ('A' for Active; 'I' for Inactive)
REMARK    1  A    between atoms: C1_1  and  C11_11 
REMARK    2  A    between atoms: C5_5  and  C11_11 
ROOT
HETATM    1  C2  UNL     1     -40.640  14.285   7.922  1.00 20.00     0.006 C 
HETATM    2  C3  UNL     1     -40.281  15.772   7.872  1.00 20.00     0.009 C 
HETATM    3  C4  UNL     1     -42.271  16.300   6.379  1.00 20.00     0.013 C 
HETATM    4  C5  UNL     1     -41.779  13.877   6.968  1.00 20.00    -0.001 C 
HETATM    5  C6  UNL     1     -41.937  14.898   5.822  1.00 20.00    -0.013 C 
HETATM    6  C7  UNL     1     -41.493  16.696   7.663  1.00 20.00    -0.047 C 
HETATM    7  C8  UNL     1     -42.999  14.497   4.795  1.00 20.00     0.010 C 
HETATM    8  C9  UNL     1     -42.427  16.635   8.889  1.00 20.00     0.015 C 
HETATM    9  C10 UNL     1     -40.996  18.149   7.532  1.00 20.00     0.015 C 
ENDROOT
BRANCH   4  10
HETATM   10  C11 UNL     1     -41.549  12.443   6.482  1.00 20.00     0.118 C 
BRANCH  10  11
HETATM   11  C1  UNL     1     -40.165  12.179   5.898  1.00 20.00     0.172 C 
HETATM   12  O12 UNL     1     -39.280  11.749   6.686  1.00 20.00    -0.648 OA
HETATM   13  O13 UNL     1     -40.082  12.435   4.661  1.00 20.00    -0.648 OA
ENDBRANCH  10  11
ENDBRANCH   4  10
TORSDOF 2
ENDMDL
MODEL 8
REMARK VINA RESULT:      -3.7     11.531     12.949
REMARK  2 active torsions:
REMARK  status: ('A' for Active; 'I' for Inactive)
REMARK    1  A    between atoms: C1_1  and  C11_11 
REMARK    2  A    between atoms: C5_5  and  C11_11 
ROOT
HETATM    1  C2  UNL     1     -33.714  16.241  -3.126  1.00 20.00     0.006 C 
HETATM    2  C3  UNL     1     -32.782  17.070  -2.240  1.00 20.00     0.009 C 
HETATM    3  C4  UNL     1     -33.533  19.246  -3.321  1.00 20.00     0.013 C 
HETATM    4  C5  UNL     1     -34.399  17.044  -4.250  1.00 20.00    -0.001 C 
HETATM    5  C6  UNL     1     -33.617  18.335  -4.567  1.00 20.00    -0.013 C 
HETATM    6  C7  UNL     1     -33.283  18.502  -1.982  1.00 20.00    -0.047 C 
HETATM    7  C8  UNL     1     -34.206  19.130  -5.735  1.00 20.00     0.010 C 
HETATM    8  C9  UNL     1     -34.576  18.470  -1.142  1.00 20.00     0.015 C 
HETATM    9  C10 UNL     1     -32.219  19.263  -1.166  1.00 20.00     0.015 C 
ENDROOT
BRANCH   4  10
HETATM   10  C11 UNL     1     -34.610  16.141  -5.468  1.00 20.00     0.118 C 
BRANCH  10  11
HETATM   11  C1  UNL     1     -36.046  15.669  -5.674  1.00 20.00     0.172 C 
HETATM   12  O12 UNL     1     -36.210  14.544  -6.219  1.00 20.00    -0.648 OA
HETATM   13  O13 UNL     1     -36.912  16.493  -5.258  1.00 20.00    -0.648 OA
ENDBRANCH  10  11
ENDBRANCH   4  10
TORSDOF 2
ENDMDL
MODEL 9
REMARK VINA RESULT:      -3.4     11.628     13.421
REMARK  2 active torsions:
REMARK  status: ('A' for Active; 'I' for Inactive)
REMARK    1  A    between atoms: C1_1  and  C11_11 
REMARK    2  A    between atoms: C5_5  and  C11_11 
ROOT
HETATM    1  C2  UNL     1     -34.351  17.698  -5.005  1.00 20.00     0.006 C 
HETATM    2  C3  UNL     1     -33.370  18.450  -4.103  1.00 20.00     0.009 C 
HETATM    3  C4  UNL     1     -35.078  18.620  -2.226  1.00 20.00     0.013 C 
HETATM    4  C5  UNL     1     -35.789  17.626  -4.455  1.00 20.00    -0.001 C 
HETATM    5  C6  UNL     1     -36.047  18.744  -3.424  1.00 20.00    -0.013 C 
HETATM    6  C7  UNL     1     -33.621  18.236  -2.600  1.00 20.00    -0.047 C 
HETATM    7  C8  UNL     1     -37.487  18.773  -2.907  1.00 20.00     0.010 C 
HETATM    8  C9  UNL     1     -33.344  16.768  -2.218  1.00 20.00     0.015 C 
HETATM    9  C10 UNL     1     -32.640  19.116  -1.800  1.00 20.00     0.015 C 
ENDROOT
BRANCH   4  10
HETATM   10  C11 UNL     1     -36.783  17.627  -5.620  1.00 20.00     0.118 C 
BRANCH  10  11
HETATM   11  C1  UNL     1     -37.336  16.254  -5.990  1.00 20.00     0.172 C 
HETATM   12  O12 UNL     1     -36.732  15.614  -6.892  1.00 20.00    -0.648 OA
HETATM   13  O13 UNL     1     -38.361  15.927  -5.323  1.00 20.00    -0.648 OA
ENDBRANCH  10  11
ENDBRANCH   4  10
TORSDOF 2
ENDMDL
