MODEL 1
REMARK VINA RESULT:      -4.7      0.000      0.000
REMARK  2 active torsions:
REMARK  status: ('A' for Active; 'I' for Inactive)
REMARK    1  A    between atoms: C5_5  and  C6_6 
REMARK    2  A    between atoms: C7_7  and  C8_8 
ROOT
HETATM    1  C4  UNL     1     -32.231   8.818   4.790  1.00 20.00     0.011 A 
HETATM    2  C6  UNL     1     -33.389   7.912   4.493  1.00 20.00    -0.005 A 
HETATM    3  C7  UNL     1     -32.432   8.282   3.397  1.00 20.00     0.004 A 
ENDROOT
BRANCH   2   4
HETATM    4  C5  UNL     1     -33.493   6.500   5.048  1.00 20.00    -0.010 C 
HETATM    5  C2  UNL     1     -34.047   5.427   4.077  1.00 20.00     0.005 C 
HETATM    6  C1  UNL     1     -35.437   5.656   4.702  1.00 20.00     0.001 C 
HETATM    7  C3  UNL     1     -34.722   6.212   5.948  1.00 20.00     0.005 C 
ENDBRANCH   2   4
BRANCH   3   8
HETATM    8  C8  UNL     1     -32.870   9.189   2.301  1.00 20.00     0.119 C 
HETATM    9 CL9  UNL     1     -32.291   8.614   0.712  1.00 20.00    -0.130 Cl
ENDBRANCH   3   8
TORSDOF 2
ENDMDL
MODEL 2
REMARK VINA RESULT:      -4.6      1.916      2.596
REMARK  2 active torsions:
REMARK  status: ('A' for Active; 'I' for Inactive)
REMARK    1  A    between atoms: C5_5  and  C6_6 
REMARK    2  A    between atoms: C7_7  and  C8_8 
ROOT
HETATM    1  C4  UNL     1     -32.866   5.019   2.394  1.00 20.00     0.011 A 
HETATM    2  C6  UNL     1     -33.116   5.322   3.842  1.00 20.00    -0.005 A 
HETATM    3  C7  UNL     1     -33.118   6.436   2.836  1.00 20.00     0.004 A 
ENDROOT
BRANCH   2   4
HETATM    4  C5  UNL     1     -34.373   4.873   4.572  1.00 20.00    -0.010 C 
HETATM    5  C2  UNL     1     -35.469   5.952   4.764  1.00 20.00     0.005 C 
HETATM    6  C1  UNL     1     -34.885   6.220   6.164  1.00 20.00     0.001 C 
HETATM    7  C3  UNL     1     -34.275   4.806   6.117  1.00 20.00     0.005 C 
ENDBRANCH   2   4
BRANCH   3   8
HETATM    8  C8  UNL     1     -32.011   7.432   2.827  1.00 20.00     0.119 C 
HETATM    9 CL9  UNL     1     -31.999   8.402   4.326  1.00 20.00    -0.130 Cl
ENDBRANCH   3   8
TORSDOF 2
ENDMDL
MODEL 3
REMARK VINA RESULT:      -4.6      1.681      3.736
REMARK  2 active torsions:
REMARK  status: ('A' for Active; 'I' for Inactive)
REMARK    1  A    between atoms: C5_5  and  C6_6 
REMARK    2  A    between atoms: C7_7  and  C8_8 
ROOT
HETATM    1  C4  UNL     1     -34.697   5.861   6.279  1.00 20.00     0.011 A 
HETATM    2  C6  UNL     1     -33.587   6.586   5.578  1.00 20.00    -0.005 A 
HETATM    3  C7  UNL     1     -34.532   5.728   4.789  1.00 20.00     0.004 A 
ENDROOT
BRANCH   2   4
HETATM    4  C5  UNL     1     -33.550   8.101   5.444  1.00 20.00    -0.010 C 
HETATM    5  C2  UNL     1     -34.051   8.677   4.095  1.00 20.00     0.005 C 
HETATM    6  C1  UNL     1     -32.585   8.710   3.625  1.00 20.00     0.001 C 
HETATM    7  C3  UNL     1     -32.169   8.720   5.109  1.00 20.00     0.005 C 
ENDBRANCH   2   4
BRANCH   3   8
HETATM    8  C8  UNL     1     -34.056   4.446   4.198  1.00 20.00     0.119 C 
HETATM    9 CL9  UNL     1     -33.030   4.733   2.766  1.00 20.00    -0.130 Cl
ENDBRANCH   3   8
TORSDOF 2
ENDMDL
MODEL 4
REMARK VINA RESULT:      -4.5      1.325      1.906
REMARK  2 active torsions:
REMARK  status: ('A' for Active; 'I' for Inactive)
REMARK    1  A    between atoms: C5_5  and  C6_6 
REMARK    2  A    between atoms: C7_7  and  C8_8 
ROOT
HETATM    1  C4  UNL     1     -32.804   5.778   2.951  1.00 20.00     0.011 A 
HETATM    2  C6  UNL     1     -33.013   6.886   3.940  1.00 20.00    -0.005 A 
HETATM    3  C7  UNL     1     -33.039   7.185   2.469  1.00 20.00     0.004 A 
ENDROOT
BRANCH   2   4
HETATM    4  C5  UNL     1     -34.251   6.984   4.817  1.00 20.00    -0.010 C 
HETATM    5  C2  UNL     1     -34.020   6.817   6.341  1.00 20.00     0.005 C 
HETATM    6  C1  UNL     1     -34.386   5.329   6.180  1.00 20.00     0.001 C 
HETATM    7  C3  UNL     1     -35.135   5.713   4.889  1.00 20.00     0.005 C 
ENDBRANCH   2   4
BRANCH   3   8
HETATM    8  C8  UNL     1     -31.929   7.959   1.847  1.00 20.00     0.119 C 
HETATM    9 CL9  UNL     1     -32.548   9.138   0.657  1.00 20.00    -0.130 Cl
ENDBRANCH   3   8
TORSDOF 2
ENDMDL
MODEL 5
REMARK VINA RESULT:      -4.5      1.280      1.704
REMARK  2 active torsions:
REMARK  status: ('A' for Active; 'I' for Inactive)
REMARK    1  A    between atoms: C5_5  and  C6_6 
REMARK    2  A    between atoms: C7_7  and  C8_8 
ROOT
HETATM    1  C4  UNL     1     -33.389   8.820   5.660  1.00 20.00     0.011 A 
HETATM    2  C6  UNL     1     -34.092   7.731   4.906  1.00 20.00    -0.005 A 
HETATM    3  C7  UNL     1     -32.592   7.790   4.904  1.00 20.00     0.004 A 
ENDROOT
BRANCH   2   4
HETATM    4  C5  UNL     1     -34.867   6.620   5.597  1.00 20.00    -0.010 C 
HETATM    5  C2  UNL     1     -34.017   5.482   6.218  1.00 20.00     0.005 C 
HETATM    6  C1  UNL     1     -34.240   4.680   4.922  1.00 20.00     0.001 C 
HETATM    7  C3  UNL     1     -35.490   5.546   4.669  1.00 20.00     0.005 C 
ENDBRANCH   2   4
BRANCH   3   8
HETATM    8  C8  UNL     1     -31.864   8.169   3.661  1.00 20.00     0.119 C 
HETATM    9 CL9  UNL     1     -32.250   7.057   2.318  1.00 20.00    -0.130 Cl
ENDBRANCH   3   8
TORSDOF 2
ENDMDL
MODEL 6
REMARK VINA RESULT:      -3.9      2.560      4.498
REMARK  2 active torsions:
REMARK  status: ('A' for Active; 'I' for Inactive)
REMARK    1  A    between atoms: C5_5  and  C6_6 
REMARK    2  A    between atoms: C7_7  and  C8_8 
ROOT
HETATM    1  C4  UNL     1     -33.237   4.851   2.672  1.00 20.00     0.011 A 
HETATM    2  C6  UNL     1     -33.319   6.278   3.129  1.00 20.00    -0.005 A 
HETATM    3  C7  UNL     1     -33.428   5.167   4.132  1.00 20.00     0.004 A 
ENDROOT
BRANCH   2   4
HETATM    4  C5  UNL     1     -32.131   7.227   3.082  1.00 20.00    -0.010 C 
HETATM    5  C2  UNL     1     -32.161   8.404   4.090  1.00 20.00     0.005 C 
HETATM    6  C1  UNL     1     -32.761   9.277   2.972  1.00 20.00     0.001 C 
HETATM    7  C3  UNL     1     -32.154   8.291   1.956  1.00 20.00     0.005 C 
ENDBRANCH   2   4
BRANCH   3   8
HETATM    8  C8  UNL     1     -34.732   4.888   4.795  1.00 20.00     0.119 C 
HETATM    9 CL9  UNL     1     -34.791   5.596   6.434  1.00 20.00    -0.130 Cl
ENDBRANCH   3   8
TORSDOF 2
ENDMDL
MODEL 7
REMARK VINA RESULT:      -3.7      9.582     10.057
REMARK  2 active torsions:
REMARK  status: ('A' for Active; 'I' for Inactive)
REMARK    1  A    between atoms: C5_5  and  C6_6 
REMARK    2  A    between atoms: C7_7  and  C8_8 
ROOT
HETATM    1  C4  UNL     1     -42.142  14.022   4.849  1.00 20.00     0.011 A 
HETATM    2  C6  UNL     1     -40.857  13.595   5.496  1.00 20.00    -0.005 A 
HETATM    3  C7  UNL     1     -42.003  14.056   6.348  1.00 20.00     0.004 A 
ENDROOT
BRANCH   2   4
HETATM    4  C5  UNL     1     -40.371  12.153   5.487  1.00 20.00    -0.010 C 
HETATM    5  C2  UNL     1     -39.225  11.816   6.474  1.00 20.00     0.005 C 
HETATM    6  C1  UNL     1     -38.233  12.041   5.317  1.00 20.00     0.001 C 
HETATM    7  C3  UNL     1     -39.398  11.771   4.343  1.00 20.00     0.005 C 
ENDBRANCH   2   4
BRANCH   3   8
HETATM    8  C8  UNL     1     -41.920  15.360   7.064  1.00 20.00     0.119 C 
HETATM    9 CL9  UNL     1     -40.284  15.633   7.727  1.00 20.00    -0.130 Cl
ENDBRANCH   3   8
TORSDOF 2
ENDMDL
MODEL 8
REMARK VINA RESULT:      -3.5     10.012     10.607
REMARK  2 active torsions:
REMARK  status: ('A' for Active; 'I' for Inactive)
REMARK    1  A    between atoms: C5_5  and  C6_6 
REMARK    2  A    between atoms: C7_7  and  C8_8 
ROOT
HETATM    1  C4  UNL     1     -41.747  12.846   6.578  1.00 20.00     0.011 A 
HETATM    2  C6  UNL     1     -40.552  13.542   7.160  1.00 20.00    -0.005 A 
HETATM    3  C7  UNL     1     -40.460  12.915   5.800  1.00 20.00     0.004 A 
ENDROOT
BRANCH   2   4
HETATM    4  C5  UNL     1     -40.499  15.047   7.374  1.00 20.00    -0.010 C 
HETATM    5  C2  UNL     1     -40.258  15.519   8.830  1.00 20.00     0.005 C 
HETATM    6  C1  UNL     1     -41.785  15.663   8.981  1.00 20.00     0.001 C 
HETATM    7  C3  UNL     1     -41.867  15.772   7.446  1.00 20.00     0.005 C 
ENDBRANCH   2   4
BRANCH   3   8
HETATM    8  C8  UNL     1     -39.638  11.689   5.600  1.00 20.00     0.119 C 
HETATM    9 CL9  UNL     1     -38.938  11.638   3.958  1.00 20.00    -0.130 Cl
ENDBRANCH   3   8
TORSDOF 2
ENDMDL
MODEL 9
REMARK VINA RESULT:      -3.4     11.109     12.084
REMARK  2 active torsions:
REMARK  status: ('A' for Active; 'I' for Inactive)
REMARK    1  A    between atoms: C5_5  and  C6_6 
REMARK    2  A    between atoms: C7_7  and  C8_8 
ROOT
HETATM    1  C4  UNL     1     -34.548  18.638  -1.572  1.00 20.00     0.011 A 
HETATM    2  C6  UNL     1     -33.525  18.240  -0.549  1.00 20.00    -0.005 A 
HETATM    3  C7  UNL     1     -33.391  17.758  -1.964  1.00 20.00     0.004 A 
ENDROOT
BRANCH   2   4
HETATM    4  C5  UNL     1     -32.555  19.231   0.075  1.00 20.00    -0.010 C 
HETATM    5  C2  UNL     1     -31.056  18.843   0.018  1.00 20.00     0.005 C 
HETATM    6  C1  UNL     1     -31.206  18.266   1.438  1.00 20.00     0.001 C 
HETATM    7  C3  UNL     1     -32.432  19.182   1.618  1.00 20.00     0.005 C 
ENDBRANCH   2   4
BRANCH   3   8
HETATM    8  C8  UNL     1     -33.617  16.321  -2.286  1.00 20.00     0.119 C 
HETATM    9 CL9  UNL     1     -32.967  15.907  -3.897  1.00 20.00    -0.130 Cl
ENDBRANCH   3   8
TORSDOF 2
ENDMDL
