MODEL 1
REMARK VINA RESULT:      -4.5      0.000      0.000
REMARK  1 active torsions:
REMARK  status: ('A' for Active; 'I' for Inactive)
REMARK    1  A    between atoms: C6_6  and  C8_8 
ROOT
HETATM    1  C1  UNL     1     -35.109   5.410   4.844  1.00 20.00     0.027 C 
HETATM    2  C2  UNL     1     -33.922   5.900   4.017  1.00 20.00     0.014 C 
HETATM    3  C3  UNL     1     -33.930   8.497   3.928  1.00 20.00     0.018 A 
HETATM    4  C4  UNL     1     -34.777   5.440   6.331  1.00 20.00     0.167 C 
HETATM    5  C5  UNL     1     -33.205   7.194   6.056  1.00 20.00     0.177 C 
HETATM    6  C6  UNL     1     -32.494   8.091   3.738  1.00 20.00     0.011 A 
HETATM    7  C7  UNL     1     -33.425   7.219   4.563  1.00 20.00    -0.014 A 
HETATM    8  O9  UNL     1     -34.390   6.757   6.727  1.00 20.00    -0.390 OA
ENDROOT
BRANCH   6   9
HETATM    9  C8  UNL     1     -31.999   7.687   2.391  1.00 20.00     0.120 C 
HETATM   10 CL10 UNL     1     -32.473   8.875   1.146  1.00 20.00    -0.130 Cl
ENDBRANCH   6   9
TORSDOF 1
ENDMDL
MODEL 2
REMARK VINA RESULT:      -3.9     12.184     13.074
REMARK  1 active torsions:
REMARK  status: ('A' for Active; 'I' for Inactive)
REMARK    1  A    between atoms: C6_6  and  C8_8 
ROOT
HETATM    1  C1  UNL     1     -33.420  16.402  -2.689  1.00 20.00     0.027 C 
HETATM    2  C2  UNL     1     -33.581  17.162  -1.375  1.00 20.00     0.014 C 
HETATM    3  C3  UNL     1     -31.419  18.513  -0.874  1.00 20.00     0.018 A 
HETATM    4  C4  UNL     1     -33.736  17.304  -3.876  1.00 20.00     0.167 C 
HETATM    5  C5  UNL     1     -33.123  19.263  -2.688  1.00 20.00     0.177 C 
HETATM    6  C6  UNL     1     -32.528  19.250  -0.172  1.00 20.00     0.011 A 
HETATM    7  C7  UNL     1     -32.823  18.468  -1.440  1.00 20.00    -0.014 A 
HETATM    8  O9  UNL     1     -32.901  18.464  -3.853  1.00 20.00    -0.390 OA
ENDROOT
BRANCH   6   9
HETATM    9  C8  UNL     1     -32.993  18.805   1.172  1.00 20.00     0.120 C 
HETATM   10 CL10 UNL     1     -31.614  18.514   2.269  1.00 20.00    -0.130 Cl
ENDBRANCH   6   9
TORSDOF 1
ENDMDL
MODEL 3
REMARK VINA RESULT:      -3.9      1.203      1.929
REMARK  1 active torsions:
REMARK  status: ('A' for Active; 'I' for Inactive)
REMARK    1  A    between atoms: C6_6  and  C8_8 
ROOT
HETATM    1  C1  UNL     1     -34.035   6.927   6.353  1.00 20.00     0.027 C 
HETATM    2  C2  UNL     1     -33.900   7.809   5.113  1.00 20.00     0.014 C 
HETATM    3  C3  UNL     1     -31.782   7.118   3.775  1.00 20.00     0.018 A 
HETATM    4  C4  UNL     1     -34.714   5.608   6.003  1.00 20.00     0.167 C 
HETATM    5  C5  UNL     1     -33.950   5.685   3.759  1.00 20.00     0.177 C 
HETATM    6  C6  UNL     1     -32.717   7.728   2.766  1.00 20.00     0.011 A 
HETATM    7  C7  UNL     1     -33.278   7.018   3.985  1.00 20.00    -0.014 A 
HETATM    8  O9  UNL     1     -33.986   4.933   4.975  1.00 20.00    -0.390 OA
ENDROOT
BRANCH   6   9
HETATM    9  C8  UNL     1     -32.780   9.208   2.599  1.00 20.00     0.120 C 
HETATM   10 CL10 UNL     1     -32.797   9.664   0.872  1.00 20.00    -0.130 Cl
ENDBRANCH   6   9
TORSDOF 1
ENDMDL
MODEL 4
REMARK VINA RESULT:      -3.8     11.992     13.427
REMARK  1 active torsions:
REMARK  status: ('A' for Active; 'I' for Inactive)
REMARK    1  A    between atoms: C6_6  and  C8_8 
ROOT
HETATM    1  C1  UNL     1     -36.672  15.926  -6.033  1.00 20.00     0.027 C 
HETATM    2  C2  UNL     1     -35.602  16.404  -5.053  1.00 20.00     0.014 C 
HETATM    3  C3  UNL     1     -34.283  14.363  -4.133  1.00 20.00     0.018 A 
HETATM    4  C4  UNL     1     -36.076  15.714  -7.420  1.00 20.00     0.167 C 
HETATM    5  C5  UNL     1     -33.919  15.266  -6.543  1.00 20.00     0.177 C 
HETATM    6  C6  UNL     1     -33.339  15.531  -4.037  1.00 20.00     0.011 A 
HETATM    7  C7  UNL     1     -34.394  15.498  -5.129  1.00 20.00    -0.014 A 
HETATM    8  O9  UNL     1     -34.992  14.786  -7.357  1.00 20.00    -0.390 OA
ENDROOT
BRANCH   6   9
HETATM    9  C8  UNL     1     -33.413  16.463  -2.877  1.00 20.00     0.120 C 
HETATM   10 CL10 UNL     1     -32.953  18.122  -3.349  1.00 20.00    -0.130 Cl
ENDBRANCH   6   9
TORSDOF 1
ENDMDL
MODEL 5
REMARK VINA RESULT:      -3.7     12.198     13.118
REMARK  1 active torsions:
REMARK  status: ('A' for Active; 'I' for Inactive)
REMARK    1  A    between atoms: C6_6  and  C8_8 
ROOT
HETATM    1  C1  UNL     1     -33.270  16.038  -3.700  1.00 20.00     0.027 C 
HETATM    2  C2  UNL     1     -33.380  16.601  -2.285  1.00 20.00     0.014 C 
HETATM    3  C3  UNL     1     -32.603  19.081  -2.267  1.00 20.00     0.018 A 
HETATM    4  C4  UNL     1     -34.499  16.406  -4.523  1.00 20.00     0.167 C 
HETATM    5  C5  UNL     1     -34.900  18.365  -3.247  1.00 20.00     0.177 C 
HETATM    6  C6  UNL     1     -33.561  18.949  -1.114  1.00 20.00     0.011 A 
HETATM    7  C7  UNL     1     -33.728  18.071  -2.342  1.00 20.00    -0.014 A 
HETATM    8  O9  UNL     1     -34.670  17.824  -4.551  1.00 20.00    -0.390 OA
ENDROOT
BRANCH   6   9
HETATM    9  C8  UNL     1     -33.092  18.417   0.197  1.00 20.00     0.120 C 
HETATM   10 CL10 UNL     1     -31.310  18.438   0.303  1.00 20.00    -0.130 Cl
ENDBRANCH   6   9
TORSDOF 1
ENDMDL
MODEL 6
REMARK VINA RESULT:      -3.7     11.994     12.485
REMARK  1 active torsions:
REMARK  status: ('A' for Active; 'I' for Inactive)
REMARK    1  A    between atoms: C6_6  and  C8_8 
ROOT
HETATM    1  C1  UNL     1     -33.168  19.198   1.327  1.00 20.00     0.027 C 
HETATM    2  C2  UNL     1     -33.426  18.144   0.252  1.00 20.00     0.014 C 
HETATM    3  C3  UNL     1     -32.611  19.025  -2.052  1.00 20.00     0.018 A 
HETATM    4  C4  UNL     1     -31.731  19.115   1.828  1.00 20.00     0.167 C 
HETATM    5  C5  UNL     1     -30.953  18.214  -0.222  1.00 20.00     0.177 C 
HETATM    6  C6  UNL     1     -32.539  17.525  -2.144  1.00 20.00     0.011 A 
HETATM    7  C7  UNL     1     -32.347  18.211  -0.804  1.00 20.00    -0.014 A 
HETATM    8  O9  UNL     1     -30.817  19.263   0.740  1.00 20.00    -0.390 OA
ENDROOT
BRANCH   6   9
HETATM    9  C8  UNL     1     -33.758  16.733  -2.474  1.00 20.00     0.120 C 
HETATM   10 CL10 UNL     1     -33.425  15.537  -3.757  1.00 20.00    -0.130 Cl
ENDBRANCH   6   9
TORSDOF 1
ENDMDL
MODEL 7
REMARK VINA RESULT:      -3.6     12.240     13.333
REMARK  1 active torsions:
REMARK  status: ('A' for Active; 'I' for Inactive)
REMARK    1  A    between atoms: C6_6  and  C8_8 
ROOT
HETATM    1  C1  UNL     1     -33.481  17.039  -1.783  1.00 20.00     0.027 C 
HETATM    2  C2  UNL     1     -33.478  16.321  -3.131  1.00 20.00     0.014 C 
HETATM    3  C3  UNL     1     -35.437  17.200  -4.595  1.00 20.00     0.018 A 
HETATM    4  C4  UNL     1     -32.771  18.383  -1.887  1.00 20.00     0.167 C 
HETATM    5  C5  UNL     1     -33.283  18.598  -4.192  1.00 20.00     0.177 C 
HETATM    6  C6  UNL     1     -34.395  16.710  -5.565  1.00 20.00     0.011 A 
HETATM    7  C7  UNL     1     -33.973  17.255  -4.212  1.00 20.00    -0.014 A 
HETATM    8  O9  UNL     1     -33.383  19.190  -2.895  1.00 20.00    -0.390 OA
ENDROOT
BRANCH   6   9
HETATM    9  C8  UNL     1     -34.311  15.263  -5.909  1.00 20.00     0.120 C 
HETATM   10 CL10 UNL     1     -35.878  14.446  -5.656  1.00 20.00    -0.130 Cl
ENDBRANCH   6   9
TORSDOF 1
ENDMDL
MODEL 8
REMARK VINA RESULT:      -3.6     11.879     12.936
REMARK  1 active torsions:
REMARK  status: ('A' for Active; 'I' for Inactive)
REMARK    1  A    between atoms: C6_6  and  C8_8 
ROOT
HETATM    1  C1  UNL     1     -33.035  18.828  -3.873  1.00 20.00     0.027 C 
HETATM    2  C2  UNL     1     -33.940  17.671  -4.290  1.00 20.00     0.014 C 
HETATM    3  C3  UNL     1     -32.637  15.430  -4.103  1.00 20.00     0.018 A 
HETATM    4  C4  UNL     1     -33.027  18.985  -2.357  1.00 20.00     0.167 C 
HETATM    5  C5  UNL     1     -33.517  16.692  -2.008  1.00 20.00     0.177 C 
HETATM    6  C6  UNL     1     -34.089  15.069  -3.938  1.00 20.00     0.011 A 
HETATM    7  C7  UNL     1     -33.593  16.434  -3.494  1.00 20.00    -0.014 A 
HETATM    8  O9  UNL     1     -32.615  17.767  -1.735  1.00 20.00    -0.390 OA
ENDROOT
BRANCH   6   9
HETATM    9  C8  UNL     1     -34.957  14.880  -5.134  1.00 20.00     0.120 C 
HETATM   10 CL10 UNL     1     -34.016  15.017  -6.645  1.00 20.00    -0.130 Cl
ENDBRANCH   6   9
TORSDOF 1
ENDMDL
MODEL 9
REMARK VINA RESULT:      -3.6     11.983     12.812
REMARK  1 active torsions:
REMARK  status: ('A' for Active; 'I' for Inactive)
REMARK    1  A    between atoms: C6_6  and  C8_8 
ROOT
HETATM    1  C1  UNL     1     -31.324  18.500  -0.086  1.00 20.00     0.027 C 
HETATM    2  C2  UNL     1     -31.987  18.766  -1.436  1.00 20.00     0.014 C 
HETATM    3  C3  UNL     1     -33.480  16.744  -2.093  1.00 20.00     0.018 A 
HETATM    4  C4  UNL     1     -32.268  18.855   1.056  1.00 20.00     0.167 C 
HETATM    5  C5  UNL     1     -34.195  18.449  -0.266  1.00 20.00     0.177 C 
HETATM    6  C6  UNL     1     -34.077  17.933  -2.797  1.00 20.00     0.011 A 
HETATM    7  C7  UNL     1     -33.353  18.120  -1.475  1.00 20.00    -0.014 A 
HETATM    8  O9  UNL     1     -33.490  18.123   0.935  1.00 20.00    -0.390 OA
ENDROOT
BRANCH   6   9
HETATM    9  C8  UNL     1     -33.513  18.399  -4.095  1.00 20.00     0.120 C 
HETATM   10 CL10 UNL     1     -34.437  17.743  -5.474  1.00 20.00    -0.130 Cl
ENDBRANCH   6   9
TORSDOF 1
ENDMDL
