MODEL 1
REMARK VINA RESULT:      -4.0      0.000      0.000
REMARK  3 active torsions:
REMARK  status: ('A' for Active; 'I' for Inactive)
REMARK    1  A    between atoms: C2_2  and  C10_10 
REMARK    2  A    between atoms: C3_3  and  C9_9 
REMARK    3  A    between atoms: C4_4  and  O11_11 
ROOT
HETATM    1  C1  UNL     1     -33.856   8.434   5.504  1.00 20.00     0.038 C 
HETATM    2  C2  UNL     1     -34.163   7.495   4.314  1.00 20.00     0.002 C 
HETATM    3  C3  UNL     1     -32.714   7.752   3.805  1.00 20.00     0.019 C 
HETATM    4  C4  UNL     1     -32.351   8.224   5.242  1.00 20.00     0.123 C 
ENDROOT
BRANCH   2   5
HETATM    5  C10 UNL     1     -34.485   6.052   4.679  1.00 20.00    -0.047 C 
HETATM    6  C6  UNL     1     -33.546   5.090   3.923  1.00 20.00     0.015 C 
HETATM    7  C7  UNL     1     -35.943   5.722   4.300  1.00 20.00     0.015 C 
HETATM    8  C8  UNL     1     -34.305   5.834   6.195  1.00 20.00     0.015 C 
ENDBRANCH   2   5
BRANCH   3   9
HETATM    9  C9  UNL     1     -32.599   8.775   2.684  1.00 20.00     0.003 C 
HETATM   10  C5  UNL     1     -32.119   8.159   1.407  1.00 20.00     0.005 C 
ENDBRANCH   3   9
BRANCH   4  11
HETATM   11  O11 UNL     1     -31.523   9.395   5.353  1.00 20.00    -0.395 OA
HETATM   12  H31 UNL     1     -31.529   9.629   6.289  1.00 20.00     0.210 HD
ENDBRANCH   4  11
TORSDOF 3
ENDMDL
MODEL 2
REMARK VINA RESULT:      -3.8     11.951     13.747
REMARK  3 active torsions:
REMARK  status: ('A' for Active; 'I' for Inactive)
REMARK    1  A    between atoms: C2_2  and  C10_10 
REMARK    2  A    between atoms: C3_3  and  C9_9 
REMARK    3  A    between atoms: C4_4  and  O11_11 
ROOT
HETATM    1  C1  UNL     1     -35.685  14.717  -6.561  1.00 20.00     0.038 C 
HETATM    2  C2  UNL     1     -36.091  15.646  -5.394  1.00 20.00     0.002 C 
HETATM    3  C3  UNL     1     -34.588  16.020  -5.237  1.00 20.00     0.019 C 
HETATM    4  C4  UNL     1     -34.364  15.503  -6.687  1.00 20.00     0.123 C 
ENDROOT
BRANCH   2   5
HETATM    5  C10 UNL     1     -37.020  16.795  -5.758  1.00 20.00    -0.047 C 
HETATM    6  C6  UNL     1     -37.379  16.734  -7.257  1.00 20.00     0.015 C 
HETATM    7  C7  UNL     1     -36.334  18.145  -5.467  1.00 20.00     0.015 C 
HETATM    8  C8  UNL     1     -38.320  16.711  -4.932  1.00 20.00     0.015 C 
ENDBRANCH   2   5
BRANCH   3   9
HETATM    9  C9  UNL     1     -33.858  15.293  -4.116  1.00 20.00     0.003 C 
HETATM   10  C5  UNL     1     -33.325  16.240  -3.086  1.00 20.00     0.005 C 
ENDBRANCH   3   9
BRANCH   4  11
HETATM   11  O11 UNL     1     -33.183  14.716  -6.922  1.00 20.00    -0.395 OA
HETATM   12  H31 UNL     1     -32.502  15.345  -7.191  1.00 20.00     0.210 HD
ENDBRANCH   4  11
TORSDOF 3
ENDMDL
MODEL 3
REMARK VINA RESULT:      -3.7     11.613     13.446
REMARK  3 active torsions:
REMARK  status: ('A' for Active; 'I' for Inactive)
REMARK    1  A    between atoms: C2_2  and  C10_10 
REMARK    2  A    between atoms: C3_3  and  C9_9 
REMARK    3  A    between atoms: C4_4  and  O11_11 
ROOT
HETATM    1  C1  UNL     1     -35.294  14.706  -5.218  1.00 20.00     0.038 C 
HETATM    2  C2  UNL     1     -35.400  16.218  -4.911  1.00 20.00     0.002 C 
HETATM    3  C3  UNL     1     -33.910  16.178  -4.464  1.00 20.00     0.019 C 
HETATM    4  C4  UNL     1     -33.760  14.854  -5.267  1.00 20.00     0.123 C 
ENDROOT
BRANCH   2   5
HETATM    5  C10 UNL     1     -35.705  17.113  -6.103  1.00 20.00    -0.047 C 
HETATM    6  C6  UNL     1     -34.485  17.998  -6.430  1.00 20.00     0.015 C 
HETATM    7  C7  UNL     1     -36.908  18.025  -5.788  1.00 20.00     0.015 C 
HETATM    8  C8  UNL     1     -36.043  16.255  -7.340  1.00 20.00     0.015 C 
ENDBRANCH   2   5
BRANCH   3   9
HETATM    9  C9  UNL     1     -33.691  16.111  -2.959  1.00 20.00     0.003 C 
HETATM   10  C5  UNL     1     -33.091  17.372  -2.420  1.00 20.00     0.005 C 
ENDBRANCH   3   9
BRANCH   4  11
HETATM   11  O11 UNL     1     -33.005  13.799  -4.646  1.00 20.00    -0.395 OA
HETATM   12  H31 UNL     1     -33.384  13.693  -3.765  1.00 20.00     0.210 HD
ENDBRANCH   4  11
TORSDOF 3
ENDMDL
MODEL 4
REMARK VINA RESULT:      -3.7      9.687     10.912
REMARK  3 active torsions:
REMARK  status: ('A' for Active; 'I' for Inactive)
REMARK    1  A    between atoms: C2_2  and  C10_10 
REMARK    2  A    between atoms: C3_3  and  C9_9 
REMARK    3  A    between atoms: C4_4  and  O11_11 
ROOT
HETATM    1  C1  UNL     1     -42.854  13.658   5.962  1.00 20.00     0.038 C 
HETATM    2  C2  UNL     1     -41.871  13.326   7.109  1.00 20.00     0.002 C 
HETATM    3  C3  UNL     1     -40.711  13.444   6.078  1.00 20.00     0.019 C 
HETATM    4  C4  UNL     1     -41.675  14.253   5.164  1.00 20.00     0.123 C 
ENDROOT
BRANCH   2   5
HETATM    5  C10 UNL     1     -41.835  14.326   8.256  1.00 20.00    -0.047 C 
HETATM    6  C6  UNL     1     -40.377  14.705   8.586  1.00 20.00     0.015 C 
HETATM    7  C7  UNL     1     -42.485  13.715   9.513  1.00 20.00     0.015 C 
HETATM    8  C8  UNL     1     -42.606  15.605   7.871  1.00 20.00     0.015 C 
ENDBRANCH   2   5
BRANCH   3   9
HETATM    9  C9  UNL     1     -40.190  12.118   5.542  1.00 20.00     0.003 C 
HETATM   10  C5  UNL     1     -38.694  12.080   5.490  1.00 20.00     0.005 C 
ENDBRANCH   3   9
BRANCH   4  11
HETATM   11  O11 UNL     1     -41.649  13.949   3.759  1.00 20.00    -0.395 OA
HETATM   12  H31 UNL     1     -42.423  14.388   3.384  1.00 20.00     0.210 HD
ENDBRANCH   4  11
TORSDOF 3
ENDMDL
MODEL 5
REMARK VINA RESULT:      -3.7      9.720     10.948
REMARK  3 active torsions:
REMARK  status: ('A' for Active; 'I' for Inactive)
REMARK    1  A    between atoms: C2_2  and  C10_10 
REMARK    2  A    between atoms: C3_3  and  C9_9 
REMARK    3  A    between atoms: C4_4  and  O11_11 
ROOT
HETATM    1  C1  UNL     1     -42.873  13.701   5.989  1.00 20.00     0.038 C 
HETATM    2  C2  UNL     1     -41.894  13.367   7.139  1.00 20.00     0.002 C 
HETATM    3  C3  UNL     1     -40.733  13.457   6.107  1.00 20.00     0.019 C 
HETATM    4  C4  UNL     1     -41.685  14.270   5.185  1.00 20.00     0.123 C 
ENDROOT
BRANCH   2   5
HETATM    5  C10 UNL     1     -41.843  14.379   8.275  1.00 20.00    -0.047 C 
HETATM    6  C6  UNL     1     -42.402  13.753   9.569  1.00 20.00     0.015 C 
HETATM    7  C7  UNL     1     -42.686  15.619   7.921  1.00 20.00     0.015 C 
HETATM    8  C8  UNL     1     -40.387  14.823   8.527  1.00 20.00     0.015 C 
ENDBRANCH   2   5
BRANCH   3   9
HETATM    9  C9  UNL     1     -40.232  12.117   5.585  1.00 20.00     0.003 C 
HETATM   10  C5  UNL     1     -38.740  12.082   5.463  1.00 20.00     0.005 C 
ENDBRANCH   3   9
BRANCH   4  11
HETATM   11  O11 UNL     1     -41.664  13.951   3.782  1.00 20.00    -0.395 OA
HETATM   12  H31 UNL     1     -42.149  14.662   3.347  1.00 20.00     0.210 HD
ENDBRANCH   4  11
TORSDOF 3
ENDMDL
MODEL 6
REMARK VINA RESULT:      -3.5     11.455     12.982
REMARK  3 active torsions:
REMARK  status: ('A' for Active; 'I' for Inactive)
REMARK    1  A    between atoms: C2_2  and  C10_10 
REMARK    2  A    between atoms: C3_3  and  C9_9 
REMARK    3  A    between atoms: C4_4  and  O11_11 
ROOT
HETATM    1  C1  UNL     1     -32.918  15.516  -3.787  1.00 20.00     0.038 C 
HETATM    2  C2  UNL     1     -33.455  16.910  -4.188  1.00 20.00     0.002 C 
HETATM    3  C3  UNL     1     -34.674  16.195  -4.840  1.00 20.00     0.019 C 
HETATM    4  C4  UNL     1     -34.340  14.948  -3.972  1.00 20.00     0.123 C 
ENDROOT
BRANCH   2   5
HETATM    5  C10 UNL     1     -33.782  17.846  -3.033  1.00 20.00    -0.047 C 
HETATM    6  C6  UNL     1     -32.880  19.096  -3.090  1.00 20.00     0.015 C 
HETATM    7  C7  UNL     1     -33.554  17.131  -1.688  1.00 20.00     0.015 C 
HETATM    8  C8  UNL     1     -35.256  18.294  -3.114  1.00 20.00     0.015 C 
ENDBRANCH   2   5
BRANCH   3   9
HETATM    9  C9  UNL     1     -34.591  16.034  -6.352  1.00 20.00     0.003 C 
HETATM   10  C5  UNL     1     -35.944  16.050  -6.994  1.00 20.00     0.005 C 
ENDBRANCH   3   9
BRANCH   4  11
HETATM   11  O11 UNL     1     -34.428  13.665  -4.614  1.00 20.00    -0.395 OA
HETATM   12  H31 UNL     1     -33.517  13.362  -4.713  1.00 20.00     0.210 HD
ENDBRANCH   4  11
TORSDOF 3
ENDMDL
MODEL 7
REMARK VINA RESULT:      -3.4     10.290     11.617
REMARK  3 active torsions:
REMARK  status: ('A' for Active; 'I' for Inactive)
REMARK    1  A    between atoms: C2_2  and  C10_10 
REMARK    2  A    between atoms: C3_3  and  C9_9 
REMARK    3  A    between atoms: C4_4  and  O11_11 
ROOT
HETATM    1  C1  UNL     1     -42.228  13.715   8.371  1.00 20.00     0.038 C 
HETATM    2  C2  UNL     1     -41.335  14.610   7.480  1.00 20.00     0.002 C 
HETATM    3  C3  UNL     1     -41.400  13.499   6.391  1.00 20.00     0.019 C 
HETATM    4  C4  UNL     1     -42.663  12.943   7.108  1.00 20.00     0.123 C 
ENDROOT
BRANCH   2   5
HETATM    5  C10 UNL     1     -41.933  15.953   7.085  1.00 20.00    -0.047 C 
HETATM    6  C6  UNL     1     -43.167  16.263   7.957  1.00 20.00     0.015 C 
HETATM    7  C7  UNL     1     -42.366  15.927   5.606  1.00 20.00     0.015 C 
HETATM    8  C8  UNL     1     -40.893  17.075   7.279  1.00 20.00     0.015 C 
ENDBRANCH   2   5
BRANCH   3   9
HETATM    9  C9  UNL     1     -40.179  12.592   6.325  1.00 20.00     0.003 C 
HETATM   10  C5  UNL     1     -39.855  12.185   4.921  1.00 20.00     0.005 C 
ENDBRANCH   3   9
BRANCH   4  11
HETATM   11  O11 UNL     1     -42.759  11.515   7.245  1.00 20.00    -0.395 OA
HETATM   12  H31 UNL     1     -42.504  11.324   8.156  1.00 20.00     0.210 HD
ENDBRANCH   4  11
TORSDOF 3
ENDMDL
MODEL 8
REMARK VINA RESULT:      -3.2     10.120     11.538
REMARK  3 active torsions:
REMARK  status: ('A' for Active; 'I' for Inactive)
REMARK    1  A    between atoms: C2_2  and  C10_10 
REMARK    2  A    between atoms: C3_3  and  C9_9 
REMARK    3  A    between atoms: C4_4  and  O11_11 
ROOT
HETATM    1  C1  UNL     1     -40.824  15.566   7.157  1.00 20.00     0.038 C 
HETATM    2  C2  UNL     1     -40.657  14.054   7.435  1.00 20.00     0.002 C 
HETATM    3  C3  UNL     1     -41.487  14.255   8.736  1.00 20.00     0.019 C 
HETATM    4  C4  UNL     1     -42.023  15.581   8.126  1.00 20.00     0.123 C 
ENDROOT
BRANCH   2   5
HETATM    5  C10 UNL     1     -41.272  13.122   6.400  1.00 20.00    -0.047 C 
HETATM    6  C6  UNL     1     -42.513  12.420   6.989  1.00 20.00     0.015 C 
HETATM    7  C7  UNL     1     -40.249  12.049   5.978  1.00 20.00     0.015 C 
HETATM    8  C8  UNL     1     -41.698  13.921   5.152  1.00 20.00     0.015 C 
ENDBRANCH   2   5
BRANCH   3   9
HETATM    9  C9  UNL     1     -40.664  14.358  10.013  1.00 20.00     0.003 C 
HETATM   10  C5  UNL     1     -41.394  13.807  11.199  1.00 20.00     0.005 C 
ENDBRANCH   3   9
BRANCH   4  11
HETATM   11  O11 UNL     1     -42.108  16.716   9.006  1.00 20.00    -0.395 OA
HETATM   12  H31 UNL     1     -42.158  16.349   9.897  1.00 20.00     0.210 HD
ENDBRANCH   4  11
TORSDOF 3
ENDMDL
MODEL 9
REMARK VINA RESULT:      -3.1     12.409     13.928
REMARK  3 active torsions:
REMARK  status: ('A' for Active; 'I' for Inactive)
REMARK    1  A    between atoms: C2_2  and  C10_10 
REMARK    2  A    between atoms: C3_3  and  C9_9 
REMARK    3  A    between atoms: C4_4  and  O11_11 
ROOT
HETATM    1  C1  UNL     1     -27.032  -0.897  11.917  1.00 20.00     0.038 C 
HETATM    2  C2  UNL     1     -26.637  -2.387  11.788  1.00 20.00     0.002 C 
HETATM    3  C3  UNL     1     -27.575  -2.474  10.549  1.00 20.00     0.019 C 
HETATM    4  C4  UNL     1     -27.495  -0.924  10.446  1.00 20.00     0.123 C 
ENDROOT
BRANCH   2   5
HETATM    5  C10 UNL     1     -25.164  -2.658  11.518  1.00 20.00    -0.047 C 
HETATM    6  C6  UNL     1     -24.691  -3.881  12.331  1.00 20.00     0.015 C 
HETATM    7  C7  UNL     1     -24.317  -1.436  11.923  1.00 20.00     0.015 C 
HETATM    8  C8  UNL     1     -24.942  -2.942  10.018  1.00 20.00     0.015 C 
ENDBRANCH   2   5
BRANCH   3   9
HETATM    9  C9  UNL     1     -28.942  -3.086  10.820  1.00 20.00     0.003 C 
HETATM   10  C5  UNL     1     -29.273  -4.177   9.849  1.00 20.00     0.005 C 
ENDBRANCH   3   9
BRANCH   4  11
HETATM   11  O11 UNL     1     -28.720  -0.227  10.159  1.00 20.00    -0.395 OA
HETATM   12  H31 UNL     1     -28.858  -0.328   9.209  1.00 20.00     0.210 HD
ENDBRANCH   4  11
TORSDOF 3
ENDMDL
