MODEL 1
REMARK VINA RESULT:      -4.7      0.000      0.000
REMARK  2 active torsions:
REMARK  status: ('A' for Active; 'I' for Inactive)
REMARK    1  A    between atoms: C4_4  and  C9_9 
REMARK    2  A    between atoms: C5_5  and  C6_6 
ROOT
HETATM    1  C3  UNL     1     -31.794   7.939   4.379  1.00 20.00     0.017 A 
HETATM    2  C4  UNL     1     -32.718   8.529   3.353  1.00 20.00     0.009 A 
HETATM    3  C6  UNL     1     -33.286   7.665   4.472  1.00 20.00    -0.032 A 
HETATM    4  C8  UNL     1     -34.040   8.401   5.553  1.00 20.00     0.016 C 
ENDROOT
BRANCH   3   5
HETATM    5  C5  UNL     1     -33.829   6.252   4.212  1.00 20.00    -0.036 A 
HETATM    6  C1  UNL     1     -34.376   5.426   5.352  1.00 20.00     0.011 A 
HETATM    7  C2  UNL     1     -35.310   5.976   4.313  1.00 20.00     0.011 A 
HETATM    8  C7  UNL     1     -33.077   5.505   3.138  1.00 20.00     0.016 C 
ENDBRANCH   3   5
BRANCH   2   9
HETATM    9  C9  UNL     1     -32.665   8.060   1.939  1.00 20.00     0.120 C 
HETATM   10 CL10 UNL     1     -32.732   9.433   0.800  1.00 20.00    -0.130 Cl
ENDBRANCH   2   9
TORSDOF 2
ENDMDL
MODEL 2
REMARK VINA RESULT:      -4.3      2.012      3.487
REMARK  2 active torsions:
REMARK  status: ('A' for Active; 'I' for Inactive)
REMARK    1  A    between atoms: C4_4  and  C9_9 
REMARK    2  A    between atoms: C5_5  and  C6_6 
ROOT
HETATM    1  C3  UNL     1     -35.401   5.881   4.174  1.00 20.00     0.017 A 
HETATM    2  C4  UNL     1     -34.058   5.227   4.019  1.00 20.00     0.009 A 
HETATM    3  C6  UNL     1     -34.331   6.113   5.228  1.00 20.00    -0.032 A 
HETATM    4  C8  UNL     1     -34.513   5.393   6.542  1.00 20.00     0.016 C 
ENDROOT
BRANCH   3   5
HETATM    5  C5  UNL     1     -33.687   7.499   5.382  1.00 20.00    -0.036 A 
HETATM    6  C1  UNL     1     -32.468   7.866   4.571  1.00 20.00     0.011 A 
HETATM    7  C2  UNL     1     -33.789   8.513   4.269  1.00 20.00     0.011 A 
HETATM    8  C7  UNL     1     -33.747   8.038   6.791  1.00 20.00     0.016 C 
ENDBRANCH   3   5
BRANCH   2   9
HETATM    9  C9  UNL     1     -33.143   5.646   2.920  1.00 20.00     0.120 C 
HETATM   10 CL10 UNL     1     -32.755   4.276   1.843  1.00 20.00    -0.130 Cl
ENDBRANCH   2   9
TORSDOF 2
ENDMDL
MODEL 3
REMARK VINA RESULT:      -4.2     10.980     12.553
REMARK  2 active torsions:
REMARK  status: ('A' for Active; 'I' for Inactive)
REMARK    1  A    between atoms: C4_4  and  C9_9 
REMARK    2  A    between atoms: C5_5  and  C6_6 
ROOT
HETATM    1  C3  UNL     1     -33.317  14.495  -4.908  1.00 20.00     0.017 A 
HETATM    2  C4  UNL     1     -33.880  15.229  -3.725  1.00 20.00     0.009 A 
HETATM    3  C6  UNL     1     -34.797  14.837  -4.876  1.00 20.00    -0.032 A 
HETATM    4  C8  UNL     1     -35.746  13.695  -4.601  1.00 20.00     0.016 C 
ENDROOT
BRANCH   3   5
HETATM    5  C5  UNL     1     -35.370  15.877  -5.850  1.00 20.00    -0.036 A 
HETATM    6  C1  UNL     1     -34.471  16.551  -6.859  1.00 20.00     0.011 A 
HETATM    7  C2  UNL     1     -35.495  15.554  -7.320  1.00 20.00     0.011 A 
HETATM    8  C7  UNL     1     -36.467  16.724  -5.252  1.00 20.00     0.016 C 
ENDBRANCH   3   5
BRANCH   2   9
HETATM    9  C9  UNL     1     -33.492  16.645  -3.468  1.00 20.00     0.120 C 
HETATM   10 CL10 UNL     1     -33.619  17.046  -1.733  1.00 20.00    -0.130 Cl
ENDBRANCH   2   9
TORSDOF 2
ENDMDL
MODEL 4
REMARK VINA RESULT:      -4.2      0.912      1.500
REMARK  2 active torsions:
REMARK  status: ('A' for Active; 'I' for Inactive)
REMARK    1  A    between atoms: C4_4  and  C9_9 
REMARK    2  A    between atoms: C5_5  and  C6_6 
ROOT
HETATM    1  C3  UNL     1     -32.042   8.177   4.963  1.00 20.00     0.017 A 
HETATM    2  C4  UNL     1     -32.718   8.274   3.625  1.00 20.00     0.009 A 
HETATM    3  C6  UNL     1     -33.534   7.909   4.858  1.00 20.00    -0.032 A 
HETATM    4  C8  UNL     1     -34.451   8.987   5.382  1.00 20.00     0.016 C 
ENDROOT
BRANCH   3   5
HETATM    5  C5  UNL     1     -34.081   6.491   5.081  1.00 20.00    -0.036 A 
HETATM    6  C1  UNL     1     -35.298   6.017   4.324  1.00 20.00     0.011 A 
HETATM    7  C2  UNL     1     -33.948   5.445   3.999  1.00 20.00     0.011 A 
HETATM    8  C7  UNL     1     -33.941   6.007   6.504  1.00 20.00     0.016 C 
ENDBRANCH   3   5
BRANCH   2   9
HETATM    9  C9  UNL     1     -32.409   7.281   2.557  1.00 20.00     0.120 C 
HETATM   10 CL10 UNL     1     -32.034   8.090   1.011  1.00 20.00    -0.130 Cl
ENDBRANCH   2   9
TORSDOF 2
ENDMDL
MODEL 5
REMARK VINA RESULT:      -4.1      1.287      2.721
REMARK  2 active torsions:
REMARK  status: ('A' for Active; 'I' for Inactive)
REMARK    1  A    between atoms: C4_4  and  C9_9 
REMARK    2  A    between atoms: C5_5  and  C6_6 
ROOT
HETATM    1  C3  UNL     1     -33.773   5.315   2.392  1.00 20.00     0.017 A 
HETATM    2  C4  UNL     1     -32.568   5.837   3.120  1.00 20.00     0.009 A 
HETATM    3  C6  UNL     1     -33.681   5.150   3.899  1.00 20.00    -0.032 A 
HETATM    4  C8  UNL     1     -33.368   3.763   4.408  1.00 20.00     0.016 C 
ENDROOT
BRANCH   3   5
HETATM    5  C5  UNL     1     -34.631   5.930   4.820  1.00 20.00    -0.036 A 
HETATM    6  C1  UNL     1     -34.702   5.604   6.293  1.00 20.00     0.011 A 
HETATM    7  C2  UNL     1     -34.078   6.893   5.844  1.00 20.00     0.011 A 
HETATM    8  C7  UNL     1     -35.926   6.328   4.154  1.00 20.00     0.016 C 
ENDBRANCH   3   5
BRANCH   2   9
HETATM    9  C9  UNL     1     -32.327   7.305   3.211  1.00 20.00     0.120 C 
HETATM   10 CL10 UNL     1     -32.155   8.034   1.590  1.00 20.00    -0.130 Cl
ENDBRANCH   2   9
TORSDOF 2
ENDMDL
MODEL 6
REMARK VINA RESULT:      -4.0      9.309     10.989
REMARK  2 active torsions:
REMARK  status: ('A' for Active; 'I' for Inactive)
REMARK    1  A    between atoms: C4_4  and  C9_9 
REMARK    2  A    between atoms: C5_5  and  C6_6 
ROOT
HETATM    1  C3  UNL     1     -41.883  13.668   5.669  1.00 20.00     0.017 A 
HETATM    2  C4  UNL     1     -41.060  12.581   6.297  1.00 20.00     0.009 A 
HETATM    3  C6  UNL     1     -41.828  13.553   7.183  1.00 20.00    -0.032 A 
HETATM    4  C8  UNL     1     -43.056  12.995   7.861  1.00 20.00     0.016 C 
ENDROOT
BRANCH   3   5
HETATM    5  C5  UNL     1     -41.118  14.632   8.013  1.00 20.00    -0.036 A 
HETATM    6  C1  UNL     1     -40.368  15.749   7.328  1.00 20.00     0.011 A 
HETATM    7  C2  UNL     1     -41.654  16.043   8.045  1.00 20.00     0.011 A 
HETATM    8  C7  UNL     1     -40.522  14.110   9.298  1.00 20.00     0.016 C 
ENDBRANCH   3   5
BRANCH   2   9
HETATM    9  C9  UNL     1     -39.574  12.611   6.191  1.00 20.00     0.120 C 
HETATM   10 CL10 UNL     1     -39.018  11.846   4.676  1.00 20.00    -0.130 Cl
ENDBRANCH   2   9
TORSDOF 2
ENDMDL
MODEL 7
REMARK VINA RESULT:      -3.9     11.641     13.284
REMARK  2 active torsions:
REMARK  status: ('A' for Active; 'I' for Inactive)
REMARK    1  A    between atoms: C4_4  and  C9_9 
REMARK    2  A    between atoms: C5_5  and  C6_6 
ROOT
HETATM    1  C3  UNL     1     -33.968  15.031  -6.009  1.00 20.00     0.017 A 
HETATM    2  C4  UNL     1     -34.032  15.218  -4.520  1.00 20.00     0.009 A 
HETATM    3  C6  UNL     1     -35.185  15.700  -5.392  1.00 20.00    -0.032 A 
HETATM    4  C8  UNL     1     -36.447  14.875  -5.328  1.00 20.00     0.016 C 
ENDROOT
BRANCH   3   5
HETATM    5  C5  UNL     1     -35.451  17.193  -5.636  1.00 20.00    -0.036 A 
HETATM    6  C1  UNL     1     -34.475  18.018  -6.440  1.00 20.00     0.011 A 
HETATM    7  C2  UNL     1     -35.822  17.684  -7.015  1.00 20.00     0.011 A 
HETATM    8  C7  UNL     1     -36.121  17.884  -4.473  1.00 20.00     0.016 C 
ENDBRANCH   3   5
BRANCH   2   9
HETATM    9  C9  UNL     1     -33.101  16.165  -3.844  1.00 20.00     0.120 C 
HETATM   10 CL10 UNL     1     -33.618  16.493  -2.167  1.00 20.00    -0.130 Cl
ENDBRANCH   2   9
TORSDOF 2
ENDMDL
MODEL 8
REMARK VINA RESULT:      -3.8     11.621     13.021
REMARK  2 active torsions:
REMARK  status: ('A' for Active; 'I' for Inactive)
REMARK    1  A    between atoms: C4_4  and  C9_9 
REMARK    2  A    between atoms: C5_5  and  C6_6 
ROOT
HETATM    1  C3  UNL     1     -35.509  17.525  -4.344  1.00 20.00     0.017 A 
HETATM    2  C4  UNL     1     -34.008  17.561  -4.332  1.00 20.00     0.009 A 
HETATM    3  C6  UNL     1     -34.741  17.082  -5.578  1.00 20.00    -0.032 A 
HETATM    4  C8  UNL     1     -34.739  18.035  -6.749  1.00 20.00     0.016 C 
ENDROOT
BRANCH   3   5
HETATM    5  C5  UNL     1     -34.747  15.605  -6.002  1.00 20.00    -0.036 A 
HETATM    6  C1  UNL     1     -34.988  14.521  -4.979  1.00 20.00     0.011 A 
HETATM    7  C2  UNL     1     -36.038  14.822  -6.010  1.00 20.00     0.011 A 
HETATM    8  C7  UNL     1     -33.762  15.289  -7.101  1.00 20.00     0.016 C 
ENDBRANCH   3   5
BRANCH   2   9
HETATM    9  C9  UNL     1     -33.244  16.628  -3.455  1.00 20.00     0.120 C 
HETATM   10 CL10 UNL     1     -33.600  16.924  -1.731  1.00 20.00    -0.130 Cl
ENDBRANCH   2   9
TORSDOF 2
ENDMDL
MODEL 9
REMARK VINA RESULT:      -3.8      1.563      2.779
REMARK  2 active torsions:
REMARK  status: ('A' for Active; 'I' for Inactive)
REMARK    1  A    between atoms: C4_4  and  C9_9 
REMARK    2  A    between atoms: C5_5  and  C6_6 
ROOT
HETATM    1  C3  UNL     1     -34.419   6.330   6.157  1.00 20.00     0.017 A 
HETATM    2  C4  UNL     1     -34.094   7.480   5.247  1.00 20.00     0.009 A 
HETATM    3  C6  UNL     1     -34.607   6.174   4.657  1.00 20.00    -0.032 A 
HETATM    4  C8  UNL     1     -36.030   6.195   4.151  1.00 20.00     0.016 C 
ENDROOT
BRANCH   3   5
HETATM    5  C5  UNL     1     -33.697   5.228   3.860  1.00 20.00    -0.036 A 
HETATM    6  C1  UNL     1     -33.746   5.218   2.350  1.00 20.00     0.011 A 
HETATM    7  C2  UNL     1     -32.545   5.781   3.055  1.00 20.00     0.011 A 
HETATM    8  C7  UNL     1     -33.468   3.898   4.536  1.00 20.00     0.016 C 
ENDBRANCH   3   5
BRANCH   2   9
HETATM    9  C9  UNL     1     -32.682   7.925   5.078  1.00 20.00     0.120 C 
HETATM   10 CL10 UNL     1     -32.526   9.086   3.731  1.00 20.00    -0.130 Cl
ENDBRANCH   2   9
TORSDOF 2
ENDMDL
