MODEL 1
REMARK VINA RESULT:      -3.4      0.000      0.000
REMARK  1 active torsions:
REMARK  status: ('A' for Active; 'I' for Inactive)
REMARK    1  A    between atoms: C5_5  and  C10_10 
ROOT
HETATM    1  C1  UNL     1     -36.261  15.899  -5.283  1.00 20.00     0.019 C 
HETATM    2  C2  UNL     1     -32.697  16.192  -3.619  1.00 20.00     0.018 A 
HETATM    3  C3  UNL     1     -36.487  17.257  -5.936  1.00 20.00     0.075 C 
HETATM    4  C4  UNL     1     -34.052  17.950  -4.896  1.00 20.00     0.084 C 
HETATM    5  C5  UNL     1     -33.905  16.425  -2.758  1.00 20.00     0.010 A 
HETATM    6  C6  UNL     1     -34.016  16.561  -4.282  1.00 20.00    -0.020 A 
HETATM    7  C7  UNL     1     -34.778  15.473  -5.103  1.00 20.00    -0.038 C 
HETATM    8  C8  UNL     1     -34.095  15.272  -6.475  1.00 20.00     0.015 C 
HETATM    9  C9  UNL     1     -34.808  14.078  -4.426  1.00 20.00     0.015 C 
HETATM   10  S11 UNL     1     -35.739  18.589  -4.963  1.00 20.00    -0.168 SA
ENDROOT
BRANCH   5  11
HETATM   11  C10 UNL     1     -33.939  17.586  -1.823  1.00 20.00     0.120 C 
HETATM   12 CL12 UNL     1     -32.296  18.030  -1.286  1.00 20.00    -0.130 Cl
ENDBRANCH   5  11
TORSDOF 1
ENDMDL
MODEL 2
REMARK VINA RESULT:      -3.4      1.207      1.422
REMARK  1 active torsions:
REMARK  status: ('A' for Active; 'I' for Inactive)
REMARK    1  A    between atoms: C5_5  and  C10_10 
ROOT
HETATM    1  C1  UNL     1     -37.169  16.184  -5.360  1.00 20.00     0.019 C 
HETATM    2  C2  UNL     1     -33.342  15.257  -5.133  1.00 20.00     0.018 A 
HETATM    3  C3  UNL     1     -37.191  17.534  -6.067  1.00 20.00     0.075 C 
HETATM    4  C4  UNL     1     -34.460  17.363  -6.068  1.00 20.00     0.084 C 
HETATM    5  C5  UNL     1     -33.992  15.894  -3.938  1.00 20.00     0.010 A 
HETATM    6  C6  UNL     1     -34.627  16.050  -5.325  1.00 20.00    -0.020 A 
HETATM    7  C7  UNL     1     -35.943  15.280  -5.665  1.00 20.00    -0.038 C 
HETATM    8  C8  UNL     1     -35.935  14.849  -7.150  1.00 20.00     0.015 C 
HETATM    9  C9  UNL     1     -36.147  13.983  -4.839  1.00 20.00     0.015 C 
HETATM   10  S11 UNL     1     -35.754  18.538  -5.616  1.00 20.00    -0.168 SA
ENDROOT
BRANCH   5  11
HETATM   11  C10 UNL     1     -33.302  17.004  -3.218  1.00 20.00     0.120 C 
HETATM   12 CL12 UNL     1     -33.677  16.972  -1.474  1.00 20.00    -0.130 Cl
ENDBRANCH   5  11
TORSDOF 1
ENDMDL
MODEL 3
REMARK VINA RESULT:      -3.2     24.458     25.742
REMARK  1 active torsions:
REMARK  status: ('A' for Active; 'I' for Inactive)
REMARK    1  A    between atoms: C5_5  and  C10_10 
ROOT
HETATM    1  C1  UNL     1     -28.819  -2.353  10.244  1.00 20.00     0.019 C 
HETATM    2  C2  UNL     1     -25.231  -1.589  11.695  1.00 20.00     0.018 A 
HETATM    3  C3  UNL     1     -29.237  -3.648  10.929  1.00 20.00     0.075 C 
HETATM    4  C4  UNL     1     -26.780  -3.581  12.134  1.00 20.00     0.084 C 
HETATM    5  C5  UNL     1     -25.329  -2.282  10.366  1.00 20.00     0.010 A 
HETATM    6  C6  UNL     1     -26.518  -2.317  11.333  1.00 20.00    -0.020 A 
HETATM    7  C7  UNL     1     -27.796  -1.476  11.018  1.00 20.00    -0.038 C 
HETATM    8  C8  UNL     1     -28.415  -0.944  12.331  1.00 20.00     0.015 C 
HETATM    9  C9  UNL     1     -27.531  -0.234  10.130  1.00 20.00     0.015 C 
HETATM   10  S11 UNL     1     -27.816  -4.735  11.209  1.00 20.00    -0.168 SA
ENDROOT
BRANCH   5  11
HETATM   11  C10 UNL     1     -24.466  -3.465  10.079  1.00 20.00     0.120 C 
HETATM   12 CL12 UNL     1     -23.552  -3.243   8.562  1.00 20.00    -0.130 Cl
ENDBRANCH   5  11
TORSDOF 1
ENDMDL
MODEL 4
REMARK VINA RESULT:      -3.2     12.070     13.497
REMARK  1 active torsions:
REMARK  status: ('A' for Active; 'I' for Inactive)
REMARK    1  A    between atoms: C5_5  and  C10_10 
ROOT
HETATM    1  C1  UNL     1     -41.566  16.479   7.063  1.00 20.00     0.019 C 
HETATM    2  C2  UNL     1     -41.762  12.545   6.855  1.00 20.00     0.018 A 
HETATM    3  C3  UNL     1     -42.595  16.965   6.049  1.00 20.00     0.075 C 
HETATM    4  C4  UNL     1     -43.021  14.317   5.501  1.00 20.00     0.084 C 
HETATM    5  C5  UNL     1     -40.688  13.247   6.073  1.00 20.00     0.010 A 
HETATM    6  C6  UNL     1     -41.935  14.020   6.520  1.00 20.00    -0.020 A 
HETATM    7  C7  UNL     1     -41.823  15.072   7.669  1.00 20.00    -0.038 C 
HETATM    8  C8  UNL     1     -43.116  15.068   8.516  1.00 20.00     0.015 C 
HETATM    9  C9  UNL     1     -40.658  14.807   8.656  1.00 20.00     0.015 C 
HETATM   10  S11 UNL     1     -42.685  15.857   4.619  1.00 20.00    -0.168 SA
ENDROOT
BRANCH   5  11
HETATM   11  C10 UNL     1     -40.423  12.857   4.658  1.00 20.00     0.120 C 
HETATM   12 CL12 UNL     1     -39.013  11.770   4.542  1.00 20.00    -0.130 Cl
ENDBRANCH   5  11
TORSDOF 1
ENDMDL
MODEL 5
REMARK VINA RESULT:      -3.1      2.837      4.330
REMARK  1 active torsions:
REMARK  status: ('A' for Active; 'I' for Inactive)
REMARK    1  A    between atoms: C5_5  and  C10_10 
ROOT
HETATM    1  C1  UNL     1     -33.837  16.513  -3.003  1.00 20.00     0.019 C 
HETATM    2  C2  UNL     1     -36.152  18.561  -5.454  1.00 20.00     0.018 A 
HETATM    3  C3  UNL     1     -33.042  15.587  -3.917  1.00 20.00     0.075 C 
HETATM    4  C4  UNL     1     -34.488  16.682  -5.967  1.00 20.00     0.084 C 
HETATM    5  C5  UNL     1     -36.730  17.356  -4.768  1.00 20.00     0.010 A 
HETATM    6  C6  UNL     1     -35.210  17.497  -4.907  1.00 20.00    -0.020 A 
HETATM    7  C7  UNL     1     -34.345  17.830  -3.650  1.00 20.00    -0.038 C 
HETATM    8  C8  UNL     1     -33.159  18.738  -4.050  1.00 20.00     0.015 C 
HETATM    9  C9  UNL     1     -35.115  18.589  -2.538  1.00 20.00     0.015 C 
HETATM   10  S11 UNL     1     -34.032  15.053  -5.337  1.00 20.00    -0.168 SA
ENDROOT
BRANCH   5  11
HETATM   11  C10 UNL     1     -37.541  16.375  -5.547  1.00 20.00     0.120 C 
HETATM   12 CL12 UNL     1     -39.005  15.891  -4.648  1.00 20.00    -0.130 Cl
ENDBRANCH   5  11
TORSDOF 1
ENDMDL
MODEL 6
REMARK VINA RESULT:      -3.1      1.297      1.385
REMARK  1 active torsions:
REMARK  status: ('A' for Active; 'I' for Inactive)
REMARK    1  A    between atoms: C5_5  and  C10_10 
ROOT
HETATM    1  C1  UNL     1     -36.173  15.488  -5.331  1.00 20.00     0.019 C 
HETATM    2  C2  UNL     1     -33.280  17.967  -4.310  1.00 20.00     0.018 A 
HETATM    3  C3  UNL     1     -37.353  16.397  -5.659  1.00 20.00     0.075 C 
HETATM    4  C4  UNL     1     -35.706  18.468  -4.960  1.00 20.00     0.084 C 
HETATM    5  C5  UNL     1     -34.095  17.336  -3.217  1.00 20.00     0.010 A 
HETATM    6  C6  UNL     1     -34.659  17.415  -4.641  1.00 20.00    -0.020 A 
HETATM    7  C7  UNL     1     -34.764  16.119  -5.505  1.00 20.00    -0.038 C 
HETATM    8  C8  UNL     1     -34.493  16.450  -6.991  1.00 20.00     0.015 C 
HETATM    9  C9  UNL     1     -33.747  15.016  -5.115  1.00 20.00     0.015 C 
HETATM   10  S11 UNL     1     -37.369  17.866  -4.599  1.00 20.00    -0.168 SA
ENDROOT
BRANCH   5  11
HETATM   11  C10 UNL     1     -34.594  18.169  -2.085  1.00 20.00     0.120 C 
HETATM   12 CL12 UNL     1     -33.807  17.710  -0.551  1.00 20.00    -0.130 Cl
ENDBRANCH   5  11
TORSDOF 1
ENDMDL
MODEL 7
REMARK VINA RESULT:      -3.1      1.994      3.025
REMARK  1 active torsions:
REMARK  status: ('A' for Active; 'I' for Inactive)
REMARK    1  A    between atoms: C5_5  and  C10_10 
ROOT
HETATM    1  C1  UNL     1     -37.002  17.983  -4.693  1.00 20.00     0.019 C 
HETATM    2  C2  UNL     1     -35.542  14.763  -6.442  1.00 20.00     0.018 A 
HETATM    3  C3  UNL     1     -36.113  19.119  -5.187  1.00 20.00     0.075 C 
HETATM    4  C4  UNL     1     -34.722  17.188  -6.538  1.00 20.00     0.084 C 
HETATM    5  C5  UNL     1     -35.112  15.065  -5.035  1.00 20.00     0.010 A 
HETATM    6  C6  UNL     1     -35.678  16.186  -5.917  1.00 20.00    -0.020 A 
HETATM    7  C7  UNL     1     -37.107  16.748  -5.630  1.00 20.00    -0.038 C 
HETATM    8  C8  UNL     1     -37.802  17.127  -6.958  1.00 20.00     0.015 C 
HETATM    9  C9  UNL     1     -38.050  15.745  -4.918  1.00 20.00     0.015 C 
HETATM   10  S11 UNL     1     -34.404  18.567  -5.417  1.00 20.00    -0.168 SA
ENDROOT
BRANCH   5  11
HETATM   11  C10 UNL     1     -33.673  14.962  -4.658  1.00 20.00     0.120 C 
HETATM   12 CL12 UNL     1     -33.327  15.888  -3.172  1.00 20.00    -0.130 Cl
ENDBRANCH   5  11
TORSDOF 1
ENDMDL
MODEL 8
REMARK VINA RESULT:      -2.9      1.689      2.426
REMARK  1 active torsions:
REMARK  status: ('A' for Active; 'I' for Inactive)
REMARK    1  A    between atoms: C5_5  and  C10_10 
ROOT
HETATM    1  C1  UNL     1     -37.849  15.931  -5.156  1.00 20.00     0.019 C 
HETATM    2  C2  UNL     1     -34.399  17.739  -5.778  1.00 20.00     0.018 A 
HETATM    3  C3  UNL     1     -38.801  17.055  -4.762  1.00 20.00     0.075 C 
HETATM    4  C4  UNL     1     -36.636  18.712  -4.995  1.00 20.00     0.084 C 
HETATM    5  C5  UNL     1     -34.636  17.097  -4.441  1.00 20.00     0.010 A 
HETATM    6  C6  UNL     1     -35.829  17.470  -5.329  1.00 20.00    -0.020 A 
HETATM    7  C7  UNL     1     -36.643  16.345  -6.044  1.00 20.00    -0.038 C 
HETATM    8  C8  UNL     1     -37.125  16.838  -7.427  1.00 20.00     0.015 C 
HETATM    9  C9  UNL     1     -35.834  15.048  -6.304  1.00 20.00     0.015 C 
HETATM   10  S11 UNL     1     -37.948  18.339  -3.812  1.00 20.00    -0.168 SA
ENDROOT
BRANCH   5  11
HETATM   11  C10 UNL     1     -34.279  17.828  -3.191  1.00 20.00     0.120 C 
HETATM   12 CL12 UNL     1     -33.483  16.746  -2.016  1.00 20.00    -0.130 Cl
ENDBRANCH   5  11
TORSDOF 1
ENDMDL
MODEL 9
REMARK VINA RESULT:      -2.8     12.916     14.494
REMARK  1 active torsions:
REMARK  status: ('A' for Active; 'I' for Inactive)
REMARK    1  A    between atoms: C5_5  and  C10_10 
ROOT
HETATM    1  C1  UNL     1     -43.207   7.579   1.268  1.00 20.00     0.019 C 
HETATM    2  C2  UNL     1     -40.809   5.457  -1.036  1.00 20.00     0.018 A 
HETATM    3  C3  UNL     1     -43.405   6.714   2.508  1.00 20.00     0.075 C 
HETATM    4  C4  UNL     1     -41.824   4.872   1.242  1.00 20.00     0.084 C 
HETATM    5  C5  UNL     1     -42.287   5.391  -1.295  1.00 20.00     0.010 A 
HETATM    6  C6  UNL     1     -41.773   5.846   0.077  1.00 20.00    -0.020 A 
HETATM    7  C7  UNL     1     -41.884   7.348   0.486  1.00 20.00    -0.038 C 
HETATM    8  C8  UNL     1     -40.664   7.755   1.343  1.00 20.00     0.015 C 
HETATM    9  C9  UNL     1     -41.917   8.329  -0.714  1.00 20.00     0.015 C 
HETATM   10  S11 UNL     1     -43.417   4.952   2.088  1.00 20.00    -0.168 SA
ENDROOT
BRANCH   5  11
HETATM   11  C10 UNL     1     -42.942   4.073  -1.533  1.00 20.00     0.120 C 
HETATM   12 CL12 UNL     1     -42.489   3.406  -3.126  1.00 20.00    -0.130 Cl
ENDBRANCH   5  11
TORSDOF 1
ENDMDL
