MODEL 1
REMARK VINA RESULT:      -3.4      0.000      0.000
REMARK  4 active torsions:
REMARK  status: ('A' for Active; 'I' for Inactive)
REMARK    1  A    between atoms: C2_2  and  C6_6 
REMARK    2  A    between atoms: C3_3  and  C7_7 
REMARK    3  A    between atoms: C3_3  and  C8_8 
REMARK    4  A    between atoms: C8_8  and  O9_9 
ROOT
HETATM    1  C1  UNL     1     -41.296  13.596   5.408  1.00 20.00     0.018 A 
HETATM    2  C2  UNL     1     -40.752  12.290   5.913  1.00 20.00     0.011 A 
HETATM    3  C3  UNL     1     -41.378  13.274   6.891  1.00 20.00    -0.014 A 
ENDROOT
BRANCH   3   4
HETATM    4  C7  UNL     1     -42.726  12.912   7.460  1.00 20.00     0.007 C 
HETATM    5  C4  UNL     1     -42.919  13.438   8.852  1.00 20.00     0.006 C 
ENDBRANCH   3   4
BRANCH   3   6
HETATM    6  C8  UNL     1     -40.507  14.058   7.836  1.00 20.00     0.176 C 
BRANCH   6   7
HETATM    7  O9  UNL     1     -40.311  15.368   7.320  1.00 20.00    -0.395 OA
HETATM    8  C5  UNL     1     -40.656  16.361   8.275  1.00 20.00     0.201 C 
ENDBRANCH   6   7
ENDBRANCH   3   6
BRANCH   2   9
HETATM    9  C6  UNL     1     -39.286  12.019   5.871  1.00 20.00     0.120 C 
HETATM   10 CL10 UNL     1     -38.736  11.696   4.204  1.00 20.00    -0.130 Cl
ENDBRANCH   2   9
TORSDOF 4
ENDMDL
MODEL 2
REMARK VINA RESULT:      -3.4      9.667     10.897
REMARK  4 active torsions:
REMARK  status: ('A' for Active; 'I' for Inactive)
REMARK    1  A    between atoms: C2_2  and  C6_6 
REMARK    2  A    between atoms: C3_3  and  C7_7 
REMARK    3  A    between atoms: C3_3  and  C8_8 
REMARK    4  A    between atoms: C8_8  and  O9_9 
ROOT
HETATM    1  C1  UNL     1     -31.680   8.119   4.117  1.00 20.00     0.018 A 
HETATM    2  C2  UNL     1     -32.597   8.552   3.009  1.00 20.00     0.011 A 
HETATM    3  C3  UNL     1     -33.027   7.436   3.950  1.00 20.00    -0.014 A 
ENDROOT
BRANCH   3   4
HETATM    4  C7  UNL     1     -34.109   7.759   4.949  1.00 20.00     0.007 C 
HETATM    5  C4  UNL     1     -33.726   7.380   6.349  1.00 20.00     0.006 C 
ENDBRANCH   3   4
BRANCH   3   6
HETATM    6  C8  UNL     1     -33.044   6.009   3.472  1.00 20.00     0.176 C 
BRANCH   6   7
HETATM    7  O9  UNL     1     -34.282   5.406   3.828  1.00 20.00    -0.395 OA
HETATM    8  C5  UNL     1     -34.086   4.207   4.562  1.00 20.00     0.201 C 
ENDBRANCH   6   7
ENDBRANCH   3   6
BRANCH   2   9
HETATM    9  C6  UNL     1     -32.226   8.306   1.586  1.00 20.00     0.120 C 
HETATM   10 CL10 UNL     1     -32.769   9.645   0.536  1.00 20.00    -0.130 Cl
ENDBRANCH   2   9
TORSDOF 4
ENDMDL
MODEL 3
REMARK VINA RESULT:      -3.3      2.111      3.218
REMARK  4 active torsions:
REMARK  status: ('A' for Active; 'I' for Inactive)
REMARK    1  A    between atoms: C2_2  and  C6_6 
REMARK    2  A    between atoms: C3_3  and  C7_7 
REMARK    3  A    between atoms: C3_3  and  C8_8 
REMARK    4  A    between atoms: C8_8  and  O9_9 
ROOT
HETATM    1  C1  UNL     1     -42.351  12.703   6.727  1.00 20.00     0.018 A 
HETATM    2  C2  UNL     1     -42.074  13.392   5.420  1.00 20.00     0.011 A 
HETATM    3  C3  UNL     1     -40.914  12.945   6.298  1.00 20.00    -0.014 A 
ENDROOT
BRANCH   3   4
HETATM    4  C7  UNL     1     -40.111  11.760   5.825  1.00 20.00     0.007 C 
HETATM    5  C4  UNL     1     -38.704  12.132   5.458  1.00 20.00     0.006 C 
ENDBRANCH   3   4
BRANCH   3   6
HETATM    6  C8  UNL     1     -40.108  13.963   7.062  1.00 20.00     0.176 C 
BRANCH   6   7
HETATM    7  O9  UNL     1     -40.086  13.610   8.439  1.00 20.00    -0.395 OA
HETATM    8  C5  UNL     1     -40.350  14.732   9.268  1.00 20.00     0.201 C 
ENDBRANCH   6   7
ENDBRANCH   3   6
BRANCH   2   9
HETATM    9  C6  UNL     1     -42.436  14.826   5.234  1.00 20.00     0.120 C 
HETATM   10 CL10 UNL     1     -42.463  15.265   3.504  1.00 20.00    -0.130 Cl
ENDBRANCH   2   9
TORSDOF 4
ENDMDL
MODEL 4
REMARK VINA RESULT:      -3.2     12.880     13.840
REMARK  4 active torsions:
REMARK  status: ('A' for Active; 'I' for Inactive)
REMARK    1  A    between atoms: C2_2  and  C6_6 
REMARK    2  A    between atoms: C3_3  and  C7_7 
REMARK    3  A    between atoms: C3_3  and  C8_8 
REMARK    4  A    between atoms: C8_8  and  O9_9 
ROOT
HETATM    1  C1  UNL     1     -35.161  14.762  -5.107  1.00 20.00     0.018 A 
HETATM    2  C2  UNL     1     -33.992  15.031  -6.011  1.00 20.00     0.011 A 
HETATM    3  C3  UNL     1     -34.198  15.888  -4.770  1.00 20.00    -0.014 A 
ENDROOT
BRANCH   3   4
HETATM    4  C7  UNL     1     -33.242  15.679  -3.624  1.00 20.00     0.007 C 
HETATM    5  C4  UNL     1     -33.422  16.698  -2.537  1.00 20.00     0.006 C 
ENDBRANCH   3   4
BRANCH   3   6
HETATM    6  C8  UNL     1     -34.691  17.305  -4.904  1.00 20.00     0.176 C 
BRANCH   6   7
HETATM    7  O9  UNL     1     -36.108  17.325  -4.777  1.00 20.00    -0.395 OA
HETATM    8  C5  UNL     1     -36.535  18.336  -3.876  1.00 20.00     0.201 C 
ENDBRANCH   6   7
ENDBRANCH   3   6
BRANCH   2   9
HETATM    9  C6  UNL     1     -34.212  15.548  -7.392  1.00 20.00     0.120 C 
HETATM   10 CL10 UNL     1     -35.901  15.293  -7.915  1.00 20.00    -0.130 Cl
ENDBRANCH   2   9
TORSDOF 4
ENDMDL
MODEL 5
REMARK VINA RESULT:      -3.2     11.353     12.611
REMARK  4 active torsions:
REMARK  status: ('A' for Active; 'I' for Inactive)
REMARK    1  A    between atoms: C2_2  and  C6_6 
REMARK    2  A    between atoms: C3_3  and  C7_7 
REMARK    3  A    between atoms: C3_3  and  C8_8 
REMARK    4  A    between atoms: C8_8  and  O9_9 
ROOT
HETATM    1  C1  UNL     1     -33.754  17.773   0.092  1.00 20.00     0.018 A 
HETATM    2  C2  UNL     1     -32.855  18.951  -0.159  1.00 20.00     0.011 A 
HETATM    3  C3  UNL     1     -33.708  18.398  -1.293  1.00 20.00    -0.014 A 
ENDROOT
BRANCH   3   4
HETATM    4  C7  UNL     1     -34.889  19.226  -1.731  1.00 20.00     0.007 C 
HETATM    5  C4  UNL     1     -35.039  19.263  -3.223  1.00 20.00     0.006 C 
ENDBRANCH   3   4
BRANCH   3   6
HETATM    6  C8  UNL     1     -33.068  17.611  -2.405  1.00 20.00     0.176 C 
BRANCH   6   7
HETATM    7  O9  UNL     1     -33.558  16.276  -2.381  1.00 20.00    -0.395 OA
HETATM    8  C5  UNL     1     -33.474  15.667  -3.661  1.00 20.00     0.201 C 
ENDBRANCH   6   7
ENDBRANCH   3   6
BRANCH   2   9
HETATM    9  C6  UNL     1     -31.374  18.790  -0.115  1.00 20.00     0.120 C 
HETATM   10 CL10 UNL     1     -30.835  18.214   1.487  1.00 20.00    -0.130 Cl
ENDBRANCH   2   9
TORSDOF 4
ENDMDL
MODEL 6
REMARK VINA RESULT:      -3.1     11.676     12.571
REMARK  4 active torsions:
REMARK  status: ('A' for Active; 'I' for Inactive)
REMARK    1  A    between atoms: C2_2  and  C6_6 
REMARK    2  A    between atoms: C3_3  and  C7_7 
REMARK    3  A    between atoms: C3_3  and  C8_8 
REMARK    4  A    between atoms: C8_8  and  O9_9 
ROOT
HETATM    1  C1  UNL     1     -33.736  16.998  -1.332  1.00 20.00     0.018 A 
HETATM    2  C2  UNL     1     -33.022  16.917  -2.651  1.00 20.00     0.011 A 
HETATM    3  C3  UNL     1     -33.199  18.268  -1.971  1.00 20.00    -0.014 A 
ENDROOT
BRANCH   3   4
HETATM    4  C7  UNL     1     -31.972  18.897  -1.364  1.00 20.00     0.007 C 
HETATM    5  C4  UNL     1     -31.984  18.843   0.136  1.00 20.00     0.006 C 
ENDBRANCH   3   4
BRANCH   3   6
HETATM    6  C8  UNL     1     -34.191  19.263  -2.514  1.00 20.00     0.176 C 
BRANCH   6   7
HETATM    7  O9  UNL     1     -35.407  19.163  -1.783  1.00 20.00    -0.395 OA
HETATM    8  C5  UNL     1     -36.528  19.058  -2.649  1.00 20.00     0.201 C 
ENDBRANCH   6   7
ENDBRANCH   3   6
BRANCH   2   9
HETATM    9  C6  UNL     1     -33.764  16.535  -3.887  1.00 20.00     0.120 C 
HETATM   10 CL10 UNL     1     -33.833  14.761  -4.075  1.00 20.00    -0.130 Cl
ENDBRANCH   2   9
TORSDOF 4
ENDMDL
MODEL 7
REMARK VINA RESULT:      -3.0     13.057     13.974
REMARK  4 active torsions:
REMARK  status: ('A' for Active; 'I' for Inactive)
REMARK    1  A    between atoms: C2_2  and  C6_6 
REMARK    2  A    between atoms: C3_3  and  C7_7 
REMARK    3  A    between atoms: C3_3  and  C8_8 
REMARK    4  A    between atoms: C8_8  and  O9_9 
ROOT
HETATM    1  C1  UNL     1     -32.601  15.153  -4.164  1.00 20.00     0.018 A 
HETATM    2  C2  UNL     1     -33.515  15.867  -3.210  1.00 20.00     0.011 A 
HETATM    3  C3  UNL     1     -34.091  15.213  -4.457  1.00 20.00    -0.014 A 
ENDROOT
BRANCH   3   4
HETATM    4  C7  UNL     1     -34.898  13.955  -4.263  1.00 20.00     0.007 C 
HETATM    5  C4  UNL     1     -36.214  14.003  -4.982  1.00 20.00     0.006 C 
ENDBRANCH   3   4
BRANCH   3   6
HETATM    6  C8  UNL     1     -34.552  16.062  -5.612  1.00 20.00     0.176 C 
BRANCH   6   7
HETATM    7  O9  UNL     1     -33.941  15.602  -6.810  1.00 20.00    -0.395 OA
HETATM    8  C5  UNL     1     -34.279  16.425  -7.917  1.00 20.00     0.201 C 
ENDBRANCH   6   7
ENDBRANCH   3   6
BRANCH   2   9
HETATM    9  C6  UNL     1     -33.425  17.346  -3.046  1.00 20.00     0.120 C 
HETATM   10 CL10 UNL     1     -32.640  17.779  -1.501  1.00 20.00    -0.130 Cl
ENDBRANCH   2   9
TORSDOF 4
ENDMDL
MODEL 8
REMARK VINA RESULT:      -3.0      2.831      4.190
REMARK  4 active torsions:
REMARK  status: ('A' for Active; 'I' for Inactive)
REMARK    1  A    between atoms: C2_2  and  C6_6 
REMARK    2  A    between atoms: C3_3  and  C7_7 
REMARK    3  A    between atoms: C3_3  and  C8_8 
REMARK    4  A    between atoms: C8_8  and  O9_9 
ROOT
HETATM    1  C1  UNL     1     -40.751  13.420   7.053  1.00 20.00     0.018 A 
HETATM    2  C2  UNL     1     -41.796  12.402   6.694  1.00 20.00     0.011 A 
HETATM    3  C3  UNL     1     -41.117  13.206   5.594  1.00 20.00    -0.014 A 
ENDROOT
BRANCH   3   4
HETATM    4  C7  UNL     1     -40.131  12.476   4.719  1.00 20.00     0.007 C 
HETATM    5  C4  UNL     1     -38.837  12.197   5.426  1.00 20.00     0.006 C 
ENDBRANCH   3   4
BRANCH   3   6
HETATM    6  C8  UNL     1     -41.869  14.301   4.884  1.00 20.00     0.176 C 
BRANCH   6   7
HETATM    7  O9  UNL     1     -41.698  14.157   3.480  1.00 20.00    -0.395 OA
HETATM    8  C5  UNL     1     -42.310  15.223   2.769  1.00 20.00     0.201 C 
ENDBRANCH   6   7
ENDBRANCH   3   6
BRANCH   2   9
HETATM    9  C6  UNL     1     -43.219  12.616   7.085  1.00 20.00     0.120 C 
HETATM   10 CL10 UNL     1     -43.340  13.322   8.721  1.00 20.00    -0.130 Cl
ENDBRANCH   2   9
TORSDOF 4
ENDMDL
MODEL 9
REMARK VINA RESULT:      -3.0     12.382     13.179
REMARK  4 active torsions:
REMARK  status: ('A' for Active; 'I' for Inactive)
REMARK    1  A    between atoms: C2_2  and  C6_6 
REMARK    2  A    between atoms: C3_3  and  C7_7 
REMARK    3  A    between atoms: C3_3  and  C8_8 
REMARK    4  A    between atoms: C8_8  and  O9_9 
ROOT
HETATM    1  C1  UNL     1     -32.920  18.956  -2.939  1.00 20.00     0.018 A 
HETATM    2  C2  UNL     1     -34.313  19.071  -2.389  1.00 20.00     0.011 A 
HETATM    3  C3  UNL     1     -33.355  18.042  -1.807  1.00 20.00    -0.014 A 
ENDROOT
BRANCH   3   4
HETATM    4  C7  UNL     1     -32.807  18.315  -0.430  1.00 20.00     0.007 C 
HETATM    5  C4  UNL     1     -31.310  18.424  -0.421  1.00 20.00     0.006 C 
ENDBRANCH   3   4
BRANCH   3   6
HETATM    6  C8  UNL     1     -33.543  16.578  -2.110  1.00 20.00     0.176 C 
BRANCH   6   7
HETATM    7  O9  UNL     1     -32.867  16.257  -3.319  1.00 20.00    -0.395 OA
HETATM    8  C5  UNL     1     -33.578  15.283  -4.070  1.00 20.00     0.201 C 
ENDBRANCH   6   7
ENDBRANCH   3   6
BRANCH   2   9
HETATM    9  C6  UNL     1     -35.487  18.694  -3.228  1.00 20.00     0.120 C 
HETATM   10 CL10 UNL     1     -35.040  18.590  -4.954  1.00 20.00    -0.130 Cl
ENDBRANCH   2   9
TORSDOF 4
ENDMDL
