MODEL 1
REMARK VINA RESULT:      -4.3      0.000      0.000
REMARK  3 active torsions:
REMARK  status: ('A' for Active; 'I' for Inactive)
REMARK    1  A    between atoms: C2_2  and  C6_6 
REMARK    2  A    between atoms: C3_3  and  C7_7 
REMARK    3  A    between atoms: C7_7  and  C8_8 
ROOT
HETATM    1  C1  UNL     1     -34.689   5.206   6.509  1.00 20.00     0.016 A 
HETATM    2  C2  UNL     1     -33.721   6.253   6.039  1.00 20.00     0.008 A 
HETATM    3  C3  UNL     1     -34.527   5.452   5.019  1.00 20.00    -0.039 A 
HETATM    4  C4  UNL     1     -35.666   6.103   4.280  1.00 20.00     0.015 C 
ENDROOT
BRANCH   3   5
HETATM    5  C7  UNL     1     -33.783   4.420   4.211  1.00 20.00     0.009 C 
BRANCH   5   6
HETATM    6  C8  UNL     1     -33.496   4.904   2.786  1.00 20.00    -0.004 C 
HETATM    7  C5  UNL     1     -32.501   6.053   2.764  1.00 20.00     0.005 C 
ENDBRANCH   5   6
ENDBRANCH   3   5
BRANCH   2   8
HETATM    8  C6  UNL     1     -33.980   7.694   6.317  1.00 20.00     0.120 C 
HETATM    9 CL9  UNL     1     -33.093   8.743   5.176  1.00 20.00    -0.130 Cl
ENDBRANCH   2   8
TORSDOF 3
ENDMDL
MODEL 2
REMARK VINA RESULT:      -4.2      2.082      3.662
REMARK  3 active torsions:
REMARK  status: ('A' for Active; 'I' for Inactive)
REMARK    1  A    between atoms: C2_2  and  C6_6 
REMARK    2  A    between atoms: C3_3  and  C7_7 
REMARK    3  A    between atoms: C7_7  and  C8_8 
ROOT
HETATM    1  C1  UNL     1     -32.350   8.836   4.661  1.00 20.00     0.016 A 
HETATM    2  C2  UNL     1     -32.197   7.438   4.136  1.00 20.00     0.008 A 
HETATM    3  C3  UNL     1     -33.420   7.804   4.973  1.00 20.00    -0.039 A 
HETATM    4  C4  UNL     1     -34.765   7.957   4.314  1.00 20.00     0.015 C 
ENDROOT
BRANCH   3   5
HETATM    5  C7  UNL     1     -33.484   7.257   6.375  1.00 20.00     0.009 C 
BRANCH   5   6
HETATM    6  C8  UNL     1     -34.661   6.292   6.562  1.00 20.00    -0.004 C 
HETATM    7  C5  UNL     1     -34.396   4.940   5.919  1.00 20.00     0.005 C 
ENDBRANCH   5   6
ENDBRANCH   3   5
BRANCH   2   8
HETATM    8  C6  UNL     1     -32.273   7.173   2.671  1.00 20.00     0.120 C 
HETATM    9 CL9  UNL     1     -32.803   5.501   2.342  1.00 20.00    -0.130 Cl
ENDBRANCH   2   8
TORSDOF 3
ENDMDL
MODEL 3
REMARK VINA RESULT:      -4.0      2.661      3.747
REMARK  3 active torsions:
REMARK  status: ('A' for Active; 'I' for Inactive)
REMARK    1  A    between atoms: C2_2  and  C6_6 
REMARK    2  A    between atoms: C3_3  and  C7_7 
REMARK    3  A    between atoms: C7_7  and  C8_8 
ROOT
HETATM    1  C1  UNL     1     -32.167   8.479   4.856  1.00 20.00     0.016 A 
HETATM    2  C2  UNL     1     -33.599   8.041   4.740  1.00 20.00     0.008 A 
HETATM    3  C3  UNL     1     -32.686   7.982   3.518  1.00 20.00    -0.039 A 
HETATM    4  C4  UNL     1     -32.188   6.654   3.013  1.00 20.00     0.015 C 
ENDROOT
BRANCH   3   5
HETATM    5  C7  UNL     1     -32.922   8.999   2.432  1.00 20.00     0.009 C 
BRANCH   5   6
HETATM    6  C8  UNL     1     -32.215   8.620   1.126  1.00 20.00    -0.004 C 
HETATM    7  C5  UNL     1     -32.959   9.135  -0.095  1.00 20.00     0.005 C 
ENDBRANCH   5   6
ENDBRANCH   3   5
BRANCH   2   8
HETATM    8  C6  UNL     1     -34.071   6.821   5.453  1.00 20.00     0.120 C 
HETATM    9 CL9  UNL     1     -35.386   6.014   4.554  1.00 20.00    -0.130 Cl
ENDBRANCH   2   8
TORSDOF 3
ENDMDL
MODEL 4
REMARK VINA RESULT:      -4.0      2.555      4.214
REMARK  3 active torsions:
REMARK  status: ('A' for Active; 'I' for Inactive)
REMARK    1  A    between atoms: C2_2  and  C6_6 
REMARK    2  A    between atoms: C3_3  and  C7_7 
REMARK    3  A    between atoms: C7_7  and  C8_8 
ROOT
HETATM    1  C1  UNL     1     -32.282   7.186   3.253  1.00 20.00     0.016 A 
HETATM    2  C2  UNL     1     -33.154   8.283   2.713  1.00 20.00     0.008 A 
HETATM    3  C3  UNL     1     -33.003   8.108   4.222  1.00 20.00    -0.039 A 
HETATM    4  C4  UNL     1     -32.178   9.087   5.016  1.00 20.00     0.015 C 
ENDROOT
BRANCH   3   5
HETATM    5  C7  UNL     1     -34.186   7.555   4.973  1.00 20.00     0.009 C 
BRANCH   5   6
HETATM    6  C8  UNL     1     -33.761   6.794   6.234  1.00 20.00    -0.004 C 
HETATM    7  C5  UNL     1     -34.488   5.465   6.369  1.00 20.00     0.005 C 
ENDBRANCH   5   6
ENDBRANCH   3   5
BRANCH   2   8
HETATM    8  C6  UNL     1     -32.550   9.426   1.970  1.00 20.00     0.120 C 
HETATM    9 CL9  UNL     1     -32.752   9.231   0.207  1.00 20.00    -0.130 Cl
ENDBRANCH   2   8
TORSDOF 3
ENDMDL
MODEL 5
REMARK VINA RESULT:      -3.8     12.904     13.770
REMARK  3 active torsions:
REMARK  status: ('A' for Active; 'I' for Inactive)
REMARK    1  A    between atoms: C2_2  and  C6_6 
REMARK    2  A    between atoms: C3_3  and  C7_7 
REMARK    3  A    between atoms: C7_7  and  C8_8 
ROOT
HETATM    1  C1  UNL     1     -32.692  19.252  -1.762  1.00 20.00     0.016 A 
HETATM    2  C2  UNL     1     -32.480  17.767  -1.816  1.00 20.00     0.008 A 
HETATM    3  C3  UNL     1     -32.424  18.493  -0.474  1.00 20.00    -0.039 A 
HETATM    4  C4  UNL     1     -33.555  18.345   0.509  1.00 20.00     0.015 C 
ENDROOT
BRANCH   3   5
HETATM    5  C7  UNL     1     -31.071  18.650   0.169  1.00 20.00     0.009 C 
BRANCH   5   6
HETATM    6  C8  UNL     1     -31.098  18.292   1.659  1.00 20.00    -0.004 C 
HETATM    7  C5  UNL     1     -29.945  18.928   2.418  1.00 20.00     0.005 C 
ENDBRANCH   5   6
ENDBRANCH   3   5
BRANCH   2   8
HETATM    8  C6  UNL     1     -33.601  16.861  -2.197  1.00 20.00     0.120 C 
HETATM    9 CL9  UNL     1     -33.145  15.805  -3.563  1.00 20.00    -0.130 Cl
ENDBRANCH   2   8
TORSDOF 3
ENDMDL
MODEL 6
REMARK VINA RESULT:      -3.8      2.039      3.413
REMARK  3 active torsions:
REMARK  status: ('A' for Active; 'I' for Inactive)
REMARK    1  A    between atoms: C2_2  and  C6_6 
REMARK    2  A    between atoms: C3_3  and  C7_7 
REMARK    3  A    between atoms: C7_7  and  C8_8 
ROOT
HETATM    1  C1  UNL     1     -35.534   6.158   4.565  1.00 20.00     0.016 A 
HETATM    2  C2  UNL     1     -34.125   5.865   4.135  1.00 20.00     0.008 A 
HETATM    3  C3  UNL     1     -34.425   6.154   5.604  1.00 20.00    -0.039 A 
HETATM    4  C4  UNL     1     -34.403   5.035   6.612  1.00 20.00     0.015 C 
ENDROOT
BRANCH   3   5
HETATM    5  C7  UNL     1     -33.969   7.481   6.153  1.00 20.00     0.009 C 
BRANCH   5   6
HETATM    6  C8  UNL     1     -33.723   8.508   5.042  1.00 20.00    -0.004 C 
HETATM    7  C5  UNL     1     -32.240   8.757   4.815  1.00 20.00     0.005 C 
ENDBRANCH   5   6
ENDBRANCH   3   5
BRANCH   2   8
HETATM    8  C6  UNL     1     -33.758   4.509   3.640  1.00 20.00     0.120 C 
HETATM    9 CL9  UNL     1     -32.741   4.608   2.175  1.00 20.00    -0.130 Cl
ENDBRANCH   2   8
TORSDOF 3
ENDMDL
MODEL 7
REMARK VINA RESULT:      -3.7     12.678     13.333
REMARK  3 active torsions:
REMARK  status: ('A' for Active; 'I' for Inactive)
REMARK    1  A    between atoms: C2_2  and  C6_6 
REMARK    2  A    between atoms: C3_3  and  C7_7 
REMARK    3  A    between atoms: C7_7  and  C8_8 
ROOT
HETATM    1  C1  UNL     1     -34.332  18.903  -0.107  1.00 20.00     0.016 A 
HETATM    2  C2  UNL     1     -33.127  18.272   0.527  1.00 20.00     0.008 A 
HETATM    3  C3  UNL     1     -33.272  18.272  -0.993  1.00 20.00    -0.039 A 
HETATM    4  C4  UNL     1     -32.414  19.184  -1.831  1.00 20.00     0.015 C 
ENDROOT
BRANCH   3   5
HETATM    5  C7  UNL     1     -33.596  16.959  -1.655  1.00 20.00     0.009 C 
BRANCH   5   6
HETATM    6  C8  UNL     1     -33.294  16.982  -3.157  1.00 20.00    -0.004 C 
HETATM    7  C5  UNL     1     -33.332  15.591  -3.767  1.00 20.00     0.005 C 
ENDBRANCH   5   6
ENDBRANCH   3   5
BRANCH   2   8
HETATM    8  C6  UNL     1     -32.126  19.113   1.242  1.00 20.00     0.120 C 
HETATM    9 CL9  UNL     1     -30.735  18.138   1.792  1.00 20.00    -0.130 Cl
ENDBRANCH   2   8
TORSDOF 3
ENDMDL
MODEL 8
REMARK VINA RESULT:      -3.5     12.694     13.520
REMARK  3 active torsions:
REMARK  status: ('A' for Active; 'I' for Inactive)
REMARK    1  A    between atoms: C2_2  and  C6_6 
REMARK    2  A    between atoms: C3_3  and  C7_7 
REMARK    3  A    between atoms: C7_7  and  C8_8 
ROOT
HETATM    1  C1  UNL     1     -34.119  18.169  -1.029  1.00 20.00     0.016 A 
HETATM    2  C2  UNL     1     -32.634  18.027  -0.861  1.00 20.00     0.008 A 
HETATM    3  C3  UNL     1     -33.278  17.717  -2.211  1.00 20.00    -0.039 A 
HETATM    4  C4  UNL     1     -33.106  18.671  -3.364  1.00 20.00     0.015 C 
ENDROOT
BRANCH   3   5
HETATM    5  C7  UNL     1     -33.357  16.270  -2.621  1.00 20.00     0.009 C 
BRANCH   5   6
HETATM    6  C8  UNL     1     -33.765  16.111  -4.090  1.00 20.00    -0.004 C 
HETATM    7  C5  UNL     1     -34.037  14.660  -4.451  1.00 20.00     0.005 C 
ENDBRANCH   5   6
ENDBRANCH   3   5
BRANCH   2   8
HETATM    8  C6  UNL     1     -31.786  19.230  -0.630  1.00 20.00     0.120 C 
HETATM    9 CL9  UNL     1     -30.825  19.067   0.866  1.00 20.00    -0.130 Cl
ENDBRANCH   2   8
TORSDOF 3
ENDMDL
MODEL 9
REMARK VINA RESULT:      -3.5      9.120     10.190
REMARK  3 active torsions:
REMARK  status: ('A' for Active; 'I' for Inactive)
REMARK    1  A    between atoms: C2_2  and  C6_6 
REMARK    2  A    between atoms: C3_3  and  C7_7 
REMARK    3  A    between atoms: C7_7  and  C8_8 
ROOT
HETATM    1  C1  UNL     1     -42.613  12.665   6.978  1.00 20.00     0.016 A 
HETATM    2  C2  UNL     1     -41.563  13.582   7.536  1.00 20.00     0.008 A 
HETATM    3  C3  UNL     1     -41.374  12.966   6.152  1.00 20.00    -0.039 A 
HETATM    4  C4  UNL     1     -41.533  13.818   4.920  1.00 20.00     0.015 C 
ENDROOT
BRANCH   3   5
HETATM    5  C7  UNL     1     -40.337  11.882   6.016  1.00 20.00     0.009 C 
BRANCH   5   6
HETATM    6  C8  UNL     1     -39.109  12.356   5.231  1.00 20.00    -0.004 C 
HETATM    7  C5  UNL     1     -38.929  11.583   3.935  1.00 20.00     0.005 C 
ENDBRANCH   5   6
ENDBRANCH   3   5
BRANCH   2   8
HETATM    8  C6  UNL     1     -41.860  15.028   7.741  1.00 20.00     0.120 C 
HETATM    9 CL9  UNL     1     -40.373  15.950   8.097  1.00 20.00    -0.130 Cl
ENDBRANCH   2   8
TORSDOF 3
ENDMDL
