MODEL 1
REMARK VINA RESULT:      -4.4      0.000      0.000
REMARK  3 active torsions:
REMARK  status: ('A' for Active; 'I' for Inactive)
REMARK    1  A    between atoms: C4_4  and  C9_9 
REMARK    2  A    between atoms: C5_5  and  C6_6 
REMARK    3  A    between atoms: C9_9  and  O10_10 
ROOT
HETATM    1  C3  UNL     1     -33.872   8.448   4.242  1.00 20.00     0.018 A 
HETATM    2  C4  UNL     1     -32.626   7.619   4.114  1.00 20.00     0.019 A 
HETATM    3  C6  UNL     1     -33.714   7.206   5.105  1.00 20.00    -0.031 A 
HETATM    4  C8  UNL     1     -33.397   7.434   6.562  1.00 20.00     0.016 C 
ENDROOT
BRANCH   3   5
HETATM    5  C5  UNL     1     -34.609   5.982   4.865  1.00 20.00    -0.036 A 
HETATM    6  C1  UNL     1     -33.993   4.621   4.635  1.00 20.00     0.011 A 
HETATM    7  C2  UNL     1     -34.721   4.904   5.917  1.00 20.00     0.011 A 
HETATM    8  C7  UNL     1     -35.863   6.294   4.087  1.00 20.00     0.016 C 
ENDBRANCH   3   5
BRANCH   2   9
HETATM    9  C9  UNL     1     -32.364   6.851   2.864  1.00 20.00     0.169 C 
BRANCH   9  10
HETATM   10  O10 UNL     1     -32.145   7.751   1.777  1.00 20.00    -0.400 OA
HETATM   11  H26 UNL     1     -33.008   7.892   1.361  1.00 20.00     0.209 HD
ENDBRANCH   9  10
ENDBRANCH   2   9
TORSDOF 3
ENDMDL
MODEL 2
REMARK VINA RESULT:      -3.7     11.705     13.277
REMARK  3 active torsions:
REMARK  status: ('A' for Active; 'I' for Inactive)
REMARK    1  A    between atoms: C4_4  and  C9_9 
REMARK    2  A    between atoms: C5_5  and  C6_6 
REMARK    3  A    between atoms: C9_9  and  O10_10 
ROOT
HETATM    1  C3  UNL     1     -33.043  15.006  -4.704  1.00 20.00     0.018 A 
HETATM    2  C4  UNL     1     -34.308  14.613  -3.997  1.00 20.00     0.019 A 
HETATM    3  C6  UNL     1     -33.885  16.080  -4.035  1.00 20.00    -0.031 A 
HETATM    4  C8  UNL     1     -33.351  16.644  -2.740  1.00 20.00     0.016 C 
ENDROOT
BRANCH   3   5
HETATM    5  C5  UNL     1     -34.629  17.119  -4.885  1.00 20.00    -0.036 A 
HETATM    6  C1  UNL     1     -36.026  17.554  -4.507  1.00 20.00     0.011 A 
HETATM    7  C2  UNL     1     -34.878  18.507  -4.345  1.00 20.00     0.011 A 
HETATM    8  C7  UNL     1     -34.332  17.016  -6.361  1.00 20.00     0.016 C 
ENDBRANCH   3   5
BRANCH   2   9
HETATM    9  C9  UNL     1     -35.475  14.107  -4.774  1.00 20.00     0.169 C 
BRANCH   9  10
HETATM   10  O10 UNL     1     -35.754  12.755  -4.409  1.00 20.00    -0.400 OA
HETATM   11  H26 UNL     1     -35.515  12.670  -3.473  1.00 20.00     0.209 HD
ENDBRANCH   9  10
ENDBRANCH   2   9
TORSDOF 3
ENDMDL
MODEL 3
REMARK VINA RESULT:      -3.4      2.309      3.903
REMARK  3 active torsions:
REMARK  status: ('A' for Active; 'I' for Inactive)
REMARK    1  A    between atoms: C4_4  and  C9_9 
REMARK    2  A    between atoms: C5_5  and  C6_6 
REMARK    3  A    between atoms: C9_9  and  O10_10 
ROOT
HETATM    1  C3  UNL     1     -35.193   5.707   4.151  1.00 20.00     0.018 A 
HETATM    2  C4  UNL     1     -34.106   5.089   4.983  1.00 20.00     0.019 A 
HETATM    3  C6  UNL     1     -33.750   6.131   3.923  1.00 20.00    -0.031 A 
HETATM    4  C8  UNL     1     -33.082   5.600   2.678  1.00 20.00     0.016 C 
ENDROOT
BRANCH   3   5
HETATM    5  C5  UNL     1     -33.294   7.548   4.297  1.00 20.00    -0.036 A 
HETATM    6  C1  UNL     1     -31.823   7.894   4.317  1.00 20.00     0.011 A 
HETATM    7  C2  UNL     1     -32.710   8.461   3.245  1.00 20.00     0.011 A 
HETATM    8  C7  UNL     1     -34.153   8.201   5.351  1.00 20.00     0.016 C 
ENDBRANCH   3   5
BRANCH   2   9
HETATM    9  C9  UNL     1     -34.020   5.385   6.441  1.00 20.00     0.169 C 
BRANCH   9  10
HETATM   10  O10 UNL     1     -35.330   5.425   7.008  1.00 20.00    -0.400 OA
HETATM   11  H26 UNL     1     -35.898   5.859   6.353  1.00 20.00     0.209 HD
ENDBRANCH   9  10
ENDBRANCH   2   9
TORSDOF 3
ENDMDL
MODEL 4
REMARK VINA RESULT:      -3.3     12.854     14.248
REMARK  3 active torsions:
REMARK  status: ('A' for Active; 'I' for Inactive)
REMARK    1  A    between atoms: C4_4  and  C9_9 
REMARK    2  A    between atoms: C5_5  and  C6_6 
REMARK    3  A    between atoms: C9_9  and  O10_10 
ROOT
HETATM    1  C3  UNL     1     -35.495  14.569  -5.786  1.00 20.00     0.018 A 
HETATM    2  C4  UNL     1     -35.436  15.519  -6.948  1.00 20.00     0.019 A 
HETATM    3  C6  UNL     1     -35.784  16.043  -5.556  1.00 20.00    -0.031 A 
HETATM    4  C8  UNL     1     -37.230  16.419  -5.337  1.00 20.00     0.016 C 
ENDROOT
BRANCH   3   5
HETATM    5  C5  UNL     1     -34.806  16.904  -4.743  1.00 20.00    -0.036 A 
HETATM    6  C1  UNL     1     -34.326  18.230  -5.287  1.00 20.00     0.011 A 
HETATM    7  C2  UNL     1     -35.271  18.199  -4.119  1.00 20.00     0.011 A 
HETATM    8  C7  UNL     1     -33.806  16.099  -3.953  1.00 20.00     0.016 C 
ENDBRANCH   3   5
BRANCH   2   9
HETATM    9  C9  UNL     1     -34.132  15.821  -7.603  1.00 20.00     0.169 C 
BRANCH   9  10
HETATM   10  O10 UNL     1     -33.159  14.849  -7.221  1.00 20.00    -0.400 OA
HETATM   11  H26 UNL     1     -33.354  14.612  -6.301  1.00 20.00     0.209 HD
ENDBRANCH   9  10
ENDBRANCH   2   9
TORSDOF 3
ENDMDL
MODEL 5
REMARK VINA RESULT:      -3.3     11.873     13.503
REMARK  3 active torsions:
REMARK  status: ('A' for Active; 'I' for Inactive)
REMARK    1  A    between atoms: C4_4  and  C9_9 
REMARK    2  A    between atoms: C5_5  and  C6_6 
REMARK    3  A    between atoms: C9_9  and  O10_10 
ROOT
HETATM    1  C3  UNL     1     -33.217  15.043  -5.035  1.00 20.00     0.018 A 
HETATM    2  C4  UNL     1     -34.392  14.661  -4.181  1.00 20.00     0.019 A 
HETATM    3  C6  UNL     1     -34.017  16.134  -4.341  1.00 20.00    -0.031 A 
HETATM    4  C8  UNL     1     -33.372  16.782  -3.141  1.00 20.00     0.016 C 
ENDROOT
BRANCH   3   5
HETATM    5  C5  UNL     1     -34.874  17.105  -5.165  1.00 20.00    -0.036 A 
HETATM    6  C1  UNL     1     -34.227  18.016  -6.184  1.00 20.00     0.011 A 
HETATM    7  C2  UNL     1     -35.082  16.870  -6.643  1.00 20.00     0.011 A 
HETATM    8  C7  UNL     1     -36.046  17.672  -4.404  1.00 20.00     0.016 C 
ENDBRANCH   3   5
BRANCH   2   9
HETATM    9  C9  UNL     1     -35.616  14.085  -4.807  1.00 20.00     0.169 C 
BRANCH   9  10
HETATM   10  O10 UNL     1     -35.789  12.733  -4.383  1.00 20.00    -0.400 OA
HETATM   11  H26 UNL     1     -35.219  12.614  -3.607  1.00 20.00     0.209 HD
ENDBRANCH   9  10
ENDBRANCH   2   9
TORSDOF 3
ENDMDL
MODEL 6
REMARK VINA RESULT:      -3.3      8.766     10.149
REMARK  3 active torsions:
REMARK  status: ('A' for Active; 'I' for Inactive)
REMARK    1  A    between atoms: C4_4  and  C9_9 
REMARK    2  A    between atoms: C5_5  and  C6_6 
REMARK    3  A    between atoms: C9_9  and  O10_10 
ROOT
HETATM    1  C3  UNL     1     -42.488   4.533   1.210  1.00 20.00     0.018 A 
HETATM    2  C4  UNL     1     -43.417   4.981   0.118  1.00 20.00     0.019 A 
HETATM    3  C6  UNL     1     -42.565   6.010   0.859  1.00 20.00    -0.031 A 
HETATM    4  C8  UNL     1     -43.303   6.896   1.833  1.00 20.00     0.016 C 
ENDROOT
BRANCH   3   5
HETATM    5  C5  UNL     1     -41.371   6.708   0.192  1.00 20.00    -0.036 A 
HETATM    6  C1  UNL     1     -41.564   8.020  -0.533  1.00 20.00     0.011 A 
HETATM    7  C2  UNL     1     -40.819   7.989   0.770  1.00 20.00     0.011 A 
HETATM    8  C7  UNL     1     -40.367   5.752  -0.402  1.00 20.00     0.016 C 
ENDBRANCH   3   5
BRANCH   2   9
HETATM    9  C9  UNL     1     -43.147   4.603  -1.298  1.00 20.00     0.169 C 
BRANCH   9  10
HETATM   10  O10 UNL     1     -43.361   3.203  -1.477  1.00 20.00    -0.400 OA
HETATM   11  H26 UNL     1     -43.157   2.783  -0.627  1.00 20.00     0.209 HD
ENDBRANCH   9  10
ENDBRANCH   2   9
TORSDOF 3
ENDMDL
MODEL 7
REMARK VINA RESULT:      -3.3     11.976     13.458
REMARK  3 active torsions:
REMARK  status: ('A' for Active; 'I' for Inactive)
REMARK    1  A    between atoms: C4_4  and  C9_9 
REMARK    2  A    between atoms: C5_5  and  C6_6 
REMARK    3  A    between atoms: C9_9  and  O10_10 
ROOT
HETATM    1  C3  UNL     1     -34.333  17.958  -5.383  1.00 20.00     0.018 A 
HETATM    2  C4  UNL     1     -34.470  17.517  -3.954  1.00 20.00     0.019 A 
HETATM    3  C6  UNL     1     -35.270  16.809  -5.047  1.00 20.00    -0.031 A 
HETATM    4  C8  UNL     1     -36.748  17.114  -5.081  1.00 20.00     0.016 C 
ENDROOT
BRANCH   3   5
HETATM    5  C5  UNL     1     -34.936  15.382  -5.504  1.00 20.00    -0.036 A 
HETATM    6  C1  UNL     1     -34.763  14.277  -4.487  1.00 20.00     0.011 A 
HETATM    7  C2  UNL     1     -35.967  14.284  -5.384  1.00 20.00     0.011 A 
HETATM    8  C7  UNL     1     -34.037  15.329  -6.713  1.00 20.00     0.016 C 
ENDBRANCH   3   5
BRANCH   2   9
HETATM    9  C9  UNL     1     -33.327  16.859  -3.261  1.00 20.00     0.169 C 
BRANCH   9  10
HETATM   10  O10 UNL     1     -33.706  16.497  -1.933  1.00 20.00    -0.400 OA
HETATM   11  H26 UNL     1     -32.951  16.023  -1.552  1.00 20.00     0.209 HD
ENDBRANCH   9  10
ENDBRANCH   2   9
TORSDOF 3
ENDMDL
MODEL 8
REMARK VINA RESULT:      -3.3     12.848     14.491
REMARK  3 active torsions:
REMARK  status: ('A' for Active; 'I' for Inactive)
REMARK    1  A    between atoms: C4_4  and  C9_9 
REMARK    2  A    between atoms: C5_5  and  C6_6 
REMARK    3  A    between atoms: C9_9  and  O10_10 
ROOT
HETATM    1  C3  UNL     1     -35.517  15.078  -6.630  1.00 20.00     0.018 A 
HETATM    2  C4  UNL     1     -34.109  15.069  -6.109  1.00 20.00     0.019 A 
HETATM    3  C6  UNL     1     -34.730  16.379  -6.593  1.00 20.00    -0.031 A 
HETATM    4  C8  UNL     1     -34.224  16.896  -7.918  1.00 20.00     0.016 C 
ENDROOT
BRANCH   3   5
HETATM    5  C5  UNL     1     -35.132  17.496  -5.620  1.00 20.00    -0.036 A 
HETATM    6  C1  UNL     1     -34.099  18.121  -4.710  1.00 20.00     0.011 A 
HETATM    7  C2  UNL     1     -34.662  18.913  -5.855  1.00 20.00     0.011 A 
HETATM    8  C7  UNL     1     -36.519  17.334  -5.053  1.00 20.00     0.016 C 
ENDBRANCH   3   5
BRANCH   2   9
HETATM    9  C9  UNL     1     -33.846  14.806  -4.666  1.00 20.00     0.169 C 
BRANCH   9  10
HETATM   10  O10 UNL     1     -32.965  13.691  -4.528  1.00 20.00    -0.400 OA
HETATM   11  H26 UNL     1     -32.852  13.548  -3.576  1.00 20.00     0.209 HD
ENDBRANCH   9  10
ENDBRANCH   2   9
TORSDOF 3
ENDMDL
MODEL 9
REMARK VINA RESULT:      -3.2     12.015     13.694
REMARK  3 active torsions:
REMARK  status: ('A' for Active; 'I' for Inactive)
REMARK    1  A    between atoms: C4_4  and  C9_9 
REMARK    2  A    between atoms: C5_5  and  C6_6 
REMARK    3  A    between atoms: C9_9  and  O10_10 
ROOT
HETATM    1  C3  UNL     1     -36.476  15.796  -6.427  1.00 20.00     0.018 A 
HETATM    2  C4  UNL     1     -35.923  14.490  -5.933  1.00 20.00     0.019 A 
HETATM    3  C6  UNL     1     -35.000  15.699  -6.077  1.00 20.00    -0.031 A 
HETATM    4  C8  UNL     1     -34.035  15.655  -7.237  1.00 20.00     0.016 C 
ENDROOT
BRANCH   3   5
HETATM    5  C5  UNL     1     -34.446  16.447  -4.856  1.00 20.00    -0.036 A 
HETATM    6  C1  UNL     1     -34.231  17.942  -4.912  1.00 20.00     0.011 A 
HETATM    7  C2  UNL     1     -35.335  17.378  -4.066  1.00 20.00     0.011 A 
HETATM    8  C7  UNL     1     -33.437  15.651  -4.067  1.00 20.00     0.016 C 
ENDBRANCH   3   5
BRANCH   2   9
HETATM    9  C9  UNL     1     -36.330  13.960  -4.601  1.00 20.00     0.169 C 
BRANCH   9  10
HETATM   10  O10 UNL     1     -35.610  12.761  -4.314  1.00 20.00    -0.400 OA
HETATM   11  H26 UNL     1     -36.272  12.095  -4.075  1.00 20.00     0.209 HD
ENDBRANCH   9  10
ENDBRANCH   2   9
TORSDOF 3
ENDMDL
