MODEL 1
REMARK VINA RESULT:      -4.7      0.000      0.000
REMARK  1 active torsions:
REMARK  status: ('A' for Active; 'I' for Inactive)
REMARK    1  A    between atoms: C1_1  and  C5_5 
ROOT
HETATM    1  C2  UNL     1     -32.568   5.888   3.019  1.00 20.00     0.013 C 
HETATM    2  C3  UNL     1     -33.655   5.062   3.712  1.00 20.00     0.009 C 
HETATM    3  C4  UNL     1     -33.586   7.048   5.300  1.00 20.00     0.013 C 
HETATM    4  C5  UNL     1     -32.992   7.340   2.821  1.00 20.00     0.051 C 
HETATM    5  C6  UNL     1     -33.283   8.051   4.165  1.00 20.00    -0.007 C 
HETATM    6  C7  UNL     1     -34.393   5.810   4.853  1.00 20.00    -0.047 C 
HETATM    7  C8  UNL     1     -32.178   9.006   4.634  1.00 20.00     0.011 C 
HETATM    8  C9  UNL     1     -34.561   4.863   6.057  1.00 20.00     0.015 C 
HETATM    9  C10 UNL     1     -35.805   6.227   4.392  1.00 20.00     0.015 C 
ENDROOT
BRANCH   4  10
HETATM   10  C1  UNL     1     -31.979   8.050   1.973  1.00 20.00     0.236 C 
HETATM   11  O11 UNL     1     -32.217   8.473   0.847  1.00 20.00    -0.306 OA
ENDBRANCH   4  10
TORSDOF 1
ENDMDL
MODEL 2
REMARK VINA RESULT:      -4.1     11.750     13.042
REMARK  1 active torsions:
REMARK  status: ('A' for Active; 'I' for Inactive)
REMARK    1  A    between atoms: C1_1  and  C5_5 
ROOT
HETATM    1  C2  UNL     1     -35.202  18.321  -3.359  1.00 20.00     0.013 C 
HETATM    2  C3  UNL     1     -34.721  18.922  -2.036  1.00 20.00     0.009 C 
HETATM    3  C4  UNL     1     -33.502  16.692  -1.930  1.00 20.00     0.013 C 
HETATM    4  C5  UNL     1     -34.047  17.773  -4.192  1.00 20.00     0.051 C 
HETATM    5  C6  UNL     1     -33.283  16.644  -3.458  1.00 20.00    -0.007 C 
HETATM    6  C7  UNL     1     -33.588  18.119  -1.346  1.00 20.00    -0.047 C 
HETATM    7  C8  UNL     1     -33.599  15.229  -3.957  1.00 20.00     0.011 C 
HETATM    8  C9  UNL     1     -33.880  18.023   0.164  1.00 20.00     0.015 C 
HETATM    9  C10 UNL     1     -32.238  18.848  -1.510  1.00 20.00     0.015 C 
ENDROOT
BRANCH   4  10
HETATM   10  C1  UNL     1     -34.549  17.374  -5.548  1.00 20.00     0.236 C 
HETATM   11  O11 UNL     1     -35.738  17.336  -5.845  1.00 20.00    -0.306 OA
ENDBRANCH   4  10
TORSDOF 1
ENDMDL
MODEL 3
REMARK VINA RESULT:      -3.8     12.027     13.316
REMARK  1 active torsions:
REMARK  status: ('A' for Active; 'I' for Inactive)
REMARK    1  A    between atoms: C1_1  and  C5_5 
ROOT
HETATM    1  C2  UNL     1     -33.086  16.783  -2.489  1.00 20.00     0.013 C 
HETATM    2  C3  UNL     1     -33.704  16.761  -3.889  1.00 20.00     0.009 C 
HETATM    3  C4  UNL     1     -35.229  18.484  -2.804  1.00 20.00     0.013 C 
HETATM    4  C5  UNL     1     -32.805  18.204  -2.009  1.00 20.00     0.051 C 
HETATM    5  C6  UNL     1     -34.095  19.056  -1.925  1.00 20.00    -0.007 C 
HETATM    6  C7  UNL     1     -34.749  17.878  -4.141  1.00 20.00    -0.047 C 
HETATM    7  C8  UNL     1     -34.631  19.263  -0.503  1.00 20.00     0.011 C 
HETATM    8  C9  UNL     1     -35.962  17.282  -4.881  1.00 20.00     0.015 C 
HETATM    9  C10 UNL     1     -34.151  18.977  -5.044  1.00 20.00     0.015 C 
ENDROOT
BRANCH   4  10
HETATM   10  C1  UNL     1     -32.030  18.159  -0.726  1.00 20.00     0.236 C 
HETATM   11  O11 UNL     1     -30.835  18.423  -0.649  1.00 20.00    -0.306 OA
ENDBRANCH   4  10
TORSDOF 1
ENDMDL
MODEL 4
REMARK VINA RESULT:      -3.7     11.819     13.392
REMARK  1 active torsions:
REMARK  status: ('A' for Active; 'I' for Inactive)
REMARK    1  A    between atoms: C1_1  and  C5_5 
ROOT
HETATM    1  C2  UNL     1     -33.562  16.303  -3.737  1.00 20.00     0.013 C 
HETATM    2  C3  UNL     1     -33.289  16.628  -2.266  1.00 20.00     0.009 C 
HETATM    3  C4  UNL     1     -32.993  18.953  -3.252  1.00 20.00     0.013 C 
HETATM    4  C5  UNL     1     -34.575  17.262  -4.356  1.00 20.00     0.051 C 
HETATM    5  C6  UNL     1     -34.084  18.729  -4.322  1.00 20.00    -0.007 C 
HETATM    6  C7  UNL     1     -33.202  18.144  -1.954  1.00 20.00    -0.047 C 
HETATM    7  C8  UNL     1     -33.573  19.263  -5.666  1.00 20.00     0.011 C 
HETATM    8  C9  UNL     1     -32.013  18.402  -1.009  1.00 20.00     0.015 C 
HETATM    9  C10 UNL     1     -34.479  18.615  -1.228  1.00 20.00     0.015 C 
ENDROOT
BRANCH   4  10
HETATM   10  C1  UNL     1     -34.948  16.784  -5.728  1.00 20.00     0.236 C 
HETATM   11  O11 UNL     1     -34.421  15.821  -6.275  1.00 20.00    -0.306 OA
ENDBRANCH   4  10
TORSDOF 1
ENDMDL
MODEL 5
REMARK VINA RESULT:      -3.7     11.708     13.159
REMARK  1 active torsions:
REMARK  status: ('A' for Active; 'I' for Inactive)
REMARK    1  A    between atoms: C1_1  and  C5_5 
ROOT
HETATM    1  C2  UNL     1     -33.478  16.512  -3.084  1.00 20.00     0.013 C 
HETATM    2  C3  UNL     1     -33.720  15.205  -3.845  1.00 20.00     0.009 C 
HETATM    3  C4  UNL     1     -35.522  16.638  -4.925  1.00 20.00     0.013 C 
HETATM    4  C5  UNL     1     -33.372  17.709  -4.024  1.00 20.00     0.051 C 
HETATM    5  C6  UNL     1     -34.667  17.922  -4.845  1.00 20.00    -0.007 C 
HETATM    6  C7  UNL     1     -34.701  15.336  -5.038  1.00 20.00    -0.047 C 
HETATM    7  C8  UNL     1     -35.552  19.074  -4.355  1.00 20.00     0.011 C 
HETATM    8  C9  UNL     1     -35.668  14.136  -5.035  1.00 20.00     0.015 C 
HETATM    9  C10 UNL     1     -33.928  15.302  -6.373  1.00 20.00     0.015 C 
ENDROOT
BRANCH   4  10
HETATM   10  C1  UNL     1     -32.946  18.921  -3.250  1.00 20.00     0.236 C 
HETATM   11  O11 UNL     1     -32.218  18.872  -2.264  1.00 20.00    -0.306 OA
ENDBRANCH   4  10
TORSDOF 1
ENDMDL
MODEL 6
REMARK VINA RESULT:      -3.6     11.366     13.218
REMARK  1 active torsions:
REMARK  status: ('A' for Active; 'I' for Inactive)
REMARK    1  A    between atoms: C1_1  and  C5_5 
ROOT
HETATM    1  C2  UNL     1     -35.683  17.011  -4.892  1.00 20.00     0.013 C 
HETATM    2  C3  UNL     1     -35.395  18.208  -3.983  1.00 20.00     0.009 C 
HETATM    3  C4  UNL     1     -33.767  16.536  -2.971  1.00 20.00     0.013 C 
HETATM    4  C5  UNL     1     -34.402  16.399  -5.453  1.00 20.00     0.051 C 
HETATM    5  C6  UNL     1     -33.468  15.876  -4.335  1.00 20.00    -0.007 C 
HETATM    6  C7  UNL     1     -34.162  18.026  -3.061  1.00 20.00    -0.047 C 
HETATM    7  C8  UNL     1     -33.474  14.353  -4.157  1.00 20.00     0.011 C 
HETATM    8  C9  UNL     1     -34.503  18.537  -1.648  1.00 20.00     0.015 C 
HETATM    9  C10 UNL     1     -32.976  18.865  -3.581  1.00 20.00     0.015 C 
ENDROOT
BRANCH   4  10
HETATM   10  C1  UNL     1     -34.748  15.361  -6.480  1.00 20.00     0.236 C 
HETATM   11  O11 UNL     1     -34.050  15.121  -7.460  1.00 20.00    -0.306 OA
ENDBRANCH   4  10
TORSDOF 1
ENDMDL
MODEL 7
REMARK VINA RESULT:      -3.5     11.586     13.206
REMARK  1 active torsions:
REMARK  status: ('A' for Active; 'I' for Inactive)
REMARK    1  A    between atoms: C1_1  and  C5_5 
ROOT
HETATM    1  C2  UNL     1     -33.697  15.305  -4.072  1.00 20.00     0.013 C 
HETATM    2  C3  UNL     1     -33.328  16.591  -3.328  1.00 20.00     0.009 C 
HETATM    3  C4  UNL     1     -34.486  17.615  -5.347  1.00 20.00     0.013 C 
HETATM    4  C5  UNL     1     -35.162  15.291  -4.497  1.00 20.00     0.051 C 
HETATM    5  C6  UNL     1     -35.502  16.458  -5.456  1.00 20.00    -0.007 C 
HETATM    6  C7  UNL     1     -33.971  17.874  -3.915  1.00 20.00    -0.047 C 
HETATM    7  C8  UNL     1     -35.635  16.055  -6.930  1.00 20.00     0.011 C 
HETATM    8  C9  UNL     1     -32.916  18.996  -3.960  1.00 20.00     0.015 C 
HETATM    9  C10 UNL     1     -35.122  18.358  -3.010  1.00 20.00     0.015 C 
ENDROOT
BRANCH   4  10
HETATM   10  C1  UNL     1     -35.515  13.940  -5.046  1.00 20.00     0.236 C 
HETATM   11  O11 UNL     1     -35.833  12.987  -4.343  1.00 20.00    -0.306 OA
ENDBRANCH   4  10
TORSDOF 1
ENDMDL
MODEL 8
REMARK VINA RESULT:      -3.4     13.041     14.521
REMARK  1 active torsions:
REMARK  status: ('A' for Active; 'I' for Inactive)
REMARK    1  A    between atoms: C1_1  and  C5_5 
ROOT
HETATM    1  C2  UNL     1     -25.988  -1.201  11.908  1.00 20.00     0.013 C 
HETATM    2  C3  UNL     1     -24.503  -1.571  11.957  1.00 20.00     0.009 C 
HETATM    3  C4  UNL     1     -25.459  -3.838  11.312  1.00 20.00     0.013 C 
HETATM    4  C5  UNL     1     -26.652  -1.675  10.618  1.00 20.00     0.051 C 
HETATM    5  C6  UNL     1     -26.585  -3.214  10.459  1.00 20.00    -0.007 C 
HETATM    6  C7  UNL     1     -24.178  -2.980  11.397  1.00 20.00    -0.047 C 
HETATM    7  C8  UNL     1     -27.897  -3.945  10.764  1.00 20.00     0.011 C 
HETATM    8  C9  UNL     1     -23.172  -3.679  12.332  1.00 20.00     0.015 C 
HETATM    9  C10 UNL     1     -23.516  -2.864  10.009  1.00 20.00     0.015 C 
ENDROOT
BRANCH   4  10
HETATM   10  C1  UNL     1     -28.045  -1.123  10.537  1.00 20.00     0.236 C 
HETATM   11  O11 UNL     1     -28.624  -0.608  11.487  1.00 20.00    -0.306 OA
ENDBRANCH   4  10
TORSDOF 1
ENDMDL
MODEL 9
REMARK VINA RESULT:      -3.3     11.518     13.304
REMARK  1 active torsions:
REMARK  status: ('A' for Active; 'I' for Inactive)
REMARK    1  A    between atoms: C1_1  and  C5_5 
ROOT
HETATM    1  C2  UNL     1     -34.218  17.779  -4.914  1.00 20.00     0.013 C 
HETATM    2  C3  UNL     1     -35.309  17.538  -5.961  1.00 20.00     0.009 C 
HETATM    3  C4  UNL     1     -34.277  15.213  -5.913  1.00 20.00     0.013 C 
HETATM    4  C5  UNL     1     -34.220  16.708  -3.828  1.00 20.00     0.051 C 
HETATM    5  C6  UNL     1     -33.960  15.294  -4.403  1.00 20.00    -0.007 C 
HETATM    6  C7  UNL     1     -35.500  16.049  -6.349  1.00 20.00    -0.047 C 
HETATM    7  C8  UNL     1     -32.542  14.760  -4.168  1.00 20.00     0.011 C 
HETATM    8  C9  UNL     1     -35.657  15.939  -7.878  1.00 20.00     0.015 C 
HETATM    9  C10 UNL     1     -36.788  15.490  -5.711  1.00 20.00     0.015 C 
ENDROOT
BRANCH   4  10
HETATM   10  C1  UNL     1     -33.268  17.096  -2.735  1.00 20.00     0.236 C 
HETATM   11  O11 UNL     1     -33.539  17.013  -1.542  1.00 20.00    -0.306 OA
ENDBRANCH   4  10
TORSDOF 1
ENDMDL
