MODEL 1
REMARK VINA RESULT:      -4.3      0.000      0.000
REMARK  0 active torsions:
REMARK  status: ('A' for Active; 'I' for Inactive)
ROOT
HETATM    1  C1  UNL     1     -21.293  18.219   8.581  1.00 20.00     0.006 C 
HETATM    2  C2  UNL     1     -22.217  17.216   9.292  1.00 20.00     0.038 C 
HETATM    3  C3  UNL     1     -22.414  19.263   8.720  1.00 20.00     0.038 C 
HETATM    4  C4  UNL     1     -23.949  17.125  12.120  1.00 20.00     0.042 C 
HETATM    5  C5  UNL     1     -24.491  18.367   9.950  1.00 20.00     0.053 C 
HETATM    6  C6  UNL     1     -22.707  17.996  12.317  1.00 20.00     0.170 C 
HETATM    7  C7  UNL     1     -25.018  17.807  11.275  1.00 20.00     0.062 C 
HETATM    8  C8  UNL     1     -22.961  18.437   9.924  1.00 20.00     0.062 C 
HETATM    9  O9  UNL     1     -22.466  18.869  11.215  1.00 20.00    -0.380 OA
HETATM   10 BR10 UNL     1     -25.837  19.255  12.327  1.00 20.00    -0.091 Br
ENDROOT
TORSDOF 0
ENDMDL
MODEL 2
REMARK VINA RESULT:      -3.9     18.029     19.076
REMARK  0 active torsions:
REMARK  status: ('A' for Active; 'I' for Inactive)
ROOT
HETATM    1  C1  UNL     1     -39.608  11.697   4.797  1.00 20.00     0.006 C 
HETATM    2  C2  UNL     1     -40.493  12.955   4.796  1.00 20.00     0.038 C 
HETATM    3  C3  UNL     1     -39.226  12.037   6.247  1.00 20.00     0.038 C 
HETATM    4  C4  UNL     1     -42.919  14.194   6.690  1.00 20.00     0.042 C 
HETATM    5  C5  UNL     1     -40.401  14.147   7.141  1.00 20.00     0.053 C 
HETATM    6  C6  UNL     1     -42.965  12.666   6.747  1.00 20.00     0.170 C 
HETATM    7  C7  UNL     1     -41.755  14.777   7.483  1.00 20.00     0.062 C 
HETATM    8  C8  UNL     1     -40.557  12.842   6.354  1.00 20.00     0.062 C 
HETATM    9  O9  UNL     1     -41.671  12.080   6.879  1.00 20.00    -0.380 OA
HETATM   10 BR10 UNL     1     -42.120  14.564   9.405  1.00 20.00    -0.091 Br
ENDROOT
TORSDOF 0
ENDMDL
MODEL 3
REMARK VINA RESULT:      -3.6     18.177     19.080
REMARK  0 active torsions:
REMARK  status: ('A' for Active; 'I' for Inactive)
ROOT
HETATM    1  C1  UNL     1     -35.587  14.867  -6.645  1.00 20.00     0.006 C 
HETATM    2  C2  UNL     1     -34.365  15.770  -6.409  1.00 20.00     0.038 C 
HETATM    3  C3  UNL     1     -35.508  14.472  -5.160  1.00 20.00     0.038 C 
HETATM    4  C4  UNL     1     -33.532  18.192  -4.300  1.00 20.00     0.042 C 
HETATM    5  C5  UNL     1     -33.616  15.668  -3.888  1.00 20.00     0.053 C 
HETATM    6  C6  UNL     1     -35.045  18.213  -4.520  1.00 20.00     0.170 C 
HETATM    7  C7  UNL     1     -33.082  17.027  -3.425  1.00 20.00     0.062 C 
HETATM    8  C8  UNL     1     -34.760  15.813  -4.897  1.00 20.00     0.062 C 
HETATM    9  O9  UNL     1     -35.623  16.909  -4.509  1.00 20.00    -0.380 OA
HETATM   10 BR10 UNL     1     -33.646  17.365  -1.570  1.00 20.00    -0.091 Br
ENDROOT
TORSDOF 0
ENDMDL
MODEL 4
REMARK VINA RESULT:      -3.3     15.448     16.441
REMARK  0 active torsions:
REMARK  status: ('A' for Active; 'I' for Inactive)
ROOT
HETATM    1  C1  UNL     1     -32.216  18.308   0.633  1.00 20.00     0.006 C 
HETATM    2  C2  UNL     1     -32.036  18.765  -0.825  1.00 20.00     0.038 C 
HETATM    3  C3  UNL     1     -33.731  18.499   0.446  1.00 20.00     0.038 C 
HETATM    4  C4  UNL     1     -33.258  17.900  -3.786  1.00 20.00     0.042 C 
HETATM    5  C5  UNL     1     -34.374  19.261  -1.929  1.00 20.00     0.053 C 
HETATM    6  C6  UNL     1     -33.225  16.672  -2.875  1.00 20.00     0.170 C 
HETATM    7  C7  UNL     1     -34.365  18.879  -3.412  1.00 20.00     0.062 C 
HETATM    8  C8  UNL     1     -33.511  18.315  -1.087  1.00 20.00     0.062 C 
HETATM    9  O9  UNL     1     -33.675  16.954  -1.552  1.00 20.00    -0.380 OA
HETATM   10 BR10 UNL     1     -36.103  18.099  -3.907  1.00 20.00    -0.091 Br
ENDROOT
TORSDOF 0
ENDMDL
MODEL 5
REMARK VINA RESULT:      -3.2     17.915     18.919
REMARK  0 active torsions:
REMARK  status: ('A' for Active; 'I' for Inactive)
ROOT
HETATM    1  C1  UNL     1     -41.127  13.275   5.126  1.00 20.00     0.006 C 
HETATM    2  C2  UNL     1     -41.732  14.441   5.927  1.00 20.00     0.038 C 
HETATM    3  C3  UNL     1     -40.073  13.134   6.237  1.00 20.00     0.038 C 
HETATM    4  C4  UNL     1     -42.810  14.926   9.027  1.00 20.00     0.042 C 
HETATM    5  C5  UNL     1     -40.403  14.804   8.170  1.00 20.00     0.053 C 
HETATM    6  C6  UNL     1     -43.030  13.463   8.640  1.00 20.00     0.170 C 
HETATM    7  C7  UNL     1     -41.345  15.251   9.292  1.00 20.00     0.062 C 
HETATM    8  C8  UNL     1     -41.081  13.823   7.207  1.00 20.00     0.062 C 
HETATM    9  O9  UNL     1     -41.915  12.902   7.950  1.00 20.00    -0.380 OA
HETATM   10 BR10 UNL     1     -40.801  14.413  10.988  1.00 20.00    -0.091 Br
ENDROOT
TORSDOF 0
ENDMDL
MODEL 6
REMARK VINA RESULT:      -3.2     17.658     18.422
REMARK  0 active torsions:
REMARK  status: ('A' for Active; 'I' for Inactive)
ROOT
HETATM    1  C1  UNL     1     -38.675  12.137   5.310  1.00 20.00     0.006 C 
HETATM    2  C2  UNL     1     -39.244  12.131   6.739  1.00 20.00     0.038 C 
HETATM    3  C3  UNL     1     -40.078  12.527   4.814  1.00 20.00     0.038 C 
HETATM    4  C4  UNL     1     -40.934  14.239   8.664  1.00 20.00     0.042 C 
HETATM    5  C5  UNL     1     -41.787  12.812   6.720  1.00 20.00     0.053 C 
HETATM    6  C6  UNL     1     -40.049  15.033   7.703  1.00 20.00     0.170 C 
HETATM    7  C7  UNL     1     -42.142  13.617   7.974  1.00 20.00     0.062 C 
HETATM    8  C8  UNL     1     -40.362  13.102   6.235  1.00 20.00     0.062 C 
HETATM    9  O9  UNL     1     -40.072  14.514   6.375  1.00 20.00    -0.380 OA
HETATM   10 BR10 UNL     1     -43.417  15.042   7.508  1.00 20.00    -0.091 Br
ENDROOT
TORSDOF 0
ENDMDL
MODEL 7
REMARK VINA RESULT:      -3.0     18.464     19.180
REMARK  0 active torsions:
REMARK  status: ('A' for Active; 'I' for Inactive)
ROOT
HETATM    1  C1  UNL     1     -40.052  11.721   5.896  1.00 20.00     0.006 C 
HETATM    2  C2  UNL     1     -41.378  12.231   6.485  1.00 20.00     0.038 C 
HETATM    3  C3  UNL     1     -40.165  12.825   4.832  1.00 20.00     0.038 C 
HETATM    4  C4  UNL     1     -42.586  15.140   7.527  1.00 20.00     0.042 C 
HETATM    5  C5  UNL     1     -42.244  14.316   5.129  1.00 20.00     0.053 C 
HETATM    6  C6  UNL     1     -41.076  15.109   7.761  1.00 20.00     0.170 C 
HETATM    7  C7  UNL     1     -42.950  15.310   6.056  1.00 20.00     0.062 C 
HETATM    8  C8  UNL     1     -41.071  13.615   5.824  1.00 20.00     0.062 C 
HETATM    9  O9  UNL     1     -40.358  14.560   6.658  1.00 20.00    -0.380 OA
HETATM   10 BR10 UNL     1     -42.527  17.150   5.500  1.00 20.00    -0.091 Br
ENDROOT
TORSDOF 0
ENDMDL
MODEL 8
REMARK VINA RESULT:      -3.0     19.922     20.766
REMARK  0 active torsions:
REMARK  status: ('A' for Active; 'I' for Inactive)
ROOT
HETATM    1  C1  UNL     1     -23.879  -2.332  11.205  1.00 20.00     0.006 C 
HETATM    2  C2  UNL     1     -24.916  -1.479  11.956  1.00 20.00     0.038 C 
HETATM    3  C3  UNL     1     -24.900  -3.482  11.218  1.00 20.00     0.038 C 
HETATM    4  C4  UNL     1     -28.089  -0.614  11.523  1.00 20.00     0.042 C 
HETATM    5  C5  UNL     1     -27.135  -2.846  12.330  1.00 20.00     0.053 C 
HETATM    6  C6  UNL     1     -27.431  -0.818  10.158  1.00 20.00     0.170 C 
HETATM    7  C7  UNL     1     -28.357  -1.927  12.248  1.00 20.00     0.062 C 
HETATM    8  C8  UNL     1     -26.024  -2.412  11.367  1.00 20.00     0.062 C 
HETATM    9  O9  UNL     1     -26.602  -1.978  10.112  1.00 20.00    -0.380 OA
HETATM   10 BR10 UNL     1     -29.834  -2.867  11.347  1.00 20.00    -0.091 Br
ENDROOT
TORSDOF 0
ENDMDL
MODEL 9
REMARK VINA RESULT:      -3.0     19.875     20.759
REMARK  0 active torsions:
REMARK  status: ('A' for Active; 'I' for Inactive)
ROOT
HETATM    1  C1  UNL     1     -33.552  14.387  -4.168  1.00 20.00     0.006 C 
HETATM    2  C2  UNL     1     -33.801  15.852  -4.563  1.00 20.00     0.038 C 
HETATM    3  C3  UNL     1     -35.016  14.097  -4.541  1.00 20.00     0.038 C 
HETATM    4  C4  UNL     1     -34.974  17.463  -7.215  1.00 20.00     0.042 C 
HETATM    5  C5  UNL     1     -36.267  16.165  -5.430  1.00 20.00     0.053 C 
HETATM    6  C6  UNL     1     -34.292  16.172  -7.670  1.00 20.00     0.170 C 
HETATM    7  C7  UNL     1     -36.320  17.213  -6.546  1.00 20.00     0.062 C 
HETATM    8  C8  UNL     1     -34.971  15.348  -5.470  1.00 20.00     0.062 C 
HETATM    9  O9  UNL     1     -34.615  15.057  -6.843  1.00 20.00    -0.380 OA
HETATM   10 BR10 UNL     1     -37.622  16.658  -7.915  1.00 20.00    -0.091 Br
ENDROOT
TORSDOF 0
ENDMDL
