MODEL 1
REMARK VINA RESULT:      -4.5      0.000      0.000
REMARK  3 active torsions:
REMARK  status: ('A' for Active; 'I' for Inactive)
REMARK    1  A    between atoms: C4_4  and  C5_5 
REMARK    2  A    between atoms: C6_6  and  C7_7 
REMARK    3  A    between atoms: C7_7  and  O8_8 
ROOT
HETATM    1  C3  UNL     1     -34.438   6.922   6.768  1.00 20.00     0.012 A 
HETATM    2  C5  UNL     1     -33.481   7.033   5.609  1.00 20.00    -0.004 A 
HETATM    3  C6  UNL     1     -34.662   6.100   5.527  1.00 20.00     0.014 A 
ENDROOT
BRANCH   2   4
HETATM    4  C4  UNL     1     -33.372   8.286   4.755  1.00 20.00    -0.010 A 
HETATM    5  C1  UNL     1     -32.151   9.164   4.756  1.00 20.00     0.005 A 
HETATM    6  C2  UNL     1     -32.499   8.362   3.533  1.00 20.00     0.005 A 
ENDBRANCH   2   4
BRANCH   3   7
HETATM    7  C7  UNL     1     -34.458   4.625   5.557  1.00 20.00     0.169 C 
BRANCH   7   8
HETATM    8  O8  UNL     1     -34.155   4.148   4.245  1.00 20.00    -0.400 OA
HETATM    9  H20 UNL     1     -33.366   4.630   3.955  1.00 20.00     0.209 HD
ENDBRANCH   7   8
ENDBRANCH   3   7
TORSDOF 3
ENDMDL
MODEL 2
REMARK VINA RESULT:      -4.4      1.990      3.866
REMARK  3 active torsions:
REMARK  status: ('A' for Active; 'I' for Inactive)
REMARK    1  A    between atoms: C4_4  and  C5_5 
REMARK    2  A    between atoms: C6_6  and  C7_7 
REMARK    3  A    between atoms: C7_7  and  O8_8 
ROOT
HETATM    1  C3  UNL     1     -32.615   8.685   5.104  1.00 20.00     0.012 A 
HETATM    2  C5  UNL     1     -33.602   7.641   4.649  1.00 20.00    -0.004 A 
HETATM    3  C6  UNL     1     -32.418   7.990   3.783  1.00 20.00     0.014 A 
ENDROOT
BRANCH   2   4
HETATM    4  C4  UNL     1     -33.740   6.291   5.335  1.00 20.00    -0.010 A 
HETATM    5  C1  UNL     1     -34.796   6.011   6.367  1.00 20.00     0.005 A 
HETATM    6  C2  UNL     1     -34.858   5.335   5.026  1.00 20.00     0.005 A 
ENDBRANCH   2   4
BRANCH   3   7
HETATM    7  C7  UNL     1     -32.613   8.733   2.507  1.00 20.00     0.169 C 
BRANCH   7   8
HETATM    8  O8  UNL     1     -32.089   7.975   1.417  1.00 20.00    -0.400 OA
HETATM    9  H20 UNL     1     -31.223   8.356   1.209  1.00 20.00     0.209 HD
ENDBRANCH   7   8
ENDBRANCH   3   7
TORSDOF 3
ENDMDL
MODEL 3
REMARK VINA RESULT:      -4.2      1.961      3.715
REMARK  3 active torsions:
REMARK  status: ('A' for Active; 'I' for Inactive)
REMARK    1  A    between atoms: C4_4  and  C5_5 
REMARK    2  A    between atoms: C6_6  and  C7_7 
REMARK    3  A    between atoms: C7_7  and  O8_8 
ROOT
HETATM    1  C3  UNL     1     -33.324   8.042   5.646  1.00 20.00     0.012 A 
HETATM    2  C5  UNL     1     -34.320   7.398   4.717  1.00 20.00    -0.004 A 
HETATM    3  C6  UNL     1     -32.870   7.495   4.319  1.00 20.00     0.014 A 
ENDROOT
BRANCH   2   4
HETATM    4  C4  UNL     1     -34.992   6.070   5.030  1.00 20.00    -0.010 A 
HETATM    5  C1  UNL     1     -34.342   4.745   4.745  1.00 20.00     0.005 A 
HETATM    6  C2  UNL     1     -34.555   5.188   6.166  1.00 20.00     0.005 A 
ENDBRANCH   2   4
BRANCH   3   7
HETATM    7  C7  UNL     1     -32.449   8.421   3.230  1.00 20.00     0.169 C 
BRANCH   7   8
HETATM    8  O8  UNL     1     -32.127   7.676   2.056  1.00 20.00    -0.400 OA
HETATM    9  H20 UNL     1     -31.204   7.397   2.153  1.00 20.00     0.209 HD
ENDBRANCH   7   8
ENDBRANCH   3   7
TORSDOF 3
ENDMDL
MODEL 4
REMARK VINA RESULT:      -4.1     11.943     12.467
REMARK  3 active torsions:
REMARK  status: ('A' for Active; 'I' for Inactive)
REMARK    1  A    between atoms: C4_4  and  C5_5 
REMARK    2  A    between atoms: C6_6  and  C7_7 
REMARK    3  A    between atoms: C7_7  and  O8_8 
ROOT
HETATM    1  C3  UNL     1     -32.763  15.094  -4.324  1.00 20.00     0.012 A 
HETATM    2  C5  UNL     1     -33.676  16.080  -3.642  1.00 20.00    -0.004 A 
HETATM    3  C6  UNL     1     -34.105  14.645  -3.808  1.00 20.00     0.014 A 
ENDROOT
BRANCH   2   4
HETATM    4  C4  UNL     1     -33.359  16.683  -2.283  1.00 20.00    -0.010 A 
HETATM    5  C1  UNL     1     -32.707  18.029  -2.125  1.00 20.00     0.005 A 
HETATM    6  C2  UNL     1     -34.137  17.833  -1.705  1.00 20.00     0.005 A 
ENDBRANCH   2   4
BRANCH   3   7
HETATM    7  C7  UNL     1     -35.195  14.291  -4.760  1.00 20.00     0.169 C 
BRANCH   7   8
HETATM    8  O8  UNL     1     -35.694  12.987  -4.466  1.00 20.00    -0.400 OA
HETATM    9  H20 UNL     1     -35.033  12.562  -3.899  1.00 20.00     0.209 HD
ENDBRANCH   7   8
ENDBRANCH   3   7
TORSDOF 3
ENDMDL
MODEL 5
REMARK VINA RESULT:      -4.1      1.133      1.516
REMARK  3 active torsions:
REMARK  status: ('A' for Active; 'I' for Inactive)
REMARK    1  A    between atoms: C4_4  and  C5_5 
REMARK    2  A    between atoms: C6_6  and  C7_7 
REMARK    3  A    between atoms: C7_7  and  O8_8 
ROOT
HETATM    1  C3  UNL     1     -34.196   8.277   5.711  1.00 20.00     0.012 A 
HETATM    2  C5  UNL     1     -32.921   7.589   5.297  1.00 20.00    -0.004 A 
HETATM    3  C6  UNL     1     -34.246   6.891   5.126  1.00 20.00     0.014 A 
ENDROOT
BRANCH   2   4
HETATM    4  C4  UNL     1     -32.086   8.055   4.114  1.00 20.00    -0.010 A 
HETATM    5  C1  UNL     1     -32.157   7.398   2.764  1.00 20.00     0.005 A 
HETATM    6  C2  UNL     1     -32.677   8.797   2.947  1.00 20.00     0.005 A 
ENDBRANCH   2   4
BRANCH   3   7
HETATM    7  C7  UNL     1     -34.598   5.726   5.985  1.00 20.00     0.169 C 
BRANCH   7   8
HETATM    8  O8  UNL     1     -35.270   4.734   5.208  1.00 20.00    -0.400 OA
HETATM    9  H20 UNL     1     -34.695   3.954   5.203  1.00 20.00     0.209 HD
ENDBRANCH   7   8
ENDBRANCH   3   7
TORSDOF 3
ENDMDL
MODEL 6
REMARK VINA RESULT:      -3.9     12.590     13.097
REMARK  3 active torsions:
REMARK  status: ('A' for Active; 'I' for Inactive)
REMARK    1  A    between atoms: C4_4  and  C5_5 
REMARK    2  A    between atoms: C6_6  and  C7_7 
REMARK    3  A    between atoms: C7_7  and  O8_8 
ROOT
HETATM    1  C3  UNL     1     -32.571  14.941  -4.070  1.00 20.00     0.012 A 
HETATM    2  C5  UNL     1     -33.257  16.235  -3.717  1.00 20.00    -0.004 A 
HETATM    3  C6  UNL     1     -34.021  15.144  -4.422  1.00 20.00     0.014 A 
ENDROOT
BRANCH   2   4
HETATM    4  C4  UNL     1     -33.551  16.640  -2.281  1.00 20.00    -0.010 A 
HETATM    5  C1  UNL     1     -32.776  17.711  -1.565  1.00 20.00     0.005 A 
HETATM    6  C2  UNL     1     -34.217  17.940  -1.925  1.00 20.00     0.005 A 
ENDBRANCH   2   4
BRANCH   3   7
HETATM    7  C7  UNL     1     -34.432  15.312  -5.844  1.00 20.00     0.169 C 
BRANCH   7   8
HETATM    8  O8  UNL     1     -33.446  14.745  -6.706  1.00 20.00    -0.400 OA
HETATM    9  H20 UNL     1     -33.911  14.473  -7.511  1.00 20.00     0.209 HD
ENDBRANCH   7   8
ENDBRANCH   3   7
TORSDOF 3
ENDMDL
MODEL 7
REMARK VINA RESULT:      -3.9     12.240     13.016
REMARK  3 active torsions:
REMARK  status: ('A' for Active; 'I' for Inactive)
REMARK    1  A    between atoms: C4_4  and  C5_5 
REMARK    2  A    between atoms: C6_6  and  C7_7 
REMARK    3  A    between atoms: C7_7  and  O8_8 
ROOT
HETATM    1  C3  UNL     1     -34.304  15.988  -5.921  1.00 20.00     0.012 A 
HETATM    2  C5  UNL     1     -34.444  16.181  -4.433  1.00 20.00    -0.004 A 
HETATM    3  C6  UNL     1     -34.566  14.803  -5.030  1.00 20.00     0.014 A 
ENDROOT
BRANCH   2   4
HETATM    4  C4  UNL     1     -33.276  16.586  -3.547  1.00 20.00    -0.010 A 
HETATM    5  C1  UNL     1     -33.107  17.982  -3.016  1.00 20.00     0.005 A 
HETATM    6  C2  UNL     1     -33.430  16.855  -2.076  1.00 20.00     0.005 A 
ENDBRANCH   2   4
BRANCH   3   7
HETATM    7  C7  UNL     1     -35.885  14.113  -5.066  1.00 20.00     0.169 C 
BRANCH   7   8
HETATM    8  O8  UNL     1     -35.793  12.850  -4.406  1.00 20.00    -0.400 OA
HETATM    9  H20 UNL     1     -35.086  12.360  -4.851  1.00 20.00     0.209 HD
ENDBRANCH   7   8
ENDBRANCH   3   7
TORSDOF 3
ENDMDL
MODEL 8
REMARK VINA RESULT:      -3.9      1.742      2.272
REMARK  3 active torsions:
REMARK  status: ('A' for Active; 'I' for Inactive)
REMARK    1  A    between atoms: C4_4  and  C5_5 
REMARK    2  A    between atoms: C6_6  and  C7_7 
REMARK    3  A    between atoms: C7_7  and  O8_8 
ROOT
HETATM    1  C3  UNL     1     -33.152   5.218   2.874  1.00 20.00     0.012 A 
HETATM    2  C5  UNL     1     -33.410   6.601   3.415  1.00 20.00    -0.004 A 
HETATM    3  C6  UNL     1     -33.577   5.398   4.307  1.00 20.00     0.014 A 
ENDROOT
BRANCH   2   4
HETATM    4  C4  UNL     1     -32.300   7.619   3.620  1.00 20.00    -0.010 A 
HETATM    5  C1  UNL     1     -32.450   9.068   3.247  1.00 20.00     0.005 A 
HETATM    6  C2  UNL     1     -32.352   8.670   4.694  1.00 20.00     0.005 A 
ENDBRANCH   2   4
BRANCH   3   7
HETATM    7  C7  UNL     1     -34.935   4.971   4.746  1.00 20.00     0.169 C 
BRANCH   7   8
HETATM    8  O8  UNL     1     -35.106   5.244   6.137  1.00 20.00    -0.400 OA
HETATM    9  H20 UNL     1     -35.298   4.395   6.561  1.00 20.00     0.209 HD
ENDBRANCH   7   8
ENDBRANCH   3   7
TORSDOF 3
ENDMDL
MODEL 9
REMARK VINA RESULT:      -3.8     12.126     12.765
REMARK  3 active torsions:
REMARK  status: ('A' for Active; 'I' for Inactive)
REMARK    1  A    between atoms: C4_4  and  C5_5 
REMARK    2  A    between atoms: C6_6  and  C7_7 
REMARK    3  A    between atoms: C7_7  and  O8_8 
ROOT
HETATM    1  C3  UNL     1     -33.694  17.315  -4.046  1.00 20.00     0.012 A 
HETATM    2  C5  UNL     1     -33.814  16.895  -2.604  1.00 20.00    -0.004 A 
HETATM    3  C6  UNL     1     -33.203  15.959  -3.614  1.00 20.00     0.014 A 
ENDROOT
BRANCH   2   4
HETATM    4  C4  UNL     1     -33.000  17.539  -1.493  1.00 20.00    -0.010 A 
HETATM    5  C1  UNL     1     -33.128  18.994  -1.134  1.00 20.00     0.005 A 
HETATM    6  C2  UNL     1     -33.602  17.938  -0.174  1.00 20.00     0.005 A 
ENDBRANCH   2   4
BRANCH   3   7
HETATM    7  C7  UNL     1     -33.929  14.728  -4.036  1.00 20.00     0.169 C 
BRANCH   7   8
HETATM    8  O8  UNL     1     -33.010  13.785  -4.588  1.00 20.00    -0.400 OA
HETATM    9  H20 UNL     1     -33.376  12.907  -4.404  1.00 20.00     0.209 HD
ENDBRANCH   7   8
ENDBRANCH   3   7
TORSDOF 3
ENDMDL
