MODEL 1
REMARK VINA RESULT:      -5.0      0.000      0.000
REMARK  2 active torsions:
REMARK  status: ('A' for Active; 'I' for Inactive)
REMARK    1  A    between atoms: C6_6  and  C10_10 
REMARK    2  A    between atoms: C7_7  and  C9_9 
ROOT
HETATM    1  C1  UNL     1     -33.070  19.244  -3.360  1.00 20.00     0.001 C 
HETATM    2  C2  UNL     1     -33.308  17.942  -4.128  1.00 20.00     0.013 C 
HETATM    3  C3  UNL     1     -33.811  19.246  -2.024  1.00 20.00     0.010 C 
HETATM    4  C4  UNL     1     -33.689  16.726  -1.944  1.00 20.00     0.023 C 
HETATM    5  C5  UNL     1     -33.699  18.063   0.279  1.00 20.00     0.016 A 
HETATM    6  C6  UNL     1     -32.938  16.712  -3.284  1.00 20.00     0.094 C 
HETATM    7  C7  UNL     1     -32.280  18.065  -0.221  1.00 20.00     0.009 A 
HETATM    8  C8  UNL     1     -33.435  18.028  -1.210  1.00 20.00    -0.035 A 
ENDROOT
BRANCH   6   9
HETATM    9  C10 UNL     1     -33.229  15.424  -4.052  1.00 20.00     0.391 C 
HETATM   10  F11 UNL     1     -34.128  14.684  -3.385  1.00 20.00    -0.171 F 
HETATM   11  F12 UNL     1     -33.720  15.714  -5.266  1.00 20.00    -0.171 F 
HETATM   12  F13 UNL     1     -32.102  14.711  -4.197  1.00 20.00    -0.171 F 
ENDBRANCH   6   9
BRANCH   7  13
HETATM   13  C9  UNL     1     -31.417  19.263  -0.023  1.00 20.00     0.120 C 
HETATM   14 CL14 UNL     1     -30.568  19.197   1.546  1.00 20.00    -0.130 Cl
ENDBRANCH   7  13
TORSDOF 2
ENDMDL
MODEL 2
REMARK VINA RESULT:      -4.7     11.496     12.654
REMARK  2 active torsions:
REMARK  status: ('A' for Active; 'I' for Inactive)
REMARK    1  A    between atoms: C6_6  and  C10_10 
REMARK    2  A    between atoms: C7_7  and  C9_9 
ROOT
HETATM    1  C1  UNL     1     -33.100   8.744   5.339  1.00 20.00     0.001 C 
HETATM    2  C2  UNL     1     -33.794   7.490   5.876  1.00 20.00     0.013 C 
HETATM    3  C3  UNL     1     -31.931   8.385   4.424  1.00 20.00     0.010 C 
HETATM    4  C4  UNL     1     -33.057   6.207   3.825  1.00 20.00     0.023 C 
HETATM    5  C5  UNL     1     -31.521   7.358   2.080  1.00 20.00     0.016 A 
HETATM    6  C6  UNL     1     -34.242   6.560   4.738  1.00 20.00     0.094 C 
HETATM    7  C7  UNL     1     -32.867   8.024   1.978  1.00 20.00     0.009 A 
HETATM    8  C8  UNL     1     -32.392   7.469   3.312  1.00 20.00    -0.035 A 
ENDROOT
BRANCH   6   9
HETATM    9  C10 UNL     1     -34.887   5.294   5.298  1.00 20.00     0.391 C 
HETATM   10  F11 UNL     1     -34.077   4.242   5.107  1.00 20.00    -0.171 F 
HETATM   11  F12 UNL     1     -35.113   5.436   6.613  1.00 20.00    -0.171 F 
HETATM   12  F13 UNL     1     -36.055   5.061   4.679  1.00 20.00    -0.171 F 
ENDBRANCH   6   9
BRANCH   7  13
HETATM   13  C9  UNL     1     -32.962   9.482   1.691  1.00 20.00     0.120 C 
HETATM   14 CL14 UNL     1     -32.978   9.797  -0.066  1.00 20.00    -0.130 Cl
ENDBRANCH   7  13
TORSDOF 2
ENDMDL
MODEL 3
REMARK VINA RESULT:      -4.7     11.417     12.536
REMARK  2 active torsions:
REMARK  status: ('A' for Active; 'I' for Inactive)
REMARK    1  A    between atoms: C6_6  and  C10_10 
REMARK    2  A    between atoms: C7_7  and  C9_9 
ROOT
HETATM    1  C1  UNL     1     -42.702  13.911   6.695  1.00 20.00     0.001 C 
HETATM    2  C2  UNL     1     -41.846  12.883   5.952  1.00 20.00     0.013 C 
HETATM    3  C3  UNL     1     -42.234  14.087   8.138  1.00 20.00     0.010 C 
HETATM    4  C4  UNL     1     -39.895  13.414   7.471  1.00 20.00     0.023 C 
HETATM    5  C5  UNL     1     -40.221  15.072   9.439  1.00 20.00     0.016 A 
HETATM    6  C6  UNL     1     -40.352  13.239   6.015  1.00 20.00     0.094 C 
HETATM    7  C7  UNL     1     -40.294  15.883   8.173  1.00 20.00     0.009 A 
HETATM    8  C8  UNL     1     -40.763  14.436   8.178  1.00 20.00    -0.035 A 
ENDROOT
BRANCH   6   9
HETATM    9  C10 UNL     1     -39.513  12.175   5.310  1.00 20.00     0.391 C 
HETATM   10  F11 UNL     1     -39.804  10.961   5.801  1.00 20.00    -0.171 F 
HETATM   11  F12 UNL     1     -39.771  12.184   3.993  1.00 20.00    -0.171 F 
HETATM   12  F13 UNL     1     -38.207  12.419   5.499  1.00 20.00    -0.171 F 
ENDBRANCH   6   9
BRANCH   7  13
HETATM   13  C9  UNL     1     -41.228  17.040   8.076  1.00 20.00     0.120 C 
HETATM   14 CL14 UNL     1     -41.650  17.389   6.377  1.00 20.00    -0.130 Cl
ENDBRANCH   7  13
TORSDOF 2
ENDMDL
MODEL 4
REMARK VINA RESULT:      -4.6     11.196     12.642
REMARK  2 active torsions:
REMARK  status: ('A' for Active; 'I' for Inactive)
REMARK    1  A    between atoms: C6_6  and  C10_10 
REMARK    2  A    between atoms: C7_7  and  C9_9 
ROOT
HETATM    1  C1  UNL     1     -42.299  14.685   4.944  1.00 20.00     0.001 C 
HETATM    2  C2  UNL     1     -41.260  13.705   4.393  1.00 20.00     0.013 C 
HETATM    3  C3  UNL     1     -43.222  14.009   5.955  1.00 20.00     0.010 C 
HETATM    4  C4  UNL     1     -41.397  12.363   6.531  1.00 20.00     0.023 C 
HETATM    5  C5  UNL     1     -43.118  13.031   8.353  1.00 20.00     0.016 A 
HETATM    6  C6  UNL     1     -40.457  13.039   5.521  1.00 20.00     0.094 C 
HETATM    7  C7  UNL     1     -42.069  14.109   8.333  1.00 20.00     0.009 A 
HETATM    8  C8  UNL     1     -42.413  13.358   7.056  1.00 20.00    -0.035 A 
ENDROOT
BRANCH   6   9
HETATM    9  C10 UNL     1     -39.462  12.030   4.951  1.00 20.00     0.391 C 
HETATM   10  F11 UNL     1     -38.229  12.291   5.411  1.00 20.00    -0.171 F 
HETATM   11  F12 UNL     1     -39.808  10.786   5.317  1.00 20.00    -0.171 F 
HETATM   12  F13 UNL     1     -39.450  12.102   3.611  1.00 20.00    -0.171 F 
ENDBRANCH   6   9
BRANCH   7  13
HETATM   13  C9  UNL     1     -42.449  15.530   8.568  1.00 20.00     0.120 C 
HETATM   14 CL14 UNL     1     -41.170  16.643   8.008  1.00 20.00    -0.130 Cl
ENDBRANCH   7  13
TORSDOF 2
ENDMDL
MODEL 5
REMARK VINA RESULT:      -4.2     24.051     24.969
REMARK  2 active torsions:
REMARK  status: ('A' for Active; 'I' for Inactive)
REMARK    1  A    between atoms: C6_6  and  C10_10 
REMARK    2  A    between atoms: C7_7  and  C9_9 
ROOT
HETATM    1  C1  UNL     1     -24.439  -1.313  12.076  1.00 20.00     0.001 C 
HETATM    2  C2  UNL     1     -25.920  -0.930  12.038  1.00 20.00     0.013 C 
HETATM    3  C3  UNL     1     -24.252  -2.826  11.987  1.00 20.00     0.010 C 
HETATM    4  C4  UNL     1     -26.424  -3.029  10.719  1.00 20.00     0.023 C 
HETATM    5  C5  UNL     1     -24.527  -4.736  10.257  1.00 20.00     0.016 A 
HETATM    6  C6  UNL     1     -26.621  -1.506  10.797  1.00 20.00     0.094 C 
HETATM    7  C7  UNL     1     -24.219  -3.513   9.434  1.00 20.00     0.009 A 
HETATM    8  C8  UNL     1     -24.949  -3.373  10.762  1.00 20.00    -0.035 A 
ENDROOT
BRANCH   6   9
HETATM    9  C10 UNL     1     -28.107  -1.154  10.804  1.00 20.00     0.391 C 
HETATM   10  F11 UNL     1     -28.324  -0.062  10.054  1.00 20.00    -0.171 F 
HETATM   11  F12 UNL     1     -28.824  -2.173  10.306  1.00 20.00    -0.171 F 
HETATM   12  F13 UNL     1     -28.515  -0.907  12.058  1.00 20.00    -0.171 F 
ENDBRANCH   6   9
BRANCH   7  13
HETATM   13  C9  UNL     1     -22.808  -3.080   9.233  1.00 20.00     0.120 C 
HETATM   14 CL14 UNL     1     -22.031  -4.001   7.915  1.00 20.00    -0.130 Cl
ENDBRANCH   7  13
TORSDOF 2
ENDMDL
MODEL 6
REMARK VINA RESULT:      -4.2      3.105      4.216
REMARK  2 active torsions:
REMARK  status: ('A' for Active; 'I' for Inactive)
REMARK    1  A    between atoms: C6_6  and  C10_10 
REMARK    2  A    between atoms: C7_7  and  C9_9 
ROOT
HETATM    1  C1  UNL     1     -33.917  17.813  -1.993  1.00 20.00     0.001 C 
HETATM    2  C2  UNL     1     -33.246  16.598  -2.638  1.00 20.00     0.013 C 
HETATM    3  C3  UNL     1     -34.240  18.886  -3.030  1.00 20.00     0.010 C 
HETATM    4  C4  UNL     1     -34.413  17.116  -4.821  1.00 20.00     0.023 C 
HETATM    5  C5  UNL     1     -35.856  19.263  -5.021  1.00 20.00     0.016 A 
HETATM    6  C6  UNL     1     -34.094  16.026  -3.786  1.00 20.00     0.094 C 
HETATM    7  C7  UNL     1     -36.593  18.330  -4.099  1.00 20.00     0.009 A 
HETATM    8  C8  UNL     1     -35.073  18.304  -4.150  1.00 20.00    -0.035 A 
ENDROOT
BRANCH   6   9
HETATM    9  C10 UNL     1     -33.384  14.846  -4.446  1.00 20.00     0.391 C 
HETATM   10  F11 UNL     1     -32.077  14.868  -4.143  1.00 20.00    -0.171 F 
HETATM   11  F12 UNL     1     -33.911  13.691  -4.012  1.00 20.00    -0.171 F 
HETATM   12  F13 UNL     1     -33.522  14.914  -5.779  1.00 20.00    -0.171 F 
ENDBRANCH   6   9
BRANCH   7  13
HETATM   13  C9  UNL     1     -37.359  18.870  -2.941  1.00 20.00     0.120 C 
HETATM   14 CL14 UNL     1     -38.897  17.992  -2.716  1.00 20.00    -0.130 Cl
ENDBRANCH   7  13
TORSDOF 2
ENDMDL
MODEL 7
REMARK VINA RESULT:      -4.2      3.888      5.373
REMARK  2 active torsions:
REMARK  status: ('A' for Active; 'I' for Inactive)
REMARK    1  A    between atoms: C6_6  and  C10_10 
REMARK    2  A    between atoms: C7_7  and  C9_9 
ROOT
HETATM    1  C1  UNL     1     -35.339  18.298  -4.526  1.00 20.00     0.001 C 
HETATM    2  C2  UNL     1     -34.638  18.693  -3.223  1.00 20.00     0.013 C 
HETATM    3  C3  UNL     1     -34.460  17.383  -5.376  1.00 20.00     0.010 C 
HETATM    4  C4  UNL     1     -33.304  16.546  -3.294  1.00 20.00     0.023 C 
HETATM    5  C5  UNL     1     -33.538  14.961  -5.335  1.00 20.00     0.016 A 
HETATM    6  C6  UNL     1     -34.186  17.458  -2.427  1.00 20.00     0.094 C 
HETATM    7  C7  UNL     1     -34.838  14.890  -4.580  1.00 20.00     0.009 A 
HETATM    8  C8  UNL     1     -34.025  16.176  -4.575  1.00 20.00    -0.035 A 
ENDROOT
BRANCH   6   9
HETATM    9  C10 UNL     1     -33.448  17.875  -1.158  1.00 20.00     0.391 C 
HETATM   10  F11 UNL     1     -32.146  17.569  -1.261  1.00 20.00    -0.171 F 
HETATM   11  F12 UNL     1     -33.569  19.198  -0.968  1.00 20.00    -0.171 F 
HETATM   12  F13 UNL     1     -33.961  17.235  -0.096  1.00 20.00    -0.171 F 
ENDBRANCH   6   9
BRANCH   7  13
HETATM   13  C9  UNL     1     -36.125  14.745  -5.316  1.00 20.00     0.120 C 
HETATM   14 CL14 UNL     1     -35.859  14.690  -7.080  1.00 20.00    -0.130 Cl
ENDBRANCH   7  13
TORSDOF 2
ENDMDL
MODEL 8
REMARK VINA RESULT:      -4.1      2.499      3.852
REMARK  2 active torsions:
REMARK  status: ('A' for Active; 'I' for Inactive)
REMARK    1  A    between atoms: C6_6  and  C10_10 
REMARK    2  A    between atoms: C7_7  and  C9_9 
ROOT
HETATM    1  C1  UNL     1     -33.847  14.720  -3.854  1.00 20.00     0.001 C 
HETATM    2  C2  UNL     1     -34.787  14.757  -5.061  1.00 20.00     0.013 C 
HETATM    3  C3  UNL     1     -32.890  15.910  -3.857  1.00 20.00     0.010 C 
HETATM    4  C4  UNL     1     -34.579  17.276  -5.142  1.00 20.00     0.023 C 
HETATM    5  C5  UNL     1     -32.957  18.478  -3.513  1.00 20.00     0.016 A 
HETATM    6  C6  UNL     1     -35.553  16.087  -5.140  1.00 20.00     0.094 C 
HETATM    7  C7  UNL     1     -34.093  17.949  -2.680  1.00 20.00     0.009 A 
HETATM    8  C8  UNL     1     -33.662  17.208  -3.937  1.00 20.00    -0.035 A 
ENDROOT
BRANCH   6   9
HETATM    9  C10 UNL     1     -36.448  16.122  -6.377  1.00 20.00     0.391 C 
HETATM   10  F11 UNL     1     -36.190  15.064  -7.162  1.00 20.00    -0.171 F 
HETATM   11  F12 UNL     1     -37.739  16.087  -6.012  1.00 20.00    -0.171 F 
HETATM   12  F13 UNL     1     -36.224  17.245  -7.076  1.00 20.00    -0.171 F 
ENDBRANCH   6   9
BRANCH   7  13
HETATM   13  C9  UNL     1     -33.839  17.435  -1.305  1.00 20.00     0.120 C 
HETATM   14 CL14 UNL     1     -32.369  18.165  -0.603  1.00 20.00    -0.130 Cl
ENDBRANCH   7  13
TORSDOF 2
ENDMDL
MODEL 9
REMARK VINA RESULT:      -4.1      2.523      3.917
REMARK  2 active torsions:
REMARK  status: ('A' for Active; 'I' for Inactive)
REMARK    1  A    between atoms: C6_6  and  C10_10 
REMARK    2  A    between atoms: C7_7  and  C9_9 
ROOT
HETATM    1  C1  UNL     1     -33.885  14.690  -3.875  1.00 20.00     0.001 C 
HETATM    2  C2  UNL     1     -34.834  14.744  -5.075  1.00 20.00     0.013 C 
HETATM    3  C3  UNL     1     -32.917  15.872  -3.877  1.00 20.00     0.010 C 
HETATM    4  C4  UNL     1     -34.603  17.262  -5.141  1.00 20.00     0.023 C 
HETATM    5  C5  UNL     1     -32.958  18.438  -3.516  1.00 20.00     0.016 A 
HETATM    6  C6  UNL     1     -35.588  16.082  -5.140  1.00 20.00     0.094 C 
HETATM    7  C7  UNL     1     -34.093  17.914  -2.679  1.00 20.00     0.009 A 
HETATM    8  C8  UNL     1     -33.678  17.178  -3.943  1.00 20.00    -0.035 A 
ENDROOT
BRANCH   6   9
HETATM    9  C10 UNL     1     -36.491  16.133  -6.370  1.00 20.00     0.391 C 
HETATM   10  F11 UNL     1     -36.255  17.254  -7.069  1.00 20.00    -0.171 F 
HETATM   11  F12 UNL     1     -36.256  15.073  -7.158  1.00 20.00    -0.171 F 
HETATM   12  F13 UNL     1     -37.780  16.120  -5.996  1.00 20.00    -0.171 F 
ENDBRANCH   6   9
BRANCH   7  13
HETATM   13  C9  UNL     1     -33.834  17.388  -1.309  1.00 20.00     0.120 C 
HETATM   14 CL14 UNL     1     -32.374  18.128  -0.597  1.00 20.00    -0.130 Cl
ENDBRANCH   7  13
TORSDOF 2
ENDMDL
