MODEL 1
REMARK VINA RESULT:      -4.1      0.000      0.000
REMARK  1 active torsions:
REMARK  status: ('A' for Active; 'I' for Inactive)
REMARK    1  A    between atoms: C6_6  and  C8_8 
ROOT
HETATM    1  C1  UNL     1     -25.033  18.996  10.945  1.00 20.00     0.036 C 
HETATM    2  C2  UNL     1     -24.253  16.608  11.029  1.00 20.00     0.036 C 
HETATM    3  C3  UNL     1     -22.496  18.511  11.281  1.00 20.00     0.016 A 
HETATM    4  C4  UNL     1     -25.765  18.727  12.256  1.00 20.00     0.168 C 
HETATM    5  C5  UNL     1     -25.038  16.478  12.332  1.00 20.00     0.168 C 
HETATM    6  C6  UNL     1     -22.780  18.416   9.806  1.00 20.00     0.009 A 
HETATM    7  C7  UNL     1     -23.859  18.051  10.811  1.00 20.00    -0.032 A 
HETATM    8  O9  UNL     1     -26.166  17.356  12.328  1.00 20.00    -0.391 OA
ENDROOT
BRANCH   6   9
HETATM    9  C8  UNL     1     -22.084  17.398   8.970  1.00 20.00     0.120 C 
HETATM   10 CL10 UNL     1     -21.510  18.105   7.435  1.00 20.00    -0.130 Cl
ENDBRANCH   6   9
TORSDOF 1
ENDMDL
MODEL 2
REMARK VINA RESULT:      -4.1     14.994     15.747
REMARK  1 active torsions:
REMARK  status: ('A' for Active; 'I' for Inactive)
REMARK    1  A    between atoms: C6_6  and  C8_8 
ROOT
HETATM    1  C1  UNL     1     -33.977   8.015   5.283  1.00 20.00     0.036 C 
HETATM    2  C2  UNL     1     -33.815   6.142   3.614  1.00 20.00     0.036 C 
HETATM    3  C3  UNL     1     -31.702   7.585   4.090  1.00 20.00     0.016 A 
HETATM    4  C4  UNL     1     -34.184   6.947   6.352  1.00 20.00     0.168 C 
HETATM    5  C5  UNL     1     -34.039   5.185   4.782  1.00 20.00     0.168 C 
HETATM    6  C6  UNL     1     -32.550   8.406   3.157  1.00 20.00     0.009 A 
HETATM    7  C7  UNL     1     -33.207   7.432   4.119  1.00 20.00    -0.032 A 
HETATM    8  O9  UNL     1     -34.838   5.805   5.793  1.00 20.00    -0.391 OA
ENDROOT
BRANCH   6   9
HETATM    9  C8  UNL     1     -32.495   8.170   1.687  1.00 20.00     0.120 C 
HETATM   10 CL10 UNL     1     -32.789   9.678   0.779  1.00 20.00    -0.130 Cl
ENDBRANCH   6   9
TORSDOF 1
ENDMDL
MODEL 3
REMARK VINA RESULT:      -3.8     14.593     15.134
REMARK  1 active torsions:
REMARK  status: ('A' for Active; 'I' for Inactive)
REMARK    1  A    between atoms: C6_6  and  C8_8 
ROOT
HETATM    1  C1  UNL     1     -33.998  18.008   0.305  1.00 20.00     0.036 C 
HETATM    2  C2  UNL     1     -31.755  18.142  -0.822  1.00 20.00     0.036 C 
HETATM    3  C3  UNL     1     -33.879  18.807  -2.171  1.00 20.00     0.016 A 
HETATM    4  C4  UNL     1     -33.529  19.140   1.213  1.00 20.00     0.168 C 
HETATM    5  C5  UNL     1     -31.416  19.263   0.158  1.00 20.00     0.168 C 
HETATM    6  C6  UNL     1     -33.847  17.303  -2.183  1.00 20.00     0.009 A 
HETATM    7  C7  UNL     1     -33.253  18.064  -1.010  1.00 20.00    -0.032 A 
HETATM    8  O9  UNL     1     -32.112  19.076   1.394  1.00 20.00    -0.391 OA
ENDROOT
BRANCH   6   9
HETATM    9  C8  UNL     1     -33.008  16.577  -3.177  1.00 20.00     0.120 C 
HETATM   10 CL10 UNL     1     -33.833  15.109  -3.770  1.00 20.00    -0.130 Cl
ENDBRANCH   6   9
TORSDOF 1
ENDMDL
MODEL 4
REMARK VINA RESULT:      -3.7     17.381     18.315
REMARK  1 active torsions:
REMARK  status: ('A' for Active; 'I' for Inactive)
REMARK    1  A    between atoms: C6_6  and  C8_8 
ROOT
HETATM    1  C1  UNL     1     -42.656  13.007   7.470  1.00 20.00     0.036 C 
HETATM    2  C2  UNL     1     -40.438  14.164   7.716  1.00 20.00     0.036 C 
HETATM    3  C3  UNL     1     -41.248  13.498   5.334  1.00 20.00     0.016 A 
HETATM    4  C4  UNL     1     -43.303  14.304   7.944  1.00 20.00     0.168 C 
HETATM    5  C5  UNL     1     -41.217  15.391   8.182  1.00 20.00     0.168 C 
HETATM    6  C6  UNL     1     -40.709  12.233   5.947  1.00 20.00     0.009 A 
HETATM    7  C7  UNL     1     -41.316  13.306   6.834  1.00 20.00    -0.032 A 
HETATM    8  O9  UNL     1     -42.428  14.999   8.835  1.00 20.00    -0.391 OA
ENDROOT
BRANCH   6   9
HETATM    9  C8  UNL     1     -39.247  11.948   5.917  1.00 20.00     0.120 C 
HETATM   10 CL10 UNL     1     -38.668  11.711   4.245  1.00 20.00    -0.130 Cl
ENDBRANCH   6   9
TORSDOF 1
ENDMDL
MODEL 5
REMARK VINA RESULT:      -3.7      3.007      4.216
REMARK  1 active torsions:
REMARK  status: ('A' for Active; 'I' for Inactive)
REMARK    1  A    between atoms: C6_6  and  C8_8 
ROOT
HETATM    1  C1  UNL     1     -23.366  18.048   9.626  1.00 20.00     0.036 C 
HETATM    2  C2  UNL     1     -23.179  18.569  12.078  1.00 20.00     0.036 C 
HETATM    3  C3  UNL     1     -24.243  16.308  11.353  1.00 20.00     0.016 A 
HETATM    4  C4  UNL     1     -21.842  17.990   9.596  1.00 20.00     0.168 C 
HETATM    5  C5  UNL     1     -21.665  18.487  11.901  1.00 20.00     0.168 C 
HETATM    6  C6  UNL     1     -25.322  17.340  11.168  1.00 20.00     0.009 A 
HETATM    7  C7  UNL     1     -23.864  17.734  11.019  1.00 20.00    -0.032 A 
HETATM    8  O9  UNL     1     -21.293  18.875  10.576  1.00 20.00    -0.391 OA
ENDROOT
BRANCH   6   9
HETATM    9  C8  UNL     1     -26.157  17.771  12.325  1.00 20.00     0.120 C 
HETATM   10 CL10 UNL     1     -27.140  19.204  11.915  1.00 20.00    -0.130 Cl
ENDBRANCH   6   9
TORSDOF 1
ENDMDL
MODEL 6
REMARK VINA RESULT:      -3.6      3.226      4.503
REMARK  1 active torsions:
REMARK  status: ('A' for Active; 'I' for Inactive)
REMARK    1  A    between atoms: C6_6  and  C8_8 
ROOT
HETATM    1  C1  UNL     1     -23.278  16.867   9.693  1.00 20.00     0.036 C 
HETATM    2  C2  UNL     1     -23.946  19.207   9.065  1.00 20.00     0.036 C 
HETATM    3  C3  UNL     1     -23.312  18.704  11.539  1.00 20.00     0.016 A 
HETATM    4  C4  UNL     1     -22.042  17.064   8.823  1.00 20.00     0.168 C 
HETATM    5  C5  UNL     1     -22.673  19.263   8.226  1.00 20.00     0.168 C 
HETATM    6  C6  UNL     1     -24.723  18.207  11.374  1.00 20.00     0.009 A 
HETATM    7  C7  UNL     1     -23.776  18.207  10.187  1.00 20.00    -0.032 A 
HETATM    8  O9  UNL     1     -22.330  17.960   7.746  1.00 20.00    -0.391 OA
ENDROOT
BRANCH   6   9
HETATM    9  C8  UNL     1     -25.871  19.151  11.487  1.00 20.00     0.120 C 
HETATM   10 CL10 UNL     1     -27.250  18.394  12.330  1.00 20.00    -0.130 Cl
ENDBRANCH   6   9
TORSDOF 1
ENDMDL
MODEL 7
REMARK VINA RESULT:      -3.5     16.009     16.649
REMARK  1 active torsions:
REMARK  status: ('A' for Active; 'I' for Inactive)
REMARK    1  A    between atoms: C6_6  and  C8_8 
ROOT
HETATM    1  C1  UNL     1     -33.636  16.279  -2.650  1.00 20.00     0.036 C 
HETATM    2  C2  UNL     1     -34.928  18.434  -2.566  1.00 20.00     0.036 C 
HETATM    3  C3  UNL     1     -32.485  18.400  -1.667  1.00 20.00     0.016 A 
HETATM    4  C4  UNL     1     -33.676  16.398  -4.169  1.00 20.00     0.168 C 
HETATM    5  C5  UNL     1     -34.897  18.422  -4.092  1.00 20.00     0.168 C 
HETATM    6  C6  UNL     1     -33.327  17.799  -0.574  1.00 20.00     0.009 A 
HETATM    7  C7  UNL     1     -33.752  17.652  -2.025  1.00 20.00    -0.032 A 
HETATM    8  O9  UNL     1     -34.864  17.078  -4.583  1.00 20.00    -0.391 OA
ENDROOT
BRANCH   6   9
HETATM    9  C8  UNL     1     -34.048  18.677   0.389  1.00 20.00     0.120 C 
HETATM   10 CL10 UNL     1     -32.954  19.261   1.674  1.00 20.00    -0.130 Cl
ENDBRANCH   6   9
TORSDOF 1
ENDMDL
MODEL 8
REMARK VINA RESULT:      -3.5     18.984     19.429
REMARK  1 active torsions:
REMARK  status: ('A' for Active; 'I' for Inactive)
REMARK    1  A    between atoms: C6_6  and  C8_8 
ROOT
HETATM    1  C1  UNL     1     -34.554  16.424  -6.605  1.00 20.00     0.036 C 
HETATM    2  C2  UNL     1     -34.874  14.756  -4.753  1.00 20.00     0.036 C 
HETATM    3  C3  UNL     1     -35.250  17.281  -4.246  1.00 20.00     0.016 A 
HETATM    4  C4  UNL     1     -35.768  15.798  -7.281  1.00 20.00     0.168 C 
HETATM    5  C5  UNL     1     -36.067  14.223  -5.543  1.00 20.00     0.168 C 
HETATM    6  C6  UNL     1     -33.758  17.082  -4.229  1.00 20.00     0.009 A 
HETATM    7  C7  UNL     1     -34.629  16.204  -5.110  1.00 20.00    -0.032 A 
HETATM    8  O9  UNL     1     -35.863  14.411  -6.946  1.00 20.00    -0.391 OA
ENDROOT
BRANCH   6   9
HETATM    9  C8  UNL     1     -33.081  16.571  -3.004  1.00 20.00     0.120 C 
HETATM   10 CL10 UNL     1     -33.769  17.308  -1.530  1.00 20.00    -0.130 Cl
ENDBRANCH   6   9
TORSDOF 1
ENDMDL
MODEL 9
REMARK VINA RESULT:      -3.5     15.275     15.826
REMARK  1 active torsions:
REMARK  status: ('A' for Active; 'I' for Inactive)
REMARK    1  A    between atoms: C6_6  and  C8_8 
ROOT
HETATM    1  C1  UNL     1     -31.945  18.659  -1.122  1.00 20.00     0.036 C 
HETATM    2  C2  UNL     1     -34.436  18.758  -0.798  1.00 20.00     0.036 C 
HETATM    3  C3  UNL     1     -33.415  16.724  -2.060  1.00 20.00     0.016 A 
HETATM    4  C4  UNL     1     -31.828  18.501   0.390  1.00 20.00     0.168 C 
HETATM    5  C5  UNL     1     -34.170  18.601   0.697  1.00 20.00     0.168 C 
HETATM    6  C6  UNL     1     -33.454  17.844  -3.064  1.00 20.00     0.009 A 
HETATM    7  C7  UNL     1     -33.294  18.156  -1.586  1.00 20.00    -0.032 A 
HETATM    8  O9  UNL     1     -32.906  19.174   1.045  1.00 20.00    -0.391 OA
ENDROOT
BRANCH   6   9
HETATM    9  C8  UNL     1     -34.707  18.137  -3.816  1.00 20.00     0.120 C 
HETATM   10 CL10 UNL     1     -35.120  16.801  -4.926  1.00 20.00    -0.130 Cl
ENDBRANCH   6   9
TORSDOF 1
ENDMDL
