MODEL 1
REMARK VINA RESULT:      -3.6      0.000      0.000
REMARK  1 active torsions:
REMARK  status: ('A' for Active; 'I' for Inactive)
REMARK    1  A    between atoms: C6_6  and  C8_8 
ROOT
HETATM    1  C1  UNL     1     -42.918  13.249   8.521  1.00 20.00     0.011 C 
HETATM    2  C2  UNL     1     -42.879  13.589   7.032  1.00 20.00     0.011 C 
HETATM    3  C3  UNL     1     -41.237  13.437   5.041  1.00 20.00     0.017 A 
HETATM    4  C4  UNL     1     -42.205  14.286   9.383  1.00 20.00     0.074 C 
HETATM    5  C5  UNL     1     -40.640  14.770   7.166  1.00 20.00     0.083 C 
HETATM    6  C6  UNL     1     -40.804  12.390   6.028  1.00 20.00     0.009 A 
HETATM    7  C7  UNL     1     -41.454  13.676   6.522  1.00 20.00    -0.027 A 
HETATM    8  S9  UNL     1     -40.447  14.443   8.939  1.00 20.00    -0.168 SA
ENDROOT
BRANCH   6   9
HETATM    9  C8  UNL     1     -39.356  12.085   6.206  1.00 20.00     0.120 C 
HETATM   10 CL10 UNL     1     -38.555  11.812   4.634  1.00 20.00    -0.130 Cl
ENDBRANCH   6   9
TORSDOF 1
ENDMDL
MODEL 2
REMARK VINA RESULT:      -3.4     13.269     13.924
REMARK  1 active torsions:
REMARK  status: ('A' for Active; 'I' for Inactive)
REMARK    1  A    between atoms: C6_6  and  C8_8 
ROOT
HETATM    1  C1  UNL     1     -36.969  15.329  -5.290  1.00 20.00     0.011 C 
HETATM    2  C2  UNL     1     -35.743  14.418  -5.319  1.00 20.00     0.011 C 
HETATM    3  C3  UNL     1     -33.263  14.464  -4.590  1.00 20.00     0.017 A 
HETATM    4  C4  UNL     1     -36.948  16.382  -6.393  1.00 20.00     0.074 C 
HETATM    5  C5  UNL     1     -34.202  16.202  -6.247  1.00 20.00     0.083 C 
HETATM    6  C6  UNL     1     -33.978  15.459  -3.720  1.00 20.00     0.009 A 
HETATM    7  C7  UNL     1     -34.462  15.209  -5.143  1.00 20.00    -0.027 A 
HETATM    8  S9  UNL     1     -35.496  17.471  -6.263  1.00 20.00    -0.168 SA
ENDROOT
BRANCH   6   9
HETATM    9  C8  UNL     1     -33.291  16.713  -3.299  1.00 20.00     0.120 C 
HETATM   10 CL10 UNL     1     -33.622  17.086  -1.585  1.00 20.00    -0.130 Cl
ENDBRANCH   6   9
TORSDOF 1
ENDMDL
MODEL 3
REMARK VINA RESULT:      -3.4     12.211     13.495
REMARK  1 active torsions:
REMARK  status: ('A' for Active; 'I' for Inactive)
REMARK    1  A    between atoms: C6_6  and  C8_8 
ROOT
HETATM    1  C1  UNL     1     -34.449  15.840  -4.301  1.00 20.00     0.011 C 
HETATM    2  C2  UNL     1     -33.236  16.108  -3.412  1.00 20.00     0.011 C 
HETATM    3  C3  UNL     1     -32.509  17.748  -1.550  1.00 20.00     0.017 A 
HETATM    4  C4  UNL     1     -34.535  16.796  -5.487  1.00 20.00     0.074 C 
HETATM    5  C5  UNL     1     -33.202  18.598  -3.883  1.00 20.00     0.083 C 
HETATM    6  C6  UNL     1     -34.011  17.719  -1.526  1.00 20.00     0.009 A 
HETATM    7  C7  UNL     1     -33.269  17.512  -2.840  1.00 20.00    -0.027 A 
HETATM    8  S9  UNL     1     -34.665  18.530  -4.951  1.00 20.00    -0.168 SA
ENDROOT
BRANCH   6   9
HETATM    9  C8  UNL     1     -34.777  18.957  -1.206  1.00 20.00     0.120 C 
HETATM   10 CL10 UNL     1     -34.805  19.263   0.553  1.00 20.00    -0.130 Cl
ENDBRANCH   6   9
TORSDOF 1
ENDMDL
MODEL 4
REMARK VINA RESULT:      -3.3     11.431     12.439
REMARK  1 active torsions:
REMARK  status: ('A' for Active; 'I' for Inactive)
REMARK    1  A    between atoms: C6_6  and  C8_8 
ROOT
HETATM    1  C1  UNL     1     -34.009  18.406   0.702  1.00 20.00     0.011 C 
HETATM    2  C2  UNL     1     -34.618  19.019  -0.557  1.00 20.00     0.011 C 
HETATM    3  C3  UNL     1     -34.503  18.719  -3.123  1.00 20.00     0.017 A 
HETATM    4  C4  UNL     1     -32.596  18.909   0.981  1.00 20.00     0.074 C 
HETATM    5  C5  UNL     1     -32.392  19.263  -1.745  1.00 20.00     0.083 C 
HETATM    6  C6  UNL     1     -34.100  17.401  -2.523  1.00 20.00     0.009 A 
HETATM    7  C7  UNL     1     -33.789  18.697  -1.786  1.00 20.00    -0.027 A 
HETATM    8  S9  UNL     1     -31.457  18.518  -0.382  1.00 20.00    -0.168 SA
ENDROOT
BRANCH   6   9
HETATM    9  C8  UNL     1     -33.056  16.567  -3.186  1.00 20.00     0.120 C 
HETATM   10 CL10 UNL     1     -33.744  15.038  -3.799  1.00 20.00    -0.130 Cl
ENDBRANCH   6   9
TORSDOF 1
ENDMDL
MODEL 5
REMARK VINA RESULT:      -3.2     22.078     23.779
REMARK  1 active torsions:
REMARK  status: ('A' for Active; 'I' for Inactive)
REMARK    1  A    between atoms: C6_6  and  C8_8 
ROOT
HETATM    1  C1  UNL     1     -24.954  -1.183  12.035  1.00 20.00     0.011 C 
HETATM    2  C2  UNL     1     -23.957  -2.330  12.188  1.00 20.00     0.011 C 
HETATM    3  C3  UNL     1     -22.707  -4.035  10.700  1.00 20.00     0.017 A 
HETATM    4  C4  UNL     1     -26.389  -1.667  11.857  1.00 20.00     0.074 C 
HETATM    5  C5  UNL     1     -25.282  -3.928  10.734  1.00 20.00     0.083 C 
HETATM    6  C6  UNL     1     -23.042  -2.868   9.815  1.00 20.00     0.009 A 
HETATM    7  C7  UNL     1     -23.965  -3.235  10.971  1.00 20.00    -0.027 A 
HETATM    8  S9  UNL     1     -26.574  -2.707  10.376  1.00 20.00    -0.168 SA
ENDROOT
BRANCH   6   9
HETATM    9  C8  UNL     1     -23.395  -3.092   8.385  1.00 20.00     0.120 C 
HETATM   10 CL10 UNL     1     -22.190  -4.134   7.578  1.00 20.00    -0.130 Cl
ENDBRANCH   6   9
TORSDOF 1
ENDMDL
MODEL 6
REMARK VINA RESULT:      -3.1     13.195     13.963
REMARK  1 active torsions:
REMARK  status: ('A' for Active; 'I' for Inactive)
REMARK    1  A    between atoms: C6_6  and  C8_8 
ROOT
HETATM    1  C1  UNL     1     -37.200  17.024  -4.906  1.00 20.00     0.011 C 
HETATM    2  C2  UNL     1     -36.453  16.104  -5.869  1.00 20.00     0.011 C 
HETATM    3  C3  UNL     1     -34.103  15.058  -6.137  1.00 20.00     0.017 A 
HETATM    4  C4  UNL     1     -36.868  18.498  -5.119  1.00 20.00     0.074 C 
HETATM    5  C5  UNL     1     -34.424  17.615  -6.038  1.00 20.00     0.083 C 
HETATM    6  C6  UNL     1     -34.270  15.356  -4.673  1.00 20.00     0.009 A 
HETATM    7  C7  UNL     1     -34.951  16.240  -5.711  1.00 20.00    -0.027 A 
HETATM    8  S9  UNL     1     -35.096  18.834  -4.877  1.00 20.00    -0.168 SA
ENDROOT
BRANCH   6   9
HETATM    9  C8  UNL     1     -33.100  15.799  -3.863  1.00 20.00     0.120 C 
HETATM   10 CL10 UNL     1     -33.620  16.507  -2.309  1.00 20.00    -0.130 Cl
ENDBRANCH   6   9
TORSDOF 1
ENDMDL
MODEL 7
REMARK VINA RESULT:      -3.1     20.622     22.396
REMARK  1 active torsions:
REMARK  status: ('A' for Active; 'I' for Inactive)
REMARK    1  A    between atoms: C6_6  and  C8_8 
ROOT
HETATM    1  C1  UNL     1     -26.820  -0.320  11.492  1.00 20.00     0.011 C 
HETATM    2  C2  UNL     1     -25.959  -1.262  12.332  1.00 20.00     0.011 C 
HETATM    3  C3  UNL     1     -24.379  -3.280  11.993  1.00 20.00     0.017 A 
HETATM    4  C4  UNL     1     -28.150  -0.944  11.081  1.00 20.00     0.074 C 
HETATM    5  C5  UNL     1     -26.837  -3.364  11.221  1.00 20.00     0.083 C 
HETATM    6  C6  UNL     1     -24.386  -2.526  10.694  1.00 20.00     0.009 A 
HETATM    7  C7  UNL     1     -25.629  -2.534  11.575  1.00 20.00    -0.027 A 
HETATM    8  S9  UNL     1     -27.913  -2.448  10.085  1.00 20.00    -0.168 SA
ENDROOT
BRANCH   6   9
HETATM    9  C8  UNL     1     -24.295  -3.263   9.402  1.00 20.00     0.120 C 
HETATM   10 CL10 UNL     1     -22.780  -2.875   8.541  1.00 20.00    -0.130 Cl
ENDBRANCH   6   9
TORSDOF 1
ENDMDL
MODEL 8
REMARK VINA RESULT:      -3.1     13.624     14.453
REMARK  1 active torsions:
REMARK  status: ('A' for Active; 'I' for Inactive)
REMARK    1  A    between atoms: C6_6  and  C8_8 
ROOT
HETATM    1  C1  UNL     1     -32.923  15.354  -3.793  1.00 20.00     0.011 C 
HETATM    2  C2  UNL     1     -34.138  14.633  -4.372  1.00 20.00     0.011 C 
HETATM    3  C3  UNL     1     -35.742  14.829  -6.390  1.00 20.00     0.017 A 
HETATM    4  C4  UNL     1     -33.296  16.618  -3.025  1.00 20.00     0.074 C 
HETATM    5  C5  UNL     1     -35.482  16.757  -4.699  1.00 20.00     0.083 C 
HETATM    6  C6  UNL     1     -34.465  15.510  -6.796  1.00 20.00     0.009 A 
HETATM    7  C7  UNL     1     -34.901  15.520  -5.336  1.00 20.00    -0.027 A 
HETATM    8  S9  UNL     1     -34.153  17.825  -4.083  1.00 20.00    -0.168 SA
ENDROOT
BRANCH   6   9
HETATM    9  C8  UNL     1     -34.508  16.716  -7.670  1.00 20.00     0.120 C 
HETATM   10 CL10 UNL     1     -36.185  17.277  -7.917  1.00 20.00    -0.130 Cl
ENDBRANCH   6   9
TORSDOF 1
ENDMDL
MODEL 9
REMARK VINA RESULT:      -3.0      1.342      1.909
REMARK  1 active torsions:
REMARK  status: ('A' for Active; 'I' for Inactive)
REMARK    1  A    between atoms: C6_6  and  C8_8 
ROOT
HETATM    1  C1  UNL     1     -40.928  14.378   9.633  1.00 20.00     0.011 C 
HETATM    2  C2  UNL     1     -42.195  13.821   8.988  1.00 20.00     0.011 C 
HETATM    3  C3  UNL     1     -43.011  13.019   6.669  1.00 20.00     0.017 A 
HETATM    4  C4  UNL     1     -40.724  15.864   9.350  1.00 20.00     0.074 C 
HETATM    5  C5  UNL     1     -42.120  15.413   7.017  1.00 20.00     0.083 C 
HETATM    6  C6  UNL     1     -41.516  12.863   6.670  1.00 20.00     0.009 A 
HETATM    7  C7  UNL     1     -42.164  13.979   7.480  1.00 20.00    -0.027 A 
HETATM    8  S9  UNL     1     -40.583  16.201   7.568  1.00 20.00    -0.168 SA
ENDROOT
BRANCH   6   9
HETATM    9  C8  UNL     1     -40.740  13.105   5.420  1.00 20.00     0.120 C 
HETATM   10 CL10 UNL     1     -39.419  11.918   5.240  1.00 20.00    -0.130 Cl
ENDBRANCH   6   9
TORSDOF 1
ENDMDL
