MODEL 1
REMARK VINA RESULT:      -4.1      0.000      0.000
REMARK  1 active torsions:
REMARK  status: ('A' for Active; 'I' for Inactive)
REMARK    1  A    between atoms: C6_6  and  C11_11 
ROOT
HETATM    1  C1  UNL     1     -33.142  16.337  -3.234  1.00 20.00     0.002 C 
HETATM    2  C2  UNL     1     -33.648  16.611  -1.822  1.00 20.00     0.010 C 
HETATM    3  C3  UNL     1     -34.088  16.923  -4.285  1.00 20.00     0.009 C 
HETATM    4  C4  UNL     1     -33.989  18.576  -0.180  1.00 20.00     0.016 A 
HETATM    5  C5  UNL     1     -34.814  18.705  -2.630  1.00 20.00     0.018 C 
HETATM    6  C6  UNL     1     -32.797  18.981  -1.001  1.00 20.00     0.005 A 
HETATM    7  C7  UNL     1     -33.872  18.092  -1.611  1.00 20.00    -0.035 A 
HETATM    8  C8  UNL     1     -34.366  18.432  -4.087  1.00 20.00    -0.047 C 
HETATM    9  C9  UNL     1     -33.116  19.263  -4.435  1.00 20.00     0.015 C 
HETATM   10  C10 UNL     1     -35.497  18.859  -5.042  1.00 20.00     0.015 C 
ENDROOT
BRANCH   6  11
HETATM   11  C11 UNL     1     -31.438  18.483  -0.647  1.00 20.00     0.090 C 
HETATM   12 BR12 UNL     1     -31.160  18.567   1.282  1.00 20.00    -0.096 Br
ENDBRANCH   6  11
TORSDOF 1
ENDMDL
MODEL 2
REMARK VINA RESULT:      -3.5      2.803      4.688
REMARK  1 active torsions:
REMARK  status: ('A' for Active; 'I' for Inactive)
REMARK    1  A    between atoms: C6_6  and  C11_11 
ROOT
HETATM    1  C1  UNL     1     -33.009  19.003  -4.452  1.00 20.00     0.002 C 
HETATM    2  C2  UNL     1     -34.468  19.263  -4.812  1.00 20.00     0.010 C 
HETATM    3  C3  UNL     1     -32.816  18.937  -2.935  1.00 20.00     0.009 C 
HETATM    4  C4  UNL     1     -36.771  18.096  -4.737  1.00 20.00     0.016 A 
HETATM    5  C5  UNL     1     -35.211  18.141  -2.670  1.00 20.00     0.018 C 
HETATM    6  C6  UNL     1     -35.792  16.972  -4.929  1.00 20.00     0.005 A 
HETATM    7  C7  UNL     1     -35.368  18.227  -4.177  1.00 20.00    -0.035 A 
HETATM    8  C8  UNL     1     -33.742  17.907  -2.243  1.00 20.00    -0.047 C 
HETATM    9  C9  UNL     1     -33.300  16.470  -2.581  1.00 20.00     0.015 C 
HETATM   10  C10 UNL     1     -33.634  18.088  -0.717  1.00 20.00     0.015 C 
ENDROOT
BRANCH   6  11
HETATM   11  C11 UNL     1     -35.292  16.636  -6.292  1.00 20.00     0.090 C 
HETATM   12 BR12 UNL     1     -34.045  15.137  -6.212  1.00 20.00    -0.096 Br
ENDBRANCH   6  11
TORSDOF 1
ENDMDL
MODEL 3
REMARK VINA RESULT:      -3.5     12.297     13.468
REMARK  1 active torsions:
REMARK  status: ('A' for Active; 'I' for Inactive)
REMARK    1  A    between atoms: C6_6  and  C11_11 
ROOT
HETATM    1  C1  UNL     1     -42.486  15.188   5.746  1.00 20.00     0.002 C 
HETATM    2  C2  UNL     1     -41.590  15.950   6.717  1.00 20.00     0.010 C 
HETATM    3  C3  UNL     1     -41.743  14.006   5.119  1.00 20.00     0.009 C 
HETATM    4  C4  UNL     1     -40.452  15.658   9.017  1.00 20.00     0.016 A 
HETATM    5  C5  UNL     1     -40.274  13.840   7.182  1.00 20.00     0.018 C 
HETATM    6  C6  UNL     1     -41.708  14.840   9.118  1.00 20.00     0.005 A 
HETATM    7  C7  UNL     1     -41.027  15.021   7.768  1.00 20.00    -0.035 A 
HETATM    8  C8  UNL     1     -41.127  13.045   6.164  1.00 20.00    -0.047 C 
HETATM    9  C9  UNL     1     -42.232  12.249   6.885  1.00 20.00     0.015 C 
HETATM   10  C10 UNL     1     -40.217  12.036   5.437  1.00 20.00     0.015 C 
ENDROOT
BRANCH   6  11
HETATM   11  C11 UNL     1     -43.002  15.491   9.466  1.00 20.00     0.090 C 
HETATM   12 BR12 UNL     1     -42.691  17.136  10.468  1.00 20.00    -0.096 Br
ENDBRANCH   6  11
TORSDOF 1
ENDMDL
MODEL 4
REMARK VINA RESULT:      -3.4     12.026     13.972
REMARK  1 active torsions:
REMARK  status: ('A' for Active; 'I' for Inactive)
REMARK    1  A    between atoms: C6_6  and  C11_11 
ROOT
HETATM    1  C1  UNL     1     -42.174  16.275   6.801  1.00 20.00     0.002 C 
HETATM    2  C2  UNL     1     -42.975  15.014   6.495  1.00 20.00     0.010 C 
HETATM    3  C3  UNL     1     -42.169  16.579   8.301  1.00 20.00     0.009 C 
HETATM    4  C4  UNL     1     -42.865  12.457   6.845  1.00 20.00     0.016 A 
HETATM    5  C5  UNL     1     -42.451  14.106   8.797  1.00 20.00     0.018 C 
HETATM    6  C6  UNL     1     -41.427  12.879   6.736  1.00 20.00     0.005 A 
HETATM    7  C7  UNL     1     -42.460  13.844   7.303  1.00 20.00    -0.035 A 
HETATM    8  C8  UNL     1     -41.675  15.394   9.165  1.00 20.00    -0.047 C 
HETATM    9  C9  UNL     1     -40.159  15.187   8.982  1.00 20.00     0.015 C 
HETATM   10  C10 UNL     1     -41.930  15.720  10.649  1.00 20.00     0.015 C 
ENDROOT
BRANCH   6  11
HETATM   11  C11 UNL     1     -40.796  13.061   5.398  1.00 20.00     0.090 C 
HETATM   12 BR12 UNL     1     -39.195  11.956   5.242  1.00 20.00    -0.096 Br
ENDBRANCH   6  11
TORSDOF 1
ENDMDL
MODEL 5
REMARK VINA RESULT:      -3.3      3.132      4.911
REMARK  1 active torsions:
REMARK  status: ('A' for Active; 'I' for Inactive)
REMARK    1  A    between atoms: C6_6  and  C11_11 
ROOT
HETATM    1  C1  UNL     1     -33.969  15.582  -3.413  1.00 20.00     0.002 C 
HETATM    2  C2  UNL     1     -33.953  15.806  -4.921  1.00 20.00     0.010 C 
HETATM    3  C3  UNL     1     -33.181  16.672  -2.683  1.00 20.00     0.009 C 
HETATM    4  C4  UNL     1     -34.881  17.436  -6.698  1.00 20.00     0.016 A 
HETATM    5  C5  UNL     1     -33.694  18.297  -4.563  1.00 20.00     0.018 C 
HETATM    6  C6  UNL     1     -35.921  17.437  -5.614  1.00 20.00     0.005 A 
HETATM    7  C7  UNL     1     -34.460  17.190  -5.263  1.00 20.00    -0.035 A 
HETATM    8  C8  UNL     1     -33.651  18.106  -3.028  1.00 20.00    -0.047 C 
HETATM    9  C9  UNL     1     -35.033  18.386  -2.407  1.00 20.00     0.015 C 
HETATM   10  C10 UNL     1     -32.652  19.115  -2.431  1.00 20.00     0.015 C 
ENDROOT
BRANCH   6  11
HETATM   11  C11 UNL     1     -36.959  16.369  -5.568  1.00 20.00     0.090 C 
HETATM   12 BR12 UNL     1     -38.553  17.005  -4.640  1.00 20.00    -0.096 Br
ENDBRANCH   6  11
TORSDOF 1
ENDMDL
MODEL 6
REMARK VINA RESULT:      -3.3     24.625     26.164
REMARK  1 active torsions:
REMARK  status: ('A' for Active; 'I' for Inactive)
REMARK    1  A    between atoms: C6_6  and  C11_11 
ROOT
HETATM    1  C1  UNL     1     -27.221  -4.284  11.455  1.00 20.00     0.002 C 
HETATM    2  C2  UNL     1     -25.824  -4.234  12.063  1.00 20.00     0.010 C 
HETATM    3  C3  UNL     1     -28.058  -3.078  11.889  1.00 20.00     0.009 C 
HETATM    4  C4  UNL     1     -23.636  -2.869  11.907  1.00 20.00     0.016 A 
HETATM    5  C5  UNL     1     -25.938  -1.709  12.154  1.00 20.00     0.018 C 
HETATM    6  C6  UNL     1     -24.218  -2.797  10.523  1.00 20.00     0.005 A 
HETATM    7  C7  UNL     1     -25.140  -2.927  11.728  1.00 20.00    -0.035 A 
HETATM    8  C8  UNL     1     -27.379  -1.720  11.589  1.00 20.00    -0.047 C 
HETATM    9  C9  UNL     1     -27.370  -1.443  10.074  1.00 20.00     0.015 C 
HETATM   10  C10 UNL     1     -28.187  -0.599  12.270  1.00 20.00     0.015 C 
ENDROOT
BRANCH   6  11
HETATM   11  C11 UNL     1     -23.989  -3.906   9.554  1.00 20.00     0.090 C 
HETATM   12 BR12 UNL     1     -23.170  -3.225   7.919  1.00 20.00    -0.096 Br
ENDBRANCH   6  11
TORSDOF 1
ENDMDL
MODEL 7
REMARK VINA RESULT:      -3.3     24.817     26.286
REMARK  1 active torsions:
REMARK  status: ('A' for Active; 'I' for Inactive)
REMARK    1  A    between atoms: C6_6  and  C11_11 
ROOT
HETATM    1  C1  UNL     1     -25.842  -4.485  12.328  1.00 20.00     0.002 C 
HETATM    2  C2  UNL     1     -26.957  -4.373  11.294  1.00 20.00     0.010 C 
HETATM    3  C3  UNL     1     -24.475  -4.199  11.702  1.00 20.00     0.009 C 
HETATM    4  C4  UNL     1     -28.168  -2.597   9.862  1.00 20.00     0.016 A 
HETATM    5  C5  UNL     1     -25.583  -2.710   9.972  1.00 20.00     0.018 C 
HETATM    6  C6  UNL     1     -27.770  -1.860  11.110  1.00 20.00     0.005 A 
HETATM    7  C7  UNL     1     -26.922  -3.023  10.613  1.00 20.00    -0.035 A 
HETATM    8  C8  UNL     1     -24.407  -2.837  10.970  1.00 20.00    -0.047 C 
HETATM    9  C9  UNL     1     -24.427  -1.677  11.984  1.00 20.00     0.015 C 
HETATM   10  C10 UNL     1     -23.082  -2.758  10.188  1.00 20.00     0.015 C 
ENDROOT
BRANCH   6  11
HETATM   11  C11 UNL     1     -28.620  -1.939  12.332  1.00 20.00     0.090 C 
HETATM   12 BR12 UNL     1     -30.355  -2.724  11.907  1.00 20.00    -0.096 Br
ENDBRANCH   6  11
TORSDOF 1
ENDMDL
MODEL 8
REMARK VINA RESULT:      -3.2      2.466      3.588
REMARK  1 active torsions:
REMARK  status: ('A' for Active; 'I' for Inactive)
REMARK    1  A    between atoms: C6_6  and  C11_11 
ROOT
HETATM    1  C1  UNL     1     -34.164  19.031  -5.428  1.00 20.00     0.002 C 
HETATM    2  C2  UNL     1     -33.196  18.803  -4.272  1.00 20.00     0.010 C 
HETATM    3  C3  UNL     1     -34.276  17.786  -6.310  1.00 20.00     0.009 C 
HETATM    4  C4  UNL     1     -32.995  17.438  -2.088  1.00 20.00     0.016 A 
HETATM    5  C5  UNL     1     -33.705  16.326  -4.316  1.00 20.00     0.018 C 
HETATM    6  C6  UNL     1     -34.469  17.695  -2.231  1.00 20.00     0.005 A 
HETATM    7  C7  UNL     1     -33.594  17.583  -3.473  1.00 20.00    -0.035 A 
HETATM    8  C8  UNL     1     -34.655  16.508  -5.524  1.00 20.00    -0.047 C 
HETATM    9  C9  UNL     1     -36.121  16.575  -5.058  1.00 20.00     0.015 C 
HETATM   10  C10 UNL     1     -34.511  15.290  -6.456  1.00 20.00     0.015 C 
ENDROOT
BRANCH   6  11
HETATM   11  C11 UNL     1     -35.055  18.984  -1.767  1.00 20.00     0.090 C 
HETATM   12 BR12 UNL     1     -36.812  19.262  -2.569  1.00 20.00    -0.096 Br
ENDBRANCH   6  11
TORSDOF 1
ENDMDL
MODEL 9
REMARK VINA RESULT:      -3.2      3.007      4.413
REMARK  1 active torsions:
REMARK  status: ('A' for Active; 'I' for Inactive)
REMARK    1  A    between atoms: C6_6  and  C11_11 
ROOT
HETATM    1  C1  UNL     1     -34.689  17.539  -6.769  1.00 20.00     0.002 C 
HETATM    2  C2  UNL     1     -34.243  16.102  -6.520  1.00 20.00     0.010 C 
HETATM    3  C3  UNL     1     -36.204  17.622  -6.970  1.00 20.00     0.009 C 
HETATM    4  C4  UNL     1     -34.417  14.250  -4.727  1.00 20.00     0.016 A 
HETATM    5  C5  UNL     1     -36.504  15.558  -5.525  1.00 20.00     0.018 C 
HETATM    6  C6  UNL     1     -34.433  15.531  -3.941  1.00 20.00     0.005 A 
HETATM    7  C7  UNL     1     -34.998  15.502  -5.355  1.00 20.00    -0.035 A 
HETATM    8  C8  UNL     1     -37.012  16.992  -5.811  1.00 20.00    -0.047 C 
HETATM    9  C9  UNL     1     -36.915  17.865  -4.546  1.00 20.00     0.015 C 
HETATM   10  C10 UNL     1     -38.496  16.919  -6.221  1.00 20.00     0.015 C 
ENDROOT
BRANCH   6  11
HETATM   11  C11 UNL     1     -33.155  16.214  -3.592  1.00 20.00     0.090 C 
HETATM   12 BR12 UNL     1     -33.374  17.289  -1.978  1.00 20.00    -0.096 Br
ENDBRANCH   6  11
TORSDOF 1
ENDMDL
