MODEL 1
REMARK VINA RESULT:      -4.5      0.000      0.000
REMARK  2 active torsions:
REMARK  status: ('A' for Active; 'I' for Inactive)
REMARK    1  A    between atoms: C3_3  and  C7_7 
REMARK    2  A    between atoms: C4_4  and  O8_8 
ROOT
HETATM    1  C1  UNL     1     -34.042   7.018   6.200  1.00 20.00     0.037 C 
HETATM    2  C2  UNL     1     -33.759   7.769   4.877  1.00 20.00    -0.010 C 
HETATM    3  C3  UNL     1     -34.118   6.445   4.128  1.00 20.00     0.018 C 
HETATM    4  C4  UNL     1     -34.930   6.043   5.396  1.00 20.00     0.122 C 
HETATM    5  C5  UNL     1     -32.376   8.369   4.725  1.00 20.00     0.010 C 
ENDROOT
BRANCH   3   6
HETATM    6  C7  UNL     1     -32.986   5.513   3.721  1.00 20.00     0.003 C 
HETATM    7  C6  UNL     1     -33.028   5.190   2.262  1.00 20.00     0.005 C 
ENDBRANCH   3   6
BRANCH   4   8
HETATM    8  O8  UNL     1     -34.877   4.661   5.789  1.00 20.00    -0.395 OA
HETATM    9  H22 UNL     1     -34.067   4.565   6.307  1.00 20.00     0.210 HD
ENDBRANCH   4   8
TORSDOF 2
ENDMDL
MODEL 2
REMARK VINA RESULT:      -4.3      2.061      3.468
REMARK  2 active torsions:
REMARK  status: ('A' for Active; 'I' for Inactive)
REMARK    1  A    between atoms: C3_3  and  C7_7 
REMARK    2  A    between atoms: C4_4  and  O8_8 
ROOT
HETATM    1  C1  UNL     1     -32.057   7.477   3.382  1.00 20.00     0.037 C 
HETATM    2  C2  UNL     1     -33.366   6.658   3.290  1.00 20.00    -0.010 C 
HETATM    3  C3  UNL     1     -33.798   7.323   4.635  1.00 20.00     0.018 C 
HETATM    4  C4  UNL     1     -32.808   8.476   4.291  1.00 20.00     0.122 C 
HETATM    5  C5  UNL     1     -33.213   5.152   3.207  1.00 20.00     0.010 C 
ENDROOT
BRANCH   3   6
HETATM    6  C7  UNL     1     -33.539   6.569   5.932  1.00 20.00     0.003 C 
HETATM    7  C6  UNL     1     -34.755   5.836   6.403  1.00 20.00     0.005 C 
ENDBRANCH   3   6
BRANCH   4   8
HETATM    8  O8  UNL     1     -32.057   9.034   5.383  1.00 20.00    -0.395 OA
HETATM    9  H22 UNL     1     -31.184   8.622   5.341  1.00 20.00     0.210 HD
ENDBRANCH   4   8
TORSDOF 2
ENDMDL
MODEL 3
REMARK VINA RESULT:      -4.3      1.704      3.099
REMARK  2 active torsions:
REMARK  status: ('A' for Active; 'I' for Inactive)
REMARK    1  A    between atoms: C3_3  and  C7_7 
REMARK    2  A    between atoms: C4_4  and  O8_8 
ROOT
HETATM    1  C1  UNL     1     -34.059   4.612   4.431  1.00 20.00     0.037 C 
HETATM    2  C2  UNL     1     -34.896   5.656   5.208  1.00 20.00    -0.010 C 
HETATM    3  C3  UNL     1     -34.137   6.761   4.407  1.00 20.00     0.018 C 
HETATM    4  C4  UNL     1     -33.856   5.674   3.327  1.00 20.00     0.122 C 
HETATM    5  C5  UNL     1     -34.791   5.614   6.719  1.00 20.00     0.010 C 
ENDROOT
BRANCH   3   6
HETATM    6  C7  UNL     1     -32.920   7.414   5.047  1.00 20.00     0.003 C 
HETATM    7  C6  UNL     1     -32.611   8.741   4.432  1.00 20.00     0.005 C 
ENDBRANCH   3   6
BRANCH   4   8
HETATM    8  O8  UNL     1     -32.563   5.702   2.698  1.00 20.00    -0.395 OA
HETATM    9  H22 UNL     1     -32.172   6.552   2.938  1.00 20.00     0.210 HD
ENDBRANCH   4   8
TORSDOF 2
ENDMDL
MODEL 4
REMARK VINA RESULT:      -3.9      2.052      2.742
REMARK  2 active torsions:
REMARK  status: ('A' for Active; 'I' for Inactive)
REMARK    1  A    between atoms: C3_3  and  C7_7 
REMARK    2  A    between atoms: C4_4  and  O8_8 
ROOT
HETATM    1  C1  UNL     1     -33.791   8.422   5.498  1.00 20.00     0.037 C 
HETATM    2  C2  UNL     1     -33.523   6.973   5.969  1.00 20.00    -0.010 C 
HETATM    3  C3  UNL     1     -32.859   6.715   4.579  1.00 20.00     0.018 C 
HETATM    4  C4  UNL     1     -32.630   8.254   4.492  1.00 20.00     0.122 C 
HETATM    5  C5  UNL     1     -34.735   6.165   6.387  1.00 20.00     0.010 C 
ENDROOT
BRANCH   3   6
HETATM    6  C7  UNL     1     -33.704   6.091   3.477  1.00 20.00     0.003 C 
HETATM    7  C6  UNL     1     -32.906   5.157   2.624  1.00 20.00     0.005 C 
ENDBRANCH   3   6
BRANCH   4   8
HETATM    8  O8  UNL     1     -32.809   8.866   3.203  1.00 20.00    -0.395 OA
HETATM    9  H22 UNL     1     -32.098   8.522   2.647  1.00 20.00     0.210 HD
ENDBRANCH   4   8
TORSDOF 2
ENDMDL
MODEL 5
REMARK VINA RESULT:      -3.7      1.673      2.390
REMARK  2 active torsions:
REMARK  status: ('A' for Active; 'I' for Inactive)
REMARK    1  A    between atoms: C3_3  and  C7_7 
REMARK    2  A    between atoms: C4_4  and  O8_8 
ROOT
HETATM    1  C1  UNL     1     -32.070   8.419   4.711  1.00 20.00     0.037 C 
HETATM    2  C2  UNL     1     -32.940   8.298   3.437  1.00 20.00    -0.010 C 
HETATM    3  C3  UNL     1     -33.881   7.353   4.251  1.00 20.00     0.018 C 
HETATM    4  C4  UNL     1     -33.317   8.031   5.537  1.00 20.00     0.122 C 
HETATM    5  C5  UNL     1     -32.245   7.781   2.194  1.00 20.00     0.010 C 
ENDROOT
BRANCH   3   6
HETATM    6  C7  UNL     1     -33.678   5.849   4.131  1.00 20.00     0.003 C 
HETATM    7  C6  UNL     1     -34.819   5.084   4.723  1.00 20.00     0.005 C 
ENDBRANCH   3   6
BRANCH   4   8
HETATM    8  O8  UNL     1     -33.090   7.180   6.673  1.00 20.00    -0.395 OA
HETATM    9  H22 UNL     1     -32.315   7.541   7.122  1.00 20.00     0.210 HD
ENDBRANCH   4   8
TORSDOF 2
ENDMDL
MODEL 6
REMARK VINA RESULT:      -3.4     12.897     13.578
REMARK  2 active torsions:
REMARK  status: ('A' for Active; 'I' for Inactive)
REMARK    1  A    between atoms: C3_3  and  C7_7 
REMARK    2  A    between atoms: C4_4  and  O8_8 
ROOT
HETATM    1  C1  UNL     1     -33.222  16.006  -3.697  1.00 20.00     0.037 C 
HETATM    2  C2  UNL     1     -34.453  16.757  -4.258  1.00 20.00    -0.010 C 
HETATM    3  C3  UNL     1     -34.738  15.496  -5.135  1.00 20.00     0.018 C 
HETATM    4  C4  UNL     1     -33.914  14.682  -4.092  1.00 20.00     0.122 C 
HETATM    5  C5  UNL     1     -34.184  18.092  -4.922  1.00 20.00     0.010 C 
ENDROOT
BRANCH   3   6
HETATM    6  C7  UNL     1     -34.225  15.479  -6.568  1.00 20.00     0.003 C 
HETATM    7  C6  UNL     1     -35.344  15.463  -7.561  1.00 20.00     0.005 C 
ENDBRANCH   3   6
BRANCH   4   8
HETATM    8  O8  UNL     1     -33.062  13.644  -4.604  1.00 20.00    -0.395 OA
HETATM    9  H22 UNL     1     -33.071  12.944  -3.939  1.00 20.00     0.210 HD
ENDBRANCH   4   8
TORSDOF 2
ENDMDL
MODEL 7
REMARK VINA RESULT:      -3.4     12.890     13.756
REMARK  2 active torsions:
REMARK  status: ('A' for Active; 'I' for Inactive)
REMARK    1  A    between atoms: C3_3  and  C7_7 
REMARK    2  A    between atoms: C4_4  and  O8_8 
ROOT
HETATM    1  C1  UNL     1     -32.727  15.035  -4.196  1.00 20.00     0.037 C 
HETATM    2  C2  UNL     1     -33.772  15.810  -3.361  1.00 20.00    -0.010 C 
HETATM    3  C3  UNL     1     -34.581  16.010  -4.682  1.00 20.00     0.018 C 
HETATM    4  C4  UNL     1     -33.839  14.755  -5.232  1.00 20.00     0.122 C 
HETATM    5  C5  UNL     1     -33.264  17.017  -2.598  1.00 20.00     0.010 C 
ENDROOT
BRANCH   3   6
HETATM    6  C7  UNL     1     -34.392  17.306  -5.458  1.00 20.00     0.003 C 
HETATM    7  C6  UNL     1     -35.698  17.972  -5.757  1.00 20.00     0.005 C 
ENDBRANCH   3   6
BRANCH   4   8
HETATM    8  O8  UNL     1     -33.446  14.787  -6.615  1.00 20.00    -0.395 OA
HETATM    9  H22 UNL     1     -34.178  14.390  -7.106  1.00 20.00     0.210 HD
ENDBRANCH   4   8
TORSDOF 2
ENDMDL
MODEL 8
REMARK VINA RESULT:      -3.4     12.484     13.468
REMARK  2 active torsions:
REMARK  status: ('A' for Active; 'I' for Inactive)
REMARK    1  A    between atoms: C3_3  and  C7_7 
REMARK    2  A    between atoms: C4_4  and  O8_8 
ROOT
HETATM    1  C1  UNL     1     -35.148  15.375  -5.438  1.00 20.00     0.037 C 
HETATM    2  C2  UNL     1     -34.800  16.853  -5.143  1.00 20.00    -0.010 C 
HETATM    3  C3  UNL     1     -33.566  16.332  -4.339  1.00 20.00     0.018 C 
HETATM    4  C4  UNL     1     -33.662  15.030  -5.190  1.00 20.00     0.122 C 
HETATM    5  C5  UNL     1     -35.867  17.669  -4.441  1.00 20.00     0.010 C 
ENDROOT
BRANCH   3   6
HETATM    6  C7  UNL     1     -33.699  16.170  -2.831  1.00 20.00     0.003 C 
HETATM    7  C6  UNL     1     -33.019  17.276  -2.089  1.00 20.00     0.005 C 
ENDBRANCH   3   6
BRANCH   4   8
HETATM    8  O8  UNL     1     -33.399  13.790  -4.512  1.00 20.00    -0.395 OA
HETATM    9  H22 UNL     1     -34.240  13.520  -4.120  1.00 20.00     0.210 HD
ENDBRANCH   4   8
TORSDOF 2
ENDMDL
MODEL 9
REMARK VINA RESULT:      -3.3      1.766      2.876
REMARK  2 active torsions:
REMARK  status: ('A' for Active; 'I' for Inactive)
REMARK    1  A    between atoms: C3_3  and  C7_7 
REMARK    2  A    between atoms: C4_4  and  O8_8 
ROOT
HETATM    1  C1  UNL     1     -32.529   7.624   2.817  1.00 20.00     0.037 C 
HETATM    2  C2  UNL     1     -32.457   7.834   4.348  1.00 20.00    -0.010 C 
HETATM    3  C3  UNL     1     -33.044   6.395   4.506  1.00 20.00     0.018 C 
HETATM    4  C4  UNL     1     -32.495   6.101   3.078  1.00 20.00     0.122 C 
HETATM    5  C5  UNL     1     -33.216   9.024   4.901  1.00 20.00     0.010 C 
ENDROOT
BRANCH   3   6
HETATM    6  C7  UNL     1     -34.546   6.243   4.702  1.00 20.00     0.003 C 
HETATM    7  C6  UNL     1     -34.870   5.437   5.920  1.00 20.00     0.005 C 
ENDBRANCH   3   6
BRANCH   4   8
HETATM    8  O8  UNL     1     -33.316   5.288   2.222  1.00 20.00    -0.395 OA
HETATM    9  H22 UNL     1     -32.748   4.567   1.920  1.00 20.00     0.210 HD
ENDBRANCH   4   8
TORSDOF 2
ENDMDL
