MODEL 1
REMARK VINA RESULT:      -4.3      0.000      0.000
REMARK  3 active torsions:
REMARK  status: ('A' for Active; 'I' for Inactive)
REMARK    1  A    between atoms: C4_4  and  C6_6 
REMARK    2  A    between atoms: C5_5  and  C8_8 
REMARK    3  A    between atoms: C6_6  and  C9_9 
ROOT
HETATM    1  C3  UNL     1     -31.574   7.872   3.874  1.00 20.00     0.017 A 
HETATM    2  C5  UNL     1     -32.548   8.339   2.830  1.00 20.00     0.009 A 
HETATM    3  C6  UNL     1     -32.890   7.134   3.697  1.00 20.00    -0.032 A 
ENDROOT
BRANCH   3   4
HETATM    4  C4  UNL     1     -33.997   7.265   4.755  1.00 20.00    -0.006 A 
HETATM    5  C1  UNL     1     -33.784   6.906   6.200  1.00 20.00     0.006 A 
HETATM    6  C2  UNL     1     -33.992   8.341   5.805  1.00 20.00     0.006 A 
ENDBRANCH   3   4
BRANCH   3   7
HETATM    7  C9  UNL     1     -32.814   5.755   3.086  1.00 20.00     0.006 C 
HETATM    8  C7  UNL     1     -33.878   4.840   3.615  1.00 20.00     0.006 C 
ENDBRANCH   3   7
BRANCH   2   9
HETATM    9  C8  UNL     1     -32.213   8.228   1.382  1.00 20.00     0.120 C 
HETATM   10 CL10 UNL     1     -32.807   9.645   0.472  1.00 20.00    -0.130 Cl
ENDBRANCH   2   9
TORSDOF 3
ENDMDL
MODEL 2
REMARK VINA RESULT:      -4.1      8.833     10.570
REMARK  3 active torsions:
REMARK  status: ('A' for Active; 'I' for Inactive)
REMARK    1  A    between atoms: C4_4  and  C6_6 
REMARK    2  A    between atoms: C5_5  and  C8_8 
REMARK    3  A    between atoms: C6_6  and  C9_9 
ROOT
HETATM    1  C3  UNL     1     -42.309  12.841   6.718  1.00 20.00     0.017 A 
HETATM    2  C5  UNL     1     -42.056  13.450   5.369  1.00 20.00     0.009 A 
HETATM    3  C6  UNL     1     -40.880  13.107   6.275  1.00 20.00    -0.032 A 
ENDROOT
BRANCH   3   4
HETATM    4  C4  UNL     1     -39.960  11.937   5.893  1.00 20.00    -0.006 A 
HETATM    5  C1  UNL     1     -39.395  11.766   4.510  1.00 20.00     0.006 A 
HETATM    6  C2  UNL     1     -38.485  12.108   5.656  1.00 20.00     0.006 A 
ENDBRANCH   3   4
BRANCH   3   7
HETATM    7  C9  UNL     1     -40.152  14.229   6.977  1.00 20.00     0.006 C 
HETATM    8  C7  UNL     1     -40.420  14.243   8.453  1.00 20.00     0.006 C 
ENDBRANCH   3   7
BRANCH   2   9
HETATM    9  C8  UNL     1     -42.477  14.851   5.082  1.00 20.00     0.120 C 
HETATM   10 CL10 UNL     1     -42.382  15.208   3.335  1.00 20.00    -0.130 Cl
ENDBRANCH   2   9
TORSDOF 3
ENDMDL
MODEL 3
REMARK VINA RESULT:      -3.7      9.448     10.300
REMARK  3 active torsions:
REMARK  status: ('A' for Active; 'I' for Inactive)
REMARK    1  A    between atoms: C4_4  and  C6_6 
REMARK    2  A    between atoms: C5_5  and  C8_8 
REMARK    3  A    between atoms: C6_6  and  C9_9 
ROOT
HETATM    1  C3  UNL     1     -40.995   5.243  -0.692  1.00 20.00     0.017 A 
HETATM    2  C5  UNL     1     -42.431   5.398  -1.104  1.00 20.00     0.009 A 
HETATM    3  C6  UNL     1     -41.996   5.825   0.293  1.00 20.00    -0.032 A 
ENDROOT
BRANCH   3   4
HETATM    4  C4  UNL     1     -41.958   7.322   0.638  1.00 20.00    -0.006 A 
HETATM    5  C1  UNL     1     -40.744   7.989   1.224  1.00 20.00     0.006 A 
HETATM    6  C2  UNL     1     -41.183   8.323  -0.174  1.00 20.00     0.006 A 
ENDBRANCH   3   4
BRANCH   3   7
HETATM    7  C9  UNL     1     -42.371   4.955   1.468  1.00 20.00     0.006 C 
HETATM    8  C7  UNL     1     -43.416   5.591   2.335  1.00 20.00     0.006 C 
ENDBRANCH   3   7
BRANCH   2   9
HETATM    9  C8  UNL     1     -43.277   4.198  -1.358  1.00 20.00     0.120 C 
HETATM   10 CL10 UNL     1     -42.795   3.377  -2.869  1.00 20.00    -0.130 Cl
ENDBRANCH   2   9
TORSDOF 3
ENDMDL
MODEL 4
REMARK VINA RESULT:      -3.6      9.454     11.241
REMARK  3 active torsions:
REMARK  status: ('A' for Active; 'I' for Inactive)
REMARK    1  A    between atoms: C4_4  and  C6_6 
REMARK    2  A    between atoms: C5_5  and  C8_8 
REMARK    3  A    between atoms: C6_6  and  C9_9 
ROOT
HETATM    1  C3  UNL     1     -41.092  15.161   7.053  1.00 20.00     0.017 A 
HETATM    2  C5  UNL     1     -40.403  14.402   8.152  1.00 20.00     0.009 A 
HETATM    3  C6  UNL     1     -40.951  13.652   6.944  1.00 20.00    -0.032 A 
ENDROOT
BRANCH   3   4
HETATM    4  C4  UNL     1     -39.967  13.040   5.936  1.00 20.00    -0.006 A 
HETATM    5  C1  UNL     1     -38.890  12.070   6.339  1.00 20.00     0.006 A 
HETATM    6  C2  UNL     1     -40.043  11.604   5.496  1.00 20.00     0.006 A 
ENDBRANCH   3   4
BRANCH   3   7
HETATM    7  C9  UNL     1     -42.216  12.842   7.105  1.00 20.00     0.006 C 
HETATM    8  C7  UNL     1     -43.350  13.393   6.292  1.00 20.00     0.006 C 
ENDBRANCH   3   7
BRANCH   2   9
HETATM    9  C8  UNL     1     -41.016  14.315   9.508  1.00 20.00     0.120 C 
HETATM   10 CL10 UNL     1     -40.083  15.263  10.699  1.00 20.00    -0.130 Cl
ENDBRANCH   2   9
TORSDOF 3
ENDMDL
MODEL 5
REMARK VINA RESULT:      -3.6      9.473     11.112
REMARK  3 active torsions:
REMARK  status: ('A' for Active; 'I' for Inactive)
REMARK    1  A    between atoms: C4_4  and  C6_6 
REMARK    2  A    between atoms: C5_5  and  C8_8 
REMARK    3  A    between atoms: C6_6  and  C9_9 
ROOT
HETATM    1  C3  UNL     1     -42.278  12.423   6.793  1.00 20.00     0.017 A 
HETATM    2  C5  UNL     1     -40.792  12.560   6.623  1.00 20.00     0.009 A 
HETATM    3  C6  UNL     1     -41.687  13.782   6.457  1.00 20.00    -0.032 A 
ENDROOT
BRANCH   3   4
HETATM    4  C4  UNL     1     -41.643  14.889   7.521  1.00 20.00    -0.006 A 
HETATM    5  C1  UNL     1     -40.355  15.429   8.079  1.00 20.00     0.006 A 
HETATM    6  C2  UNL     1     -41.220  16.298   7.209  1.00 20.00     0.006 A 
ENDBRANCH   3   4
BRANCH   3   7
HETATM    7  C9  UNL     1     -41.948  14.306   5.065  1.00 20.00     0.006 C 
HETATM    8  C7  UNL     1     -43.413  14.458   4.781  1.00 20.00     0.006 C 
ENDBRANCH   3   7
BRANCH   2   9
HETATM    9  C8  UNL     1     -40.099  11.900   5.480  1.00 20.00     0.120 C 
HETATM   10 CL10 UNL     1     -38.331  12.128   5.580  1.00 20.00    -0.130 Cl
ENDBRANCH   2   9
TORSDOF 3
ENDMDL
MODEL 6
REMARK VINA RESULT:      -3.6     11.381     12.623
REMARK  3 active torsions:
REMARK  status: ('A' for Active; 'I' for Inactive)
REMARK    1  A    between atoms: C4_4  and  C6_6 
REMARK    2  A    between atoms: C5_5  and  C8_8 
REMARK    3  A    between atoms: C6_6  and  C9_9 
ROOT
HETATM    1  C3  UNL     1     -33.387  18.846  -3.747  1.00 20.00     0.017 A 
HETATM    2  C5  UNL     1     -34.488  19.263  -2.814  1.00 20.00     0.009 A 
HETATM    3  C6  UNL     1     -33.302  18.471  -2.277  1.00 20.00    -0.032 A 
ENDROOT
BRANCH   3   4
HETATM    4  C4  UNL     1     -32.289  19.173  -1.359  1.00 20.00    -0.006 A 
HETATM    5  C1  UNL     1     -32.452  19.233   0.135  1.00 20.00     0.006 A 
HETATM    6  C2  UNL     1     -31.341  18.419  -0.468  1.00 20.00     0.006 A 
ENDBRANCH   3   4
BRANCH   3   7
HETATM    7  C9  UNL     1     -33.496  17.012  -1.939  1.00 20.00     0.006 C 
HETATM    8  C7  UNL     1     -33.263  16.120  -3.121  1.00 20.00     0.006 C 
ENDBRANCH   3   7
BRANCH   2   9
HETATM    9  C8  UNL     1     -35.854  18.684  -2.952  1.00 20.00     0.120 C 
HETATM   10 CL10 UNL     1     -36.081  17.940  -4.559  1.00 20.00    -0.130 Cl
ENDBRANCH   2   9
TORSDOF 3
ENDMDL
MODEL 7
REMARK VINA RESULT:      -3.6      9.323     11.083
REMARK  3 active torsions:
REMARK  status: ('A' for Active; 'I' for Inactive)
REMARK    1  A    between atoms: C4_4  and  C6_6 
REMARK    2  A    between atoms: C5_5  and  C8_8 
REMARK    3  A    between atoms: C6_6  and  C9_9 
ROOT
HETATM    1  C3  UNL     1     -41.477  13.978   5.679  1.00 20.00     0.017 A 
HETATM    2  C5  UNL     1     -41.046  12.627   6.173  1.00 20.00     0.009 A 
HETATM    3  C6  UNL     1     -41.509  13.683   7.170  1.00 20.00    -0.032 A 
ENDROOT
BRANCH   3   4
HETATM    4  C4  UNL     1     -42.852  13.492   7.890  1.00 20.00    -0.006 A 
HETATM    5  C1  UNL     1     -43.417  12.135   8.207  1.00 20.00     0.006 A 
HETATM    6  C2  UNL     1     -42.950  13.032   9.319  1.00 20.00     0.006 A 
ENDBRANCH   3   4
BRANCH   3   7
HETATM    7  C9  UNL     1     -40.475  14.383   8.019  1.00 20.00     0.006 C 
HETATM    8  C7  UNL     1     -40.445  15.862   7.774  1.00 20.00     0.006 C 
ENDBRANCH   3   7
BRANCH   2   9
HETATM    9  C8  UNL     1     -39.625  12.196   6.050  1.00 20.00     0.120 C 
HETATM   10 CL10 UNL     1     -39.274  11.594   4.405  1.00 20.00    -0.130 Cl
ENDBRANCH   2   9
TORSDOF 3
ENDMDL
MODEL 8
REMARK VINA RESULT:      -3.4     10.751     12.470
REMARK  3 active torsions:
REMARK  status: ('A' for Active; 'I' for Inactive)
REMARK    1  A    between atoms: C4_4  and  C6_6 
REMARK    2  A    between atoms: C5_5  and  C8_8 
REMARK    3  A    between atoms: C6_6  and  C9_9 
ROOT
HETATM    1  C3  UNL     1     -32.846  18.209  -3.387  1.00 20.00     0.017 A 
HETATM    2  C5  UNL     1     -33.460  17.480  -2.227  1.00 20.00     0.009 A 
HETATM    3  C6  UNL     1     -33.836  17.086  -3.650  1.00 20.00    -0.032 A 
ENDROOT
BRANCH   3   4
HETATM    4  C4  UNL     1     -33.347  15.741  -4.207  1.00 20.00    -0.006 A 
HETATM    5  C1  UNL     1     -34.099  14.455  -4.001  1.00 20.00     0.006 A 
HETATM    6  C2  UNL     1     -34.005  15.058  -5.374  1.00 20.00     0.006 A 
ENDBRANCH   3   4
BRANCH   3   7
HETATM    7  C9  UNL     1     -35.190  17.491  -4.181  1.00 20.00     0.006 C 
HETATM    8  C7  UNL     1     -35.094  18.558  -5.230  1.00 20.00     0.006 C 
ENDBRANCH   3   7
BRANCH   2   9
HETATM    9  C8  UNL     1     -34.396  18.181  -1.304  1.00 20.00     0.120 C 
HETATM   10 CL10 UNL     1     -33.884  17.999   0.397  1.00 20.00    -0.130 Cl
ENDBRANCH   2   9
TORSDOF 3
ENDMDL
MODEL 9
REMARK VINA RESULT:      -3.4      2.901      4.049
REMARK  3 active torsions:
REMARK  status: ('A' for Active; 'I' for Inactive)
REMARK    1  A    between atoms: C4_4  and  C6_6 
REMARK    2  A    between atoms: C5_5  and  C8_8 
REMARK    3  A    between atoms: C6_6  and  C9_9 
ROOT
HETATM    1  C3  UNL     1     -35.431   6.181   4.201  1.00 20.00     0.017 A 
HETATM    2  C5  UNL     1     -34.741   6.209   5.535  1.00 20.00     0.009 A 
HETATM    3  C6  UNL     1     -33.938   6.458   4.264  1.00 20.00    -0.032 A 
ENDROOT
BRANCH   3   4
HETATM    4  C4  UNL     1     -33.404   7.871   3.983  1.00 20.00    -0.006 A 
HETATM    5  C1  UNL     1     -32.654   8.674   5.010  1.00 20.00     0.006 A 
HETATM    6  C2  UNL     1     -31.941   8.162   3.790  1.00 20.00     0.006 A 
ENDBRANCH   3   4
BRANCH   3   7
HETATM    7  C9  UNL     1     -33.027   5.367   3.756  1.00 20.00     0.006 C 
HETATM    8  C7  UNL     1     -33.141   5.176   2.273  1.00 20.00     0.006 C 
ENDBRANCH   3   7
BRANCH   2   9
HETATM    9  C8  UNL     1     -34.612   4.965   6.345  1.00 20.00     0.120 C 
HETATM   10 CL10 UNL     1     -33.064   4.931   7.233  1.00 20.00    -0.130 Cl
ENDBRANCH   2   9
TORSDOF 3
ENDMDL
