MODEL 1
REMARK VINA RESULT:      -4.4      0.000      0.000
REMARK  2 active torsions:
REMARK  status: ('A' for Active; 'I' for Inactive)
REMARK    1  A    between atoms: C4_4  and  C9_9 
REMARK    2  A    between atoms: C5_5  and  C6_6 
ROOT
HETATM    1  C3  UNL     1     -31.994   7.167   3.221  1.00 20.00     0.017 A 
HETATM    2  C4  UNL     1     -33.152   8.008   2.764  1.00 20.00     0.009 A 
HETATM    3  C6  UNL     1     -32.994   7.677   4.247  1.00 20.00    -0.032 A 
HETATM    4  C8  UNL     1     -32.508   8.756   5.184  1.00 20.00     0.016 C 
ENDROOT
BRANCH   3   5
HETATM    5  C5  UNL     1     -33.987   6.707   4.907  1.00 20.00    -0.036 A 
HETATM    6  C1  UNL     1     -35.263   6.323   4.194  1.00 20.00     0.011 A 
HETATM    7  C2  UNL     1     -34.166   5.311   4.358  1.00 20.00     0.011 A 
HETATM    8  C7  UNL     1     -34.072   6.856   6.406  1.00 20.00     0.016 C 
ENDBRANCH   3   5
BRANCH   2   9
HETATM    9  C9  UNL     1     -32.923   9.372   2.209  1.00 20.00     0.120 C 
HETATM   10 CL10 UNL     1     -32.687   9.319   0.441  1.00 20.00    -0.130 Cl
ENDBRANCH   2   9
TORSDOF 2
ENDMDL
MODEL 2
REMARK VINA RESULT:      -4.2      0.876      1.513
REMARK  2 active torsions:
REMARK  status: ('A' for Active; 'I' for Inactive)
REMARK    1  A    between atoms: C4_4  and  C9_9 
REMARK    2  A    between atoms: C5_5  and  C6_6 
ROOT
HETATM    1  C3  UNL     1     -31.725   7.585   3.952  1.00 20.00     0.017 A 
HETATM    2  C4  UNL     1     -32.709   7.997   2.895  1.00 20.00     0.009 A 
HETATM    3  C6  UNL     1     -33.214   7.458   4.232  1.00 20.00    -0.032 A 
HETATM    4  C8  UNL     1     -33.797   8.425   5.232  1.00 20.00     0.016 C 
ENDROOT
BRANCH   3   5
HETATM    5  C5  UNL     1     -33.876   6.071   4.275  1.00 20.00    -0.036 A 
HETATM    6  C1  UNL     1     -34.318   5.480   5.593  1.00 20.00     0.011 A 
HETATM    7  C2  UNL     1     -35.346   5.939   4.601  1.00 20.00     0.011 A 
HETATM    8  C7  UNL     1     -33.324   5.106   3.256  1.00 20.00     0.016 C 
ENDBRANCH   3   5
BRANCH   2   9
HETATM    9  C9  UNL     1     -32.836   9.428   2.498  1.00 20.00     0.120 C 
HETATM   10 CL10 UNL     1     -32.773   9.616   0.724  1.00 20.00    -0.130 Cl
ENDBRANCH   2   9
TORSDOF 2
ENDMDL
MODEL 3
REMARK VINA RESULT:      -3.8      9.733     10.538
REMARK  2 active torsions:
REMARK  status: ('A' for Active; 'I' for Inactive)
REMARK    1  A    between atoms: C4_4  and  C9_9 
REMARK    2  A    between atoms: C5_5  and  C6_6 
ROOT
HETATM    1  C3  UNL     1     -41.348  13.779   5.197  1.00 20.00     0.017 A 
HETATM    2  C4  UNL     1     -40.241  13.056   5.911  1.00 20.00     0.009 A 
HETATM    3  C6  UNL     1     -41.523  13.413   6.662  1.00 20.00    -0.032 A 
HETATM    4  C8  UNL     1     -42.514  12.317   6.969  1.00 20.00     0.016 C 
ENDROOT
BRANCH   3   5
HETATM    5  C5  UNL     1     -41.477  14.506   7.742  1.00 20.00    -0.036 A 
HETATM    6  C1  UNL     1     -40.320  14.569   8.711  1.00 20.00     0.011 A 
HETATM    7  C2  UNL     1     -40.464  15.622   7.651  1.00 20.00     0.011 A 
HETATM    8  C7  UNL     1     -42.834  14.872   8.289  1.00 20.00     0.016 C 
ENDBRANCH   3   5
BRANCH   2   9
HETATM    9  C9  UNL     1     -39.885  11.659   5.534  1.00 20.00     0.120 C 
HETATM   10 CL10 UNL     1     -38.932  11.619   4.025  1.00 20.00    -0.130 Cl
ENDBRANCH   2   9
TORSDOF 2
ENDMDL
MODEL 4
REMARK VINA RESULT:      -3.5     13.598     14.497
REMARK  2 active torsions:
REMARK  status: ('A' for Active; 'I' for Inactive)
REMARK    1  A    between atoms: C4_4  and  C9_9 
REMARK    2  A    between atoms: C5_5  and  C6_6 
ROOT
HETATM    1  C3  UNL     1     -25.166  -3.820  11.203  1.00 20.00     0.017 A 
HETATM    2  C4  UNL     1     -24.777  -3.075   9.958  1.00 20.00     0.009 A 
HETATM    3  C6  UNL     1     -25.270  -2.304  11.182  1.00 20.00    -0.032 A 
HETATM    4  C8  UNL     1     -24.266  -1.546  12.016  1.00 20.00     0.016 C 
ENDROOT
BRANCH   3   5
HETATM    5  C5  UNL     1     -26.648  -1.624  11.131  1.00 20.00    -0.036 A 
HETATM    6  C1  UNL     1     -27.584  -1.887   9.975  1.00 20.00     0.011 A 
HETATM    7  C2  UNL     1     -27.905  -2.437  11.334  1.00 20.00     0.011 A 
HETATM    8  C7  UNL     1     -26.653  -0.226  11.698  1.00 20.00     0.016 C 
ENDBRANCH   3   5
BRANCH   2   9
HETATM    9  C9  UNL     1     -23.358  -3.052   9.504  1.00 20.00     0.120 C 
HETATM   10 CL10 UNL     1     -23.249  -3.080   7.722  1.00 20.00    -0.130 Cl
ENDBRANCH   2   9
TORSDOF 2
ENDMDL
MODEL 5
REMARK VINA RESULT:      -3.5      9.970     10.647
REMARK  2 active torsions:
REMARK  status: ('A' for Active; 'I' for Inactive)
REMARK    1  A    between atoms: C4_4  and  C9_9 
REMARK    2  A    between atoms: C5_5  and  C6_6 
ROOT
HETATM    1  C3  UNL     1     -41.766  12.475   6.703  1.00 20.00     0.017 A 
HETATM    2  C4  UNL     1     -40.700  12.688   5.666  1.00 20.00     0.009 A 
HETATM    3  C6  UNL     1     -41.276  13.886   6.420  1.00 20.00    -0.032 A 
HETATM    4  C8  UNL     1     -40.439  14.538   7.494  1.00 20.00     0.016 C 
ENDROOT
BRANCH   3   5
HETATM    5  C5  UNL     1     -42.175  14.880   5.669  1.00 20.00    -0.036 A 
HETATM    6  C1  UNL     1     -42.235  14.861   4.159  1.00 20.00     0.011 A 
HETATM    7  C2  UNL     1     -43.417  14.395   4.958  1.00 20.00     0.011 A 
HETATM    8  C7  UNL     1     -42.264  16.234   6.329  1.00 20.00     0.016 C 
ENDBRANCH   3   5
BRANCH   2   9
HETATM    9  C9  UNL     1     -39.317  12.179   5.887  1.00 20.00     0.120 C 
HETATM   10 CL10 UNL     1     -38.560  11.675   4.352  1.00 20.00    -0.130 Cl
ENDBRANCH   2   9
TORSDOF 2
ENDMDL
MODEL 6
REMARK VINA RESULT:      -3.4     10.974     12.236
REMARK  2 active torsions:
REMARK  status: ('A' for Active; 'I' for Inactive)
REMARK    1  A    between atoms: C4_4  and  C9_9 
REMARK    2  A    between atoms: C5_5  and  C6_6 
ROOT
HETATM    1  C3  UNL     1     -33.718  16.951  -1.489  1.00 20.00     0.017 A 
HETATM    2  C4  UNL     1     -32.724  17.806  -2.222  1.00 20.00     0.009 A 
HETATM    3  C6  UNL     1     -34.010  17.370  -2.921  1.00 20.00    -0.032 A 
HETATM    4  C8  UNL     1     -35.110  18.385  -3.116  1.00 20.00     0.016 C 
ENDROOT
BRANCH   3   5
HETATM    5  C5  UNL     1     -33.929  16.340  -4.059  1.00 20.00    -0.036 A 
HETATM    6  C1  UNL     1     -32.773  15.370  -4.127  1.00 20.00     0.011 A 
HETATM    7  C2  UNL     1     -34.144  14.873  -3.774  1.00 20.00     0.011 A 
HETATM    8  C7  UNL     1     -34.456  16.853  -5.377  1.00 20.00     0.016 C 
ENDBRANCH   3   5
BRANCH   2   9
HETATM    9  C9  UNL     1     -32.472  19.210  -1.790  1.00 20.00     0.120 C 
HETATM   10 CL10 UNL     1     -31.577  19.262  -0.246  1.00 20.00    -0.130 Cl
ENDBRANCH   2   9
TORSDOF 2
ENDMDL
MODEL 7
REMARK VINA RESULT:      -3.4      1.687      2.613
REMARK  2 active torsions:
REMARK  status: ('A' for Active; 'I' for Inactive)
REMARK    1  A    between atoms: C4_4  and  C9_9 
REMARK    2  A    between atoms: C5_5  and  C6_6 
ROOT
HETATM    1  C3  UNL     1     -34.469   7.966   4.389  1.00 20.00     0.017 A 
HETATM    2  C4  UNL     1     -33.196   7.961   5.185  1.00 20.00     0.009 A 
HETATM    3  C6  UNL     1     -33.601   6.718   4.395  1.00 20.00    -0.032 A 
HETATM    4  C8  UNL     1     -32.867   6.400   3.115  1.00 20.00     0.016 C 
ENDROOT
BRANCH   3   5
HETATM    5  C5  UNL     1     -34.056   5.464   5.158  1.00 20.00    -0.036 A 
HETATM    6  C1  UNL     1     -33.728   5.303   6.624  1.00 20.00     0.011 A 
HETATM    7  C2  UNL     1     -35.145   5.560   6.201  1.00 20.00     0.011 A 
HETATM    8  C7  UNL     1     -34.036   4.207   4.322  1.00 20.00     0.016 C 
ENDBRANCH   3   5
BRANCH   2   9
HETATM    9  C9  UNL     1     -32.055   8.836   4.791  1.00 20.00     0.120 C 
HETATM   10 CL10 UNL     1     -32.440   9.780   3.326  1.00 20.00    -0.130 Cl
ENDBRANCH   2   9
TORSDOF 2
ENDMDL
MODEL 8
REMARK VINA RESULT:      -3.3     10.926     12.643
REMARK  2 active torsions:
REMARK  status: ('A' for Active; 'I' for Inactive)
REMARK    1  A    between atoms: C4_4  and  C9_9 
REMARK    2  A    between atoms: C5_5  and  C6_6 
ROOT
HETATM    1  C3  UNL     1     -34.745  16.325  -6.370  1.00 20.00     0.017 A 
HETATM    2  C4  UNL     1     -35.886  16.482  -5.405  1.00 20.00     0.009 A 
HETATM    3  C6  UNL     1     -34.462  16.812  -4.959  1.00 20.00    -0.032 A 
HETATM    4  C8  UNL     1     -34.065  18.261  -4.812  1.00 20.00     0.016 C 
ENDROOT
BRANCH   3   5
HETATM    5  C5  UNL     1     -33.764  15.889  -3.948  1.00 20.00    -0.036 A 
HETATM    6  C1  UNL     1     -34.094  14.415  -3.908  1.00 20.00     0.011 A 
HETATM    7  C2  UNL     1     -32.758  14.866  -4.420  1.00 20.00     0.011 A 
HETATM    8  C7  UNL     1     -33.478  16.550  -2.622  1.00 20.00     0.016 C 
ENDBRANCH   3   5
BRANCH   2   9
HETATM    9  C9  UNL     1     -36.927  17.524  -5.630  1.00 20.00     0.120 C 
HETATM   10 CL10 UNL     1     -37.798  17.905  -4.119  1.00 20.00    -0.130 Cl
ENDBRANCH   2   9
TORSDOF 2
ENDMDL
MODEL 9
REMARK VINA RESULT:      -3.3     10.666     11.323
REMARK  2 active torsions:
REMARK  status: ('A' for Active; 'I' for Inactive)
REMARK    1  A    between atoms: C4_4  and  C9_9 
REMARK    2  A    between atoms: C5_5  and  C6_6 
ROOT
HETATM    1  C3  UNL     1     -40.281  14.424   8.748  1.00 20.00     0.017 A 
HETATM    2  C4  UNL     1     -40.430  15.418   7.631  1.00 20.00     0.009 A 
HETATM    3  C6  UNL     1     -41.469  14.311   7.806  1.00 20.00    -0.032 A 
HETATM    4  C8  UNL     1     -42.820  14.667   8.378  1.00 20.00     0.016 C 
ENDROOT
BRANCH   3   5
HETATM    5  C5  UNL     1     -41.531  13.175   6.773  1.00 20.00    -0.036 A 
HETATM    6  C1  UNL     1     -41.090  13.416   5.348  1.00 20.00     0.011 A 
HETATM    7  C2  UNL     1     -40.258  12.551   6.250  1.00 20.00     0.011 A 
HETATM    8  C7  UNL     1     -42.705  12.246   6.966  1.00 20.00     0.016 C 
ENDBRANCH   3   5
BRANCH   2   9
HETATM    9  C9  UNL     1     -40.714  16.850   7.927  1.00 20.00     0.120 C 
HETATM   10 CL10 UNL     1     -41.505  17.653   6.543  1.00 20.00    -0.130 Cl
ENDBRANCH   2   9
TORSDOF 2
ENDMDL
