MODEL 1
REMARK VINA RESULT:      -4.8      0.000      0.000
REMARK  1 active torsions:
REMARK  status: ('A' for Active; 'I' for Inactive)
REMARK    1  A    between atoms: C4_4  and  C10_10 
ROOT
HETATM    1  C1  UNL     1     -32.529   5.892   3.041  1.00 20.00     0.006 C 
HETATM    2  C2  UNL     1     -33.647   5.090   3.715  1.00 20.00     0.009 C 
HETATM    3  C3  UNL     1     -33.620   7.094   5.275  1.00 20.00     0.013 C 
HETATM    4  C4  UNL     1     -32.929   7.350   2.805  1.00 20.00    -0.001 C 
HETATM    5  C5  UNL     1     -33.236   8.076   4.144  1.00 20.00    -0.013 C 
HETATM    6  C6  UNL     1     -34.426   5.865   4.807  1.00 20.00    -0.047 C 
HETATM    7  C7  UNL     1     -32.114   8.988   4.654  1.00 20.00     0.010 C 
HETATM    8  C8  UNL     1     -35.810   6.297   4.282  1.00 20.00     0.015 C 
HETATM    9  C9  UNL     1     -34.662   4.936   6.015  1.00 20.00     0.015 C 
ENDROOT
BRANCH   4  10
HETATM   10  C10 UNL     1     -31.904   8.054   1.913  1.00 20.00     0.090 C 
HETATM   11 BR11 UNL     1     -32.828   9.234   0.687  1.00 20.00    -0.096 Br
ENDBRANCH   4  10
TORSDOF 1
ENDMDL
MODEL 2
REMARK VINA RESULT:      -4.2     11.659     12.962
REMARK  1 active torsions:
REMARK  status: ('A' for Active; 'I' for Inactive)
REMARK    1  A    between atoms: C4_4  and  C10_10 
ROOT
HETATM    1  C1  UNL     1     -35.240  18.319  -3.336  1.00 20.00     0.006 C 
HETATM    2  C2  UNL     1     -34.753  18.910  -2.009  1.00 20.00     0.009 C 
HETATM    3  C3  UNL     1     -33.489  16.709  -1.936  1.00 20.00     0.013 C 
HETATM    4  C4  UNL     1     -34.084  17.800  -4.194  1.00 20.00    -0.001 C 
HETATM    5  C5  UNL     1     -33.312  16.661  -3.471  1.00 20.00    -0.013 C 
HETATM    6  C6  UNL     1     -33.589  18.130  -1.348  1.00 20.00    -0.047 C 
HETATM    7  C7  UNL     1     -33.650  15.246  -3.956  1.00 20.00     0.010 C 
HETATM    8  C8  UNL     1     -32.257  18.885  -1.534  1.00 20.00     0.015 C 
HETATM    9  C9  UNL     1     -33.849  18.024   0.168  1.00 20.00     0.015 C 
ENDROOT
BRANCH   4  10
HETATM   10  C10 UNL     1     -34.571  17.453  -5.603  1.00 20.00     0.090 C 
HETATM   11 BR11 UNL     1     -36.498  17.272  -5.586  1.00 20.00    -0.096 Br
ENDBRANCH   4  10
TORSDOF 1
ENDMDL
MODEL 3
REMARK VINA RESULT:      -3.9     11.491     12.900
REMARK  1 active torsions:
REMARK  status: ('A' for Active; 'I' for Inactive)
REMARK    1  A    between atoms: C4_4  and  C10_10 
ROOT
HETATM    1  C1  UNL     1     -33.599  16.107  -3.102  1.00 20.00     0.006 C 
HETATM    2  C2  UNL     1     -33.909  14.948  -4.055  1.00 20.00     0.009 C 
HETATM    3  C3  UNL     1     -35.590  16.633  -4.941  1.00 20.00     0.013 C 
HETATM    4  C4  UNL     1     -33.395  17.428  -3.848  1.00 20.00    -0.001 C 
HETATM    5  C5  UNL     1     -34.674  17.839  -4.629  1.00 20.00    -0.013 C 
HETATM    6  C6  UNL     1     -34.838  15.320  -5.238  1.00 20.00    -0.047 C 
HETATM    7  C7  UNL     1     -35.518  18.928  -3.953  1.00 20.00     0.010 C 
HETATM    8  C8  UNL     1     -34.028  15.447  -6.544  1.00 20.00     0.015 C 
HETATM    9  C9  UNL     1     -35.869  14.193  -5.444  1.00 20.00     0.015 C 
ENDROOT
BRANCH   4  10
HETATM   10  C10 UNL     1     -32.844  18.501  -2.907  1.00 20.00     0.090 C 
HETATM   11 BR11 UNL     1     -33.158  17.964  -1.073  1.00 20.00    -0.096 Br
ENDBRANCH   4  10
TORSDOF 1
ENDMDL
MODEL 4
REMARK VINA RESULT:      -3.9     11.704     13.292
REMARK  1 active torsions:
REMARK  status: ('A' for Active; 'I' for Inactive)
REMARK    1  A    between atoms: C4_4  and  C10_10 
ROOT
HETATM    1  C1  UNL     1     -33.658  16.319  -3.747  1.00 20.00     0.006 C 
HETATM    2  C2  UNL     1     -33.292  16.638  -2.294  1.00 20.00     0.009 C 
HETATM    3  C3  UNL     1     -33.018  18.963  -3.278  1.00 20.00     0.013 C 
HETATM    4  C4  UNL     1     -34.693  17.297  -4.308  1.00 20.00    -0.001 C 
HETATM    5  C5  UNL     1     -34.152  18.754  -4.308  1.00 20.00    -0.013 C 
HETATM    6  C6  UNL     1     -33.179  18.151  -1.977  1.00 20.00    -0.047 C 
HETATM    7  C7  UNL     1     -33.668  19.261  -5.672  1.00 20.00     0.010 C 
HETATM    8  C8  UNL     1     -34.413  18.633  -1.189  1.00 20.00     0.015 C 
HETATM    9  C9  UNL     1     -31.943  18.389  -1.087  1.00 20.00     0.015 C 
ENDROOT
BRANCH   4  10
HETATM   10  C10 UNL     1     -35.222  16.808  -5.658  1.00 20.00     0.090 C 
HETATM   11 BR11 UNL     1     -34.359  15.136  -6.115  1.00 20.00    -0.096 Br
ENDBRANCH   4  10
TORSDOF 1
ENDMDL
MODEL 5
REMARK VINA RESULT:      -3.4     11.653     13.489
REMARK  1 active torsions:
REMARK  status: ('A' for Active; 'I' for Inactive)
REMARK    1  A    between atoms: C4_4  and  C10_10 
ROOT
HETATM    1  C1  UNL     1     -34.234  17.953  -5.608  1.00 20.00     0.006 C 
HETATM    2  C2  UNL     1     -35.449  17.587  -6.466  1.00 20.00     0.009 C 
HETATM    3  C3  UNL     1     -34.702  15.243  -5.837  1.00 20.00     0.013 C 
HETATM    4  C4  UNL     1     -34.241  17.228  -4.260  1.00 20.00    -0.001 C 
HETATM    5  C5  UNL     1     -34.189  15.687  -4.448  1.00 20.00    -0.013 C 
HETATM    6  C6  UNL     1     -35.861  16.095  -6.393  1.00 20.00    -0.047 C 
HETATM    7  C7  UNL     1     -32.811  15.056  -4.215  1.00 20.00     0.010 C 
HETATM    8  C8  UNL     1     -37.122  15.924  -5.522  1.00 20.00     0.015 C 
HETATM    9  C9  UNL     1     -36.209  15.597  -7.810  1.00 20.00     0.015 C 
ENDROOT
BRANCH   4  10
HETATM   10  C10 UNL     1     -33.166  17.799  -3.333  1.00 20.00     0.090 C 
HETATM   11 BR11 UNL     1     -33.634  17.410  -1.495  1.00 20.00    -0.096 Br
ENDBRANCH   4  10
TORSDOF 1
ENDMDL
MODEL 6
REMARK VINA RESULT:      -3.3     11.027     12.301
REMARK  1 active torsions:
REMARK  status: ('A' for Active; 'I' for Inactive)
REMARK    1  A    between atoms: C4_4  and  C10_10 
ROOT
HETATM    1  C1  UNL     1     -40.338  14.252   7.419  1.00 20.00     0.006 C 
HETATM    2  C2  UNL     1     -40.390  15.527   8.267  1.00 20.00     0.009 C 
HETATM    3  C3  UNL     1     -41.947  16.248   6.394  1.00 20.00     0.013 C 
HETATM    4  C4  UNL     1     -41.735  13.760   7.033  1.00 20.00    -0.001 C 
HETATM    5  C5  UNL     1     -42.491  14.816   6.180  1.00 20.00    -0.013 C 
HETATM    6  C6  UNL     1     -41.476  16.544   7.832  1.00 20.00    -0.047 C 
HETATM    7  C7  UNL     1     -42.517  14.527   4.674  1.00 20.00     0.010 C 
HETATM    8  C8  UNL     1     -42.669  16.511   8.808  1.00 20.00     0.015 C 
HETATM    9  C9  UNL     1     -40.883  17.966   7.878  1.00 20.00     0.015 C 
ENDROOT
BRANCH   4  10
HETATM   10  C10 UNL     1     -41.663  12.364   6.412  1.00 20.00     0.090 C 
HETATM   11 BR11 UNL     1     -39.845  12.007   5.851  1.00 20.00    -0.096 Br
ENDBRANCH   4  10
TORSDOF 1
ENDMDL
MODEL 7
REMARK VINA RESULT:      -3.3     10.305     11.747
REMARK  1 active torsions:
REMARK  status: ('A' for Active; 'I' for Inactive)
REMARK    1  A    between atoms: C4_4  and  C10_10 
ROOT
HETATM    1  C1  UNL     1     -40.493  14.170   8.184  1.00 20.00     0.006 C 
HETATM    2  C2  UNL     1     -39.975  13.940   6.761  1.00 20.00     0.009 C 
HETATM    3  C3  UNL     1     -41.926  12.315   6.726  1.00 20.00     0.013 C 
HETATM    4  C4  UNL     1     -42.003  14.418   8.214  1.00 20.00    -0.001 C 
HETATM    5  C5  UNL     1     -42.787  13.196   7.660  1.00 20.00    -0.013 C 
HETATM    6  C6  UNL     1     -40.916  13.096   5.863  1.00 20.00    -0.047 C 
HETATM    7  C7  UNL     1     -43.417  12.297   8.731  1.00 20.00     0.010 C 
HETATM    8  C8  UNL     1     -41.653  13.998   4.853  1.00 20.00     0.015 C 
HETATM    9  C9  UNL     1     -40.073  12.092   5.052  1.00 20.00     0.015 C 
ENDROOT
BRANCH   4  10
HETATM   10  C10 UNL     1     -42.446  14.891   9.600  1.00 20.00     0.090 C 
HETATM   11 BR11 UNL     1     -40.986  14.657  10.851  1.00 20.00    -0.096 Br
ENDBRANCH   4  10
TORSDOF 1
ENDMDL
MODEL 8
REMARK VINA RESULT:      -3.3     10.851     12.065
REMARK  1 active torsions:
REMARK  status: ('A' for Active; 'I' for Inactive)
REMARK    1  A    between atoms: C4_4  and  C10_10 
ROOT
HETATM    1  C1  UNL     1     -40.545  15.342   7.268  1.00 20.00     0.006 C 
HETATM    2  C2  UNL     1     -40.405  15.843   8.709  1.00 20.00     0.009 C 
HETATM    3  C3  UNL     1     -42.621  14.625   8.940  1.00 20.00     0.013 C 
HETATM    4  C4  UNL     1     -40.878  13.849   7.208  1.00 20.00    -0.001 C 
HETATM    5  C5  UNL     1     -42.233  13.544   7.906  1.00 20.00    -0.013 C 
HETATM    6  C6  UNL     1     -41.429  15.238   9.702  1.00 20.00    -0.047 C 
HETATM    7  C7  UNL     1     -43.416  13.337   6.952  1.00 20.00     0.010 C 
HETATM    8  C8  UNL     1     -40.756  14.176  10.595  1.00 20.00     0.015 C 
HETATM    9  C9  UNL     1     -41.952  16.353  10.629  1.00 20.00     0.015 C 
ENDROOT
BRANCH   4  10
HETATM   10  C10 UNL     1     -40.762  13.327   5.774  1.00 20.00     0.090 C 
HETATM   11 BR11 UNL     1     -39.549  11.819   5.740  1.00 20.00    -0.096 Br
ENDBRANCH   4  10
TORSDOF 1
ENDMDL
MODEL 9
REMARK VINA RESULT:      -3.2     12.033     13.324
REMARK  1 active torsions:
REMARK  status: ('A' for Active; 'I' for Inactive)
REMARK    1  A    between atoms: C4_4  and  C10_10 
ROOT
HETATM    1  C1  UNL     1     -35.914  17.993  -4.018  1.00 20.00     0.006 C 
HETATM    2  C2  UNL     1     -35.226  18.620  -2.801  1.00 20.00     0.009 C 
HETATM    3  C3  UNL     1     -33.843  16.496  -2.974  1.00 20.00     0.013 C 
HETATM    4  C4  UNL     1     -34.908  17.537  -5.077  1.00 20.00    -0.001 C 
HETATM    5  C5  UNL     1     -33.950  16.450  -4.515  1.00 20.00    -0.013 C 
HETATM    6  C6  UNL     1     -33.915  17.914  -2.370  1.00 20.00    -0.047 C 
HETATM    7  C7  UNL     1     -34.289  15.015  -4.936  1.00 20.00     0.010 C 
HETATM    8  C8  UNL     1     -32.687  18.744  -2.796  1.00 20.00     0.015 C 
HETATM    9  C9  UNL     1     -33.884  17.802  -0.833  1.00 20.00     0.015 C 
ENDROOT
BRANCH   4  10
HETATM   10  C10 UNL     1     -35.625  17.153  -6.374  1.00 20.00     0.090 C 
HETATM   11 BR11 UNL     1     -37.472  16.725  -5.979  1.00 20.00    -0.096 Br
ENDBRANCH   4  10
TORSDOF 1
ENDMDL
