MODEL 1
REMARK VINA RESULT:      -5.2      0.000      0.000
REMARK  1 active torsions:
REMARK  status: ('A' for Active; 'I' for Inactive)
REMARK    1  A    between atoms: C4_4  and  C10_10 
ROOT
HETATM    1  C1  UNL     1     -33.100   5.801   2.723  1.00 20.00     0.007 C 
HETATM    2  C2  UNL     1     -33.462   5.057   4.010  1.00 20.00     0.009 C 
HETATM    3  C3  UNL     1     -33.753   7.230   5.298  1.00 20.00     0.013 C 
HETATM    4  C4  UNL     1     -32.907   7.320   2.902  1.00 20.00     0.003 C 
HETATM    5  C5  UNL     1     -32.596   7.670   4.371  1.00 20.00    -0.013 C 
HETATM    6  C6  UNL     1     -34.382   5.855   4.950  1.00 20.00    -0.047 C 
HETATM    7  C7  UNL     1     -32.311   9.158   4.593  1.00 20.00     0.010 C 
HETATM    8  C8  UNL     1     -35.766   6.054   4.297  1.00 20.00     0.015 C 
HETATM    9  C9  UNL     1     -34.593   5.047   6.245  1.00 20.00     0.015 C 
ENDROOT
BRANCH   4  10
HETATM   10  C10 UNL     1     -31.849   7.821   1.916  1.00 20.00     0.119 C 
HETATM   11 CL11 UNL     1     -32.587   8.928   0.747  1.00 20.00    -0.130 Cl
ENDBRANCH   4  10
TORSDOF 1
ENDMDL
MODEL 2
REMARK VINA RESULT:      -4.0     11.776     13.059
REMARK  1 active torsions:
REMARK  status: ('A' for Active; 'I' for Inactive)
REMARK    1  A    between atoms: C4_4  and  C10_10 
ROOT
HETATM    1  C1  UNL     1     -34.969  18.508  -3.917  1.00 20.00     0.007 C 
HETATM    2  C2  UNL     1     -34.985  18.468  -2.389  1.00 20.00     0.009 C 
HETATM    3  C3  UNL     1     -33.201  16.657  -2.322  1.00 20.00     0.013 C 
HETATM    4  C4  UNL     1     -34.126  17.395  -4.571  1.00 20.00     0.003 C 
HETATM    5  C5  UNL     1     -33.932  16.207  -3.608  1.00 20.00    -0.013 C 
HETATM    6  C6  UNL     1     -33.646  18.035  -1.765  1.00 20.00    -0.047 C 
HETATM    7  C7  UNL     1     -33.172  15.035  -4.235  1.00 20.00     0.010 C 
HETATM    8  C8  UNL     1     -32.562  19.097  -2.046  1.00 20.00     0.015 C 
HETATM    9  C9  UNL     1     -33.816  17.939  -0.237  1.00 20.00     0.015 C 
ENDROOT
BRANCH   4  10
HETATM   10  C10 UNL     1     -34.751  17.000  -5.912  1.00 20.00     0.119 C 
HETATM   11 CL11 UNL     1     -36.341  16.269  -5.646  1.00 20.00    -0.130 Cl
ENDBRANCH   4  10
TORSDOF 1
ENDMDL
MODEL 3
REMARK VINA RESULT:      -3.9     11.612     13.013
REMARK  1 active torsions:
REMARK  status: ('A' for Active; 'I' for Inactive)
REMARK    1  A    between atoms: C4_4  and  C10_10 
ROOT
HETATM    1  C1  UNL     1     -33.196  15.759  -3.627  1.00 20.00     0.007 C 
HETATM    2  C2  UNL     1     -34.253  14.827  -4.222  1.00 20.00     0.009 C 
HETATM    3  C3  UNL     1     -35.466  16.760  -5.344  1.00 20.00     0.013 C 
HETATM    4  C4  UNL     1     -33.498  17.259  -3.814  1.00 20.00     0.003 C 
HETATM    5  C5  UNL     1     -35.000  17.496  -4.066  1.00 20.00    -0.013 C 
HETATM    6  C6  UNL     1     -34.866  15.342  -5.536  1.00 20.00    -0.047 C 
HETATM    7  C7  UNL     1     -35.371  18.978  -4.175  1.00 20.00     0.010 C 
HETATM    8  C8  UNL     1     -33.797  15.363  -6.649  1.00 20.00     0.015 C 
HETATM    9  C9  UNL     1     -35.979  14.373  -5.981  1.00 20.00     0.015 C 
ENDROOT
BRANCH   4  10
HETATM   10  C10 UNL     1     -32.946  18.044  -2.621  1.00 20.00     0.119 C 
HETATM   11 CL11 UNL     1     -33.648  17.430  -1.116  1.00 20.00    -0.130 Cl
ENDBRANCH   4  10
TORSDOF 1
ENDMDL
MODEL 4
REMARK VINA RESULT:      -3.5     10.964     11.954
REMARK  1 active torsions:
REMARK  status: ('A' for Active; 'I' for Inactive)
REMARK    1  A    between atoms: C4_4  and  C10_10 
ROOT
HETATM    1  C1  UNL     1     -42.624  15.119   5.598  1.00 20.00     0.007 C 
HETATM    2  C2  UNL     1     -41.677  13.996   5.170  1.00 20.00     0.009 C 
HETATM    3  C3  UNL     1     -40.602  13.894   7.472  1.00 20.00     0.013 C 
HETATM    4  C4  UNL     1     -42.326  15.700   6.995  1.00 20.00     0.003 C 
HETATM    5  C5  UNL     1     -40.870  15.415   7.415  1.00 20.00    -0.013 C 
HETATM    6  C6  UNL     1     -41.247  13.073   6.324  1.00 20.00    -0.047 C 
HETATM    7  C7  UNL     1     -40.493  16.044   8.760  1.00 20.00     0.010 C 
HETATM    8  C8  UNL     1     -42.462  12.282   6.853  1.00 20.00     0.015 C 
HETATM    9  C9  UNL     1     -40.225  12.051   5.790  1.00 20.00     0.015 C 
ENDROOT
BRANCH   4  10
HETATM   10  C10 UNL     1     -42.691  17.187   7.019  1.00 20.00     0.119 C 
HETATM   11 CL11 UNL     1     -41.651  18.082   5.900  1.00 20.00    -0.130 Cl
ENDBRANCH   4  10
TORSDOF 1
ENDMDL
MODEL 5
REMARK VINA RESULT:      -3.5     11.610     13.610
REMARK  1 active torsions:
REMARK  status: ('A' for Active; 'I' for Inactive)
REMARK    1  A    between atoms: C4_4  and  C10_10 
ROOT
HETATM    1  C1  UNL     1     -34.897  17.995  -5.087  1.00 20.00     0.007 C 
HETATM    2  C2  UNL     1     -35.405  17.570  -6.465  1.00 20.00     0.009 C 
HETATM    3  C3  UNL     1     -35.218  15.102  -5.879  1.00 20.00     0.013 C 
HETATM    4  C4  UNL     1     -34.381  16.832  -4.216  1.00 20.00     0.003 C 
HETATM    5  C5  UNL     1     -33.997  15.617  -5.083  1.00 20.00    -0.013 C 
HETATM    6  C6  UNL     1     -36.129  16.211  -6.468  1.00 20.00    -0.047 C 
HETATM    7  C7  UNL     1     -33.398  14.461  -4.277  1.00 20.00     0.010 C 
HETATM    8  C8  UNL     1     -37.440  16.306  -5.660  1.00 20.00     0.015 C 
HETATM    9  C9  UNL     1     -36.504  15.849  -7.918  1.00 20.00     0.015 C 
ENDROOT
BRANCH   4  10
HETATM   10  C10 UNL     1     -33.243  17.330  -3.320  1.00 20.00     0.119 C 
HETATM   11 CL11 UNL     1     -33.601  16.961  -1.626  1.00 20.00    -0.130 Cl
ENDBRANCH   4  10
TORSDOF 1
ENDMDL
MODEL 6
REMARK VINA RESULT:      -3.4     10.764     11.941
REMARK  1 active torsions:
REMARK  status: ('A' for Active; 'I' for Inactive)
REMARK    1  A    between atoms: C4_4  and  C10_10 
ROOT
HETATM    1  C1  UNL     1     -40.368  14.939   7.409  1.00 20.00     0.007 C 
HETATM    2  C2  UNL     1     -41.190  15.758   8.404  1.00 20.00     0.009 C 
HETATM    3  C3  UNL     1     -42.657  13.763   8.983  1.00 20.00     0.013 C 
HETATM    4  C4  UNL     1     -40.927  13.528   7.135  1.00 20.00     0.003 C 
HETATM    5  C5  UNL     1     -42.425  13.448   7.487  1.00 20.00    -0.013 C 
HETATM    6  C6  UNL     1     -41.794  14.923   9.547  1.00 20.00    -0.047 C 
HETATM    7  C7  UNL     1     -43.055  12.091   7.155  1.00 20.00     0.010 C 
HETATM    8  C8  UNL     1     -40.672  14.362  10.446  1.00 20.00     0.015 C 
HETATM    9  C9  UNL     1     -42.675  15.837  10.420  1.00 20.00     0.015 C 
ENDROOT
BRANCH   4  10
HETATM   10  C10 UNL     1     -40.614  13.125   5.691  1.00 20.00     0.119 C 
HETATM   11 CL11 UNL     1     -39.740  11.585   5.669  1.00 20.00    -0.130 Cl
ENDBRANCH   4  10
TORSDOF 1
ENDMDL
MODEL 7
REMARK VINA RESULT:      -3.3     10.308     11.360
REMARK  1 active torsions:
REMARK  status: ('A' for Active; 'I' for Inactive)
REMARK    1  A    between atoms: C4_4  and  C10_10 
ROOT
HETATM    1  C1  UNL     1     -40.161  13.260   7.212  1.00 20.00     0.007 C 
HETATM    2  C2  UNL     1     -40.530  14.457   8.089  1.00 20.00     0.009 C 
HETATM    3  C3  UNL     1     -42.599  14.961   6.698  1.00 20.00     0.013 C 
HETATM    4  C4  UNL     1     -41.022  13.117   5.941  1.00 20.00     0.003 C 
HETATM    5  C5  UNL     1     -41.679  14.459   5.562  1.00 20.00    -0.013 C 
HETATM    6  C6  UNL     1     -42.040  14.754   8.131  1.00 20.00    -0.047 C 
HETATM    7  C7  UNL     1     -42.478  14.397   4.257  1.00 20.00     0.010 C 
HETATM    8  C8  UNL     1     -42.789  13.602   8.832  1.00 20.00     0.015 C 
HETATM    9  C9  UNL     1     -42.273  16.032   8.960  1.00 20.00     0.015 C 
ENDROOT
BRANCH   4  10
HETATM   10  C10 UNL     1     -40.178  12.510   4.817  1.00 20.00     0.119 C 
HETATM   11 CL11 UNL     1     -38.556  12.130   5.416  1.00 20.00    -0.130 Cl
ENDBRANCH   4  10
TORSDOF 1
ENDMDL
MODEL 8
REMARK VINA RESULT:      -3.2     12.083     13.808
REMARK  1 active torsions:
REMARK  status: ('A' for Active; 'I' for Inactive)
REMARK    1  A    between atoms: C4_4  and  C10_10 
ROOT
HETATM    1  C1  UNL     1     -35.487  18.195  -5.502  1.00 20.00     0.007 C 
HETATM    2  C2  UNL     1     -34.752  17.389  -6.574  1.00 20.00     0.009 C 
HETATM    3  C3  UNL     1     -33.870  15.731  -4.859  1.00 20.00     0.013 C 
HETATM    4  C4  UNL     1     -35.173  17.761  -4.056  1.00 20.00     0.003 C 
HETATM    5  C5  UNL     1     -33.831  17.005  -3.983  1.00 20.00    -0.013 C 
HETATM    6  C6  UNL     1     -34.586  15.900  -6.225  1.00 20.00    -0.047 C 
HETATM    7  C7  UNL     1     -33.427  16.622  -2.557  1.00 20.00     0.010 C 
HETATM    8  C8  UNL     1     -35.964  15.205  -6.192  1.00 20.00     0.015 C 
HETATM    9  C9  UNL     1     -33.751  15.220  -7.328  1.00 20.00     0.015 C 
ENDROOT
BRANCH   4  10
HETATM   10  C10 UNL     1     -35.241  18.978  -3.129  1.00 20.00     0.119 C 
HETATM   11 CL11 UNL     1     -36.835  19.067  -2.364  1.00 20.00    -0.130 Cl
ENDBRANCH   4  10
TORSDOF 1
ENDMDL
MODEL 9
REMARK VINA RESULT:      -3.2     11.228     12.501
REMARK  1 active torsions:
REMARK  status: ('A' for Active; 'I' for Inactive)
REMARK    1  A    between atoms: C4_4  and  C10_10 
ROOT
HETATM    1  C1  UNL     1     -40.873  14.195   8.013  1.00 20.00     0.007 C 
HETATM    2  C2  UNL     1     -40.300  15.607   7.880  1.00 20.00     0.009 C 
HETATM    3  C3  UNL     1     -42.146  16.308   6.278  1.00 20.00     0.013 C 
HETATM    4  C4  UNL     1     -42.031  13.887   7.043  1.00 20.00     0.003 C 
HETATM    5  C5  UNL     1     -42.004  14.836   5.828  1.00 20.00    -0.013 C 
HETATM    6  C6  UNL     1     -41.358  16.678   7.562  1.00 20.00    -0.047 C 
HETATM    7  C7  UNL     1     -43.083  14.521   4.788  1.00 20.00     0.010 C 
HETATM    8  C8  UNL     1     -42.326  16.838   8.753  1.00 20.00     0.015 C 
HETATM    9  C9  UNL     1     -40.650  18.031   7.355  1.00 20.00     0.015 C 
ENDROOT
BRANCH   4  10
HETATM   10  C10 UNL     1     -41.999  12.404   6.663  1.00 20.00     0.119 C 
HETATM   11 CL11 UNL     1     -40.422  11.991   5.972  1.00 20.00    -0.130 Cl
ENDBRANCH   4  10
TORSDOF 1
ENDMDL
