MODEL 1
REMARK VINA RESULT:      -4.9      0.000      0.000
REMARK  3 active torsions:
REMARK  status: ('A' for Active; 'I' for Inactive)
REMARK    1  A    between atoms: C1_1  and  C9_9 
REMARK    2  A    between atoms: C5_5  and  C8_8 
REMARK    3  A    between atoms: C6_6  and  C9_9 
ROOT
HETATM    1  C2  UNL     1     -32.291   7.387   2.309  1.00 20.00     0.005 C 
HETATM    2  C3  UNL     1     -32.683   6.492   3.489  1.00 20.00     0.008 C 
HETATM    3  C4  UNL     1     -33.468   8.719   3.933  1.00 20.00     0.012 C 
HETATM    4  C5  UNL     1     -32.454   8.829   2.798  1.00 20.00    -0.014 C 
HETATM    5  C6  UNL     1     -33.029   7.440   4.640  1.00 20.00     0.030 C 
ENDROOT
BRANCH   5   6
HETATM    6  C9  UNL     1     -34.084   6.883   5.580  1.00 20.00     0.274 C 
HETATM    7  F12 UNL     1     -33.453   6.447   6.704  1.00 20.00    -0.238 F 
BRANCH   6   8
HETATM    8  C1  UNL     1     -34.882   5.693   5.058  1.00 20.00     0.208 C 
HETATM    9  O10 UNL     1     -35.854   5.958   4.297  1.00 20.00    -0.646 OA
HETATM   10  O11 UNL     1     -34.474   4.571   5.472  1.00 20.00    -0.646 OA
ENDBRANCH   6   8
ENDBRANCH   5   6
BRANCH   4  11
HETATM   11  C8  UNL     1     -32.885   9.789   1.701  1.00 20.00     0.000 C 
HETATM   12  C7  UNL     1     -32.703   9.201   0.338  1.00 20.00     0.005 C 
ENDBRANCH   4  11
TORSDOF 3
ENDMDL
MODEL 2
REMARK VINA RESULT:      -4.7     11.739     12.592
REMARK  3 active torsions:
REMARK  status: ('A' for Active; 'I' for Inactive)
REMARK    1  A    between atoms: C1_1  and  C9_9 
REMARK    2  A    between atoms: C5_5  and  C8_8 
REMARK    3  A    between atoms: C6_6  and  C9_9 
ROOT
HETATM    1  C2  UNL     1     -34.534  18.309  -3.180  1.00 20.00     0.005 C 
HETATM    2  C3  UNL     1     -34.954  17.363  -4.310  1.00 20.00     0.008 C 
HETATM    3  C4  UNL     1     -33.335  16.234  -2.941  1.00 20.00     0.012 C 
HETATM    4  C5  UNL     1     -33.252  17.716  -2.586  1.00 20.00    -0.014 C 
HETATM    5  C6  UNL     1     -33.886  16.269  -4.363  1.00 20.00     0.030 C 
ENDROOT
BRANCH   5   6
HETATM    6  C9  UNL     1     -34.424  14.927  -4.829  1.00 20.00     0.274 C 
HETATM    7  F12 UNL     1     -33.472  13.987  -4.580  1.00 20.00    -0.238 F 
BRANCH   6   8
HETATM    8  C1  UNL     1     -34.743  14.816  -6.317  1.00 20.00     0.208 C 
HETATM    9  O10 UNL     1     -35.913  14.445  -6.615  1.00 20.00    -0.646 OA
HETATM   10  O11 UNL     1     -33.776  15.100  -7.080  1.00 20.00    -0.646 OA
ENDBRANCH   6   8
ENDBRANCH   5   6
BRANCH   4  11
HETATM   11  C8  UNL     1     -33.111  17.967  -1.094  1.00 20.00     0.000 C 
HETATM   12  C7  UNL     1     -31.734  18.427  -0.732  1.00 20.00     0.005 C 
ENDBRANCH   4  11
TORSDOF 3
ENDMDL
MODEL 3
REMARK VINA RESULT:      -4.7      2.816      4.721
REMARK  3 active torsions:
REMARK  status: ('A' for Active; 'I' for Inactive)
REMARK    1  A    between atoms: C1_1  and  C9_9 
REMARK    2  A    between atoms: C5_5  and  C8_8 
REMARK    3  A    between atoms: C6_6  and  C9_9 
ROOT
HETATM    1  C2  UNL     1     -33.816   4.447   3.959  1.00 20.00     0.005 C 
HETATM    2  C3  UNL     1     -32.947   5.025   2.837  1.00 20.00     0.008 C 
HETATM    3  C4  UNL     1     -33.673   6.834   4.242  1.00 20.00     0.012 C 
HETATM    4  C5  UNL     1     -34.558   5.637   4.576  1.00 20.00    -0.014 C 
HETATM    5  C6  UNL     1     -33.236   6.528   2.812  1.00 20.00     0.030 C 
ENDROOT
BRANCH   5   6
HETATM    6  C9  UNL     1     -32.050   7.360   2.358  1.00 20.00     0.274 C 
HETATM    7  F12 UNL     1     -31.414   7.822   3.469  1.00 20.00    -0.238 F 
BRANCH   6   8
HETATM    8  C1  UNL     1     -32.379   8.591   1.519  1.00 20.00     0.208 C 
HETATM    9  O10 UNL     1     -32.841   9.588   2.142  1.00 20.00    -0.646 OA
HETATM   10  O11 UNL     1     -32.159   8.452   0.283  1.00 20.00    -0.646 OA
ENDBRANCH   6   8
ENDBRANCH   5   6
BRANCH   4  11
HETATM   11  C8  UNL     1     -34.811   5.478   6.067  1.00 20.00     0.000 C 
HETATM   12  C7  UNL     1     -34.386   6.686   6.839  1.00 20.00     0.005 C 
ENDBRANCH   4  11
TORSDOF 3
ENDMDL
MODEL 4
REMARK VINA RESULT:      -4.6     11.424     12.384
REMARK  3 active torsions:
REMARK  status: ('A' for Active; 'I' for Inactive)
REMARK    1  A    between atoms: C1_1  and  C9_9 
REMARK    2  A    between atoms: C5_5  and  C8_8 
REMARK    3  A    between atoms: C6_6  and  C9_9 
ROOT
HETATM    1  C2  UNL     1     -34.386  17.797  -3.917  1.00 20.00     0.005 C 
HETATM    2  C3  UNL     1     -34.878  17.074  -5.175  1.00 20.00     0.008 C 
HETATM    3  C4  UNL     1     -33.817  15.463  -3.743  1.00 20.00     0.012 C 
HETATM    4  C5  UNL     1     -33.399  16.841  -3.238  1.00 20.00    -0.014 C 
HETATM    5  C6  UNL     1     -34.136  15.736  -5.209  1.00 20.00     0.030 C 
ENDROOT
BRANCH   5   6
HETATM    6  C9  UNL     1     -34.936  14.623  -5.864  1.00 20.00     0.274 C 
HETATM    7  F12 UNL     1     -35.505  15.127  -6.993  1.00 20.00    -0.238 F 
BRANCH   6   8
HETATM    8  C1  UNL     1     -36.082  14.048  -5.037  1.00 20.00     0.208 C 
HETATM    9  O10 UNL     1     -35.824  13.011  -4.364  1.00 20.00    -0.646 OA
HETATM   10  O11 UNL     1     -37.169  14.683  -5.143  1.00 20.00    -0.646 OA
ENDBRANCH   6   8
ENDBRANCH   5   6
BRANCH   4  11
HETATM   11  C8  UNL     1     -33.405  16.951  -1.722  1.00 20.00     0.000 C 
HETATM   12  C7  UNL     1     -32.582  18.104  -1.240  1.00 20.00     0.005 C 
ENDBRANCH   4  11
TORSDOF 3
ENDMDL
MODEL 5
REMARK VINA RESULT:      -4.4     11.976     12.584
REMARK  3 active torsions:
REMARK  status: ('A' for Active; 'I' for Inactive)
REMARK    1  A    between atoms: C1_1  and  C9_9 
REMARK    2  A    between atoms: C5_5  and  C8_8 
REMARK    3  A    between atoms: C6_6  and  C9_9 
ROOT
HETATM    1  C2  UNL     1     -33.064  19.061   1.302  1.00 20.00     0.005 C 
HETATM    2  C3  UNL     1     -34.096  18.668   0.239  1.00 20.00     0.008 C 
HETATM    3  C4  UNL     1     -31.900  18.297  -0.664  1.00 20.00     0.012 C 
HETATM    4  C5  UNL     1     -31.724  19.181   0.568  1.00 20.00    -0.014 C 
HETATM    5  C6  UNL     1     -33.333  18.607  -1.086  1.00 20.00     0.030 C 
ENDROOT
BRANCH   5   6
HETATM    6  C9  UNL     1     -33.903  17.590  -2.060  1.00 20.00     0.274 C 
HETATM    7  F12 UNL     1     -33.672  16.350  -1.551  1.00 20.00    -0.238 F 
BRANCH   6   8
HETATM    8  C1  UNL     1     -33.293  17.590  -3.459  1.00 20.00     0.208 C 
HETATM    9  O10 UNL     1     -32.950  18.713  -3.922  1.00 20.00    -0.646 OA
HETATM   10  O11 UNL     1     -33.222  16.448  -3.995  1.00 20.00    -0.646 OA
ENDBRANCH   6   8
ENDBRANCH   5   6
BRANCH   4  11
HETATM   11  C8  UNL     1     -30.533  18.784   1.424  1.00 20.00     0.000 C 
HETATM   12  C7  UNL     1     -30.856  18.824   2.884  1.00 20.00     0.005 C 
ENDBRANCH   4  11
TORSDOF 3
ENDMDL
MODEL 6
REMARK VINA RESULT:      -4.4     11.445     12.276
REMARK  3 active torsions:
REMARK  status: ('A' for Active; 'I' for Inactive)
REMARK    1  A    between atoms: C1_1  and  C9_9 
REMARK    2  A    between atoms: C5_5  and  C8_8 
REMARK    3  A    between atoms: C6_6  and  C9_9 
ROOT
HETATM    1  C2  UNL     1     -32.926  18.995  -2.432  1.00 20.00     0.005 C 
HETATM    2  C3  UNL     1     -33.161  18.401  -3.825  1.00 20.00     0.008 C 
HETATM    3  C4  UNL     1     -33.635  16.707  -2.189  1.00 20.00     0.012 C 
HETATM    4  C5  UNL     1     -32.857  17.805  -1.470  1.00 20.00    -0.014 C 
HETATM    5  C6  UNL     1     -33.187  16.882  -3.636  1.00 20.00     0.030 C 
ENDROOT
BRANCH   5   6
HETATM    6  C9  UNL     1     -34.085  16.169  -4.632  1.00 20.00     0.274 C 
HETATM    7  F12 UNL     1     -35.356  16.615  -4.441  1.00 20.00    -0.238 F 
BRANCH   6   8
HETATM    8  C1  UNL     1     -34.149  14.650  -4.504  1.00 20.00     0.208 C 
HETATM    9  O10 UNL     1     -33.053  14.056  -4.303  1.00 20.00    -0.646 OA
HETATM   10  O11 UNL     1     -35.309  14.166  -4.634  1.00 20.00    -0.646 OA
ENDBRANCH   6   8
ENDBRANCH   5   6
BRANCH   4  11
HETATM   11  C8  UNL     1     -33.404  18.119  -0.087  1.00 20.00     0.000 C 
HETATM   12  C7  UNL     1     -32.330  18.569   0.851  1.00 20.00     0.005 C 
ENDBRANCH   4  11
TORSDOF 3
ENDMDL
MODEL 7
REMARK VINA RESULT:      -4.2     12.189     13.273
REMARK  3 active torsions:
REMARK  status: ('A' for Active; 'I' for Inactive)
REMARK    1  A    between atoms: C1_1  and  C9_9 
REMARK    2  A    between atoms: C5_5  and  C8_8 
REMARK    3  A    between atoms: C6_6  and  C9_9 
ROOT
HETATM    1  C2  UNL     1     -33.246  16.244  -2.973  1.00 20.00     0.005 C 
HETATM    2  C3  UNL     1     -33.830  15.615  -4.243  1.00 20.00     0.008 C 
HETATM    3  C4  UNL     1     -34.277  17.975  -4.293  1.00 20.00     0.012 C 
HETATM    4  C5  UNL     1     -33.880  17.634  -2.859  1.00 20.00    -0.014 C 
HETATM    5  C6  UNL     1     -34.812  16.643  -4.809  1.00 20.00     0.030 C 
ENDROOT
BRANCH   5   6
HETATM    6  C9  UNL     1     -34.928  16.591  -6.322  1.00 20.00     0.274 C 
HETATM    7  F12 UNL     1     -36.149  17.087  -6.664  1.00 20.00    -0.238 F 
BRANCH   6   8
HETATM    8  C1  UNL     1     -34.849  15.203  -6.951  1.00 20.00     0.208 C 
HETATM    9  O10 UNL     1     -35.859  14.461  -6.804  1.00 20.00    -0.646 OA
HETATM   10  O11 UNL     1     -33.756  14.960  -7.538  1.00 20.00    -0.646 OA
ENDBRANCH   6   8
ENDBRANCH   5   6
BRANCH   4  11
HETATM   11  C8  UNL     1     -32.956  18.665  -2.232  1.00 20.00     0.000 C 
HETATM   12  C7  UNL     1     -32.283  18.140  -1.003  1.00 20.00     0.005 C 
ENDBRANCH   4  11
TORSDOF 3
ENDMDL
MODEL 8
REMARK VINA RESULT:      -4.2      1.438      1.497
REMARK  3 active torsions:
REMARK  status: ('A' for Active; 'I' for Inactive)
REMARK    1  A    between atoms: C1_1  and  C9_9 
REMARK    2  A    between atoms: C5_5  and  C8_8 
REMARK    3  A    between atoms: C6_6  and  C9_9 
ROOT
HETATM    1  C2  UNL     1     -32.123   7.421   2.014  1.00 20.00     0.005 C 
HETATM    2  C3  UNL     1     -32.573   6.238   2.877  1.00 20.00     0.008 C 
HETATM    3  C4  UNL     1     -33.641   8.226   3.701  1.00 20.00     0.012 C 
HETATM    4  C5  UNL     1     -32.502   8.684   2.794  1.00 20.00    -0.014 C 
HETATM    5  C6  UNL     1     -33.168   6.847   4.149  1.00 20.00     0.030 C 
ENDROOT
BRANCH   5   6
HETATM    6  C9  UNL     1     -34.275   6.003   4.757  1.00 20.00     0.274 C 
HETATM    7  F12 UNL     1     -35.462   6.465   4.279  1.00 20.00    -0.238 F 
BRANCH   6   8
HETATM    8  C1  UNL     1     -34.389   6.047   6.278  1.00 20.00     0.208 C 
HETATM    9  O10 UNL     1     -34.383   7.193   6.809  1.00 20.00    -0.646 OA
HETATM   10  O11 UNL     1     -34.462   4.912   6.827  1.00 20.00    -0.646 OA
ENDBRANCH   6   8
ENDBRANCH   5   6
BRANCH   4  11
HETATM   11  C8  UNL     1     -32.882   9.852   1.898  1.00 20.00     0.000 C 
HETATM   12  C7  UNL     1     -32.794   9.496   0.448  1.00 20.00     0.005 C 
ENDBRANCH   4  11
TORSDOF 3
ENDMDL
MODEL 9
REMARK VINA RESULT:      -4.2      9.730     10.545
REMARK  3 active torsions:
REMARK  status: ('A' for Active; 'I' for Inactive)
REMARK    1  A    between atoms: C1_1  and  C9_9 
REMARK    2  A    between atoms: C5_5  and  C8_8 
REMARK    3  A    between atoms: C6_6  and  C9_9 
ROOT
HETATM    1  C2  UNL     1     -41.030  13.253   4.860  1.00 20.00     0.005 C 
HETATM    2  C3  UNL     1     -41.809  14.168   5.811  1.00 20.00     0.008 C 
HETATM    3  C4  UNL     1     -40.052  13.102   7.056  1.00 20.00     0.012 C 
HETATM    4  C5  UNL     1     -40.200  12.323   5.752  1.00 20.00    -0.014 C 
HETATM    5  C6  UNL     1     -41.437  13.720   7.226  1.00 20.00     0.030 C 
ENDROOT
BRANCH   5   6
HETATM    6  C9  UNL     1     -41.467  14.850   8.240  1.00 20.00     0.274 C 
HETATM    7  F12 UNL     1     -40.904  15.945   7.661  1.00 20.00    -0.238 F 
BRANCH   6   8
HETATM    8  C1  UNL     1     -40.690  14.610   9.531  1.00 20.00     0.208 C 
HETATM    9  O10 UNL     1     -41.111  13.683  10.277  1.00 20.00    -0.646 OA
HETATM   10  O11 UNL     1     -39.714  15.395   9.703  1.00 20.00    -0.646 OA
ENDBRANCH   6   8
ENDBRANCH   5   6
BRANCH   4  11
HETATM   11  C8  UNL     1     -38.868  11.932   5.134  1.00 20.00     0.000 C 
HETATM   12  C7  UNL     1     -38.983  11.687   3.663  1.00 20.00     0.005 C 
ENDBRANCH   4  11
TORSDOF 3
ENDMDL
