MODEL 1
REMARK VINA RESULT:      -5.1      0.000      0.000
REMARK  2 active torsions:
REMARK  status: ('A' for Active; 'I' for Inactive)
REMARK    1  A    between atoms: C5_5  and  C6_6 
REMARK    2  A    between atoms: C7_7  and  C8_8 
ROOT
HETATM    1  C4  UNL     1     -32.113   8.480   4.360  1.00 20.00     0.011 A 
HETATM    2  C6  UNL     1     -32.851   7.205   4.067  1.00 20.00    -0.005 A 
HETATM    3  C7  UNL     1     -32.832   8.308   3.047  1.00 20.00     0.000 A 
ENDROOT
BRANCH   2   4
HETATM    4  C5  UNL     1     -34.108   6.798   4.806  1.00 20.00    -0.010 C 
HETATM    5  C2  UNL     1     -34.006   6.701   6.351  1.00 20.00     0.005 C 
HETATM    6  C1  UNL     1     -34.953   5.486   6.263  1.00 20.00     0.001 C 
HETATM    7  C3  UNL     1     -34.447   5.285   4.820  1.00 20.00     0.005 C 
ENDBRANCH   2   4
BRANCH   3   8
HETATM    8  C8  UNL     1     -32.059   8.140   1.786  1.00 20.00     0.090 C 
HETATM    9 BR9  UNL     1     -32.782   9.291   0.383  1.00 20.00    -0.096 Br
ENDBRANCH   3   8
TORSDOF 2
ENDMDL
MODEL 2
REMARK VINA RESULT:      -4.4      2.461      4.357
REMARK  2 active torsions:
REMARK  status: ('A' for Active; 'I' for Inactive)
REMARK    1  A    between atoms: C5_5  and  C6_6 
REMARK    2  A    between atoms: C7_7  and  C8_8 
ROOT
HETATM    1  C4  UNL     1     -33.641   8.777   5.847  1.00 20.00     0.011 A 
HETATM    2  C6  UNL     1     -33.571   8.003   4.562  1.00 20.00    -0.005 A 
HETATM    3  C7  UNL     1     -33.335   7.301   5.869  1.00 20.00     0.000 A 
ENDROOT
BRANCH   2   4
HETATM    4  C5  UNL     1     -32.474   8.213   3.539  1.00 20.00    -0.010 C 
HETATM    5  C2  UNL     1     -32.820   9.113   2.324  1.00 20.00     0.005 C 
HETATM    6  C1  UNL     1     -31.958   8.161   1.468  1.00 20.00     0.001 C 
HETATM    7  C3  UNL     1     -32.249   7.069   2.517  1.00 20.00     0.005 C 
ENDBRANCH   2   4
BRANCH   3   8
HETATM    8  C8  UNL     1     -34.343   6.335   6.386  1.00 20.00     0.090 C 
HETATM    9 BR9  UNL     1     -34.780   5.010   5.019  1.00 20.00    -0.096 Br
ENDBRANCH   3   8
TORSDOF 2
ENDMDL
MODEL 3
REMARK VINA RESULT:      -4.1      1.323      1.680
REMARK  2 active torsions:
REMARK  status: ('A' for Active; 'I' for Inactive)
REMARK    1  A    between atoms: C5_5  and  C6_6 
REMARK    2  A    between atoms: C7_7  and  C8_8 
ROOT
HETATM    1  C4  UNL     1     -32.891   5.216   2.810  1.00 20.00     0.011 A 
HETATM    2  C6  UNL     1     -33.942   6.211   3.212  1.00 20.00    -0.005 A 
HETATM    3  C7  UNL     1     -32.508   6.644   3.103  1.00 20.00     0.000 A 
ENDROOT
BRANCH   2   4
HETATM    4  C5  UNL     1     -34.673   6.139   4.537  1.00 20.00    -0.010 C 
HETATM    5  C2  UNL     1     -34.020   6.879   5.733  1.00 20.00     0.005 C 
HETATM    6  C1  UNL     1     -34.510   5.718   6.623  1.00 20.00     0.001 C 
HETATM    7  C3  UNL     1     -34.496   4.835   5.358  1.00 20.00     0.005 C 
ENDBRANCH   2   4
BRANCH   3   8
HETATM    8  C8  UNL     1     -32.088   7.548   1.996  1.00 20.00     0.090 C 
HETATM    9 BR9  UNL     1     -32.862   9.324   2.236  1.00 20.00    -0.096 Br
ENDBRANCH   3   8
TORSDOF 2
ENDMDL
MODEL 4
REMARK VINA RESULT:      -4.0      2.675      4.436
REMARK  2 active torsions:
REMARK  status: ('A' for Active; 'I' for Inactive)
REMARK    1  A    between atoms: C5_5  and  C6_6 
REMARK    2  A    between atoms: C7_7  and  C8_8 
ROOT
HETATM    1  C4  UNL     1     -33.000   5.094   2.594  1.00 20.00     0.011 A 
HETATM    2  C6  UNL     1     -32.530   6.144   3.559  1.00 20.00    -0.005 A 
HETATM    3  C7  UNL     1     -33.975   5.736   3.546  1.00 20.00     0.000 A 
ENDROOT
BRANCH   2   4
HETATM    4  C5  UNL     1     -32.064   7.515   3.114  1.00 20.00    -0.010 C 
HETATM    5  C2  UNL     1     -32.912   8.724   3.586  1.00 20.00     0.005 C 
HETATM    6  C1  UNL     1     -32.630   9.364   2.211  1.00 20.00     0.001 C 
HETATM    7  C3  UNL     1     -32.428   7.936   1.666  1.00 20.00     0.005 C 
ENDBRANCH   2   4
BRANCH   3   8
HETATM    8  C8  UNL     1     -34.537   4.956   4.683  1.00 20.00     0.090 C 
HETATM    9 BR9  UNL     1     -34.457   5.999   6.332  1.00 20.00    -0.096 Br
ENDBRANCH   3   8
TORSDOF 2
ENDMDL
MODEL 5
REMARK VINA RESULT:      -3.8      9.603     10.256
REMARK  2 active torsions:
REMARK  status: ('A' for Active; 'I' for Inactive)
REMARK    1  A    between atoms: C5_5  and  C6_6 
REMARK    2  A    between atoms: C7_7  and  C8_8 
ROOT
HETATM    1  C4  UNL     1     -41.982  13.901   5.571  1.00 20.00     0.011 A 
HETATM    2  C6  UNL     1     -41.365  12.792   6.373  1.00 20.00    -0.005 A 
HETATM    3  C7  UNL     1     -41.100  14.221   6.750  1.00 20.00     0.000 A 
ENDROOT
BRANCH   2   4
HETATM    4  C5  UNL     1     -40.289  11.880   5.819  1.00 20.00    -0.010 C 
HETATM    5  C2  UNL     1     -38.854  12.085   6.369  1.00 20.00     0.005 C 
HETATM    6  C1  UNL     1     -38.344  11.773   4.947  1.00 20.00     0.001 C 
HETATM    7  C3  UNL     1     -39.715  12.251   4.427  1.00 20.00     0.005 C 
ENDBRANCH   2   4
BRANCH   3   8
HETATM    8  C8  UNL     1     -41.690  14.783   7.996  1.00 20.00     0.090 C 
HETATM    9 BR9  UNL     1     -40.298  15.099   9.329  1.00 20.00    -0.096 Br
ENDBRANCH   3   8
TORSDOF 2
ENDMDL
MODEL 6
REMARK VINA RESULT:      -3.8     11.597     12.117
REMARK  2 active torsions:
REMARK  status: ('A' for Active; 'I' for Inactive)
REMARK    1  A    between atoms: C5_5  and  C6_6 
REMARK    2  A    between atoms: C7_7  and  C8_8 
ROOT
HETATM    1  C4  UNL     1     -34.310  18.102  -1.963  1.00 20.00     0.011 A 
HETATM    2  C6  UNL     1     -32.825  18.073  -1.742  1.00 20.00    -0.005 A 
HETATM    3  C7  UNL     1     -33.515  16.877  -2.332  1.00 20.00     0.000 A 
ENDROOT
BRANCH   2   4
HETATM    4  C5  UNL     1     -32.203  18.058  -0.361  1.00 20.00    -0.010 C 
HETATM    5  C2  UNL     1     -33.107  18.513   0.814  1.00 20.00     0.005 C 
HETATM    6  C1  UNL     1     -31.851  19.165   1.430  1.00 20.00     0.001 C 
HETATM    7  C3  UNL     1     -31.282  19.252  -0.001  1.00 20.00     0.005 C 
ENDBRANCH   2   4
BRANCH   3   8
HETATM    8  C8  UNL     1     -33.300  16.528  -3.764  1.00 20.00     0.090 C 
HETATM    9 BR9  UNL     1     -33.822  14.676  -4.101  1.00 20.00    -0.096 Br
ENDBRANCH   3   8
TORSDOF 2
ENDMDL
MODEL 7
REMARK VINA RESULT:      -3.6     11.347     12.541
REMARK  2 active torsions:
REMARK  status: ('A' for Active; 'I' for Inactive)
REMARK    1  A    between atoms: C5_5  and  C6_6 
REMARK    2  A    between atoms: C7_7  and  C8_8 
ROOT
HETATM    1  C4  UNL     1     -34.091  14.385  -4.022  1.00 20.00     0.011 A 
HETATM    2  C6  UNL     1     -34.065  15.886  -4.018  1.00 20.00    -0.005 A 
HETATM    3  C7  UNL     1     -33.640  15.135  -5.248  1.00 20.00     0.000 A 
ENDROOT
BRANCH   2   4
HETATM    4  C5  UNL     1     -33.095  16.687  -3.175  1.00 20.00    -0.010 C 
HETATM    5  C2  UNL     1     -33.534  17.003  -1.722  1.00 20.00     0.005 C 
HETATM    6  C1  UNL     1     -32.847  18.374  -1.892  1.00 20.00     0.001 C 
HETATM    7  C3  UNL     1     -33.071  18.219  -3.409  1.00 20.00     0.005 C 
ENDBRANCH   2   4
BRANCH   3   8
HETATM    8  C8  UNL     1     -34.496  15.161  -6.467  1.00 20.00     0.090 C 
HETATM    9 BR9  UNL     1     -35.066  16.987  -6.861  1.00 20.00    -0.096 Br
ENDBRANCH   3   8
TORSDOF 2
ENDMDL
MODEL 8
REMARK VINA RESULT:      -3.6     11.334     12.365
REMARK  2 active torsions:
REMARK  status: ('A' for Active; 'I' for Inactive)
REMARK    1  A    between atoms: C5_5  and  C6_6 
REMARK    2  A    between atoms: C7_7  and  C8_8 
ROOT
HETATM    1  C4  UNL     1     -34.521  18.252  -2.201  1.00 20.00     0.011 A 
HETATM    2  C6  UNL     1     -33.801  16.936  -2.265  1.00 20.00    -0.005 A 
HETATM    3  C7  UNL     1     -33.123  18.129  -1.652  1.00 20.00     0.000 A 
ENDROOT
BRANCH   2   4
HETATM    4  C5  UNL     1     -33.341  16.317  -3.568  1.00 20.00    -0.010 C 
HETATM    5  C2  UNL     1     -34.181  16.647  -4.829  1.00 20.00     0.005 C 
HETATM    6  C1  UNL     1     -33.919  15.199  -5.292  1.00 20.00     0.001 C 
HETATM    7  C3  UNL     1     -33.727  14.834  -3.806  1.00 20.00     0.005 C 
ENDBRANCH   2   4
BRANCH   3   8
HETATM    8  C8  UNL     1     -32.889  18.177  -0.182  1.00 20.00     0.090 C 
HETATM    9 BR9  UNL     1     -31.048  18.706   0.198  1.00 20.00    -0.096 Br
ENDBRANCH   3   8
TORSDOF 2
ENDMDL
MODEL 9
REMARK VINA RESULT:      -3.5     11.672     12.427
REMARK  2 active torsions:
REMARK  status: ('A' for Active; 'I' for Inactive)
REMARK    1  A    between atoms: C5_5  and  C6_6 
REMARK    2  A    between atoms: C7_7  and  C8_8 
ROOT
HETATM    1  C4  UNL     1     -33.280  18.392  -3.888  1.00 20.00     0.011 A 
HETATM    2  C6  UNL     1     -33.191  17.251  -2.916  1.00 20.00    -0.005 A 
HETATM    3  C7  UNL     1     -34.380  17.363  -3.827  1.00 20.00     0.000 A 
ENDROOT
BRANCH   2   4
HETATM    4  C5  UNL     1     -33.290  17.442  -1.417  1.00 20.00    -0.010 C 
HETATM    5  C2  UNL     1     -34.268  18.538  -0.919  1.00 20.00     0.005 C 
HETATM    6  C1  UNL     1     -33.241  18.846   0.191  1.00 20.00     0.001 C 
HETATM    7  C3  UNL     1     -32.161  18.267  -0.746  1.00 20.00     0.005 C 
ENDBRANCH   2   4
BRANCH   3   8
HETATM    8  C8  UNL     1     -34.558  16.390  -4.940  1.00 20.00     0.090 C 
HETATM    9 BR9  UNL     1     -33.939  14.618  -4.401  1.00 20.00    -0.096 Br
ENDBRANCH   3   8
TORSDOF 2
ENDMDL
