MODEL 1
REMARK VINA RESULT:      -4.2      0.000      0.000
REMARK  2 active torsions:
REMARK  status: ('A' for Active; 'I' for Inactive)
REMARK    1  A    between atoms: C4_4  and  C6_6 
REMARK    2  A    between atoms: C7_7  and  C8_8 
ROOT
HETATM    1  C1  UNL     1     -34.059   5.964   6.557  1.00 20.00     0.034 A 
HETATM    2  C2  UNL     1     -34.802   4.869   6.184  1.00 20.00     0.142 A 
HETATM    3  C3  UNL     1     -34.524   6.055   4.377  1.00 20.00     0.148 A 
HETATM    4  C4  UNL     1     -33.878   6.734   5.382  1.00 20.00    -0.029 A 
HETATM    5  O9  UNL     1     -35.091   4.915   4.857  1.00 20.00    -0.334 OA
ENDROOT
BRANCH   4   6
HETATM    6  C6  UNL     1     -33.116   8.064   5.254  1.00 20.00     0.026 A 
HETATM    7  C5  UNL     1     -33.550   9.045   4.188  1.00 20.00     0.016 A 
HETATM    8  C7  UNL     1     -32.237   8.336   4.048  1.00 20.00     0.005 A 
BRANCH   8   9
HETATM    9  C8  UNL     1     -32.039   7.337   2.959  1.00 20.00     0.090 C 
HETATM   10 BR10 UNL     1     -32.129   8.205   1.214  1.00 20.00    -0.096 Br
ENDBRANCH   8   9
ENDBRANCH   4   6
TORSDOF 2
ENDMDL
MODEL 2
REMARK VINA RESULT:      -4.2     12.174     13.005
REMARK  2 active torsions:
REMARK  status: ('A' for Active; 'I' for Inactive)
REMARK    1  A    between atoms: C4_4  and  C6_6 
REMARK    2  A    between atoms: C7_7  and  C8_8 
ROOT
HETATM    1  C1  UNL     1     -31.005  18.525  -0.052  1.00 20.00     0.034 A 
HETATM    2  C2  UNL     1     -31.176  18.447   1.310  1.00 20.00     0.142 A 
HETATM    3  C3  UNL     1     -33.075  19.146   0.501  1.00 20.00     0.148 A 
HETATM    4  C4  UNL     1     -32.239  18.978  -0.577  1.00 20.00    -0.029 A 
HETATM    5  O9  UNL     1     -32.435  18.824   1.656  1.00 20.00    -0.334 OA
ENDROOT
BRANCH   4   6
HETATM    6  C6  UNL     1     -32.578  19.235  -2.056  1.00 20.00     0.026 A 
HETATM    7  C5  UNL     1     -34.032  19.239  -2.473  1.00 20.00     0.016 A 
HETATM    8  C7  UNL     1     -33.138  18.123  -2.923  1.00 20.00     0.005 A 
BRANCH   8   9
HETATM    9  C8  UNL     1     -33.354  16.740  -2.411  1.00 20.00     0.090 C 
HETATM   10 BR10 UNL     1     -33.460  15.474  -3.893  1.00 20.00    -0.096 Br
ENDBRANCH   8   9
ENDBRANCH   4   6
TORSDOF 2
ENDMDL
MODEL 3
REMARK VINA RESULT:      -4.1     12.172     13.717
REMARK  2 active torsions:
REMARK  status: ('A' for Active; 'I' for Inactive)
REMARK    1  A    between atoms: C4_4  and  C6_6 
REMARK    2  A    between atoms: C7_7  and  C8_8 
ROOT
HETATM    1  C1  UNL     1     -34.442  16.113  -7.304  1.00 20.00     0.034 A 
HETATM    2  C2  UNL     1     -35.686  16.279  -7.867  1.00 20.00     0.142 A 
HETATM    3  C3  UNL     1     -35.971  14.980  -6.140  1.00 20.00     0.148 A 
HETATM    4  C4  UNL     1     -34.628  15.270  -6.183  1.00 20.00    -0.029 A 
HETATM    5  O9  UNL     1     -36.624  15.591  -7.164  1.00 20.00    -0.334 OA
ENDROOT
BRANCH   4   6
HETATM    6  C6  UNL     1     -33.546  14.773  -5.207  1.00 20.00     0.026 A 
HETATM    7  C5  UNL     1     -33.973  14.304  -3.834  1.00 20.00     0.016 A 
HETATM    8  C7  UNL     1     -33.196  15.578  -3.970  1.00 20.00     0.005 A 
BRANCH   8   9
HETATM    9  C8  UNL     1     -33.841  16.885  -3.655  1.00 20.00     0.090 C 
HETATM   10 BR10 UNL     1     -33.546  17.357  -1.785  1.00 20.00    -0.096 Br
ENDBRANCH   8   9
ENDBRANCH   4   6
TORSDOF 2
ENDMDL
MODEL 4
REMARK VINA RESULT:      -4.1      2.190      3.777
REMARK  2 active torsions:
REMARK  status: ('A' for Active; 'I' for Inactive)
REMARK    1  A    between atoms: C4_4  and  C6_6 
REMARK    2  A    between atoms: C7_7  and  C8_8 
ROOT
HETATM    1  C1  UNL     1     -33.305   7.984   3.578  1.00 20.00     0.034 A 
HETATM    2  C2  UNL     1     -32.296   8.854   3.920  1.00 20.00     0.142 A 
HETATM    3  C3  UNL     1     -33.062   8.048   5.794  1.00 20.00     0.148 A 
HETATM    4  C4  UNL     1     -33.801   7.461   4.796  1.00 20.00    -0.029 A 
HETATM    5  O9  UNL     1     -32.141   8.900   5.269  1.00 20.00    -0.334 OA
ENDROOT
BRANCH   4   6
HETATM    6  C6  UNL     1     -34.941   6.442   4.970  1.00 20.00     0.026 A 
HETATM    7  C5  UNL     1     -34.867   5.467   6.124  1.00 20.00     0.016 A 
HETATM    8  C7  UNL     1     -34.700   4.965   4.721  1.00 20.00     0.005 A 
BRANCH   8   9
HETATM    9  C8  UNL     1     -33.382   4.434   4.270  1.00 20.00     0.090 C 
HETATM   10 BR10 UNL     1     -33.117   4.794   2.371  1.00 20.00    -0.096 Br
ENDBRANCH   8   9
ENDBRANCH   4   6
TORSDOF 2
ENDMDL
MODEL 5
REMARK VINA RESULT:      -4.0      2.935      4.345
REMARK  2 active torsions:
REMARK  status: ('A' for Active; 'I' for Inactive)
REMARK    1  A    between atoms: C4_4  and  C6_6 
REMARK    2  A    between atoms: C7_7  and  C8_8 
ROOT
HETATM    1  C1  UNL     1     -32.460   7.964   4.445  1.00 20.00     0.034 A 
HETATM    2  C2  UNL     1     -32.474   9.265   3.997  1.00 20.00     0.142 A 
HETATM    3  C3  UNL     1     -32.546   8.010   2.217  1.00 20.00     0.148 A 
HETATM    4  C4  UNL     1     -32.507   7.150   3.288  1.00 20.00    -0.029 A 
HETATM    5  O9  UNL     1     -32.526   9.302   2.640  1.00 20.00    -0.334 OA
ENDROOT
BRANCH   4   6
HETATM    6  C6  UNL     1     -32.511   5.612   3.237  1.00 20.00     0.026 A 
HETATM    7  C5  UNL     1     -33.491   4.924   2.312  1.00 20.00     0.016 A 
HETATM    8  C7  UNL     1     -33.682   4.825   3.796  1.00 20.00     0.005 A 
BRANCH   8   9
HETATM    9  C8  UNL     1     -34.853   5.483   4.444  1.00 20.00     0.090 C 
HETATM   10 BR10 UNL     1     -34.598   5.575   6.376  1.00 20.00    -0.096 Br
ENDBRANCH   8   9
ENDBRANCH   4   6
TORSDOF 2
ENDMDL
MODEL 6
REMARK VINA RESULT:      -3.9     12.351     13.208
REMARK  2 active torsions:
REMARK  status: ('A' for Active; 'I' for Inactive)
REMARK    1  A    between atoms: C4_4  and  C6_6 
REMARK    2  A    between atoms: C7_7  and  C8_8 
ROOT
HETATM    1  C1  UNL     1     -35.310  14.670  -4.607  1.00 20.00     0.034 A 
HETATM    2  C2  UNL     1     -35.855  14.308  -5.818  1.00 20.00     0.142 A 
HETATM    3  C3  UNL     1     -33.976  15.314  -6.276  1.00 20.00     0.148 A 
HETATM    4  C4  UNL     1     -34.090  15.323  -4.906  1.00 20.00    -0.029 A 
HETATM    5  O9  UNL     1     -35.049  14.697  -6.840  1.00 20.00    -0.334 OA
ENDROOT
BRANCH   4   6
HETATM    6  C6  UNL     1     -33.091  15.924  -3.901  1.00 20.00     0.026 A 
HETATM    7  C5  UNL     1     -33.593  16.307  -2.526  1.00 20.00     0.016 A 
HETATM    8  C7  UNL     1     -33.194  17.382  -3.492  1.00 20.00     0.005 A 
BRANCH   8   9
HETATM    9  C8  UNL     1     -34.223  18.301  -4.054  1.00 20.00     0.090 C 
HETATM   10 BR10 UNL     1     -35.494  18.829  -2.670  1.00 20.00    -0.096 Br
ENDBRANCH   8   9
ENDBRANCH   4   6
TORSDOF 2
ENDMDL
MODEL 7
REMARK VINA RESULT:      -3.9     10.065     10.883
REMARK  2 active torsions:
REMARK  status: ('A' for Active; 'I' for Inactive)
REMARK    1  A    between atoms: C4_4  and  C6_6 
REMARK    2  A    between atoms: C7_7  and  C8_8 
ROOT
HETATM    1  C1  UNL     1     -40.282  14.758   8.839  1.00 20.00     0.034 A 
HETATM    2  C2  UNL     1     -40.555  14.326  10.116  1.00 20.00     0.142 A 
HETATM    3  C3  UNL     1     -42.264  13.737   8.899  1.00 20.00     0.148 A 
HETATM    4  C4  UNL     1     -41.392  14.374   8.049  1.00 20.00    -0.029 A 
HETATM    5  O9  UNL     1     -41.762  13.702  10.162  1.00 20.00    -0.334 OA
ENDROOT
BRANCH   4   6
HETATM    6  C6  UNL     1     -41.588  14.623   6.543  1.00 20.00     0.026 A 
HETATM    7  C5  UNL     1     -42.636  13.816   5.809  1.00 20.00     0.016 A 
HETATM    8  C7  UNL     1     -41.184  13.569   5.529  1.00 20.00     0.005 A 
BRANCH   8   9
HETATM    9  C8  UNL     1     -40.556  12.276   5.925  1.00 20.00     0.090 C 
HETATM   10 BR10 UNL     1     -39.215  11.740   4.612  1.00 20.00    -0.096 Br
ENDBRANCH   8   9
ENDBRANCH   4   6
TORSDOF 2
ENDMDL
MODEL 8
REMARK VINA RESULT:      -3.9     12.408     13.144
REMARK  2 active torsions:
REMARK  status: ('A' for Active; 'I' for Inactive)
REMARK    1  A    between atoms: C4_4  and  C6_6 
REMARK    2  A    between atoms: C7_7  and  C8_8 
ROOT
HETATM    1  C1  UNL     1     -31.849  18.394  -0.916  1.00 20.00     0.034 A 
HETATM    2  C2  UNL     1     -31.809  19.151   0.232  1.00 20.00     0.142 A 
HETATM    3  C3  UNL     1     -33.755  18.170   0.222  1.00 20.00     0.148 A 
HETATM    4  C4  UNL     1     -33.113  17.757  -0.922  1.00 20.00    -0.029 A 
HETATM    5  O9  UNL     1     -32.967  19.020   0.932  1.00 20.00    -0.334 OA
ENDROOT
BRANCH   4   6
HETATM    6  C6  UNL     1     -33.662  16.798  -1.993  1.00 20.00     0.026 A 
HETATM    7  C5  UNL     1     -33.022  16.805  -3.363  1.00 20.00     0.016 A 
HETATM    8  C7  UNL     1     -34.414  17.335  -3.196  1.00 20.00     0.005 A 
BRANCH   8   9
HETATM    9  C8  UNL     1     -34.688  18.788  -3.386  1.00 20.00     0.090 C 
HETATM   10 BR10 UNL     1     -36.436  19.253  -2.653  1.00 20.00    -0.096 Br
ENDBRANCH   8   9
ENDBRANCH   4   6
TORSDOF 2
ENDMDL
MODEL 9
REMARK VINA RESULT:      -3.9      9.673     10.568
REMARK  2 active torsions:
REMARK  status: ('A' for Active; 'I' for Inactive)
REMARK    1  A    between atoms: C4_4  and  C6_6 
REMARK    2  A    between atoms: C7_7  and  C8_8 
ROOT
HETATM    1  C1  UNL     1     -39.950  11.772   6.008  1.00 20.00     0.034 A 
HETATM    2  C2  UNL     1     -39.402  11.883   4.751  1.00 20.00     0.142 A 
HETATM    3  C3  UNL     1     -41.069  13.286   4.812  1.00 20.00     0.148 A 
HETATM    4  C4  UNL     1     -41.032  12.684   6.047  1.00 20.00    -0.029 A 
HETATM    5  O9  UNL     1     -40.078  12.804   4.015  1.00 20.00    -0.334 OA
ENDROOT
BRANCH   4   6
HETATM    6  C6  UNL     1     -41.979  12.948   7.231  1.00 20.00     0.026 A 
HETATM    7  C5  UNL     1     -42.741  14.254   7.268  1.00 20.00     0.016 A 
HETATM    8  C7  UNL     1     -41.646  14.009   8.263  1.00 20.00     0.005 A 
BRANCH   8   9
HETATM    9  C8  UNL     1     -40.393  14.814   8.208  1.00 20.00     0.090 C 
HETATM   10 BR10 UNL     1     -40.774  16.627   7.592  1.00 20.00    -0.096 Br
ENDBRANCH   8   9
ENDBRANCH   4   6
TORSDOF 2
ENDMDL
