MODEL 1
REMARK VINA RESULT:      -3.7      0.000      0.000
REMARK  3 active torsions:
REMARK  status: ('A' for Active; 'I' for Inactive)
REMARK    1  A    between atoms: C4_4  and  C6_6 
REMARK    2  A    between atoms: C5_5  and  C8_8 
REMARK    3  A    between atoms: C6_6  and  C9_9 
ROOT
HETATM    1  C3  UNL     1     -32.423   5.984   2.913  1.00 20.00     0.017 A 
HETATM    2  C5  UNL     1     -32.997   7.177   2.205  1.00 20.00     0.009 A 
HETATM    3  C6  UNL     1     -32.926   7.163   3.731  1.00 20.00    -0.032 A 
ENDROOT
BRANCH   3   4
HETATM    4  C4  UNL     1     -34.228   7.044   4.538  1.00 20.00    -0.006 A 
HETATM    5  C1  UNL     1     -34.995   5.757   4.656  1.00 20.00     0.006 A 
HETATM    6  C2  UNL     1     -34.301   6.331   5.859  1.00 20.00     0.006 A 
ENDBRANCH   3   4
BRANCH   3   7
HETATM    7  C9  UNL     1     -31.877   8.005   4.417  1.00 20.00     0.006 C 
HETATM    8  C7  UNL     1     -32.463   9.214   5.082  1.00 20.00     0.006 C 
ENDBRANCH   3   7
BRANCH   2   9
HETATM    9  C8  UNL     1     -32.127   8.046   1.361  1.00 20.00     0.120 C 
HETATM   10 CL10 UNL     1     -32.876   9.643   1.090  1.00 20.00    -0.130 Cl
ENDBRANCH   2   9
TORSDOF 3
ENDMDL
MODEL 2
REMARK VINA RESULT:      -3.6      1.208      2.469
REMARK  3 active torsions:
REMARK  status: ('A' for Active; 'I' for Inactive)
REMARK    1  A    between atoms: C4_4  and  C6_6 
REMARK    2  A    between atoms: C5_5  and  C8_8 
REMARK    3  A    between atoms: C6_6  and  C9_9 
ROOT
HETATM    1  C3  UNL     1     -33.899   8.467   4.425  1.00 20.00     0.017 A 
HETATM    2  C5  UNL     1     -32.476   8.027   4.235  1.00 20.00     0.009 A 
HETATM    3  C6  UNL     1     -33.563   6.985   4.488  1.00 20.00    -0.032 A 
ENDROOT
BRANCH   3   4
HETATM    4  C4  UNL     1     -33.588   6.244   5.835  1.00 20.00    -0.006 A 
HETATM    5  C1  UNL     1     -34.656   6.475   6.868  1.00 20.00     0.006 A 
HETATM    6  C2  UNL     1     -34.581   5.159   6.145  1.00 20.00     0.006 A 
ENDBRANCH   3   4
BRANCH   3   7
HETATM    7  C9  UNL     1     -34.039   6.135   3.335  1.00 20.00     0.006 C 
HETATM    8  C7  UNL     1     -33.025   5.107   2.930  1.00 20.00     0.006 C 
ENDBRANCH   3   7
BRANCH   2   9
HETATM    9  C8  UNL     1     -31.805   8.192   2.914  1.00 20.00     0.120 C 
HETATM   10 CL10 UNL     1     -32.731   9.286   1.850  1.00 20.00    -0.130 Cl
ENDBRANCH   2   9
TORSDOF 3
ENDMDL
MODEL 3
REMARK VINA RESULT:      -3.6     10.819     12.161
REMARK  3 active torsions:
REMARK  status: ('A' for Active; 'I' for Inactive)
REMARK    1  A    between atoms: C4_4  and  C6_6 
REMARK    2  A    between atoms: C5_5  and  C8_8 
REMARK    3  A    between atoms: C6_6  and  C9_9 
ROOT
HETATM    1  C3  UNL     1     -33.868  17.031  -1.481  1.00 20.00     0.017 A 
HETATM    2  C5  UNL     1     -32.495  17.552  -1.796  1.00 20.00     0.009 A 
HETATM    3  C6  UNL     1     -33.427  17.137  -2.932  1.00 20.00    -0.032 A 
ENDROOT
BRANCH   3   4
HETATM    4  C4  UNL     1     -33.106  15.867  -3.737  1.00 20.00    -0.006 A 
HETATM    5  C1  UNL     1     -34.049  14.700  -3.821  1.00 20.00     0.006 A 
HETATM    6  C2  UNL     1     -33.781  15.539  -5.039  1.00 20.00     0.006 A 
ENDBRANCH   3   4
BRANCH   3   7
HETATM    7  C9  UNL     1     -34.086  18.213  -3.762  1.00 20.00     0.006 C 
HETATM    8  C7  UNL     1     -35.536  18.387  -3.422  1.00 20.00     0.006 C 
ENDBRANCH   3   7
BRANCH   2   9
HETATM    9  C8  UNL     1     -32.143  18.973  -1.515  1.00 20.00     0.120 C 
HETATM   10 CL10 UNL     1     -31.168  19.116  -0.027  1.00 20.00    -0.130 Cl
ENDBRANCH   2   9
TORSDOF 3
ENDMDL
MODEL 4
REMARK VINA RESULT:      -3.6     10.973     11.961
REMARK  3 active torsions:
REMARK  status: ('A' for Active; 'I' for Inactive)
REMARK    1  A    between atoms: C4_4  and  C6_6 
REMARK    2  A    between atoms: C5_5  and  C8_8 
REMARK    3  A    between atoms: C6_6  and  C9_9 
ROOT
HETATM    1  C3  UNL     1     -32.679  15.866  -4.128  1.00 20.00     0.017 A 
HETATM    2  C5  UNL     1     -33.912  15.090  -3.766  1.00 20.00     0.009 A 
HETATM    3  C6  UNL     1     -33.768  16.540  -3.309  1.00 20.00    -0.032 A 
ENDROOT
BRANCH   3   4
HETATM    4  C4  UNL     1     -33.543  16.833  -1.817  1.00 20.00    -0.006 A 
HETATM    5  C1  UNL     1     -32.588  17.889  -1.333  1.00 20.00     0.006 A 
HETATM    6  C2  UNL     1     -34.067  18.072  -1.146  1.00 20.00     0.006 A 
ENDBRANCH   3   4
BRANCH   3   7
HETATM    7  C9  UNL     1     -34.578  17.606  -4.007  1.00 20.00     0.006 C 
HETATM    8  C7  UNL     1     -33.719  18.545  -4.799  1.00 20.00     0.006 C 
ENDBRANCH   3   7
BRANCH   2   9
HETATM    9  C8  UNL     1     -34.875  14.665  -4.822  1.00 20.00     0.120 C 
HETATM   10 CL10 UNL     1     -34.228  14.987  -6.454  1.00 20.00    -0.130 Cl
ENDBRANCH   2   9
TORSDOF 3
ENDMDL
MODEL 5
REMARK VINA RESULT:      -3.6     10.049     11.085
REMARK  3 active torsions:
REMARK  status: ('A' for Active; 'I' for Inactive)
REMARK    1  A    between atoms: C4_4  and  C6_6 
REMARK    2  A    between atoms: C5_5  and  C8_8 
REMARK    3  A    between atoms: C6_6  and  C9_9 
ROOT
HETATM    1  C3  UNL     1     -42.390  13.822   5.841  1.00 20.00     0.017 A 
HETATM    2  C5  UNL     1     -42.707  12.825   6.919  1.00 20.00     0.009 A 
HETATM    3  C6  UNL     1     -41.251  13.136   6.579  1.00 20.00    -0.032 A 
ENDROOT
BRANCH   3   4
HETATM    4  C4  UNL     1     -40.404  12.067   5.871  1.00 20.00    -0.006 A 
HETATM    5  C1  UNL     1     -39.710  12.318   4.561  1.00 20.00     0.006 A 
HETATM    6  C2  UNL     1     -38.904  12.126   5.815  1.00 20.00     0.006 A 
ENDBRANCH   3   4
BRANCH   3   7
HETATM    7  C9  UNL     1     -40.449  13.993   7.530  1.00 20.00     0.006 C 
HETATM    8  C7  UNL     1     -40.546  15.453   7.201  1.00 20.00     0.006 C 
ENDBRANCH   3   7
BRANCH   2   9
HETATM    9  C8  UNL     1     -43.354  13.265   8.188  1.00 20.00     0.120 C 
HETATM   10 CL10 UNL     1     -43.417  11.936   9.377  1.00 20.00    -0.130 Cl
ENDBRANCH   2   9
TORSDOF 3
ENDMDL
MODEL 6
REMARK VINA RESULT:      -3.5      2.183      4.179
REMARK  3 active torsions:
REMARK  status: ('A' for Active; 'I' for Inactive)
REMARK    1  A    between atoms: C4_4  and  C6_6 
REMARK    2  A    between atoms: C5_5  and  C8_8 
REMARK    3  A    between atoms: C6_6  and  C9_9 
ROOT
HETATM    1  C3  UNL     1     -32.203   8.815   4.562  1.00 20.00     0.017 A 
HETATM    2  C5  UNL     1     -33.543   8.153   4.706  1.00 20.00     0.009 A 
HETATM    3  C6  UNL     1     -32.722   7.931   3.439  1.00 20.00    -0.032 A 
ENDROOT
BRANCH   3   4
HETATM    4  C4  UNL     1     -33.199   8.558   2.119  1.00 20.00    -0.006 A 
HETATM    5  C1  UNL     1     -32.764   9.923   1.666  1.00 20.00     0.006 A 
HETATM    6  C2  UNL     1     -32.306   8.702   0.919  1.00 20.00     0.006 A 
ENDBRANCH   3   4
BRANCH   3   7
HETATM    7  C9  UNL     1     -32.026   6.604   3.247  1.00 20.00     0.006 C 
HETATM    8  C7  UNL     1     -32.896   5.600   2.552  1.00 20.00     0.006 C 
ENDBRANCH   3   7
BRANCH   2   9
HETATM    9  C8  UNL     1     -33.755   7.092   5.731  1.00 20.00     0.120 C 
HETATM   10 CL10 UNL     1     -35.065   5.979   5.250  1.00 20.00    -0.130 Cl
ENDBRANCH   2   9
TORSDOF 3
ENDMDL
MODEL 7
REMARK VINA RESULT:      -3.5      9.767     10.851
REMARK  3 active torsions:
REMARK  status: ('A' for Active; 'I' for Inactive)
REMARK    1  A    between atoms: C4_4  and  C6_6 
REMARK    2  A    between atoms: C5_5  and  C8_8 
REMARK    3  A    between atoms: C6_6  and  C9_9 
ROOT
HETATM    1  C3  UNL     1     -41.435  13.797   5.310  1.00 20.00     0.017 A 
HETATM    2  C5  UNL     1     -40.321  13.075   6.012  1.00 20.00     0.009 A 
HETATM    3  C6  UNL     1     -41.621  13.369   6.757  1.00 20.00    -0.032 A 
ENDROOT
BRANCH   3   4
HETATM    4  C4  UNL     1     -41.618  14.419   7.880  1.00 20.00    -0.006 A 
HETATM    5  C1  UNL     1     -40.412  14.687   8.736  1.00 20.00     0.006 A 
HETATM    6  C2  UNL     1     -40.890  15.728   7.764  1.00 20.00     0.006 A 
ENDBRANCH   3   4
BRANCH   3   7
HETATM    7  C9  UNL     1     -42.587  12.236   7.008  1.00 20.00     0.006 C 
HETATM    8  C7  UNL     1     -43.417  12.457   8.237  1.00 20.00     0.006 C 
ENDBRANCH   3   7
BRANCH   2   9
HETATM    9  C8  UNL     1     -39.923  11.703   5.586  1.00 20.00     0.120 C 
HETATM   10 CL10 UNL     1     -38.945  11.746   4.094  1.00 20.00    -0.130 Cl
ENDBRANCH   2   9
TORSDOF 3
ENDMDL
MODEL 8
REMARK VINA RESULT:      -3.5      9.989     11.123
REMARK  3 active torsions:
REMARK  status: ('A' for Active; 'I' for Inactive)
REMARK    1  A    between atoms: C4_4  and  C6_6 
REMARK    2  A    between atoms: C5_5  and  C8_8 
REMARK    3  A    between atoms: C6_6  and  C9_9 
ROOT
HETATM    1  C3  UNL     1     -40.543  14.075   8.347  1.00 20.00     0.017 A 
HETATM    2  C5  UNL     1     -40.387  15.251   7.427  1.00 20.00     0.009 A 
HETATM    3  C6  UNL     1     -40.714  13.875   6.850  1.00 20.00    -0.032 A 
ENDROOT
BRANCH   3   4
HETATM    4  C4  UNL     1     -39.641  13.129   6.041  1.00 20.00    -0.006 A 
HETATM    5  C1  UNL     1     -39.450  11.641   6.127  1.00 20.00     0.006 A 
HETATM    6  C2  UNL     1     -39.972  12.259   4.861  1.00 20.00     0.006 A 
ENDBRANCH   3   4
BRANCH   3   7
HETATM    7  C9  UNL     1     -42.117  13.608   6.360  1.00 20.00     0.006 C 
HETATM    8  C7  UNL     1     -42.824  12.578   7.190  1.00 20.00     0.006 C 
ENDBRANCH   3   7
BRANCH   2   9
HETATM    9  C8  UNL     1     -41.370  16.371   7.459  1.00 20.00     0.120 C 
HETATM   10 CL10 UNL     1     -40.570  17.943   7.186  1.00 20.00    -0.130 Cl
ENDBRANCH   2   9
TORSDOF 3
ENDMDL
MODEL 9
REMARK VINA RESULT:      -3.4     10.193     11.102
REMARK  3 active torsions:
REMARK  status: ('A' for Active; 'I' for Inactive)
REMARK    1  A    between atoms: C4_4  and  C6_6 
REMARK    2  A    between atoms: C5_5  and  C8_8 
REMARK    3  A    between atoms: C6_6  and  C9_9 
ROOT
HETATM    1  C3  UNL     1     -41.896  12.700   6.729  1.00 20.00     0.017 A 
HETATM    2  C5  UNL     1     -40.894  12.857   5.622  1.00 20.00     0.009 A 
HETATM    3  C6  UNL     1     -41.331  14.079   6.428  1.00 20.00    -0.032 A 
ENDROOT
BRANCH   3   4
HETATM    4  C4  UNL     1     -42.210  15.143   5.752  1.00 20.00    -0.006 A 
HETATM    5  C1  UNL     1     -43.417  15.741   6.419  1.00 20.00     0.006 A 
HETATM    6  C2  UNL     1     -42.201  16.587   6.169  1.00 20.00     0.006 A 
ENDBRANCH   3   4
BRANCH   3   7
HETATM    7  C9  UNL     1     -40.378  14.657   7.447  1.00 20.00     0.006 C 
HETATM    8  C7  UNL     1     -40.825  14.398   8.854  1.00 20.00     0.006 C 
ENDBRANCH   3   7
BRANCH   2   9
HETATM    9  C8  UNL     1     -39.536  12.252   5.741  1.00 20.00     0.120 C 
HETATM   10 CL10 UNL     1     -38.944  11.676   4.159  1.00 20.00    -0.130 Cl
ENDBRANCH   2   9
TORSDOF 3
ENDMDL
