MODEL 1
REMARK VINA RESULT:      -3.7      0.000      0.000
REMARK  1 active torsions:
REMARK  status: ('A' for Active; 'I' for Inactive)
REMARK    1  A    between atoms: C5_5  and  C10_10 
ROOT
HETATM    1  C1  UNL     1     -36.271  14.001  -5.011  1.00 20.00     0.002 C 
HETATM    2  C2  UNL     1     -34.975  13.927  -4.213  1.00 20.00     0.011 C 
HETATM    3  C3  UNL     1     -35.913  14.906  -6.180  1.00 20.00     0.010 C 
HETATM    4  C4  UNL     1     -32.746  15.227  -4.428  1.00 20.00     0.017 A 
HETATM    5  C5  UNL     1     -33.490  15.884  -3.306  1.00 20.00     0.005 A 
HETATM    6  C6  UNL     1     -34.268  15.254  -4.463  1.00 20.00    -0.029 A 
HETATM    7  C7  UNL     1     -35.047  16.029  -5.543  1.00 20.00    -0.040 C 
HETATM    8  C8  UNL     1     -34.187  16.666  -6.638  1.00 20.00     0.015 C 
HETATM    9  C9  UNL     1     -35.975  17.092  -4.931  1.00 20.00     0.015 C 
ENDROOT
BRANCH   5  10
HETATM   10  C10 UNL     1     -33.308  17.343  -3.082  1.00 20.00     0.090 C 
HETATM   11 BR11 UNL     1     -33.599  17.788  -1.203  1.00 20.00    -0.096 Br
ENDBRANCH   5  10
TORSDOF 1
ENDMDL
MODEL 2
REMARK VINA RESULT:      -3.6     13.337     14.193
REMARK  1 active torsions:
REMARK  status: ('A' for Active; 'I' for Inactive)
REMARK    1  A    between atoms: C5_5  and  C10_10 
ROOT
HETATM    1  C1  UNL     1     -43.247  13.595   9.227  1.00 20.00     0.002 C 
HETATM    2  C2  UNL     1     -43.188  12.898   7.874  1.00 20.00     0.011 C 
HETATM    3  C3  UNL     1     -42.677  14.976   8.937  1.00 20.00     0.010 C 
HETATM    4  C4  UNL     1     -42.098  13.588   5.629  1.00 20.00     0.017 A 
HETATM    5  C5  UNL     1     -41.148  12.616   6.258  1.00 20.00     0.005 A 
HETATM    6  C6  UNL     1     -42.003  13.520   7.147  1.00 20.00    -0.029 A 
HETATM    7  C7  UNL     1     -41.479  14.702   7.985  1.00 20.00    -0.040 C 
HETATM    8  C8  UNL     1     -41.175  15.979   7.197  1.00 20.00     0.015 C 
HETATM    9  C9  UNL     1     -40.251  14.310   8.826  1.00 20.00     0.015 C 
ENDROOT
BRANCH   5  10
HETATM   10  C10 UNL     1     -39.691  12.775   6.011  1.00 20.00     0.090 C 
HETATM   11 BR11 UNL     1     -39.141  11.730   4.455  1.00 20.00    -0.096 Br
ENDBRANCH   5  10
TORSDOF 1
ENDMDL
MODEL 3
REMARK VINA RESULT:      -3.6      2.219      3.648
REMARK  1 active torsions:
REMARK  status: ('A' for Active; 'I' for Inactive)
REMARK    1  A    between atoms: C5_5  and  C10_10 
ROOT
HETATM    1  C1  UNL     1     -33.470  15.918  -3.148  1.00 20.00     0.002 C 
HETATM    2  C2  UNL     1     -34.109  17.200  -3.667  1.00 20.00     0.011 C 
HETATM    3  C3  UNL     1     -33.133  15.153  -4.420  1.00 20.00     0.010 C 
HETATM    4  C4  UNL     1     -34.849  17.914  -6.042  1.00 20.00     0.017 A 
HETATM    5  C5  UNL     1     -36.101  17.483  -5.342  1.00 20.00     0.005 A 
HETATM    6  C6  UNL     1     -34.769  16.821  -4.987  1.00 20.00    -0.029 A 
HETATM    7  C7  UNL     1     -34.368  15.375  -5.337  1.00 20.00    -0.040 C 
HETATM    8  C8  UNL     1     -33.946  15.148  -6.792  1.00 20.00     0.015 C 
HETATM    9  C9  UNL     1     -35.465  14.366  -4.955  1.00 20.00     0.015 C 
ENDROOT
BRANCH   5  10
HETATM   10  C10 UNL     1     -37.190  16.859  -6.139  1.00 20.00     0.090 C 
HETATM   11 BR11 UNL     1     -38.706  16.408  -4.992  1.00 20.00    -0.096 Br
ENDBRANCH   5  10
TORSDOF 1
ENDMDL
MODEL 4
REMARK VINA RESULT:      -3.4      1.870      2.604
REMARK  1 active torsions:
REMARK  status: ('A' for Active; 'I' for Inactive)
REMARK    1  A    between atoms: C5_5  and  C10_10 
ROOT
HETATM    1  C1  UNL     1     -33.847  14.665  -4.161  1.00 20.00     0.002 C 
HETATM    2  C2  UNL     1     -33.576  16.020  -3.519  1.00 20.00     0.011 C 
HETATM    3  C3  UNL     1     -33.981  14.996  -5.640  1.00 20.00     0.010 C 
HETATM    4  C4  UNL     1     -33.651  18.423  -4.478  1.00 20.00     0.017 A 
HETATM    5  C5  UNL     1     -34.940  18.244  -3.738  1.00 20.00     0.005 A 
HETATM    6  C6  UNL     1     -34.279  17.039  -4.408  1.00 20.00    -0.029 A 
HETATM    7  C7  UNL     1     -34.804  16.315  -5.663  1.00 20.00    -0.040 C 
HETATM    8  C8  UNL     1     -34.542  17.034  -6.989  1.00 20.00     0.015 C 
HETATM    9  C9  UNL     1     -36.300  15.974  -5.546  1.00 20.00     0.015 C 
ENDROOT
BRANCH   5  10
HETATM   10  C10 UNL     1     -36.154  18.947  -4.230  1.00 20.00     0.090 C 
HETATM   11 BR11 UNL     1     -37.638  18.706  -2.984  1.00 20.00    -0.096 Br
ENDBRANCH   5  10
TORSDOF 1
ENDMDL
MODEL 5
REMARK VINA RESULT:      -3.3     13.178     13.879
REMARK  1 active torsions:
REMARK  status: ('A' for Active; 'I' for Inactive)
REMARK    1  A    between atoms: C5_5  and  C10_10 
ROOT
HETATM    1  C1  UNL     1     -40.331  12.273   5.630  1.00 20.00     0.002 C 
HETATM    2  C2  UNL     1     -39.777  13.012   6.841  1.00 20.00     0.011 C 
HETATM    3  C3  UNL     1     -41.202  13.318   4.948  1.00 20.00     0.010 C 
HETATM    4  C4  UNL     1     -40.342  15.329   7.849  1.00 20.00     0.017 A 
HETATM    5  C5  UNL     1     -41.072  14.332   8.695  1.00 20.00     0.005 A 
HETATM    6  C6  UNL     1     -40.839  14.040   7.212  1.00 20.00    -0.029 A 
HETATM    7  C7  UNL     1     -41.928  14.035   6.121  1.00 20.00    -0.040 C 
HETATM    8  C8  UNL     1     -42.383  15.417   5.646  1.00 20.00     0.015 C 
HETATM    9  C9  UNL     1     -43.154  13.202   6.536  1.00 20.00     0.015 C 
ENDROOT
BRANCH   5  10
HETATM   10  C10 UNL     1     -42.370  14.723   9.305  1.00 20.00     0.090 C 
HETATM   11 BR11 UNL     1     -43.084  13.264  10.390  1.00 20.00    -0.096 Br
ENDBRANCH   5  10
TORSDOF 1
ENDMDL
MODEL 6
REMARK VINA RESULT:      -3.3     11.339     12.780
REMARK  1 active torsions:
REMARK  status: ('A' for Active; 'I' for Inactive)
REMARK    1  A    between atoms: C5_5  and  C10_10 
ROOT
HETATM    1  C1  UNL     1     -34.526   6.193   6.610  1.00 20.00     0.002 C 
HETATM    2  C2  UNL     1     -33.483   7.260   6.305  1.00 20.00     0.011 C 
HETATM    3  C3  UNL     1     -34.327   5.177   5.495  1.00 20.00     0.010 C 
HETATM    4  C4  UNL     1     -31.931   7.614   4.263  1.00 20.00     0.017 A 
HETATM    5  C5  UNL     1     -33.072   8.566   4.074  1.00 20.00     0.005 A 
HETATM    6  C6  UNL     1     -33.307   7.237   4.792  1.00 20.00    -0.029 A 
HETATM    7  C7  UNL     1     -34.101   6.044   4.225  1.00 20.00    -0.040 C 
HETATM    8  C8  UNL     1     -33.360   5.202   3.182  1.00 20.00     0.015 C 
HETATM    9  C9  UNL     1     -35.467   6.477   3.663  1.00 20.00     0.015 C 
ENDROOT
BRANCH   5  10
HETATM   10  C10 UNL     1     -33.513   8.892   2.691  1.00 20.00     0.090 C 
HETATM   11 BR11 UNL     1     -32.144   8.376   1.397  1.00 20.00    -0.096 Br
ENDBRANCH   5  10
TORSDOF 1
ENDMDL
MODEL 7
REMARK VINA RESULT:      -3.3      2.531      3.816
REMARK  1 active torsions:
REMARK  status: ('A' for Active; 'I' for Inactive)
REMARK    1  A    between atoms: C5_5  and  C10_10 
ROOT
HETATM    1  C1  UNL     1     -33.293  17.040  -2.713  1.00 20.00     0.002 C 
HETATM    2  C2  UNL     1     -33.441  15.720  -3.460  1.00 20.00     0.011 C 
HETATM    3  C3  UNL     1     -34.596  17.764  -3.015  1.00 20.00     0.010 C 
HETATM    4  C4  UNL     1     -35.214  14.894  -5.156  1.00 20.00     0.017 A 
HETATM    5  C5  UNL     1     -34.035  15.316  -5.978  1.00 20.00     0.005 A 
HETATM    6  C6  UNL     1     -34.331  16.029  -4.658  1.00 20.00    -0.029 A 
HETATM    7  C7  UNL     1     -34.856  17.471  -4.520  1.00 20.00    -0.040 C 
HETATM    8  C8  UNL     1     -36.349  17.654  -4.805  1.00 20.00     0.015 C 
HETATM    9  C9  UNL     1     -34.042  18.462  -5.371  1.00 20.00     0.015 C 
ENDROOT
BRANCH   5  10
HETATM   10  C10 UNL     1     -34.270  15.876  -7.335  1.00 20.00     0.090 C 
HETATM   11 BR11 UNL     1     -36.099  15.514  -7.918  1.00 20.00    -0.096 Br
ENDBRANCH   5  10
TORSDOF 1
ENDMDL
MODEL 8
REMARK VINA RESULT:      -3.3     24.584     25.843
REMARK  1 active torsions:
REMARK  status: ('A' for Active; 'I' for Inactive)
REMARK    1  A    between atoms: C5_5  and  C10_10 
ROOT
HETATM    1  C1  UNL     1     -26.899  -0.317  12.074  1.00 20.00     0.002 C 
HETATM    2  C2  UNL     1     -25.441  -0.756  12.129  1.00 20.00     0.011 C 
HETATM    3  C3  UNL     1     -27.665  -1.606  12.328  1.00 20.00     0.010 C 
HETATM    4  C4  UNL     1     -24.356  -3.104  12.247  1.00 20.00     0.017 A 
HETATM    5  C5  UNL     1     -24.256  -2.684  10.813  1.00 20.00     0.005 A 
HETATM    6  C6  UNL     1     -25.436  -2.206  11.660  1.00 20.00    -0.029 A 
HETATM    7  C7  UNL     1     -26.895  -2.677  11.505  1.00 20.00    -0.040 C 
HETATM    8  C8  UNL     1     -27.201  -4.059  12.090  1.00 20.00     0.015 C 
HETATM    9  C9  UNL     1     -27.365  -2.619  10.041  1.00 20.00     0.015 C 
ENDROOT
BRANCH   5  10
HETATM   10  C10 UNL     1     -24.318  -3.726   9.754  1.00 20.00     0.090 C 
HETATM   11 BR11 UNL     1     -23.252  -3.195   8.206  1.00 20.00    -0.096 Br
ENDBRANCH   5  10
TORSDOF 1
ENDMDL
MODEL 9
REMARK VINA RESULT:      -3.2      1.494      2.101
REMARK  1 active torsions:
REMARK  status: ('A' for Active; 'I' for Inactive)
REMARK    1  A    between atoms: C5_5  and  C10_10 
ROOT
HETATM    1  C1  UNL     1     -35.443  15.996  -5.501  1.00 20.00     0.002 C 
HETATM    2  C2  UNL     1     -34.450  15.458  -4.479  1.00 20.00     0.011 C 
HETATM    3  C3  UNL     1     -34.918  17.392  -5.800  1.00 20.00     0.010 C 
HETATM    4  C4  UNL     1     -32.519  16.602  -3.188  1.00 20.00     0.017 A 
HETATM    5  C5  UNL     1     -33.665  16.534  -2.225  1.00 20.00     0.005 A 
HETATM    6  C6  UNL     1     -33.942  16.679  -3.723  1.00 20.00    -0.029 A 
HETATM    7  C7  UNL     1     -34.488  17.944  -4.412  1.00 20.00    -0.040 C 
HETATM    8  C8  UNL     1     -33.467  19.066  -4.623  1.00 20.00     0.015 C 
HETATM    9  C9  UNL     1     -35.727  18.503  -3.689  1.00 20.00     0.015 C 
ENDROOT
BRANCH   5  10
HETATM   10  C10 UNL     1     -33.814  17.612  -1.211  1.00 20.00     0.090 C 
HETATM   11 BR11 UNL     1     -32.095  18.473  -0.870  1.00 20.00    -0.096 Br
ENDBRANCH   5  10
TORSDOF 1
ENDMDL
