MODEL 1
REMARK VINA RESULT:      -3.6      0.000      0.000
REMARK  2 active torsions:
REMARK  status: ('A' for Active; 'I' for Inactive)
REMARK    1  A    between atoms: C4_4  and  C7_7 
REMARK    2  A    between atoms: C6_6  and  C9_9 
ROOT
HETATM    1  C5  UNL     1     -32.679  19.030  -2.612  1.00 20.00     0.021 A 
HETATM    2  C6  UNL     1     -32.751  17.974  -1.549  1.00 20.00     0.009 A 
HETATM    3  C7  UNL     1     -33.890  18.111  -2.560  1.00 20.00    -0.012 A 
HETATM    4  C8  UNL     1     -35.210  18.693  -2.146  1.00 20.00     0.021 C 
ENDROOT
BRANCH   3   5
HETATM    5  C4  UNL     1     -33.966  16.997  -3.643  1.00 20.00    -0.043 A 
HETATM    6  C1  UNL     1     -33.345  15.721  -3.516  1.00 20.00     0.015 A 
HETATM    7  C2  UNL     1     -33.567  14.925  -4.618  1.00 20.00     0.050 A 
HETATM    8  S10 UNL     1     -34.520  15.717  -5.800  1.00 20.00    -0.113 SA
HETATM    9  C3  UNL     1     -34.638  17.129  -4.838  1.00 20.00     0.057 A 
ENDBRANCH   3   5
BRANCH   2  10
HETATM   10  C9  UNL     1     -32.900  18.357  -0.117  1.00 20.00     0.090 C 
HETATM   11 BR11 UNL     1     -31.151  18.653   0.696  1.00 20.00    -0.096 Br
ENDBRANCH   2  10
TORSDOF 2
ENDMDL
MODEL 2
REMARK VINA RESULT:      -3.6      3.458      4.855
REMARK  2 active torsions:
REMARK  status: ('A' for Active; 'I' for Inactive)
REMARK    1  A    between atoms: C4_4  and  C7_7 
REMARK    2  A    between atoms: C6_6  and  C9_9 
ROOT
HETATM    1  C5  UNL     1     -33.002  18.737  -3.563  1.00 20.00     0.021 A 
HETATM    2  C6  UNL     1     -34.383  18.798  -2.982  1.00 20.00     0.009 A 
HETATM    3  C7  UNL     1     -33.360  17.821  -2.402  1.00 20.00    -0.012 A 
HETATM    4  C8  UNL     1     -33.478  16.348  -2.666  1.00 20.00     0.021 C 
ENDROOT
BRANCH   3   5
HETATM    5  C4  UNL     1     -32.780  18.202  -1.010  1.00 20.00    -0.043 A 
HETATM    6  C1  UNL     1     -33.553  18.253   0.187  1.00 20.00     0.015 A 
HETATM    7  C2  UNL     1     -32.795  18.618   1.277  1.00 20.00     0.050 A 
HETATM    8  S10 UNL     1     -31.159  18.900   0.857  1.00 20.00    -0.113 SA
HETATM    9  C3  UNL     1     -31.462  18.533  -0.789  1.00 20.00     0.057 A 
ENDBRANCH   3   5
BRANCH   2  10
HETATM   10  C9  UNL     1     -35.557  18.348  -3.783  1.00 20.00     0.090 C 
HETATM   11 BR11 UNL     1     -37.221  18.894  -2.922  1.00 20.00    -0.096 Br
ENDBRANCH   2  10
TORSDOF 2
ENDMDL
MODEL 3
REMARK VINA RESULT:      -3.5      3.506      4.957
REMARK  2 active torsions:
REMARK  status: ('A' for Active; 'I' for Inactive)
REMARK    1  A    between atoms: C4_4  and  C7_7 
REMARK    2  A    between atoms: C6_6  and  C9_9 
ROOT
HETATM    1  C5  UNL     1     -34.432  16.805  -6.004  1.00 20.00     0.021 A 
HETATM    2  C6  UNL     1     -35.661  16.654  -5.159  1.00 20.00     0.009 A 
HETATM    3  C7  UNL     1     -34.304  16.219  -4.606  1.00 20.00    -0.012 A 
HETATM    4  C8  UNL     1     -33.968  14.762  -4.471  1.00 20.00     0.021 C 
ENDROOT
BRANCH   3   5
HETATM    5  C4  UNL     1     -33.693  17.145  -3.516  1.00 20.00    -0.043 A 
HETATM    6  C1  UNL     1     -33.481  16.750  -2.163  1.00 20.00     0.015 A 
HETATM    7  C2  UNL     1     -32.929  17.760  -1.409  1.00 20.00     0.050 A 
HETATM    8  S10 UNL     1     -32.669  19.181  -2.330  1.00 20.00    -0.113 SA
HETATM    9  C3  UNL     1     -33.296  18.444  -3.743  1.00 20.00     0.057 A 
ENDBRANCH   3   5
BRANCH   2  10
HETATM   10  C9  UNL     1     -36.722  15.679  -5.541  1.00 20.00     0.090 C 
HETATM   11 BR11 UNL     1     -38.483  16.359  -5.047  1.00 20.00    -0.096 Br
ENDBRANCH   2  10
TORSDOF 2
ENDMDL
MODEL 4
REMARK VINA RESULT:      -3.5     12.073     12.767
REMARK  2 active torsions:
REMARK  status: ('A' for Active; 'I' for Inactive)
REMARK    1  A    between atoms: C4_4  and  C7_7 
REMARK    2  A    between atoms: C6_6  and  C9_9 
ROOT
HETATM    1  C5  UNL     1     -40.474  13.871   7.429  1.00 20.00     0.021 A 
HETATM    2  C6  UNL     1     -40.194  13.282   6.078  1.00 20.00     0.009 A 
HETATM    3  C7  UNL     1     -41.637  13.562   6.498  1.00 20.00    -0.012 A 
HETATM    4  C8  UNL     1     -42.558  12.433   6.860  1.00 20.00     0.021 C 
ENDROOT
BRANCH   3   5
HETATM    5  C4  UNL     1     -42.315  14.778   5.804  1.00 20.00    -0.043 A 
HETATM    6  C1  UNL     1     -42.875  14.735   4.494  1.00 20.00     0.015 A 
HETATM    7  C2  UNL     1     -43.411  15.947   4.120  1.00 20.00     0.050 A 
HETATM    8  S10 UNL     1     -43.238  17.131   5.346  1.00 20.00    -0.113 SA
HETATM    9  C3  UNL     1     -42.444  16.021   6.381  1.00 20.00     0.057 A 
ENDBRANCH   3   5
BRANCH   2  10
HETATM   10  C9  UNL     1     -39.647  11.900   5.959  1.00 20.00     0.090 C 
HETATM   11 BR11 UNL     1     -39.005  11.574   4.146  1.00 20.00    -0.096 Br
ENDBRANCH   2  10
TORSDOF 2
ENDMDL
MODEL 5
REMARK VINA RESULT:      -3.4     12.981     14.226
REMARK  2 active torsions:
REMARK  status: ('A' for Active; 'I' for Inactive)
REMARK    1  A    between atoms: C4_4  and  C7_7 
REMARK    2  A    between atoms: C6_6  and  C9_9 
ROOT
HETATM    1  C5  UNL     1     -42.342  12.541   6.824  1.00 20.00     0.021 A 
HETATM    2  C6  UNL     1     -40.941  12.878   6.408  1.00 20.00     0.009 A 
HETATM    3  C7  UNL     1     -41.804  13.939   7.091  1.00 20.00    -0.012 A 
HETATM    4  C8  UNL     1     -42.370  15.084   6.302  1.00 20.00     0.021 C 
ENDROOT
BRANCH   3   5
HETATM    5  C4  UNL     1     -41.424  14.269   8.563  1.00 20.00    -0.043 A 
HETATM    6  C1  UNL     1     -40.274  15.023   8.938  1.00 20.00     0.015 A 
HETATM    7  C2  UNL     1     -40.173  15.168  10.303  1.00 20.00     0.050 A 
HETATM    8  S10 UNL     1     -41.460  14.397  11.128  1.00 20.00    -0.113 SA
HETATM    9  C3  UNL     1     -42.157  13.866   9.656  1.00 20.00     0.057 A 
ENDBRANCH   3   5
BRANCH   2  10
HETATM   10  C9  UNL     1     -40.580  12.945   4.963  1.00 20.00     0.090 C 
HETATM   11 BR11 UNL     1     -39.127  11.706   4.563  1.00 20.00    -0.096 Br
ENDBRANCH   2  10
TORSDOF 2
ENDMDL
MODEL 6
REMARK VINA RESULT:      -3.4     24.828     25.810
REMARK  2 active torsions:
REMARK  status: ('A' for Active; 'I' for Inactive)
REMARK    1  A    between atoms: C4_4  and  C7_7 
REMARK    2  A    between atoms: C6_6  and  C9_9 
ROOT
HETATM    1  C5  UNL     1     -23.554  -3.160  11.971  1.00 20.00     0.021 A 
HETATM    2  C6  UNL     1     -23.410  -2.966  10.490  1.00 20.00     0.009 A 
HETATM    3  C7  UNL     1     -24.777  -3.317  11.079  1.00 20.00    -0.012 A 
HETATM    4  C8  UNL     1     -25.354  -4.691  10.896  1.00 20.00     0.021 C 
ENDROOT
BRANCH   3   5
HETATM    5  C4  UNL     1     -25.815  -2.159  11.108  1.00 20.00    -0.043 A 
HETATM    6  C1  UNL     1     -25.769  -1.074  12.032  1.00 20.00     0.015 A 
HETATM    7  C2  UNL     1     -26.806  -0.189  11.841  1.00 20.00     0.050 A 
HETATM    8  S10 UNL     1     -27.830  -0.666  10.553  1.00 20.00    -0.113 SA
HETATM    9  C3  UNL     1     -26.886  -2.062  10.248  1.00 20.00     0.057 A 
ENDBRANCH   3   5
BRANCH   2  10
HETATM   10  C9  UNL     1     -22.613  -3.930   9.679  1.00 20.00     0.090 C 
HETATM   11 BR11 UNL     1     -22.888  -3.609   7.774  1.00 20.00    -0.096 Br
ENDBRANCH   2  10
TORSDOF 2
ENDMDL
MODEL 7
REMARK VINA RESULT:      -3.4      1.481      1.893
REMARK  2 active torsions:
REMARK  status: ('A' for Active; 'I' for Inactive)
REMARK    1  A    between atoms: C4_4  and  C7_7 
REMARK    2  A    between atoms: C6_6  and  C9_9 
ROOT
HETATM    1  C5  UNL     1     -32.902  16.695  -2.681  1.00 20.00     0.021 A 
HETATM    2  C6  UNL     1     -34.043  17.457  -2.075  1.00 20.00     0.009 A 
HETATM    3  C7  UNL     1     -33.780  17.555  -3.578  1.00 20.00    -0.012 A 
HETATM    4  C8  UNL     1     -33.189  18.802  -4.169  1.00 20.00     0.021 C 
ENDROOT
BRANCH   3   5
HETATM    5  C4  UNL     1     -34.793  16.804  -4.488  1.00 20.00    -0.043 A 
HETATM    6  C1  UNL     1     -34.625  15.457  -4.922  1.00 20.00     0.015 A 
HETATM    7  C2  UNL     1     -35.667  15.036  -5.718  1.00 20.00     0.050 A 
HETATM    8  S10 UNL     1     -36.840  16.263  -5.942  1.00 20.00    -0.113 SA
HETATM    9  C3  UNL     1     -35.956  17.362  -4.971  1.00 20.00     0.057 A 
ENDBRANCH   3   5
BRANCH   2  10
HETATM   10  C9  UNL     1     -33.779  18.588  -1.139  1.00 20.00     0.090 C 
HETATM   11 BR11 UNL     1     -31.945  18.513  -0.479  1.00 20.00    -0.096 Br
ENDBRANCH   2  10
TORSDOF 2
ENDMDL
MODEL 8
REMARK VINA RESULT:      -3.2      1.789      2.930
REMARK  2 active torsions:
REMARK  status: ('A' for Active; 'I' for Inactive)
REMARK    1  A    between atoms: C4_4  and  C7_7 
REMARK    2  A    between atoms: C6_6  and  C9_9 
ROOT
HETATM    1  C5  UNL     1     -33.863  17.754  -0.360  1.00 20.00     0.021 A 
HETATM    2  C6  UNL     1     -33.001  18.798  -1.007  1.00 20.00     0.009 A 
HETATM    3  C7  UNL     1     -33.705  17.754  -1.874  1.00 20.00    -0.012 A 
HETATM    4  C8  UNL     1     -32.925  16.639  -2.509  1.00 20.00     0.021 C 
ENDROOT
BRANCH   3   5
HETATM    5  C4  UNL     1     -34.917  18.272  -2.700  1.00 20.00    -0.043 A 
HETATM    6  C1  UNL     1     -36.062  18.896  -2.127  1.00 20.00     0.015 A 
HETATM    7  C2  UNL     1     -36.986  19.259  -3.081  1.00 20.00     0.050 A 
HETATM    8  S10 UNL     1     -36.473  18.846  -4.662  1.00 20.00    -0.113 SA
HETATM    9  C3  UNL     1     -35.010  18.180  -4.071  1.00 20.00     0.057 A 
ENDBRANCH   3   5
BRANCH   2  10
HETATM   10  C9  UNL     1     -31.527  18.797  -0.788  1.00 20.00     0.090 C 
HETATM   11 BR11 UNL     1     -31.117  18.527   1.100  1.00 20.00    -0.096 Br
ENDBRANCH   2  10
TORSDOF 2
ENDMDL
MODEL 9
REMARK VINA RESULT:      -3.1     12.350     13.087
REMARK  2 active torsions:
REMARK  status: ('A' for Active; 'I' for Inactive)
REMARK    1  A    between atoms: C4_4  and  C7_7 
REMARK    2  A    between atoms: C6_6  and  C9_9 
ROOT
HETATM    1  C5  UNL     1     -40.396  14.076   8.064  1.00 20.00     0.021 A 
HETATM    2  C6  UNL     1     -40.509  13.791   6.596  1.00 20.00     0.009 A 
HETATM    3  C7  UNL     1     -41.573  14.646   7.286  1.00 20.00    -0.012 A 
HETATM    4  C8  UNL     1     -42.942  14.089   7.554  1.00 20.00     0.021 C 
ENDROOT
BRANCH   3   5
HETATM    5  C4  UNL     1     -41.525  16.167   6.965  1.00 20.00    -0.043 A 
HETATM    6  C1  UNL     1     -40.672  17.094   7.631  1.00 20.00     0.015 A 
HETATM    7  C2  UNL     1     -40.829  18.376   7.155  1.00 20.00     0.050 A 
HETATM    8  S10 UNL     1     -42.003  18.460   5.911  1.00 20.00    -0.113 SA
HETATM    9  C3  UNL     1     -42.304  16.777   6.007  1.00 20.00     0.057 A 
ENDBRANCH   3   5
BRANCH   2  10
HETATM   10  C9  UNL     1     -40.780  12.405   6.118  1.00 20.00     0.090 C 
HETATM   11 BR11 UNL     1     -39.404  11.838   4.856  1.00 20.00    -0.096 Br
ENDBRANCH   2  10
TORSDOF 2
ENDMDL
