MODEL 1
REMARK VINA RESULT:      -4.1      0.000      0.000
REMARK  1 active torsions:
REMARK  status: ('A' for Active; 'I' for Inactive)
REMARK    1  A    between atoms: C5_5  and  C10_10 
ROOT
HETATM    1  C1  UNL     1     -32.932   5.600   3.155  1.00 20.00     0.011 C 
HETATM    2  C2  UNL     1     -33.670   4.843   4.261  1.00 20.00     0.009 C 
HETATM    3  C3  UNL     1     -31.434   7.681   3.676  1.00 20.00     0.016 A 
HETATM    4  C4  UNL     1     -33.661   7.154   4.931  1.00 20.00     0.018 C 
HETATM    5  C5  UNL     1     -32.539   8.190   2.798  1.00 20.00     0.005 A 
HETATM    6  C6  UNL     1     -32.785   6.998   3.705  1.00 20.00    -0.035 A 
HETATM    7  C7  UNL     1     -34.569   5.904   4.923  1.00 20.00    -0.047 C 
HETATM    8  C8  UNL     1     -35.837   6.155   4.092  1.00 20.00     0.015 C 
HETATM    9  C9  UNL     1     -34.966   5.488   6.341  1.00 20.00     0.015 C 
ENDROOT
BRANCH   5  10
HETATM   10  C10 UNL     1     -32.434   8.053   1.317  1.00 20.00     0.090 C 
HETATM   11 BR11 UNL     1     -32.932   9.724   0.441  1.00 20.00    -0.096 Br
ENDBRANCH   5  10
TORSDOF 1
ENDMDL
MODEL 2
REMARK VINA RESULT:      -4.1     11.809     13.067
REMARK  1 active torsions:
REMARK  status: ('A' for Active; 'I' for Inactive)
REMARK    1  A    between atoms: C5_5  and  C10_10 
ROOT
HETATM    1  C1  UNL     1     -32.979  16.882  -2.356  1.00 20.00     0.011 C 
HETATM    2  C2  UNL     1     -33.946  16.658  -3.520  1.00 20.00     0.009 C 
HETATM    3  C3  UNL     1     -33.790  17.829  -0.056  1.00 20.00     0.016 A 
HETATM    4  C4  UNL     1     -34.747  18.606  -2.357  1.00 20.00     0.018 C 
HETATM    5  C5  UNL     1     -32.822  18.844  -0.590  1.00 20.00     0.005 A 
HETATM    6  C6  UNL     1     -33.623  17.985  -1.553  1.00 20.00    -0.035 A 
HETATM    7  C7  UNL     1     -34.561  18.046  -3.784  1.00 20.00    -0.047 C 
HETATM    8  C8  UNL     1     -33.605  18.932  -4.599  1.00 20.00     0.015 C 
HETATM    9  C9  UNL     1     -35.896  17.929  -4.522  1.00 20.00     0.015 C 
ENDROOT
BRANCH   5  10
HETATM   10  C10 UNL     1     -31.358  18.652  -0.385  1.00 20.00     0.090 C 
HETATM   11 BR11 UNL     1     -30.955  18.454   1.514  1.00 20.00    -0.096 Br
ENDBRANCH   5  10
TORSDOF 1
ENDMDL
MODEL 3
REMARK VINA RESULT:      -3.6     10.409     11.613
REMARK  1 active torsions:
REMARK  status: ('A' for Active; 'I' for Inactive)
REMARK    1  A    between atoms: C5_5  and  C10_10 
ROOT
HETATM    1  C1  UNL     1     -40.299  14.923   7.335  1.00 20.00     0.011 C 
HETATM    2  C2  UNL     1     -41.061  15.863   8.271  1.00 20.00     0.009 C 
HETATM    3  C3  UNL     1     -41.494  13.657   5.383  1.00 20.00     0.016 A 
HETATM    4  C4  UNL     1     -42.596  14.098   7.708  1.00 20.00     0.018 C 
HETATM    5  C5  UNL     1     -40.978  12.587   6.301  1.00 20.00     0.005 A 
HETATM    6  C6  UNL     1     -41.349  13.948   6.862  1.00 20.00    -0.035 A 
HETATM    7  C7  UNL     1     -42.157  14.981   8.897  1.00 20.00    -0.047 C 
HETATM    8  C8  UNL     1     -41.593  14.119  10.038  1.00 20.00     0.015 C 
HETATM    9  C9  UNL     1     -43.316  15.828   9.427  1.00 20.00     0.015 C 
ENDROOT
BRANCH   5  10
HETATM   10  C10 UNL     1     -39.563  12.132   6.189  1.00 20.00     0.090 C 
HETATM   11 BR11 UNL     1     -39.128  11.708   4.334  1.00 20.00    -0.096 Br
ENDBRANCH   5  10
TORSDOF 1
ENDMDL
MODEL 4
REMARK VINA RESULT:      -3.4     12.011     13.102
REMARK  1 active torsions:
REMARK  status: ('A' for Active; 'I' for Inactive)
REMARK    1  A    between atoms: C5_5  and  C10_10 
ROOT
HETATM    1  C1  UNL     1     -35.421  17.356  -4.626  1.00 20.00     0.011 C 
HETATM    2  C2  UNL     1     -35.259  17.892  -3.202  1.00 20.00     0.009 C 
HETATM    3  C3  UNL     1     -35.105  14.821  -5.186  1.00 20.00     0.016 A 
HETATM    4  C4  UNL     1     -33.667  16.101  -3.423  1.00 20.00     0.018 C 
HETATM    5  C5  UNL     1     -34.037  15.540  -5.959  1.00 20.00     0.005 A 
HETATM    6  C6  UNL     1     -34.549  16.125  -4.654  1.00 20.00    -0.035 A 
HETATM    7  C7  UNL     1     -33.820  17.509  -2.806  1.00 20.00    -0.047 C 
HETATM    8  C8  UNL     1     -32.798  18.485  -3.411  1.00 20.00     0.015 C 
HETATM    9  C9  UNL     1     -33.652  17.479  -1.286  1.00 20.00     0.015 C 
ENDROOT
BRANCH   5  10
HETATM   10  C10 UNL     1     -34.361  16.146  -7.282  1.00 20.00     0.090 C 
HETATM   11 BR11 UNL     1     -36.092  15.510  -7.918  1.00 20.00    -0.096 Br
ENDBRANCH   5  10
TORSDOF 1
ENDMDL
MODEL 5
REMARK VINA RESULT:      -3.3     11.598     13.108
REMARK  1 active torsions:
REMARK  status: ('A' for Active; 'I' for Inactive)
REMARK    1  A    between atoms: C5_5  and  C10_10 
ROOT
HETATM    1  C1  UNL     1     -33.530  16.091  -3.663  1.00 20.00     0.011 C 
HETATM    2  C2  UNL     1     -34.148  14.805  -4.217  1.00 20.00     0.009 C 
HETATM    3  C3  UNL     1     -34.994  18.176  -3.070  1.00 20.00     0.016 A 
HETATM    4  C4  UNL     1     -35.465  16.612  -5.106  1.00 20.00     0.018 C 
HETATM    5  C5  UNL     1     -34.074  18.629  -4.166  1.00 20.00     0.005 A 
HETATM    6  C6  UNL     1     -34.494  17.171  -4.087  1.00 20.00    -0.035 A 
HETATM    7  C7  UNL     1     -34.865  15.246  -5.507  1.00 20.00    -0.047 C 
HETATM    8  C8  UNL     1     -33.872  15.405  -6.670  1.00 20.00     0.015 C 
HETATM    9  C9  UNL     1     -35.954  14.248  -5.905  1.00 20.00     0.015 C 
ENDROOT
BRANCH   5  10
HETATM   10  C10 UNL     1     -32.691  19.075  -3.837  1.00 20.00     0.090 C 
HETATM   11 BR11 UNL     1     -32.462  19.215  -1.904  1.00 20.00    -0.096 Br
ENDBRANCH   5  10
TORSDOF 1
ENDMDL
MODEL 6
REMARK VINA RESULT:      -3.3     11.221     12.365
REMARK  1 active torsions:
REMARK  status: ('A' for Active; 'I' for Inactive)
REMARK    1  A    between atoms: C5_5  and  C10_10 
ROOT
HETATM    1  C1  UNL     1     -42.181  15.207   5.898  1.00 20.00     0.011 C 
HETATM    2  C2  UNL     1     -41.664  13.952   5.192  1.00 20.00     0.009 C 
HETATM    3  C3  UNL     1     -40.681  16.570   7.553  1.00 20.00     0.016 A 
HETATM    4  C4  UNL     1     -40.626  13.967   7.363  1.00 20.00     0.018 C 
HETATM    5  C5  UNL     1     -41.832  16.067   8.374  1.00 20.00     0.005 A 
HETATM    6  C6  UNL     1     -41.364  15.276   7.165  1.00 20.00    -0.035 A 
HETATM    7  C7  UNL     1     -41.261  13.003   6.336  1.00 20.00    -0.047 C 
HETATM    8  C8  UNL     1     -42.490  12.299   6.935  1.00 20.00     0.015 C 
HETATM    9  C9  UNL     1     -40.258  11.951   5.858  1.00 20.00     0.015 C 
ENDROOT
BRANCH   5  10
HETATM   10  C10 UNL     1     -43.121  16.815   8.382  1.00 20.00     0.090 C 
HETATM   11 BR11 UNL     1     -42.807  18.717   8.075  1.00 20.00    -0.096 Br
ENDBRANCH   5  10
TORSDOF 1
ENDMDL
MODEL 7
REMARK VINA RESULT:      -3.3     12.075     13.560
REMARK  1 active torsions:
REMARK  status: ('A' for Active; 'I' for Inactive)
REMARK    1  A    between atoms: C5_5  and  C10_10 
ROOT
HETATM    1  C1  UNL     1     -33.975  17.064  -3.385  1.00 20.00     0.011 C 
HETATM    2  C2  UNL     1     -32.930  16.872  -2.284  1.00 20.00     0.009 C 
HETATM    3  C3  UNL     1     -33.780  18.991  -5.145  1.00 20.00     0.016 A 
HETATM    4  C4  UNL     1     -33.091  19.246  -2.640  1.00 20.00     0.018 C 
HETATM    5  C5  UNL     1     -35.048  19.263  -4.388  1.00 20.00     0.005 A 
HETATM    6  C6  UNL     1     -33.902  18.537  -3.705  1.00 20.00    -0.035 A 
HETATM    7  C7  UNL     1     -32.935  18.204  -1.511  1.00 20.00    -0.047 C 
HETATM    8  C8  UNL     1     -34.119  18.276  -0.533  1.00 20.00     0.015 C 
HETATM    9  C9  UNL     1     -31.629  18.402  -0.739  1.00 20.00     0.015 C 
ENDROOT
BRANCH   5  10
HETATM   10  C10 UNL     1     -36.308  18.568  -4.777  1.00 20.00     0.090 C 
HETATM   11 BR11 UNL     1     -37.629  18.702  -3.347  1.00 20.00    -0.096 Br
ENDBRANCH   5  10
TORSDOF 1
ENDMDL
MODEL 8
REMARK VINA RESULT:      -3.3     11.867     13.688
REMARK  1 active torsions:
REMARK  status: ('A' for Active; 'I' for Inactive)
REMARK    1  A    between atoms: C5_5  and  C10_10 
ROOT
HETATM    1  C1  UNL     1     -34.626  17.422  -5.926  1.00 20.00     0.011 C 
HETATM    2  C2  UNL     1     -35.920  17.939  -6.556  1.00 20.00     0.009 C 
HETATM    3  C3  UNL     1     -34.075  14.867  -5.815  1.00 20.00     0.016 A 
HETATM    4  C4  UNL     1     -36.478  15.841  -5.520  1.00 20.00     0.018 C 
HETATM    5  C5  UNL     1     -34.169  15.321  -4.387  1.00 20.00     0.005 A 
HETATM    6  C6  UNL     1     -34.977  16.030  -5.460  1.00 20.00    -0.035 A 
HETATM    7  C7  UNL     1     -37.042  17.261  -5.747  1.00 20.00    -0.047 C 
HETATM    8  C8  UNL     1     -37.273  17.978  -4.407  1.00 20.00     0.015 C 
HETATM    9  C9  UNL     1     -38.352  17.227  -6.536  1.00 20.00     0.015 C 
ENDROOT
BRANCH   5  10
HETATM   10  C10 UNL     1     -32.991  15.955  -3.731  1.00 20.00     0.090 C 
HETATM   11 BR11 UNL     1     -33.547  16.947  -2.145  1.00 20.00    -0.096 Br
ENDBRANCH   5  10
TORSDOF 1
ENDMDL
MODEL 9
REMARK VINA RESULT:      -3.3     10.837     12.107
REMARK  1 active torsions:
REMARK  status: ('A' for Active; 'I' for Inactive)
REMARK    1  A    between atoms: C5_5  and  C10_10 
ROOT
HETATM    1  C1  UNL     1     -42.550  15.013   6.304  1.00 20.00     0.011 C 
HETATM    2  C2  UNL     1     -42.953  16.038   7.367  1.00 20.00     0.009 C 
HETATM    3  C3  UNL     1     -42.473  12.450   6.822  1.00 20.00     0.016 A 
HETATM    4  C4  UNL     1     -41.781  14.293   8.537  1.00 20.00     0.018 C 
HETATM    5  C5  UNL     1     -41.064  12.834   6.477  1.00 20.00     0.005 A 
HETATM    6  C6  UNL     1     -41.994  13.859   7.101  1.00 20.00    -0.035 A 
HETATM    7  C7  UNL     1     -41.941  15.829   8.508  1.00 20.00    -0.047 C 
HETATM    8  C8  UNL     1     -40.600  16.512   8.195  1.00 20.00     0.015 C 
HETATM    9  C9  UNL     1     -42.483  16.363   9.835  1.00 20.00     0.015 C 
ENDROOT
BRANCH   5  10
HETATM   10  C10 UNL     1     -40.643  12.908   5.049  1.00 20.00     0.090 C 
HETATM   11 BR11 UNL     1     -39.034  11.844   4.756  1.00 20.00    -0.096 Br
ENDBRANCH   5  10
TORSDOF 1
ENDMDL
