MODEL 1
REMARK VINA RESULT:      -4.3      0.000      0.000
REMARK  2 active torsions:
REMARK  status: ('A' for Active; 'I' for Inactive)
REMARK    1  A    between atoms: C5_5  and  C8_8 
REMARK    2  A    between atoms: C9_9  and  C10_10 
ROOT
HETATM    1  C1  UNL     1     -31.286  18.596  -0.691  1.00 20.00     0.009 A 
HETATM    2  C2  UNL     1     -33.535  19.238  -0.083  1.00 20.00     0.009 A 
HETATM    3  C3  UNL     1     -30.934  18.548   0.658  1.00 20.00     0.024 A 
HETATM    4  C4  UNL     1     -33.182  19.190   1.266  1.00 20.00     0.024 A 
HETATM    5  C5  UNL     1     -32.586  18.940  -1.061  1.00 20.00    -0.053 A 
HETATM    6  C6  UNL     1     -31.883  18.846   1.637  1.00 20.00     0.034 A 
HETATM    7 CL11 UNL     1     -31.449  18.787   3.302  1.00 20.00    -0.084 Cl
ENDROOT
BRANCH   5   8
HETATM    8  C8  UNL     1     -32.962  18.990  -2.503  1.00 20.00     0.024 A 
HETATM    9  C7  UNL     1     -34.404  18.783  -2.891  1.00 20.00     0.016 A 
HETATM   10  C9  UNL     1     -33.385  17.740  -3.242  1.00 20.00     0.008 A 
BRANCH  10  11
HETATM   11  C10 UNL     1     -33.437  16.399  -2.595  1.00 20.00     0.119 C 
HETATM   12 CL12 UNL     1     -33.773  15.117  -3.792  1.00 20.00    -0.130 Cl
ENDBRANCH  10  11
ENDBRANCH   5   8
TORSDOF 2
ENDMDL
MODEL 2
REMARK VINA RESULT:      -4.0      2.859      4.171
REMARK  2 active torsions:
REMARK  status: ('A' for Active; 'I' for Inactive)
REMARK    1  A    between atoms: C5_5  and  C8_8 
REMARK    2  A    between atoms: C9_9  and  C10_10 
ROOT
HETATM    1  C1  UNL     1     -33.491  16.277  -3.630  1.00 20.00     0.009 A 
HETATM    2  C2  UNL     1     -35.041  18.110  -3.907  1.00 20.00     0.009 A 
HETATM    3  C3  UNL     1     -33.329  16.617  -2.287  1.00 20.00     0.024 A 
HETATM    4  C4  UNL     1     -34.878  18.449  -2.564  1.00 20.00     0.024 A 
HETATM    5  C5  UNL     1     -34.347  17.023  -4.440  1.00 20.00    -0.053 A 
HETATM    6  C6  UNL     1     -34.023  17.704  -1.754  1.00 20.00     0.034 A 
HETATM    7 CL11 UNL     1     -33.823  18.123  -0.097  1.00 20.00    -0.084 Cl
ENDROOT
BRANCH   5   8
HETATM    8  C8  UNL     1     -34.520  16.660  -5.875  1.00 20.00     0.024 A 
HETATM    9  C7  UNL     1     -35.730  17.169  -6.619  1.00 20.00     0.016 A 
HETATM   10  C9  UNL     1     -35.610  15.706  -6.312  1.00 20.00     0.008 A 
BRANCH  10  11
HETATM   11  C10 UNL     1     -36.553  15.065  -5.352  1.00 20.00     0.119 C 
HETATM   12 CL12 UNL     1     -35.831  13.609  -4.613  1.00 20.00    -0.130 Cl
ENDBRANCH  10  11
ENDBRANCH   5   8
TORSDOF 2
ENDMDL
MODEL 3
REMARK VINA RESULT:      -4.0      2.860      4.347
REMARK  2 active torsions:
REMARK  status: ('A' for Active; 'I' for Inactive)
REMARK    1  A    between atoms: C5_5  and  C8_8 
REMARK    2  A    between atoms: C9_9  and  C10_10 
ROOT
HETATM    1  C1  UNL     1     -35.004  18.132  -3.920  1.00 20.00     0.009 A 
HETATM    2  C2  UNL     1     -33.485  16.271  -3.652  1.00 20.00     0.009 A 
HETATM    3  C3  UNL     1     -34.837  18.462  -2.576  1.00 20.00     0.024 A 
HETATM    4  C4  UNL     1     -33.320  16.602  -2.307  1.00 20.00     0.024 A 
HETATM    5  C5  UNL     1     -34.328  17.037  -4.459  1.00 20.00    -0.053 A 
HETATM    6  C6  UNL     1     -33.995  17.696  -1.769  1.00 20.00     0.034 A 
HETATM    7 CL11 UNL     1     -33.789  18.104  -0.109  1.00 20.00    -0.084 Cl
ENDROOT
BRANCH   5   8
HETATM    8  C8  UNL     1     -34.505  16.684  -5.896  1.00 20.00     0.024 A 
HETATM    9  C7  UNL     1     -35.706  17.217  -6.638  1.00 20.00     0.016 A 
HETATM   10  C9  UNL     1     -35.610  15.750  -6.339  1.00 20.00     0.008 A 
BRANCH  10  11
HETATM   11  C10 UNL     1     -36.565  15.120  -5.384  1.00 20.00     0.119 C 
HETATM   12 CL12 UNL     1     -35.875  13.640  -4.663  1.00 20.00    -0.130 Cl
ENDBRANCH  10  11
ENDBRANCH   5   8
TORSDOF 2
ENDMDL
MODEL 4
REMARK VINA RESULT:      -3.8      3.256      4.810
REMARK  2 active torsions:
REMARK  status: ('A' for Active; 'I' for Inactive)
REMARK    1  A    between atoms: C5_5  and  C8_8 
REMARK    2  A    between atoms: C9_9  and  C10_10 
ROOT
HETATM    1  C1  UNL     1     -33.542  15.761  -3.427  1.00 20.00     0.009 A 
HETATM    2  C2  UNL     1     -34.178  17.582  -4.882  1.00 20.00     0.009 A 
HETATM    3  C3  UNL     1     -33.367  16.662  -2.376  1.00 20.00     0.024 A 
HETATM    4  C4  UNL     1     -34.002  18.483  -3.832  1.00 20.00     0.024 A 
HETATM    5  C5  UNL     1     -33.948  16.221  -4.679  1.00 20.00    -0.053 A 
HETATM    6  C6  UNL     1     -33.597  18.023  -2.579  1.00 20.00     0.034 A 
HETATM    7 CL11 UNL     1     -33.381  19.135  -1.283  1.00 20.00    -0.084 Cl
ENDROOT
BRANCH   5   8
HETATM    8  C8  UNL     1     -34.136  15.259  -5.802  1.00 20.00     0.024 A 
HETATM    9  C7  UNL     1     -34.868  15.712  -7.041  1.00 20.00     0.016 A 
HETATM   10  C9  UNL     1     -35.504  14.703  -6.132  1.00 20.00     0.008 A 
BRANCH  10  11
HETATM   11  C10 UNL     1     -36.728  15.061  -5.360  1.00 20.00     0.119 C 
HETATM   12 CL12 UNL     1     -37.511  16.519  -6.031  1.00 20.00    -0.130 Cl
ENDBRANCH  10  11
ENDBRANCH   5   8
TORSDOF 2
ENDMDL
MODEL 5
REMARK VINA RESULT:      -3.8     11.855     12.949
REMARK  2 active torsions:
REMARK  status: ('A' for Active; 'I' for Inactive)
REMARK    1  A    between atoms: C5_5  and  C8_8 
REMARK    2  A    between atoms: C9_9  and  C10_10 
ROOT
HETATM    1  C1  UNL     1     -40.254  15.128   8.349  1.00 20.00     0.009 A 
HETATM    2  C2  UNL     1     -42.306  13.881   8.626  1.00 20.00     0.009 A 
HETATM    3  C3  UNL     1     -40.043  15.086   9.727  1.00 20.00     0.024 A 
HETATM    4  C4  UNL     1     -42.094  13.840  10.004  1.00 20.00     0.024 A 
HETATM    5  C5  UNL     1     -41.385  14.525   7.798  1.00 20.00    -0.053 A 
HETATM    6  C6  UNL     1     -40.963  14.442  10.554  1.00 20.00     0.034 A 
HETATM    7 CL11 UNL     1     -40.702  14.390  12.255  1.00 20.00    -0.084 Cl
ENDROOT
BRANCH   5   8
HETATM    8  C8  UNL     1     -41.611  14.570   6.326  1.00 20.00     0.024 A 
HETATM    9  C7  UNL     1     -42.627  13.638   5.712  1.00 20.00     0.016 A 
HETATM   10  C9  UNL     1     -41.168  13.430   5.434  1.00 20.00     0.008 A 
BRANCH  10  11
HETATM   11  C10 UNL     1     -40.473  12.220   5.957  1.00 20.00     0.119 C 
HETATM   12 CL12 UNL     1     -38.789  12.138   5.371  1.00 20.00    -0.130 Cl
ENDBRANCH  10  11
ENDBRANCH   5   8
TORSDOF 2
ENDMDL
MODEL 6
REMARK VINA RESULT:      -3.6      4.041      7.456
REMARK  2 active torsions:
REMARK  status: ('A' for Active; 'I' for Inactive)
REMARK    1  A    between atoms: C5_5  and  C8_8 
REMARK    2  A    between atoms: C9_9  and  C10_10 
ROOT
HETATM    1  C1  UNL     1     -36.226  15.670  -5.514  1.00 20.00     0.009 A 
HETATM    2  C2  UNL     1     -34.606  16.619  -7.034  1.00 20.00     0.009 A 
HETATM    3  C3  UNL     1     -37.233  16.425  -6.115  1.00 20.00     0.024 A 
HETATM    4  C4  UNL     1     -35.613  17.375  -7.635  1.00 20.00     0.024 A 
HETATM    5  C5  UNL     1     -34.913  15.766  -5.974  1.00 20.00    -0.053 A 
HETATM    6  C6  UNL     1     -36.925  17.278  -7.176  1.00 20.00     0.034 A 
HETATM    7 CL11 UNL     1     -38.168  18.211  -7.918  1.00 20.00    -0.084 Cl
ENDROOT
BRANCH   5   8
HETATM    8  C8  UNL     1     -33.838  14.959  -5.332  1.00 20.00     0.024 A 
HETATM    9  C7  UNL     1     -34.075  14.383  -3.958  1.00 20.00     0.016 A 
HETATM   10  C9  UNL     1     -33.074  15.486  -4.136  1.00 20.00     0.008 A 
BRANCH  10  11
HETATM   11  C10 UNL     1     -33.331  16.829  -3.544  1.00 20.00     0.119 C 
HETATM   12 CL12 UNL     1     -33.499  16.731  -1.769  1.00 20.00    -0.130 Cl
ENDBRANCH  10  11
ENDBRANCH   5   8
TORSDOF 2
ENDMDL
MODEL 7
REMARK VINA RESULT:      -3.6      3.318      4.973
REMARK  2 active torsions:
REMARK  status: ('A' for Active; 'I' for Inactive)
REMARK    1  A    between atoms: C5_5  and  C8_8 
REMARK    2  A    between atoms: C9_9  and  C10_10 
ROOT
HETATM    1  C1  UNL     1     -34.148  15.770  -4.140  1.00 20.00     0.009 A 
HETATM    2  C2  UNL     1     -35.318  17.884  -4.160  1.00 20.00     0.009 A 
HETATM    3  C3  UNL     1     -33.248  16.276  -3.202  1.00 20.00     0.024 A 
HETATM    4  C4  UNL     1     -34.418  18.390  -3.223  1.00 20.00     0.024 A 
HETATM    5  C5  UNL     1     -35.183  16.573  -4.619  1.00 20.00    -0.053 A 
HETATM    6  C6  UNL     1     -33.384  17.587  -2.744  1.00 20.00     0.034 A 
HETATM    7 CL11 UNL     1     -32.273  18.212  -1.586  1.00 20.00    -0.084 Cl
ENDROOT
BRANCH   5   8
HETATM    8  C8  UNL     1     -36.144  16.032  -5.621  1.00 20.00     0.024 A 
HETATM    9  C7  UNL     1     -35.810  14.746  -6.337  1.00 20.00     0.016 A 
HETATM   10  C9  UNL     1     -35.818  16.038  -7.098  1.00 20.00     0.008 A 
BRANCH  10  11
HETATM   11  C10 UNL     1     -34.545  16.592  -7.640  1.00 20.00     0.119 C 
HETATM   12 CL12 UNL     1     -33.344  15.301  -7.917  1.00 20.00    -0.130 Cl
ENDBRANCH  10  11
ENDBRANCH   5   8
TORSDOF 2
ENDMDL
MODEL 8
REMARK VINA RESULT:      -3.5      1.824      5.265
REMARK  2 active torsions:
REMARK  status: ('A' for Active; 'I' for Inactive)
REMARK    1  A    between atoms: C5_5  and  C8_8 
REMARK    2  A    between atoms: C9_9  and  C10_10 
ROOT
HETATM    1  C1  UNL     1     -32.927  16.483  -2.804  1.00 20.00     0.009 A 
HETATM    2  C2  UNL     1     -33.695  18.422  -4.024  1.00 20.00     0.009 A 
HETATM    3  C3  UNL     1     -33.631  15.654  -3.678  1.00 20.00     0.024 A 
HETATM    4  C4  UNL     1     -34.399  17.593  -4.897  1.00 20.00     0.024 A 
HETATM    5  C5  UNL     1     -32.958  17.866  -2.978  1.00 20.00    -0.053 A 
HETATM    6  C6  UNL     1     -34.367  16.210  -4.725  1.00 20.00     0.034 A 
HETATM    7 CL11 UNL     1     -35.236  15.187  -5.803  1.00 20.00    -0.084 Cl
ENDROOT
BRANCH   5   8
HETATM    8  C8  UNL     1     -32.205  18.752  -2.045  1.00 20.00     0.024 A 
HETATM    9  C7  UNL     1     -31.778  18.208  -0.704  1.00 20.00     0.016 A 
HETATM   10  C9  UNL     1     -32.842  19.263  -0.771  1.00 20.00     0.008 A 
BRANCH  10  11
HETATM   11  C10 UNL     1     -34.243  18.936  -0.381  1.00 20.00     0.119 C 
HETATM   12 CL12 UNL     1     -34.299  17.507   0.687  1.00 20.00    -0.130 Cl
ENDBRANCH  10  11
ENDBRANCH   5   8
TORSDOF 2
ENDMDL
MODEL 9
REMARK VINA RESULT:      -3.4     11.639     12.908
REMARK  2 active torsions:
REMARK  status: ('A' for Active; 'I' for Inactive)
REMARK    1  A    between atoms: C5_5  and  C8_8 
REMARK    2  A    between atoms: C9_9  and  C10_10 
ROOT
HETATM    1  C1  UNL     1     -33.079   8.758   4.187  1.00 20.00     0.009 A 
HETATM    2  C2  UNL     1     -32.902   6.387   3.750  1.00 20.00     0.009 A 
HETATM    3  C3  UNL     1     -32.594   9.030   2.908  1.00 20.00     0.024 A 
HETATM    4  C4  UNL     1     -32.417   6.660   2.471  1.00 20.00     0.024 A 
HETATM    5  C5  UNL     1     -33.233   7.437   4.608  1.00 20.00    -0.053 A 
HETATM    6  C6  UNL     1     -32.263   7.980   2.050  1.00 20.00     0.034 A 
HETATM    7 CL11 UNL     1     -31.664   8.317   0.471  1.00 20.00    -0.084 Cl
ENDROOT
BRANCH   5   8
HETATM    8  C8  UNL     1     -33.752   7.146   5.975  1.00 20.00     0.024 A 
HETATM    9  C7  UNL     1     -33.333   5.869   6.661  1.00 20.00     0.016 A 
HETATM   10  C9  UNL     1     -34.754   6.036   6.209  1.00 20.00     0.008 A 
BRANCH  10  11
HETATM   11  C10 UNL     1     -35.291   5.188   5.107  1.00 20.00     0.119 C 
HETATM   12 CL12 UNL     1     -36.350   6.132   4.023  1.00 20.00    -0.130 Cl
ENDBRANCH  10  11
ENDBRANCH   5   8
TORSDOF 2
ENDMDL
