MODEL 1
REMARK VINA RESULT:      -3.9      0.000      0.000
REMARK  4 active torsions:
REMARK  status: ('A' for Active; 'I' for Inactive)
REMARK    1  A    between atoms: C2_2  and  C6_6 
REMARK    2  A    between atoms: C3_3  and  C7_7 
REMARK    3  A    between atoms: C7_7  and  C8_8 
REMARK    4  A    between atoms: C8_8  and  O9_9 
ROOT
HETATM    1  C1  UNL     1     -31.616   8.019   4.137  1.00 20.00     0.016 A 
HETATM    2  C2  UNL     1     -32.529   8.563   3.076  1.00 20.00     0.008 A 
HETATM    3  C3  UNL     1     -33.089   7.645   4.154  1.00 20.00    -0.037 A 
HETATM    4  C4  UNL     1     -33.964   8.275   5.207  1.00 20.00     0.015 C 
ENDROOT
BRANCH   3   5
HETATM    5  C7  UNL     1     -33.462   6.225   3.819  1.00 20.00     0.035 C 
BRANCH   5   6
HETATM    6  C8  UNL     1     -34.860   5.864   4.310  1.00 20.00     0.167 C 
BRANCH   6   7
HETATM    7  O9  UNL     1     -34.782   4.721   5.151  1.00 20.00    -0.396 OA
HETATM    8  C5  UNL     1     -34.468   5.079   6.490  1.00 20.00     0.201 C 
ENDBRANCH   6   7
ENDBRANCH   5   6
ENDBRANCH   3   5
BRANCH   2   9
HETATM    9  C6  UNL     1     -32.372   8.135   1.658  1.00 20.00     0.120 C 
HETATM   10 CL10 UNL     1     -32.738   9.473   0.534  1.00 20.00    -0.130 Cl
ENDBRANCH   2   9
TORSDOF 4
ENDMDL
MODEL 2
REMARK VINA RESULT:      -3.8     11.422     12.126
REMARK  4 active torsions:
REMARK  status: ('A' for Active; 'I' for Inactive)
REMARK    1  A    between atoms: C2_2  and  C6_6 
REMARK    2  A    between atoms: C3_3  and  C7_7 
REMARK    3  A    between atoms: C7_7  and  C8_8 
REMARK    4  A    between atoms: C8_8  and  O9_9 
ROOT
HETATM    1  C1  UNL     1     -33.857  18.038   0.190  1.00 20.00     0.016 A 
HETATM    2  C2  UNL     1     -32.834  18.833  -0.568  1.00 20.00     0.008 A 
HETATM    3  C3  UNL     1     -33.840  17.980  -1.328  1.00 20.00    -0.037 A 
HETATM    4  C4  UNL     1     -34.931  18.706  -2.073  1.00 20.00     0.015 C 
ENDROOT
BRANCH   3   5
HETATM    5  C7  UNL     1     -33.403  16.697  -1.983  1.00 20.00     0.035 C 
BRANCH   5   6
HETATM    6  C8  UNL     1     -33.551  16.742  -3.500  1.00 20.00     0.167 C 
BRANCH   6   7
HETATM    7  O9  UNL     1     -32.988  15.565  -4.063  1.00 20.00    -0.396 OA
HETATM    8  C5  UNL     1     -33.972  14.558  -4.258  1.00 20.00     0.201 C 
ENDBRANCH   6   7
ENDBRANCH   5   6
ENDBRANCH   3   5
BRANCH   2   9
HETATM    9  C6  UNL     1     -31.389  18.480  -0.477  1.00 20.00     0.120 C 
HETATM   10 CL10 UNL     1     -30.869  18.318   1.224  1.00 20.00    -0.130 Cl
ENDBRANCH   2   9
TORSDOF 4
ENDMDL
MODEL 3
REMARK VINA RESULT:      -3.7      2.540      3.943
REMARK  4 active torsions:
REMARK  status: ('A' for Active; 'I' for Inactive)
REMARK    1  A    between atoms: C2_2  and  C6_6 
REMARK    2  A    between atoms: C3_3  and  C7_7 
REMARK    3  A    between atoms: C7_7  and  C8_8 
REMARK    4  A    between atoms: C8_8  and  O9_9 
ROOT
HETATM    1  C1  UNL     1     -35.535   5.754   4.444  1.00 20.00     0.016 A 
HETATM    2  C2  UNL     1     -34.115   5.332   4.197  1.00 20.00     0.008 A 
HETATM    3  C3  UNL     1     -34.409   6.438   5.201  1.00 20.00    -0.037 A 
HETATM    4  C4  UNL     1     -34.237   6.104   6.661  1.00 20.00     0.015 C 
ENDROOT
BRANCH   3   5
HETATM    5  C7  UNL     1     -34.095   7.870   4.861  1.00 20.00     0.035 C 
BRANCH   5   6
HETATM    6  C8  UNL     1     -32.721   8.298   5.368  1.00 20.00     0.167 C 
BRANCH   6   7
HETATM    7  O9  UNL     1     -31.821   8.381   4.273  1.00 20.00    -0.396 OA
HETATM    8  C5  UNL     1     -32.453   8.910   3.116  1.00 20.00     0.201 C 
ENDBRANCH   6   7
ENDBRANCH   5   6
ENDBRANCH   3   5
BRANCH   2   9
HETATM    9  C6  UNL     1     -33.471   5.593   2.879  1.00 20.00     0.120 C 
HETATM   10 CL10 UNL     1     -32.609   4.148   2.282  1.00 20.00    -0.130 Cl
ENDBRANCH   2   9
TORSDOF 4
ENDMDL
MODEL 4
REMARK VINA RESULT:      -3.7     11.806     12.571
REMARK  4 active torsions:
REMARK  status: ('A' for Active; 'I' for Inactive)
REMARK    1  A    between atoms: C2_2  and  C6_6 
REMARK    2  A    between atoms: C3_3  and  C7_7 
REMARK    3  A    between atoms: C7_7  and  C8_8 
REMARK    4  A    between atoms: C8_8  and  O9_9 
ROOT
HETATM    1  C1  UNL     1     -33.288  18.388  -3.868  1.00 20.00     0.016 A 
HETATM    2  C2  UNL     1     -33.944  17.055  -3.647  1.00 20.00     0.008 A 
HETATM    3  C3  UNL     1     -33.814  18.033  -2.487  1.00 20.00    -0.037 A 
HETATM    4  C4  UNL     1     -35.074  18.712  -2.018  1.00 20.00     0.015 C 
ENDROOT
BRANCH   3   5
HETATM    5  C7  UNL     1     -32.813  17.778  -1.393  1.00 20.00     0.035 C 
BRANCH   5   6
HETATM    6  C8  UNL     1     -31.972  19.011  -1.079  1.00 20.00     0.167 C 
BRANCH   6   7
HETATM    7  O9  UNL     1     -30.753  18.607  -0.471  1.00 20.00    -0.396 OA
HETATM    8  C5  UNL     1     -30.885  18.496   0.940  1.00 20.00     0.201 C 
ENDBRANCH   6   7
ENDBRANCH   5   6
ENDBRANCH   3   5
BRANCH   2   9
HETATM    9  C6  UNL     1     -33.145  15.800  -3.735  1.00 20.00     0.120 C 
HETATM   10 CL10 UNL     1     -34.186  14.394  -4.091  1.00 20.00    -0.130 Cl
ENDBRANCH   2   9
TORSDOF 4
ENDMDL
MODEL 5
REMARK VINA RESULT:      -3.5      9.421     10.658
REMARK  4 active torsions:
REMARK  status: ('A' for Active; 'I' for Inactive)
REMARK    1  A    between atoms: C2_2  and  C6_6 
REMARK    2  A    between atoms: C3_3  and  C7_7 
REMARK    3  A    between atoms: C7_7  and  C8_8 
REMARK    4  A    between atoms: C8_8  and  O9_9 
ROOT
HETATM    1  C1  UNL     1     -41.248  13.507   5.282  1.00 20.00     0.016 A 
HETATM    2  C2  UNL     1     -40.676  12.226   5.816  1.00 20.00     0.008 A 
HETATM    3  C3  UNL     1     -41.302  13.229   6.775  1.00 20.00    -0.037 A 
HETATM    4  C4  UNL     1     -42.636  12.865   7.375  1.00 20.00     0.015 C 
ENDROOT
BRANCH   3   5
HETATM    5  C7  UNL     1     -40.429  14.055   7.681  1.00 20.00     0.035 C 
BRANCH   5   6
HETATM    6  C8  UNL     1     -40.679  15.551   7.519  1.00 20.00     0.167 C 
BRANCH   6   7
HETATM    7  O9  UNL     1     -40.380  16.212   8.740  1.00 20.00    -0.396 OA
HETATM    8  C5  UNL     1     -40.192  15.287   9.803  1.00 20.00     0.201 C 
ENDBRANCH   6   7
ENDBRANCH   5   6
ENDBRANCH   3   5
BRANCH   2   9
HETATM    9  C6  UNL     1     -39.208  11.976   5.760  1.00 20.00     0.120 C 
HETATM   10 CL10 UNL     1     -38.670  11.651   4.089  1.00 20.00    -0.130 Cl
ENDBRANCH   2   9
TORSDOF 4
ENDMDL
MODEL 6
REMARK VINA RESULT:      -3.5      9.349     10.529
REMARK  4 active torsions:
REMARK  status: ('A' for Active; 'I' for Inactive)
REMARK    1  A    between atoms: C2_2  and  C6_6 
REMARK    2  A    between atoms: C3_3  and  C7_7 
REMARK    3  A    between atoms: C7_7  and  C8_8 
REMARK    4  A    between atoms: C8_8  and  O9_9 
ROOT
HETATM    1  C1  UNL     1     -41.201  13.426   5.261  1.00 20.00     0.016 A 
HETATM    2  C2  UNL     1     -40.723  12.184   5.957  1.00 20.00     0.008 A 
HETATM    3  C3  UNL     1     -41.368  13.301   6.766  1.00 20.00    -0.037 A 
HETATM    4  C4  UNL     1     -42.754  13.048   7.302  1.00 20.00     0.015 C 
ENDROOT
BRANCH   3   5
HETATM    5  C7  UNL     1     -40.523  14.181   7.647  1.00 20.00     0.035 C 
BRANCH   5   6
HETATM    6  C8  UNL     1     -41.213  14.511   8.967  1.00 20.00     0.167 C 
BRANCH   6   7
HETATM    7  O9  UNL     1     -40.620  13.752  10.011  1.00 20.00    -0.396 OA
HETATM    8  C5  UNL     1     -41.338  13.889  11.230  1.00 20.00     0.201 C 
ENDBRANCH   6   7
ENDBRANCH   5   6
ENDBRANCH   3   5
BRANCH   2   9
HETATM    9  C6  UNL     1     -39.267  11.876   6.030  1.00 20.00     0.120 C 
HETATM   10 CL10 UNL     1     -38.546  11.764   4.401  1.00 20.00    -0.130 Cl
ENDBRANCH   2   9
TORSDOF 4
ENDMDL
MODEL 7
REMARK VINA RESULT:      -3.5      2.310      3.848
REMARK  4 active torsions:
REMARK  status: ('A' for Active; 'I' for Inactive)
REMARK    1  A    between atoms: C2_2  and  C6_6 
REMARK    2  A    between atoms: C3_3  and  C7_7 
REMARK    3  A    between atoms: C7_7  and  C8_8 
REMARK    4  A    between atoms: C8_8  and  O9_9 
ROOT
HETATM    1  C1  UNL     1     -34.806   5.549   6.378  1.00 20.00     0.016 A 
HETATM    2  C2  UNL     1     -34.372   6.882   5.840  1.00 20.00     0.008 A 
HETATM    3  C3  UNL     1     -34.682   5.746   4.876  1.00 20.00    -0.037 A 
HETATM    4  C4  UNL     1     -35.953   5.854   4.073  1.00 20.00     0.015 C 
ENDROOT
BRANCH   3   5
HETATM    5  C7  UNL     1     -33.565   5.036   4.160  1.00 20.00     0.035 C 
BRANCH   5   6
HETATM    6  C8  UNL     1     -33.305   5.618   2.774  1.00 20.00     0.167 C 
BRANCH   6   7
HETATM    7  O9  UNL     1     -32.165   6.464   2.826  1.00 20.00    -0.396 OA
HETATM    8  C5  UNL     1     -32.340   7.626   2.027  1.00 20.00     0.201 C 
ENDBRANCH   6   7
ENDBRANCH   5   6
ENDBRANCH   3   5
BRANCH   2   9
HETATM    9  C6  UNL     1     -32.987   7.376   6.082  1.00 20.00     0.120 C 
HETATM   10 CL10 UNL     1     -32.675   8.890   5.189  1.00 20.00    -0.130 Cl
ENDBRANCH   2   9
TORSDOF 4
ENDMDL
MODEL 8
REMARK VINA RESULT:      -3.4     11.584     12.471
REMARK  4 active torsions:
REMARK  status: ('A' for Active; 'I' for Inactive)
REMARK    1  A    between atoms: C2_2  and  C6_6 
REMARK    2  A    between atoms: C3_3  and  C7_7 
REMARK    3  A    between atoms: C7_7  and  C8_8 
REMARK    4  A    between atoms: C8_8  and  O9_9 
ROOT
HETATM    1  C1  UNL     1     -33.935  19.019  -1.521  1.00 20.00     0.016 A 
HETATM    2  C2  UNL     1     -32.441  18.995  -1.673  1.00 20.00     0.008 A 
HETATM    3  C3  UNL     1     -33.305  18.127  -2.578  1.00 20.00    -0.037 A 
HETATM    4  C4  UNL     1     -33.428  18.548  -4.019  1.00 20.00     0.015 C 
ENDROOT
BRANCH   3   5
HETATM    5  C7  UNL     1     -33.358  16.637  -2.370  1.00 20.00     0.035 C 
BRANCH   5   6
HETATM    6  C8  UNL     1     -33.065  15.864  -3.651  1.00 20.00     0.167 C 
BRANCH   6   7
HETATM    7  O9  UNL     1     -34.040  14.844  -3.818  1.00 20.00    -0.396 OA
HETATM    8  C5  UNL     1     -34.543  14.815  -5.147  1.00 20.00     0.201 C 
ENDBRANCH   6   7
ENDBRANCH   5   6
ENDBRANCH   3   5
BRANCH   2   9
HETATM    9  C6  UNL     1     -31.585  18.427  -0.594  1.00 20.00     0.120 C 
HETATM   10 CL10 UNL     1     -32.434  18.430   0.977  1.00 20.00    -0.130 Cl
ENDBRANCH   2   9
TORSDOF 4
ENDMDL
MODEL 9
REMARK VINA RESULT:      -3.3      2.930      4.453
REMARK  4 active torsions:
REMARK  status: ('A' for Active; 'I' for Inactive)
REMARK    1  A    between atoms: C2_2  and  C6_6 
REMARK    2  A    between atoms: C3_3  and  C7_7 
REMARK    3  A    between atoms: C7_7  and  C8_8 
REMARK    4  A    between atoms: C8_8  and  O9_9 
ROOT
HETATM    1  C1  UNL     1     -34.544   8.057   5.074  1.00 20.00     0.016 A 
HETATM    2  C2  UNL     1     -33.713   7.183   5.969  1.00 20.00     0.008 A 
HETATM    3  C3  UNL     1     -33.059   7.897   4.794  1.00 20.00    -0.037 A 
HETATM    4  C4  UNL     1     -32.153   9.058   5.114  1.00 20.00     0.015 C 
ENDROOT
BRANCH   3   5
HETATM    5  C7  UNL     1     -32.648   7.121   3.572  1.00 20.00     0.035 C 
BRANCH   5   6
HETATM    6  C8  UNL     1     -31.811   7.957   2.609  1.00 20.00     0.167 C 
BRANCH   6   7
HETATM    7  O9  UNL     1     -32.323   7.812   1.292  1.00 20.00    -0.396 OA
HETATM    8  C5  UNL     1     -32.560   9.074   0.682  1.00 20.00     0.201 C 
ENDBRANCH   6   7
ENDBRANCH   5   6
ENDBRANCH   3   5
BRANCH   2   9
HETATM    9  C6  UNL     1     -33.930   5.709   5.995  1.00 20.00     0.120 C 
HETATM   10 CL10 UNL     1     -35.284   5.236   4.931  1.00 20.00    -0.130 Cl
ENDBRANCH   2   9
TORSDOF 4
ENDMDL
