MODEL 1
REMARK VINA RESULT:      -4.1      0.000      0.000
REMARK  2 active torsions:
REMARK  status: ('A' for Active; 'I' for Inactive)
REMARK    1  A    between atoms: C2_2  and  C6_6 
REMARK    2  A    between atoms: C7_7  and  C10_10 
ROOT
HETATM    1  C1  UNL     1     -33.542  16.706  -1.874  1.00 20.00     0.022 A 
HETATM    2  C2  UNL     1     -33.411  16.969  -3.269  1.00 20.00    -0.040 A 
HETATM    3  C3  UNL     1     -33.651  17.865  -1.137  1.00 20.00    -0.020 A 
HETATM    4  C4  UNL     1     -33.426  18.319  -3.544  1.00 20.00    -0.014 A 
HETATM    5  C8  UNL     1     -33.800  18.015   0.326  1.00 20.00     0.056 C 
HETATM    6  C9  UNL     1     -33.317  19.000  -4.854  1.00 20.00     0.057 C 
HETATM    7  S11 UNL     1     -33.596  19.262  -2.125  1.00 20.00    -0.100 SA
ENDROOT
BRANCH   2   8
HETATM    8  C6  UNL     1     -33.274  15.886  -4.313  1.00 20.00     0.025 A 
HETATM    9  C5  UNL     1     -33.996  14.567  -4.143  1.00 20.00     0.016 A 
HETATM   10  C7  UNL     1     -34.452  15.533  -5.197  1.00 20.00     0.008 A 
BRANCH  10  11
HETATM   11  C10 UNL     1     -34.238  15.225  -6.638  1.00 20.00     0.119 C 
HETATM   12 CL12 UNL     1     -34.411  16.690  -7.646  1.00 20.00    -0.130 Cl
ENDBRANCH  10  11
ENDBRANCH   2   8
TORSDOF 2
ENDMDL
MODEL 2
REMARK VINA RESULT:      -3.8      1.837      2.033
REMARK  2 active torsions:
REMARK  status: ('A' for Active; 'I' for Inactive)
REMARK    1  A    between atoms: C2_2  and  C6_6 
REMARK    2  A    between atoms: C7_7  and  C10_10 
ROOT
HETATM    1  C1  UNL     1     -32.854  17.553  -1.550  1.00 20.00     0.022 A 
HETATM    2  C2  UNL     1     -33.798  17.567  -2.618  1.00 20.00    -0.040 A 
HETATM    3  C3  UNL     1     -33.225  18.394  -0.523  1.00 20.00    -0.020 A 
HETATM    4  C4  UNL     1     -34.852  18.417  -2.367  1.00 20.00    -0.014 A 
HETATM    5  C8  UNL     1     -32.519  18.657   0.750  1.00 20.00     0.056 C 
HETATM    6  C9  UNL     1     -36.029  18.714  -3.215  1.00 20.00     0.057 C 
HETATM    7  S11 UNL     1     -34.703  19.194  -0.848  1.00 20.00    -0.100 SA
ENDROOT
BRANCH   2   8
HETATM    8  C6  UNL     1     -33.647  16.742  -3.875  1.00 20.00     0.025 A 
HETATM    9  C5  UNL     1     -32.752  15.523  -3.884  1.00 20.00     0.016 A 
HETATM   10  C7  UNL     1     -34.241  15.350  -3.942  1.00 20.00     0.008 A 
BRANCH  10  11
HETATM   11  C10 UNL     1     -34.892  14.875  -5.195  1.00 20.00     0.119 C 
HETATM   12 CL12 UNL     1     -36.164  13.670  -4.847  1.00 20.00    -0.130 Cl
ENDBRANCH  10  11
ENDBRANCH   2   8
TORSDOF 2
ENDMDL
MODEL 3
REMARK VINA RESULT:      -3.5      3.330      5.148
REMARK  2 active torsions:
REMARK  status: ('A' for Active; 'I' for Inactive)
REMARK    1  A    between atoms: C2_2  and  C6_6 
REMARK    2  A    between atoms: C7_7  and  C10_10 
ROOT
HETATM    1  C1  UNL     1     -34.967  18.047  -4.017  1.00 20.00     0.022 A 
HETATM    2  C2  UNL     1     -34.062  17.070  -3.509  1.00 20.00    -0.040 A 
HETATM    3  C3  UNL     1     -35.511  17.668  -5.225  1.00 20.00    -0.020 A 
HETATM    4  C4  UNL     1     -33.951  15.982  -4.346  1.00 20.00    -0.014 A 
HETATM    5  C8  UNL     1     -36.482  18.401  -6.067  1.00 20.00     0.056 C 
HETATM    6  C9  UNL     1     -33.124  14.765  -4.183  1.00 20.00     0.057 C 
HETATM    7  S11 UNL     1     -34.933  16.142  -5.740  1.00 20.00    -0.100 SA
ENDROOT
BRANCH   2   8
HETATM    8  C6  UNL     1     -33.319  17.221  -2.202  1.00 20.00     0.025 A 
HETATM    9  C5  UNL     1     -32.542  18.486  -1.909  1.00 20.00     0.016 A 
HETATM   10  C7  UNL     1     -33.812  18.205  -1.160  1.00 20.00     0.008 A 
BRANCH  10  11
HETATM   11  C10 UNL     1     -33.766  17.847   0.285  1.00 20.00     0.119 C 
HETATM   12 CL12 UNL     1     -32.302  18.504   1.068  1.00 20.00    -0.130 Cl
ENDBRANCH  10  11
ENDBRANCH   2   8
TORSDOF 2
ENDMDL
MODEL 4
REMARK VINA RESULT:      -3.5     12.506     13.295
REMARK  2 active torsions:
REMARK  status: ('A' for Active; 'I' for Inactive)
REMARK    1  A    between atoms: C2_2  and  C6_6 
REMARK    2  A    between atoms: C7_7  and  C10_10 
ROOT
HETATM    1  C1  UNL     1     -41.898  15.737   6.332  1.00 20.00     0.022 A 
HETATM    2  C2  UNL     1     -41.220  14.965   7.318  1.00 20.00    -0.040 A 
HETATM    3  C3  UNL     1     -41.954  17.072   6.669  1.00 20.00    -0.020 A 
HETATM    4  C4  UNL     1     -40.781  15.738   8.370  1.00 20.00    -0.014 A 
HETATM    5  C8  UNL     1     -42.567  18.187   5.915  1.00 20.00     0.056 C 
HETATM    6  C9  UNL     1     -40.042  15.322   9.584  1.00 20.00     0.057 C 
HETATM    7  S11 UNL     1     -41.189  17.389   8.168  1.00 20.00    -0.100 SA
ENDROOT
BRANCH   2   8
HETATM    8  C6  UNL     1     -41.011  13.472   7.210  1.00 20.00     0.025 A 
HETATM    9  C5  UNL     1     -42.034  12.608   6.505  1.00 20.00     0.016 A 
HETATM   10  C7  UNL     1     -40.697  12.847   5.867  1.00 20.00     0.008 A 
BRANCH  10  11
HETATM   11  C10 UNL     1     -39.704  11.741   5.772  1.00 20.00     0.119 C 
HETATM   12 CL12 UNL     1     -38.991  11.649   4.137  1.00 20.00    -0.130 Cl
ENDBRANCH  10  11
ENDBRANCH   2   8
TORSDOF 2
ENDMDL
MODEL 5
REMARK VINA RESULT:      -3.3     12.485     13.779
REMARK  2 active torsions:
REMARK  status: ('A' for Active; 'I' for Inactive)
REMARK    1  A    between atoms: C2_2  and  C6_6 
REMARK    2  A    between atoms: C7_7  and  C10_10 
ROOT
HETATM    1  C1  UNL     1     -40.488  14.146   9.000  1.00 20.00     0.022 A 
HETATM    2  C2  UNL     1     -41.398  14.158   7.904  1.00 20.00    -0.040 A 
HETATM    3  C3  UNL     1     -40.744  15.161   9.896  1.00 20.00    -0.020 A 
HETATM    4  C4  UNL     1     -42.315  15.181   8.004  1.00 20.00    -0.014 A 
HETATM    5  C8  UNL     1     -40.030  15.484  11.150  1.00 20.00     0.056 C 
HETATM    6  C9  UNL     1     -43.417  15.533   7.080  1.00 20.00     0.057 C 
HETATM    7  S11 UNL     1     -42.077  16.122   9.414  1.00 20.00    -0.100 SA
ENDROOT
BRANCH   2   8
HETATM    8  C6  UNL     1     -41.353  13.159   6.771  1.00 20.00     0.025 A 
HETATM    9  C5  UNL     1     -41.248  13.636   5.338  1.00 20.00     0.016 A 
HETATM   10  C7  UNL     1     -40.072  12.965   5.985  1.00 20.00     0.008 A 
BRANCH  10  11
HETATM   11  C10 UNL     1     -39.660  11.599   5.556  1.00 20.00     0.119 C 
HETATM   12 CL12 UNL     1     -38.951  11.622   3.916  1.00 20.00    -0.130 Cl
ENDBRANCH  10  11
ENDBRANCH   2   8
TORSDOF 2
ENDMDL
MODEL 6
REMARK VINA RESULT:      -3.2      1.743      2.703
REMARK  2 active torsions:
REMARK  status: ('A' for Active; 'I' for Inactive)
REMARK    1  A    between atoms: C2_2  and  C6_6 
REMARK    2  A    between atoms: C7_7  and  C10_10 
ROOT
HETATM    1  C1  UNL     1     -32.309  17.789  -1.087  1.00 20.00     0.022 A 
HETATM    2  C2  UNL     1     -33.629  17.951  -1.601  1.00 20.00    -0.040 A 
HETATM    3  C3  UNL     1     -32.135  18.452   0.108  1.00 20.00    -0.020 A 
HETATM    4  C4  UNL     1     -34.413  18.729  -0.778  1.00 20.00    -0.014 A 
HETATM    5  C8  UNL     1     -30.922  18.528   0.950  1.00 20.00     0.056 C 
HETATM    6  C9  UNL     1     -35.827  19.131  -0.951  1.00 20.00     0.057 C 
HETATM    7  S11 UNL     1     -33.558  19.263   0.606  1.00 20.00    -0.100 SA
ENDROOT
BRANCH   2   8
HETATM    8  C6  UNL     1     -34.101  17.334  -2.897  1.00 20.00     0.025 A 
HETATM    9  C5  UNL     1     -33.353  17.600  -4.185  1.00 20.00     0.016 A 
HETATM   10  C7  UNL     1     -33.286  16.240  -3.556  1.00 20.00     0.008 A 
BRANCH  10  11
HETATM   11  C10 UNL     1     -33.971  15.083  -4.197  1.00 20.00     0.119 C 
HETATM   12 CL12 UNL     1     -34.342  15.420  -5.911  1.00 20.00    -0.130 Cl
ENDBRANCH  10  11
ENDBRANCH   2   8
TORSDOF 2
ENDMDL
MODEL 7
REMARK VINA RESULT:      -3.1     18.784     20.656
REMARK  2 active torsions:
REMARK  status: ('A' for Active; 'I' for Inactive)
REMARK    1  A    between atoms: C2_2  and  C6_6 
REMARK    2  A    between atoms: C7_7  and  C10_10 
ROOT
HETATM    1  C1  UNL     1     -39.638  -3.233  -4.706  1.00 20.00     0.022 A 
HETATM    2  C2  UNL     1     -40.668  -2.508  -5.374  1.00 20.00    -0.040 A 
HETATM    3  C3  UNL     1     -38.791  -3.862  -5.592  1.00 20.00    -0.020 A 
HETATM    4  C4  UNL     1     -40.567  -2.611  -6.744  1.00 20.00    -0.014 A 
HETATM    5  C8  UNL     1     -37.611  -4.703  -5.297  1.00 20.00     0.056 C 
HETATM    6  C9  UNL     1     -41.432  -2.012  -7.786  1.00 20.00     0.057 C 
HETATM    7  S11 UNL     1     -39.236  -3.578  -7.220  1.00 20.00    -0.100 SA
ENDROOT
BRANCH   2   8
HETATM    8  C6  UNL     1     -41.738  -1.723  -4.653  1.00 20.00     0.025 A 
HETATM    9  C5  UNL     1     -41.771  -1.690  -3.141  1.00 20.00     0.016 A 
HETATM   10  C7  UNL     1     -41.373  -0.459  -3.901  1.00 20.00     0.008 A 
BRANCH  10  11
HETATM   11  C10 UNL     1     -42.280   0.722  -3.943  1.00 20.00     0.119 C 
HETATM   12 CL12 UNL     1     -41.354   2.249  -3.926  1.00 20.00    -0.130 Cl
ENDBRANCH  10  11
ENDBRANCH   2   8
TORSDOF 2
ENDMDL
MODEL 8
REMARK VINA RESULT:      -3.1     12.340     14.168
REMARK  2 active torsions:
REMARK  status: ('A' for Active; 'I' for Inactive)
REMARK    1  A    between atoms: C2_2  and  C6_6 
REMARK    2  A    between atoms: C7_7  and  C10_10 
ROOT
HETATM    1  C1  UNL     1     -40.307  13.338   6.931  1.00 20.00     0.022 A 
HETATM    2  C2  UNL     1     -41.234  14.380   7.223  1.00 20.00    -0.040 A 
HETATM    3  C3  UNL     1     -40.396  12.919   5.621  1.00 20.00    -0.020 A 
HETATM    4  C4  UNL     1     -41.995  14.719   6.126  1.00 20.00    -0.014 A 
HETATM    5  C8  UNL     1     -39.613  11.868   4.936  1.00 20.00     0.056 C 
HETATM    6  C9  UNL     1     -43.059  15.742   6.014  1.00 20.00     0.057 C 
HETATM    7  S11 UNL     1     -41.592  13.782   4.751  1.00 20.00    -0.100 SA
ENDROOT
BRANCH   2   8
HETATM    8  C6  UNL     1     -41.357  15.030   8.582  1.00 20.00     0.025 A 
HETATM    9  C5  UNL     1     -40.158  15.110   9.501  1.00 20.00     0.016 A 
HETATM   10  C7  UNL     1     -40.679  16.358   8.850  1.00 20.00     0.008 A 
BRANCH  10  11
HETATM   11  C10 UNL     1     -41.368  17.397   9.666  1.00 20.00     0.119 C 
HETATM   12 CL12 UNL     1     -42.127  18.636   8.628  1.00 20.00    -0.130 Cl
ENDBRANCH  10  11
ENDBRANCH   2   8
TORSDOF 2
ENDMDL
MODEL 9
REMARK VINA RESULT:      -2.9      3.672      5.345
REMARK  2 active torsions:
REMARK  status: ('A' for Active; 'I' for Inactive)
REMARK    1  A    between atoms: C2_2  and  C6_6 
REMARK    2  A    between atoms: C7_7  and  C10_10 
ROOT
HETATM    1  C1  UNL     1     -30.367  18.323   1.233  1.00 20.00     0.022 A 
HETATM    2  C2  UNL     1     -31.739  18.469   0.874  1.00 20.00    -0.040 A 
HETATM    3  C3  UNL     1     -30.128  18.716   2.532  1.00 20.00    -0.020 A 
HETATM    4  C4  UNL     1     -32.495  18.966   1.912  1.00 20.00    -0.014 A 
HETATM    5  C8  UNL     1     -28.848  18.717   3.272  1.00 20.00     0.056 C 
HETATM    6  C9  UNL     1     -33.946  19.260   1.946  1.00 20.00     0.057 C 
HETATM    7  S11 UNL     1     -31.553  19.256   3.312  1.00 20.00    -0.100 SA
ENDROOT
BRANCH   2   8
HETATM    8  C6  UNL     1     -32.286  18.115  -0.489  1.00 20.00     0.025 A 
HETATM    9  C5  UNL     1     -33.779  18.126  -0.737  1.00 20.00     0.016 A 
HETATM   10  C7  UNL     1     -32.917  19.188  -1.353  1.00 20.00     0.008 A 
BRANCH  10  11
HETATM   11  C10 UNL     1     -32.676  19.200  -2.823  1.00 20.00     0.119 C 
HETATM   12 CL12 UNL     1     -33.507  17.837  -3.625  1.00 20.00    -0.130 Cl
ENDBRANCH  10  11
ENDBRANCH   2   8
TORSDOF 2
ENDMDL
