MODEL 1
REMARK VINA RESULT:      -4.8      0.000      0.000
REMARK  3 active torsions:
REMARK  status: ('A' for Active; 'I' for Inactive)
REMARK    1  A    between atoms: C1_1  and  C5_5 
REMARK    2  A    between atoms: C5_5  and  C7_7 
REMARK    3  A    between atoms: C6_6  and  C7_7 
ROOT
HETATM    1  C5  UNL     1     -34.451   6.185   4.642  1.00 20.00     0.274 C 
HETATM    2  F10 UNL     1     -34.924   4.949   4.308  1.00 20.00    -0.238 F 
ENDROOT
BRANCH   1   3
HETATM    3  C1  UNL     1     -34.355   6.149   6.169  1.00 20.00     0.208 C 
HETATM    4  O8  UNL     1     -34.252   4.992   6.665  1.00 20.00    -0.646 OA
HETATM    5  O9  UNL     1     -34.376   7.274   6.742  1.00 20.00    -0.646 OA
ENDBRANCH   1   3
BRANCH   1   6
HETATM    6  C7  UNL     1     -33.111   6.400   3.920  1.00 20.00     0.029 C 
HETATM    7  C4  UNL     1     -32.994   5.391   2.768  1.00 20.00     0.014 C 
BRANCH   6   8
HETATM    8  C6  UNL     1     -32.901   7.875   3.469  1.00 20.00    -0.016 C 
HETATM    9  C2  UNL     1     -32.206   8.708   4.551  1.00 20.00     0.010 C 
HETATM   10  C3  UNL     1     -32.146   8.020   2.144  1.00 20.00     0.010 C 
ENDBRANCH   6   8
ENDBRANCH   1   6
TORSDOF 3
ENDMDL
MODEL 2
REMARK VINA RESULT:      -4.5      1.629      2.563
REMARK  3 active torsions:
REMARK  status: ('A' for Active; 'I' for Inactive)
REMARK    1  A    between atoms: C1_1  and  C5_5 
REMARK    2  A    between atoms: C5_5  and  C7_7 
REMARK    3  A    between atoms: C6_6  and  C7_7 
ROOT
HETATM    1  C5  UNL     1     -33.674   6.517   5.324  1.00 20.00     0.274 C 
HETATM    2  F10 UNL     1     -34.121   7.173   6.435  1.00 20.00    -0.238 F 
ENDROOT
BRANCH   1   3
HETATM    3  C1  UNL     1     -34.826   5.581   4.953  1.00 20.00     0.208 C 
HETATM    4  O8  UNL     1     -35.816   6.150   4.412  1.00 20.00    -0.646 OA
HETATM    5  O9  UNL     1     -34.642   4.360   5.217  1.00 20.00    -0.646 OA
ENDBRANCH   1   3
BRANCH   1   6
HETATM    6  C7  UNL     1     -33.327   7.564   4.253  1.00 20.00     0.029 C 
HETATM    7  C4  UNL     1     -32.806   8.833   4.941  1.00 20.00     0.014 C 
BRANCH   6   8
HETATM    8  C6  UNL     1     -32.360   7.013   3.165  1.00 20.00    -0.016 C 
HETATM    9  C2  UNL     1     -32.790   5.629   2.668  1.00 20.00     0.010 C 
HETATM   10  C3  UNL     1     -32.169   7.950   1.968  1.00 20.00     0.010 C 
ENDBRANCH   6   8
ENDBRANCH   1   6
TORSDOF 3
ENDMDL
MODEL 3
REMARK VINA RESULT:      -4.5      1.798      2.455
REMARK  3 active torsions:
REMARK  status: ('A' for Active; 'I' for Inactive)
REMARK    1  A    between atoms: C1_1  and  C5_5 
REMARK    2  A    between atoms: C5_5  and  C7_7 
REMARK    3  A    between atoms: C6_6  and  C7_7 
ROOT
HETATM    1  C5  UNL     1     -33.834   6.350   5.447  1.00 20.00     0.274 C 
HETATM    2  F10 UNL     1     -34.377   6.569   6.680  1.00 20.00    -0.238 F 
ENDROOT
BRANCH   1   3
HETATM    3  C1  UNL     1     -34.804   5.374   4.779  1.00 20.00     0.208 C 
HETATM    4  O8  UNL     1     -34.400   4.177   4.731  1.00 20.00    -0.646 OA
HETATM    5  O9  UNL     1     -35.889   5.876   4.372  1.00 20.00    -0.646 OA
ENDBRANCH   1   3
BRANCH   1   6
HETATM    6  C7  UNL     1     -33.696   7.706   4.734  1.00 20.00     0.029 C 
HETATM    7  C4  UNL     1     -33.626   8.822   5.785  1.00 20.00     0.014 C 
BRANCH   6   8
HETATM    8  C6  UNL     1     -32.510   7.736   3.726  1.00 20.00    -0.016 C 
HETATM    9  C2  UNL     1     -32.466   6.472   2.860  1.00 20.00     0.010 C 
HETATM   10  C3  UNL     1     -32.489   8.975   2.826  1.00 20.00     0.010 C 
ENDBRANCH   6   8
ENDBRANCH   1   6
TORSDOF 3
ENDMDL
MODEL 4
REMARK VINA RESULT:      -4.5      2.587      3.812
REMARK  3 active torsions:
REMARK  status: ('A' for Active; 'I' for Inactive)
REMARK    1  A    between atoms: C1_1  and  C5_5 
REMARK    2  A    between atoms: C5_5  and  C7_7 
REMARK    3  A    between atoms: C6_6  and  C7_7 
ROOT
HETATM    1  C5  UNL     1     -33.811   7.788   4.765  1.00 20.00     0.274 C 
HETATM    2  F10 UNL     1     -34.102   8.836   5.589  1.00 20.00    -0.238 F 
ENDROOT
BRANCH   1   3
HETATM    3  C1  UNL     1     -32.425   8.122   4.209  1.00 20.00     0.208 C 
HETATM    4  O8  UNL     1     -32.045   7.383   3.257  1.00 20.00    -0.646 OA
HETATM    5  O9  UNL     1     -31.840   9.098   4.755  1.00 20.00    -0.646 OA
ENDBRANCH   1   3
BRANCH   1   6
HETATM    6  C7  UNL     1     -33.875   6.492   5.591  1.00 20.00     0.029 C 
HETATM    7  C4  UNL     1     -34.352   6.826   7.011  1.00 20.00     0.014 C 
BRANCH   6   8
HETATM    8  C6  UNL     1     -34.721   5.382   4.903  1.00 20.00    -0.016 C 
HETATM    9  C2  UNL     1     -35.878   5.969   4.088  1.00 20.00     0.010 C 
HETATM   10  C3  UNL     1     -33.903   4.432   4.022  1.00 20.00     0.010 C 
ENDBRANCH   6   8
ENDBRANCH   1   6
TORSDOF 3
ENDMDL
MODEL 5
REMARK VINA RESULT:      -4.2      2.566      3.783
REMARK  3 active torsions:
REMARK  status: ('A' for Active; 'I' for Inactive)
REMARK    1  A    between atoms: C1_1  and  C5_5 
REMARK    2  A    between atoms: C5_5  and  C7_7 
REMARK    3  A    between atoms: C6_6  and  C7_7 
ROOT
HETATM    1  C5  UNL     1     -32.384   7.326   3.965  1.00 20.00     0.274 C 
HETATM    2  F10 UNL     1     -31.514   6.899   3.003  1.00 20.00    -0.238 F 
ENDROOT
BRANCH   1   3
HETATM    3  C1  UNL     1     -32.492   8.833   3.731  1.00 20.00     0.208 C 
HETATM    4  O8  UNL     1     -32.280   9.544   4.754  1.00 20.00    -0.646 OA
HETATM    5  O9  UNL     1     -32.764   9.183   2.548  1.00 20.00    -0.646 OA
ENDBRANCH   1   3
BRANCH   1   6
HETATM    6  C7  UNL     1     -33.703   6.554   3.798  1.00 20.00     0.029 C 
HETATM    7  C4  UNL     1     -33.428   5.244   3.047  1.00 20.00     0.014 C 
BRANCH   6   8
HETATM    8  C6  UNL     1     -34.451   6.344   5.147  1.00 20.00    -0.016 C 
HETATM    9  C2  UNL     1     -34.659   4.858   5.458  1.00 20.00     0.010 C 
HETATM   10  C3  UNL     1     -33.784   7.030   6.343  1.00 20.00     0.010 C 
ENDBRANCH   6   8
ENDBRANCH   1   6
TORSDOF 3
ENDMDL
MODEL 6
REMARK VINA RESULT:      -4.0      1.690      2.404
REMARK  3 active torsions:
REMARK  status: ('A' for Active; 'I' for Inactive)
REMARK    1  A    between atoms: C1_1  and  C5_5 
REMARK    2  A    between atoms: C5_5  and  C7_7 
REMARK    3  A    between atoms: C6_6  and  C7_7 
ROOT
HETATM    1  C5  UNL     1     -33.886   5.794   3.415  1.00 20.00     0.274 C 
HETATM    2  F10 UNL     1     -33.307   4.979   2.485  1.00 20.00    -0.238 F 
ENDROOT
BRANCH   1   3
HETATM    3  C1  UNL     1     -34.455   4.829   4.456  1.00 20.00     0.208 C 
HETATM    4  O8  UNL     1     -35.601   5.136   4.891  1.00 20.00    -0.646 OA
HETATM    5  O9  UNL     1     -33.723   3.841   4.742  1.00 20.00    -0.646 OA
ENDBRANCH   1   3
BRANCH   1   6
HETATM    6  C7  UNL     1     -32.810   6.753   3.951  1.00 20.00     0.029 C 
HETATM    7  C4  UNL     1     -32.036   7.350   2.768  1.00 20.00     0.014 C 
BRANCH   6   8
HETATM    8  C6  UNL     1     -33.392   7.831   4.912  1.00 20.00    -0.016 C 
HETATM    9  C2  UNL     1     -33.622   7.274   6.320  1.00 20.00     0.010 C 
HETATM   10  C3  UNL     1     -32.551   9.109   4.996  1.00 20.00     0.010 C 
ENDBRANCH   6   8
ENDBRANCH   1   6
TORSDOF 3
ENDMDL
MODEL 7
REMARK VINA RESULT:      -4.0     12.526     13.534
REMARK  3 active torsions:
REMARK  status: ('A' for Active; 'I' for Inactive)
REMARK    1  A    between atoms: C1_1  and  C5_5 
REMARK    2  A    between atoms: C5_5  and  C7_7 
REMARK    3  A    between atoms: C6_6  and  C7_7 
ROOT
HETATM    1  C5  UNL     1     -34.639  15.549  -5.919  1.00 20.00     0.274 C 
HETATM    2  F10 UNL     1     -33.671  15.008  -6.716  1.00 20.00    -0.238 F 
ENDROOT
BRANCH   1   3
HETATM    3  C1  UNL     1     -35.892  14.735  -6.245  1.00 20.00     0.208 C 
HETATM    4  O8  UNL     1     -36.694  14.589  -5.279  1.00 20.00    -0.646 OA
HETATM    5  O9  UNL     1     -35.979  14.322  -7.435  1.00 20.00    -0.646 OA
ENDBRANCH   1   3
BRANCH   1   6
HETATM    6  C7  UNL     1     -34.171  15.449  -4.458  1.00 20.00     0.029 C 
HETATM    7  C4  UNL     1     -33.021  14.437  -4.366  1.00 20.00     0.014 C 
BRANCH   6   8
HETATM    8  C6  UNL     1     -33.820  16.835  -3.843  1.00 20.00    -0.016 C 
HETATM    9  C2  UNL     1     -34.955  17.847  -4.034  1.00 20.00     0.010 C 
HETATM   10  C3  UNL     1     -33.426  16.779  -2.364  1.00 20.00     0.010 C 
ENDBRANCH   6   8
ENDBRANCH   1   6
TORSDOF 3
ENDMDL
MODEL 8
REMARK VINA RESULT:      -3.9     12.594     13.509
REMARK  3 active torsions:
REMARK  status: ('A' for Active; 'I' for Inactive)
REMARK    1  A    between atoms: C1_1  and  C5_5 
REMARK    2  A    between atoms: C5_5  and  C7_7 
REMARK    3  A    between atoms: C6_6  and  C7_7 
ROOT
HETATM    1  C5  UNL     1     -34.610  15.470  -5.904  1.00 20.00     0.274 C 
HETATM    2  F10 UNL     1     -33.643  14.877  -6.664  1.00 20.00    -0.238 F 
ENDROOT
BRANCH   1   3
HETATM    3  C1  UNL     1     -35.884  14.697  -6.250  1.00 20.00     0.208 C 
HETATM    4  O8  UNL     1     -35.991  14.370  -7.465  1.00 20.00    -0.646 OA
HETATM    5  O9  UNL     1     -36.662  14.470  -5.282  1.00 20.00    -0.646 OA
ENDBRANCH   1   3
BRANCH   1   6
HETATM    6  C7  UNL     1     -34.186  15.381  -4.429  1.00 20.00     0.029 C 
HETATM    7  C4  UNL     1     -32.816  14.693  -4.341  1.00 20.00     0.014 C 
BRANCH   6   8
HETATM    8  C6  UNL     1     -34.229  16.759  -3.707  1.00 20.00    -0.016 C 
HETATM    9  C2  UNL     1     -33.279  16.804  -2.506  1.00 20.00     0.010 C 
HETATM   10  C3  UNL     1     -33.952  17.953  -4.626  1.00 20.00     0.010 C 
ENDBRANCH   6   8
ENDBRANCH   1   6
TORSDOF 3
ENDMDL
MODEL 9
REMARK VINA RESULT:      -3.8      2.842      4.157
REMARK  3 active torsions:
REMARK  status: ('A' for Active; 'I' for Inactive)
REMARK    1  A    between atoms: C1_1  and  C5_5 
REMARK    2  A    between atoms: C5_5  and  C7_7 
REMARK    3  A    between atoms: C6_6  and  C7_7 
ROOT
HETATM    1  C5  UNL     1     -33.306   7.736   3.759  1.00 20.00     0.274 C 
HETATM    2  F10 UNL     1     -32.640   8.914   3.943  1.00 20.00    -0.238 F 
ENDROOT
BRANCH   1   3
HETATM    3  C1  UNL     1     -32.515   7.026   2.660  1.00 20.00     0.208 C 
HETATM    4  O8  UNL     1     -31.967   7.796   1.821  1.00 20.00    -0.646 OA
HETATM    5  O9  UNL     1     -32.494   5.765   2.731  1.00 20.00    -0.646 OA
ENDBRANCH   1   3
BRANCH   1   6
HETATM    6  C7  UNL     1     -33.348   6.991   5.103  1.00 20.00     0.029 C 
HETATM    7  C4  UNL     1     -33.638   7.996   6.227  1.00 20.00     0.014 C 
BRANCH   6   8
HETATM    8  C6  UNL     1     -34.329   5.783   5.091  1.00 20.00    -0.016 C 
HETATM    9  C2  UNL     1     -34.641   5.287   6.507  1.00 20.00     0.010 C 
HETATM   10  C3  UNL     1     -35.637   6.050   4.340  1.00 20.00     0.010 C 
ENDBRANCH   6   8
ENDBRANCH   1   6
TORSDOF 3
ENDMDL
