MODEL 1
REMARK VINA RESULT:      -4.2      0.000      0.000
REMARK  2 active torsions:
REMARK  status: ('A' for Active; 'I' for Inactive)
REMARK    1  A    between atoms: C3_3  and  C6_6 
REMARK    2  A    between atoms: C7_7  and  C9_9 
ROOT
HETATM    1  C1  UNL     1     -33.121  15.604  -3.720  1.00 20.00     0.016 A 
HETATM    2  C2  UNL     1     -33.751  14.727  -4.649  1.00 20.00     0.015 A 
HETATM    3  C3  UNL     1     -33.693  16.857  -3.721  1.00 20.00    -0.013 A 
HETATM    4  C4  UNL     1     -34.782  15.343  -5.324  1.00 20.00    -0.021 A 
HETATM    5  C8  UNL     1     -35.675  14.775  -6.357  1.00 20.00     0.056 C 
HETATM    6  S10 UNL     1     -34.985  16.972  -4.838  1.00 20.00    -0.099 SA
ENDROOT
BRANCH   3   7
HETATM    7  C6  UNL     1     -33.240  17.999  -2.840  1.00 20.00     0.031 A 
HETATM    8  C5  UNL     1     -34.153  18.536  -1.759  1.00 20.00     0.016 A 
HETATM    9  C7  UNL     1     -32.932  17.749  -1.379  1.00 20.00     0.009 A 
BRANCH   9  10
HETATM   10  C9  UNL     1     -31.775  18.429  -0.732  1.00 20.00     0.120 C 
HETATM   11 CL11 UNL     1     -31.980  18.511   1.040  1.00 20.00    -0.130 Cl
ENDBRANCH   9  10
ENDBRANCH   3   7
TORSDOF 2
ENDMDL
MODEL 2
REMARK VINA RESULT:      -4.0      3.165      5.875
REMARK  2 active torsions:
REMARK  status: ('A' for Active; 'I' for Inactive)
REMARK    1  A    between atoms: C3_3  and  C6_6 
REMARK    2  A    between atoms: C7_7  and  C9_9 
ROOT
HETATM    1  C1  UNL     1     -31.541  18.449  -0.797  1.00 20.00     0.016 A 
HETATM    2  C2  UNL     1     -31.060  18.871   0.475  1.00 20.00     0.015 A 
HETATM    3  C3  UNL     1     -32.887  18.155  -0.770  1.00 20.00    -0.013 A 
HETATM    4  C4  UNL     1     -32.056  18.884   1.427  1.00 20.00    -0.021 A 
HETATM    5  C8  UNL     1     -31.960  19.263   2.853  1.00 20.00     0.056 C 
HETATM    6  S10 UNL     1     -33.563  18.387   0.786  1.00 20.00    -0.099 SA
ENDROOT
BRANCH   3   7
HETATM    7  C6  UNL     1     -33.679  17.683  -1.968  1.00 20.00     0.031 A 
HETATM    8  C5  UNL     1     -33.225  18.038  -3.368  1.00 20.00     0.016 A 
HETATM    9  C7  UNL     1     -33.103  16.623  -2.883  1.00 20.00     0.009 A 
BRANCH   9  10
HETATM   10  C9  UNL     1     -33.985  15.560  -3.443  1.00 20.00     0.120 C 
HETATM   11 CL11 UNL     1     -33.204  14.729  -4.818  1.00 20.00    -0.130 Cl
ENDBRANCH   9  10
ENDBRANCH   3   7
TORSDOF 2
ENDMDL
MODEL 3
REMARK VINA RESULT:      -4.0      1.103      1.283
REMARK  2 active torsions:
REMARK  status: ('A' for Active; 'I' for Inactive)
REMARK    1  A    between atoms: C3_3  and  C6_6 
REMARK    2  A    between atoms: C7_7  and  C9_9 
ROOT
HETATM    1  C1  UNL     1     -33.386  16.228  -2.908  1.00 20.00     0.016 A 
HETATM    2  C2  UNL     1     -33.760  15.631  -4.146  1.00 20.00     0.015 A 
HETATM    3  C3  UNL     1     -33.766  17.550  -2.835  1.00 20.00    -0.013 A 
HETATM    4  C4  UNL     1     -34.412  16.520  -4.973  1.00 20.00    -0.021 A 
HETATM    5  C8  UNL     1     -34.956  16.287  -6.328  1.00 20.00     0.056 C 
HETATM    6  S10 UNL     1     -34.569  18.067  -4.256  1.00 20.00    -0.099 SA
ENDROOT
BRANCH   3   7
HETATM    7  C6  UNL     1     -33.508  18.444  -1.643  1.00 20.00     0.031 A 
HETATM    8  C5  UNL     1     -33.759  17.934  -0.240  1.00 20.00     0.016 A 
HETATM    9  C7  UNL     1     -32.351  18.146  -0.713  1.00 20.00     0.009 A 
BRANCH   9  10
HETATM   10  C9  UNL     1     -31.534  19.261  -0.157  1.00 20.00     0.120 C 
HETATM   11 CL11 UNL     1     -30.624  18.739   1.288  1.00 20.00    -0.130 Cl
ENDBRANCH   9  10
ENDBRANCH   3   7
TORSDOF 2
ENDMDL
MODEL 4
REMARK VINA RESULT:      -3.9     12.385     13.759
REMARK  2 active torsions:
REMARK  status: ('A' for Active; 'I' for Inactive)
REMARK    1  A    between atoms: C3_3  and  C6_6 
REMARK    2  A    between atoms: C7_7  and  C9_9 
ROOT
HETATM    1  C1  UNL     1     -40.378  14.400   9.041  1.00 20.00     0.016 A 
HETATM    2  C2  UNL     1     -40.418  15.642   9.737  1.00 20.00     0.015 A 
HETATM    3  C3  UNL     1     -41.023  14.467   7.825  1.00 20.00    -0.013 A 
HETATM    4  C4  UNL     1     -41.092  16.612   9.026  1.00 20.00    -0.021 A 
HETATM    5  C8  UNL     1     -41.345  18.019   9.402  1.00 20.00     0.056 C 
HETATM    6  S10 UNL     1     -41.673  16.022   7.527  1.00 20.00    -0.099 SA
ENDROOT
BRANCH   3   7
HETATM    7  C6  UNL     1     -41.144  13.307   6.863  1.00 20.00     0.031 A 
HETATM    8  C5  UNL     1     -41.382  13.562   5.390  1.00 20.00     0.016 A 
HETATM    9  C7  UNL     1     -40.048  13.050   5.849  1.00 20.00     0.009 A 
BRANCH   9  10
HETATM   10  C9  UNL     1     -39.633  11.654   5.536  1.00 20.00     0.120 C 
HETATM   11 CL11 UNL     1     -38.916  11.542   3.904  1.00 20.00    -0.130 Cl
ENDBRANCH   9  10
ENDBRANCH   3   7
TORSDOF 2
ENDMDL
MODEL 5
REMARK VINA RESULT:      -3.8     12.150     13.129
REMARK  2 active torsions:
REMARK  status: ('A' for Active; 'I' for Inactive)
REMARK    1  A    between atoms: C3_3  and  C6_6 
REMARK    2  A    between atoms: C7_7  and  C9_9 
ROOT
HETATM    1  C1  UNL     1     -40.364  15.897   7.788  1.00 20.00     0.016 A 
HETATM    2  C2  UNL     1     -40.818  17.233   7.594  1.00 20.00     0.015 A 
HETATM    3  C3  UNL     1     -41.112  14.988   7.073  1.00 20.00    -0.013 A 
HETATM    4  C4  UNL     1     -41.896  17.294   6.738  1.00 20.00    -0.021 A 
HETATM    5  C8  UNL     1     -42.644  18.486   6.285  1.00 20.00     0.056 C 
HETATM    6  S10 UNL     1     -42.356  15.745   6.173  1.00 20.00    -0.099 SA
ENDROOT
BRANCH   3   7
HETATM    7  C6  UNL     1     -40.868  13.496   7.077  1.00 20.00     0.031 A 
HETATM    8  C5  UNL     1     -41.925  12.549   6.551  1.00 20.00     0.016 A 
HETATM    9  C7  UNL     1     -40.662  12.761   5.769  1.00 20.00     0.009 A 
BRANCH   9  10
HETATM   10  C9  UNL     1     -39.649  11.673   5.674  1.00 20.00     0.120 C 
HETATM   11 CL11 UNL     1     -38.897  11.627   4.055  1.00 20.00    -0.130 Cl
ENDBRANCH   9  10
ENDBRANCH   3   7
TORSDOF 2
ENDMDL
MODEL 6
REMARK VINA RESULT:      -3.7      3.275      5.458
REMARK  2 active torsions:
REMARK  status: ('A' for Active; 'I' for Inactive)
REMARK    1  A    between atoms: C3_3  and  C6_6 
REMARK    2  A    between atoms: C7_7  and  C9_9 
ROOT
HETATM    1  C1  UNL     1     -33.394  16.338  -3.174  1.00 20.00     0.016 A 
HETATM    2  C2  UNL     1     -33.426  16.990  -1.908  1.00 20.00     0.015 A 
HETATM    3  C3  UNL     1     -34.207  16.960  -4.096  1.00 20.00    -0.013 A 
HETATM    4  C4  UNL     1     -34.261  18.085  -1.910  1.00 20.00    -0.021 A 
HETATM    5  C8  UNL     1     -34.560  19.017  -0.802  1.00 20.00     0.056 C 
HETATM    6  S10 UNL     1     -35.004  18.323  -3.434  1.00 20.00    -0.099 SA
ENDROOT
BRANCH   3   7
HETATM    7  C6  UNL     1     -34.378  16.499  -5.526  1.00 20.00     0.031 A 
HETATM    8  C5  UNL     1     -34.142  15.049  -5.892  1.00 20.00     0.016 A 
HETATM    9  C7  UNL     1     -35.539  15.599  -5.895  1.00 20.00     0.009 A 
BRANCH   9  10
HETATM   10  C9  UNL     1     -36.261  15.802  -7.182  1.00 20.00     0.120 C 
HETATM   11 CL11 UNL     1     -37.730  16.791  -6.952  1.00 20.00    -0.130 Cl
ENDBRANCH   9  10
ENDBRANCH   3   7
TORSDOF 2
ENDMDL
MODEL 7
REMARK VINA RESULT:      -3.6     12.630     14.030
REMARK  2 active torsions:
REMARK  status: ('A' for Active; 'I' for Inactive)
REMARK    1  A    between atoms: C3_3  and  C6_6 
REMARK    2  A    between atoms: C7_7  and  C9_9 
ROOT
HETATM    1  C1  UNL     1     -40.974  15.869   7.489  1.00 20.00     0.016 A 
HETATM    2  C2  UNL     1     -40.925  16.740   8.615  1.00 20.00     0.015 A 
HETATM    3  C3  UNL     1     -41.150  14.554   7.860  1.00 20.00    -0.013 A 
HETATM    4  C4  UNL     1     -41.065  16.058   9.804  1.00 20.00    -0.021 A 
HETATM    5  C8  UNL     1     -41.072  16.599  11.180  1.00 20.00     0.056 C 
HETATM    6  S10 UNL     1     -41.254  14.374   9.559  1.00 20.00    -0.099 SA
ENDROOT
BRANCH   3   7
HETATM    7  C6  UNL     1     -41.243  13.401   6.886  1.00 20.00     0.031 A 
HETATM    8  C5  UNL     1     -41.359  13.667   5.400  1.00 20.00     0.016 A 
HETATM    9  C7  UNL     1     -40.084  13.103   5.958  1.00 20.00     0.009 A 
BRANCH   9  10
HETATM   10  C9  UNL     1     -39.701  11.692   5.670  1.00 20.00     0.120 C 
HETATM   11 CL11 UNL     1     -38.988  11.534   4.040  1.00 20.00    -0.130 Cl
ENDBRANCH   9  10
ENDBRANCH   3   7
TORSDOF 2
ENDMDL
MODEL 8
REMARK VINA RESULT:      -3.4      1.692      2.156
REMARK  2 active torsions:
REMARK  status: ('A' for Active; 'I' for Inactive)
REMARK    1  A    between atoms: C3_3  and  C6_6 
REMARK    2  A    between atoms: C7_7  and  C9_9 
ROOT
HETATM    1  C1  UNL     1     -35.666  18.483  -4.706  1.00 20.00     0.016 A 
HETATM    2  C2  UNL     1     -35.990  17.971  -5.995  1.00 20.00     0.015 A 
HETATM    3  C3  UNL     1     -34.832  17.638  -4.008  1.00 20.00    -0.013 A 
HETATM    4  C4  UNL     1     -35.391  16.754  -6.233  1.00 20.00    -0.021 A 
HETATM    5  C8  UNL     1     -35.476  15.908  -7.443  1.00 20.00     0.056 C 
HETATM    6  S10 UNL     1     -34.443  16.233  -4.906  1.00 20.00    -0.099 SA
ENDROOT
BRANCH   3   7
HETATM    7  C6  UNL     1     -34.316  17.913  -2.614  1.00 20.00     0.031 A 
HETATM    8  C5  UNL     1     -33.433  16.901  -1.915  1.00 20.00     0.016 A 
HETATM    9  C7  UNL     1     -32.844  18.195  -2.396  1.00 20.00     0.009 A 
BRANCH   9  10
HETATM   10  C9  UNL     1     -32.420  19.235  -1.416  1.00 20.00     0.120 C 
HETATM   11 CL11 UNL     1     -31.214  18.589  -0.268  1.00 20.00    -0.130 Cl
ENDBRANCH   9  10
ENDBRANCH   3   7
TORSDOF 2
ENDMDL
MODEL 9
REMARK VINA RESULT:      -3.4      3.298      5.588
REMARK  2 active torsions:
REMARK  status: ('A' for Active; 'I' for Inactive)
REMARK    1  A    between atoms: C3_3  and  C6_6 
REMARK    2  A    between atoms: C7_7  and  C9_9 
ROOT
HETATM    1  C1  UNL     1     -35.132  18.223  -3.590  1.00 20.00     0.016 A 
HETATM    2  C2  UNL     1     -34.968  18.675  -2.249  1.00 20.00     0.015 A 
HETATM    3  C3  UNL     1     -34.335  17.135  -3.870  1.00 20.00    -0.013 A 
HETATM    4  C4  UNL     1     -34.053  17.915  -1.555  1.00 20.00    -0.021 A 
HETATM    5  C8  UNL     1     -33.612  18.060  -0.151  1.00 20.00     0.056 C 
HETATM    6  S10 UNL     1     -33.394  16.663  -2.521  1.00 20.00    -0.099 SA
ENDROOT
BRANCH   3   7
HETATM    7  C6  UNL     1     -34.293  16.436  -5.210  1.00 20.00     0.031 A 
HETATM    8  C5  UNL     1     -33.878  14.982  -5.297  1.00 20.00     0.016 A 
HETATM    9  C7  UNL     1     -35.311  15.362  -5.533  1.00 20.00     0.009 A 
BRANCH   9  10
HETATM   10  C9  UNL     1     -35.894  15.273  -6.901  1.00 20.00     0.120 C 
HETATM   11 CL11 UNL     1     -37.239  16.431  -7.108  1.00 20.00    -0.130 Cl
ENDBRANCH   9  10
ENDBRANCH   3   7
TORSDOF 2
ENDMDL
