MODEL 1
REMARK VINA RESULT:      -4.1      0.000      0.000
REMARK  2 active torsions:
REMARK  status: ('A' for Active; 'I' for Inactive)
REMARK    1  A    between atoms: C6_6  and  C8_8 
REMARK    2  A    between atoms: C8_8  and  O9_9 
ROOT
HETATM    1  C1  UNL     1     -34.053  17.410  -1.868  1.00 20.00     0.011 C 
HETATM    2  C2  UNL     1     -33.002  16.650  -2.677  1.00 20.00     0.011 C 
HETATM    3  C3  UNL     1     -32.892  14.849  -4.528  1.00 20.00     0.018 A 
HETATM    4  C4  UNL     1     -34.679  18.562  -2.647  1.00 20.00     0.074 C 
HETATM    5  C5  UNL     1     -34.131  17.078  -4.905  1.00 20.00     0.083 C 
HETATM    6  C6  UNL     1     -34.213  14.663  -3.834  1.00 20.00     0.019 A 
HETATM    7  C7  UNL     1     -33.598  16.053  -3.936  1.00 20.00    -0.026 A 
HETATM    8  S10 UNL     1     -35.511  17.985  -4.157  1.00 20.00    -0.168 SA
ENDROOT
BRANCH   6   9
HETATM    9  C8  UNL     1     -35.413  14.240  -4.610  1.00 20.00     0.169 C 
BRANCH   9  10
HETATM   10  O9  UNL     1     -35.653  12.847  -4.414  1.00 20.00    -0.400 OA
HETATM   11  H24 UNL     1     -36.303  12.780  -3.699  1.00 20.00     0.209 HD
ENDBRANCH   9  10
ENDBRANCH   6   9
TORSDOF 2
ENDMDL
MODEL 2
REMARK VINA RESULT:      -3.9      1.123      1.244
REMARK  2 active torsions:
REMARK  status: ('A' for Active; 'I' for Inactive)
REMARK    1  A    between atoms: C6_6  and  C8_8 
REMARK    2  A    between atoms: C8_8  and  O9_9 
ROOT
HETATM    1  C1  UNL     1     -33.652  16.584  -2.374  1.00 20.00     0.011 C 
HETATM    2  C2  UNL     1     -33.069  15.975  -3.649  1.00 20.00     0.011 C 
HETATM    3  C3  UNL     1     -33.891  14.957  -5.877  1.00 20.00     0.018 A 
HETATM    4  C4  UNL     1     -34.092  18.033  -2.559  1.00 20.00     0.074 C 
HETATM    5  C5  UNL     1     -34.510  17.366  -5.201  1.00 20.00     0.083 C 
HETATM    6  C6  UNL     1     -35.017  14.790  -4.895  1.00 20.00     0.019 A 
HETATM    7  C7  UNL     1     -34.079  15.985  -4.779  1.00 20.00    -0.026 A 
HETATM    8  S10 UNL     1     -35.374  18.193  -3.838  1.00 20.00    -0.168 SA
ENDROOT
BRANCH   6   9
HETATM    9  C8  UNL     1     -36.431  14.902  -5.351  1.00 20.00     0.169 C 
BRANCH   9  10
HETATM   10  O9  UNL     1     -37.278  14.126  -4.504  1.00 20.00    -0.400 OA
HETATM   11  H24 UNL     1     -37.476  13.311  -4.987  1.00 20.00     0.209 HD
ENDBRANCH   9  10
ENDBRANCH   6   9
TORSDOF 2
ENDMDL
MODEL 3
REMARK VINA RESULT:      -3.5      1.687      2.022
REMARK  2 active torsions:
REMARK  status: ('A' for Active; 'I' for Inactive)
REMARK    1  A    between atoms: C6_6  and  C8_8 
REMARK    2  A    between atoms: C8_8  and  O9_9 
ROOT
HETATM    1  C1  UNL     1     -34.990  18.085  -3.716  1.00 20.00     0.011 C 
HETATM    2  C2  UNL     1     -34.213  17.496  -4.893  1.00 20.00     0.011 C 
HETATM    3  C3  UNL     1     -34.234  15.384  -6.382  1.00 20.00     0.018 A 
HETATM    4  C4  UNL     1     -36.307  18.729  -4.140  1.00 20.00     0.074 C 
HETATM    5  C5  UNL     1     -36.292  16.928  -6.227  1.00 20.00     0.083 C 
HETATM    6  C6  UNL     1     -34.894  14.996  -5.088  1.00 20.00     0.019 A 
HETATM    7  C7  UNL     1     -35.015  16.424  -5.605  1.00 20.00    -0.026 A 
HETATM    8  S10 UNL     1     -37.418  17.533  -4.942  1.00 20.00    -0.168 SA
ENDROOT
BRANCH   6   9
HETATM    9  C8  UNL     1     -36.027  14.028  -5.087  1.00 20.00     0.169 C 
BRANCH   9  10
HETATM   10  O9  UNL     1     -35.652  12.841  -4.390  1.00 20.00    -0.400 OA
HETATM   11  H24 UNL     1     -36.126  12.857  -3.545  1.00 20.00     0.209 HD
ENDBRANCH   9  10
ENDBRANCH   6   9
TORSDOF 2
ENDMDL
MODEL 4
REMARK VINA RESULT:      -3.4     11.926     12.750
REMARK  2 active torsions:
REMARK  status: ('A' for Active; 'I' for Inactive)
REMARK    1  A    between atoms: C6_6  and  C8_8 
REMARK    2  A    between atoms: C8_8  and  O9_9 
ROOT
HETATM    1  C1  UNL     1     -33.471   6.191   6.829  1.00 20.00     0.011 C 
HETATM    2  C2  UNL     1     -33.740   7.571   6.230  1.00 20.00     0.011 C 
HETATM    3  C3  UNL     1     -33.418   8.823   3.992  1.00 20.00     0.018 A 
HETATM    4  C4  UNL     1     -34.508   5.152   6.411  1.00 20.00     0.074 C 
HETATM    5  C5  UNL     1     -34.810   6.658   4.122  1.00 20.00     0.083 C 
HETATM    6  C6  UNL     1     -32.393   7.723   4.013  1.00 20.00     0.019 A 
HETATM    7  C7  UNL     1     -33.732   7.528   4.715  1.00 20.00    -0.026 A 
HETATM    8  S10 UNL     1     -34.555   4.930   4.607  1.00 20.00    -0.168 SA
ENDROOT
BRANCH   6   9
HETATM    9  C8  UNL     1     -32.022   7.022   2.751  1.00 20.00     0.169 C 
BRANCH   9  10
HETATM   10  O9  UNL     1     -32.153   7.913   1.644  1.00 20.00    -0.400 OA
HETATM   11  H24 UNL     1     -31.878   8.786   1.960  1.00 20.00     0.209 HD
ENDBRANCH   9  10
ENDBRANCH   6   9
TORSDOF 2
ENDMDL
MODEL 5
REMARK VINA RESULT:      -3.4      1.879      2.598
REMARK  2 active torsions:
REMARK  status: ('A' for Active; 'I' for Inactive)
REMARK    1  A    between atoms: C6_6  and  C8_8 
REMARK    2  A    between atoms: C8_8  and  O9_9 
ROOT
HETATM    1  C1  UNL     1     -33.501  15.484  -3.603  1.00 20.00     0.011 C 
HETATM    2  C2  UNL     1     -33.697  15.080  -5.064  1.00 20.00     0.011 C 
HETATM    3  C3  UNL     1     -35.554  15.096  -6.861  1.00 20.00     0.018 A 
HETATM    4  C4  UNL     1     -33.279  16.984  -3.430  1.00 20.00     0.074 C 
HETATM    5  C5  UNL     1     -34.775  17.275  -5.727  1.00 20.00     0.083 C 
HETATM    6  C6  UNL     1     -36.253  15.093  -5.530  1.00 20.00     0.019 A 
HETATM    7  C7  UNL     1     -34.897  15.774  -5.675  1.00 20.00    -0.026 A 
HETATM    8  S10 UNL     1     -34.688  17.953  -4.048  1.00 20.00    -0.168 SA
ENDROOT
BRANCH   6   9
HETATM    9  C8  UNL     1     -37.529  15.841  -5.354  1.00 20.00     0.169 C 
BRANCH   9  10
HETATM   10  O9  UNL     1     -38.435  15.078  -4.557  1.00 20.00    -0.400 OA
HETATM   11  H24 UNL     1     -38.122  15.148  -3.643  1.00 20.00     0.209 HD
ENDBRANCH   9  10
ENDBRANCH   6   9
TORSDOF 2
ENDMDL
MODEL 6
REMARK VINA RESULT:      -3.3      2.237      3.525
REMARK  2 active torsions:
REMARK  status: ('A' for Active; 'I' for Inactive)
REMARK    1  A    between atoms: C6_6  and  C8_8 
REMARK    2  A    between atoms: C8_8  and  O9_9 
ROOT
HETATM    1  C1  UNL     1     -34.102  17.779  -7.833  1.00 20.00     0.011 C 
HETATM    2  C2  UNL     1     -35.162  16.687  -7.694  1.00 20.00     0.011 C 
HETATM    3  C3  UNL     1     -35.774  14.757  -6.088  1.00 20.00     0.018 A 
HETATM    4  C4  UNL     1     -34.368  18.979  -6.929  1.00 20.00     0.074 C 
HETATM    5  C5  UNL     1     -35.637  17.192  -5.256  1.00 20.00     0.083 C 
HETATM    6  C6  UNL     1     -34.302  15.006  -5.908  1.00 20.00     0.019 A 
HETATM    7  C7  UNL     1     -35.229  16.159  -6.275  1.00 20.00    -0.026 A 
HETATM    8  S10 UNL     1     -34.394  18.510  -5.172  1.00 20.00    -0.168 SA
ENDROOT
BRANCH   6   9
HETATM    9  C8  UNL     1     -33.677  14.856  -4.564  1.00 20.00     0.169 C 
BRANCH   9  10
HETATM   10  O9  UNL     1     -32.875  13.675  -4.530  1.00 20.00    -0.400 OA
HETATM   11  H24 UNL     1     -33.329  13.052  -3.945  1.00 20.00     0.209 HD
ENDBRANCH   9  10
ENDBRANCH   6   9
TORSDOF 2
ENDMDL
MODEL 7
REMARK VINA RESULT:      -3.3      2.410      3.644
REMARK  2 active torsions:
REMARK  status: ('A' for Active; 'I' for Inactive)
REMARK    1  A    between atoms: C6_6  and  C8_8 
REMARK    2  A    between atoms: C8_8  and  O9_9 
ROOT
HETATM    1  C1  UNL     1     -34.047  16.372  -7.630  1.00 20.00     0.011 C 
HETATM    2  C2  UNL     1     -34.084  15.142  -6.725  1.00 20.00     0.011 C 
HETATM    3  C3  UNL     1     -34.087  14.574  -4.204  1.00 20.00     0.018 A 
HETATM    4  C4  UNL     1     -35.406  17.054  -7.757  1.00 20.00     0.074 C 
HETATM    5  C5  UNL     1     -35.926  16.051  -5.242  1.00 20.00     0.083 C 
HETATM    6  C6  UNL     1     -33.449  15.929  -4.331  1.00 20.00     0.019 A 
HETATM    7  C7  UNL     1     -34.526  15.500  -5.320  1.00 20.00    -0.026 A 
HETATM    8  S10 UNL     1     -36.033  17.619  -6.146  1.00 20.00    -0.168 SA
ENDROOT
BRANCH   6   9
HETATM    9  C8  UNL     1     -33.669  16.962  -3.280  1.00 20.00     0.169 C 
BRANCH   9  10
HETATM   10  O9  UNL     1     -33.742  16.341  -1.996  1.00 20.00    -0.400 OA
HETATM   11  H24 UNL     1     -33.531  17.028  -1.348  1.00 20.00     0.209 HD
ENDBRANCH   9  10
ENDBRANCH   6   9
TORSDOF 2
ENDMDL
MODEL 8
REMARK VINA RESULT:      -3.3     17.547     18.512
REMARK  2 active torsions:
REMARK  status: ('A' for Active; 'I' for Inactive)
REMARK    1  A    between atoms: C6_6  and  C8_8 
REMARK    2  A    between atoms: C8_8  and  O9_9 
ROOT
HETATM    1  C1  UNL     1     -24.849  16.289  11.859  1.00 20.00     0.011 C 
HETATM    2  C2  UNL     1     -23.446  16.779  12.216  1.00 20.00     0.011 C 
HETATM    3  C3  UNL     1     -21.695  18.475  11.358  1.00 20.00     0.018 A 
HETATM    4  C4  UNL     1     -25.945  17.243  12.323  1.00 20.00     0.074 C 
HETATM    5  C5  UNL     1     -24.056  19.233  12.057  1.00 20.00     0.083 C 
HETATM    6  C6  UNL     1     -22.561  18.128  10.179  1.00 20.00     0.019 A 
HETATM    7  C7  UNL     1     -23.152  18.125  11.584  1.00 20.00    -0.026 A 
HETATM    8  S10 UNL     1     -25.770  18.891  11.575  1.00 20.00    -0.168 SA
ENDROOT
BRANCH   6   9
HETATM    9  C8  UNL     1     -22.885  19.164   9.158  1.00 20.00     0.169 C 
BRANCH   9  10
HETATM   10  O9  UNL     1     -23.170  18.540   7.906  1.00 20.00    -0.400 OA
HETATM   11  H24 UNL     1     -23.698  17.753   8.106  1.00 20.00     0.209 HD
ENDBRANCH   9  10
ENDBRANCH   6   9
TORSDOF 2
ENDMDL
MODEL 9
REMARK VINA RESULT:      -3.2     23.738     24.502
REMARK  2 active torsions:
REMARK  status: ('A' for Active; 'I' for Inactive)
REMARK    1  A    between atoms: C6_6  and  C8_8 
REMARK    2  A    between atoms: C8_8  and  O9_9 
ROOT
HETATM    1  C1  UNL     1     -25.453  -2.586  11.734  1.00 20.00     0.011 C 
HETATM    2  C2  UNL     1     -26.272  -2.909  10.485  1.00 20.00     0.011 C 
HETATM    3  C3  UNL     1     -28.744  -2.963   9.732  1.00 20.00     0.018 A 
HETATM    4  C4  UNL     1     -25.268  -1.087  11.948  1.00 20.00     0.074 C 
HETATM    5  C5  UNL     1     -27.665  -0.796  10.618  1.00 20.00     0.083 C 
HETATM    6  C6  UNL     1     -28.753  -3.127  11.227  1.00 20.00     0.019 A 
HETATM    7  C7  UNL     1     -27.659  -2.302  10.559  1.00 20.00    -0.026 A 
HETATM    8  S10 UNL     1     -26.859  -0.227  12.139  1.00 20.00    -0.168 SA
ENDROOT
BRANCH   6   9
HETATM    9  C8  UNL     1     -29.849  -2.526  12.039  1.00 20.00     0.169 C 
BRANCH   9  10
HETATM   10  O9  UNL     1     -31.030  -2.405  11.247  1.00 20.00    -0.400 OA
HETATM   11  H24 UNL     1     -31.614  -1.793  11.718  1.00 20.00     0.209 HD
ENDBRANCH   9  10
ENDBRANCH   6   9
TORSDOF 2
ENDMDL
