MODEL 1
REMARK VINA RESULT:      -4.2      0.000      0.000
REMARK  3 active torsions:
REMARK  status: ('A' for Active; 'I' for Inactive)
REMARK    1  A    between atoms: C1_1  and  C6_6 
REMARK    2  A    between atoms: C6_6  and  C7_7 
REMARK    3  A    between atoms: C7_7  and  C8_8 
ROOT
HETATM    1  C2  UNL     1     -34.131   7.138   6.734  1.00 20.00     0.014 C 
HETATM    2  C7  UNL     1     -33.589   6.892   5.312  1.00 20.00     0.034 C 
ENDROOT
BRANCH   2   3
HETATM    3  C6  UNL     1     -33.636   8.215   4.520  1.00 20.00     0.275 C 
HETATM    4  F11 UNL     1     -33.662   9.260   5.393  1.00 20.00    -0.237 F 
BRANCH   3   5
HETATM    5  C1  UNL     1     -32.469   8.486   3.561  1.00 20.00     0.208 C 
HETATM    6  O9  UNL     1     -32.734   9.225   2.571  1.00 20.00    -0.646 OA
HETATM    7  O10 UNL     1     -31.383   7.914   3.861  1.00 20.00    -0.646 OA
ENDBRANCH   3   5
ENDBRANCH   2   3
BRANCH   2   8
HETATM    8  C8  UNL     1     -34.297   5.691   4.575  1.00 20.00    -0.045 C 
HETATM    9  C3  UNL     1     -34.425   4.477   5.523  1.00 20.00     0.015 C 
HETATM   10  C4  UNL     1     -35.731   6.092   4.162  1.00 20.00     0.015 C 
HETATM   11  C5  UNL     1     -33.544   5.233   3.313  1.00 20.00     0.015 C 
ENDBRANCH   2   8
TORSDOF 3
ENDMDL
MODEL 2
REMARK VINA RESULT:      -4.2      0.089      1.288
REMARK  3 active torsions:
REMARK  status: ('A' for Active; 'I' for Inactive)
REMARK    1  A    between atoms: C1_1  and  C6_6 
REMARK    2  A    between atoms: C6_6  and  C7_7 
REMARK    3  A    between atoms: C7_7  and  C8_8 
ROOT
HETATM    1  C2  UNL     1     -34.007   7.207   6.744  1.00 20.00     0.014 C 
HETATM    2  C7  UNL     1     -33.563   6.915   5.298  1.00 20.00     0.034 C 
ENDROOT
BRANCH   2   3
HETATM    3  C6  UNL     1     -33.615   8.223   4.482  1.00 20.00     0.275 C 
HETATM    4  F11 UNL     1     -33.629   9.284   5.336  1.00 20.00    -0.237 F 
BRANCH   3   5
HETATM    5  C1  UNL     1     -32.457   8.474   3.506  1.00 20.00     0.208 C 
HETATM    6  O9  UNL     1     -32.730   9.200   2.509  1.00 20.00    -0.646 OA
HETATM    7  O10 UNL     1     -31.371   7.900   3.802  1.00 20.00    -0.646 OA
ENDBRANCH   3   5
ENDBRANCH   2   3
BRANCH   2   8
HETATM    8  C8  UNL     1     -34.354   5.725   4.632  1.00 20.00    -0.045 C 
HETATM    9  C3  UNL     1     -33.581   5.181   3.409  1.00 20.00     0.015 C 
HETATM   10  C4  UNL     1     -34.495   4.555   5.631  1.00 20.00     0.015 C 
HETATM   11  C5  UNL     1     -35.765   6.129   4.164  1.00 20.00     0.015 C 
ENDBRANCH   2   8
TORSDOF 3
ENDMDL
MODEL 3
REMARK VINA RESULT:      -4.1      1.539      2.538
REMARK  3 active torsions:
REMARK  status: ('A' for Active; 'I' for Inactive)
REMARK    1  A    between atoms: C1_1  and  C6_6 
REMARK    2  A    between atoms: C6_6  and  C7_7 
REMARK    3  A    between atoms: C7_7  and  C8_8 
ROOT
HETATM    1  C2  UNL     1     -32.916   5.328   2.555  1.00 20.00     0.014 C 
HETATM    2  C7  UNL     1     -33.463   6.439   3.472  1.00 20.00     0.034 C 
ENDROOT
BRANCH   2   3
HETATM    3  C6  UNL     1     -32.293   7.334   3.931  1.00 20.00     0.275 C 
HETATM    4  F11 UNL     1     -31.211   7.100   3.137  1.00 20.00    -0.237 F 
BRANCH   3   5
HETATM    5  C1  UNL     1     -32.530   8.850   3.897  1.00 20.00     0.208 C 
HETATM    6  O9  UNL     1     -32.849   9.329   2.773  1.00 20.00    -0.646 OA
HETATM    7  O10 UNL     1     -32.352   9.446   4.997  1.00 20.00    -0.646 OA
ENDBRANCH   3   5
ENDBRANCH   2   3
BRANCH   2   8
HETATM    8  C8  UNL     1     -34.339   5.889   4.662  1.00 20.00    -0.045 C 
HETATM    9  C3  UNL     1     -35.843   6.042   4.340  1.00 20.00     0.015 C 
HETATM   10  C4  UNL     1     -34.074   4.381   4.865  1.00 20.00     0.015 C 
HETATM   11  C5  UNL     1     -34.062   6.608   5.995  1.00 20.00     0.015 C 
ENDBRANCH   2   8
TORSDOF 3
ENDMDL
MODEL 4
REMARK VINA RESULT:      -3.9     11.867     13.353
REMARK  3 active torsions:
REMARK  status: ('A' for Active; 'I' for Inactive)
REMARK    1  A    between atoms: C1_1  and  C6_6 
REMARK    2  A    between atoms: C6_6  and  C7_7 
REMARK    3  A    between atoms: C7_7  and  C8_8 
ROOT
HETATM    1  C2  UNL     1     -33.279  16.294  -3.238  1.00 20.00     0.014 C 
HETATM    2  C7  UNL     1     -34.534  16.224  -4.129  1.00 20.00     0.034 C 
ENDROOT
BRANCH   2   3
HETATM    3  C6  UNL     1     -34.507  14.909  -4.934  1.00 20.00     0.275 C 
HETATM    4  F11 UNL     1     -33.551  14.087  -4.418  1.00 20.00    -0.237 F 
BRANCH   3   5
HETATM    5  C1  UNL     1     -35.806  14.091  -4.962  1.00 20.00     0.208 C 
HETATM    6  O9  UNL     1     -36.769  14.616  -5.588  1.00 20.00    -0.646 OA
HETATM    7  O10 UNL     1     -35.766  12.997  -4.331  1.00 20.00    -0.646 OA
ENDBRANCH   3   5
ENDBRANCH   2   3
BRANCH   2   8
HETATM    8  C8  UNL     1     -34.733  17.506  -5.025  1.00 20.00    -0.045 C 
HETATM    9  C3  UNL     1     -36.155  18.081  -4.835  1.00 20.00     0.015 C 
HETATM   10  C4  UNL     1     -33.741  18.612  -4.600  1.00 20.00     0.015 C 
HETATM   11  C5  UNL     1     -34.527  17.229  -6.526  1.00 20.00     0.015 C 
ENDBRANCH   2   8
TORSDOF 3
ENDMDL
MODEL 5
REMARK VINA RESULT:      -3.9     11.884     13.373
REMARK  3 active torsions:
REMARK  status: ('A' for Active; 'I' for Inactive)
REMARK    1  A    between atoms: C1_1  and  C6_6 
REMARK    2  A    between atoms: C6_6  and  C7_7 
REMARK    3  A    between atoms: C7_7  and  C8_8 
ROOT
HETATM    1  C2  UNL     1     -33.233  16.227  -3.315  1.00 20.00     0.014 C 
HETATM    2  C7  UNL     1     -34.511  16.203  -4.174  1.00 20.00     0.034 C 
ENDROOT
BRANCH   2   3
HETATM    3  C6  UNL     1     -34.538  14.901  -5.001  1.00 20.00     0.275 C 
HETATM    4  F11 UNL     1     -33.559  14.066  -4.553  1.00 20.00    -0.237 F 
BRANCH   3   5
HETATM    5  C1  UNL     1     -35.841  14.090  -4.969  1.00 20.00     0.208 C 
HETATM    6  O9  UNL     1     -36.828  14.619  -5.554  1.00 20.00    -0.646 OA
HETATM    7  O10 UNL     1     -35.779  12.998  -4.336  1.00 20.00    -0.646 OA
ENDBRANCH   3   5
ENDBRANCH   2   3
BRANCH   2   8
HETATM    8  C8  UNL     1     -34.702  17.505  -5.044  1.00 20.00    -0.045 C 
HETATM    9  C3  UNL     1     -34.523  17.182  -6.545  1.00 20.00     0.015 C 
HETATM   10  C4  UNL     1     -36.136  18.055  -4.870  1.00 20.00     0.015 C 
HETATM   11  C5  UNL     1     -33.712  18.625  -4.675  1.00 20.00     0.015 C 
ENDBRANCH   2   8
TORSDOF 3
ENDMDL
MODEL 6
REMARK VINA RESULT:      -3.8      2.467      3.806
REMARK  3 active torsions:
REMARK  status: ('A' for Active; 'I' for Inactive)
REMARK    1  A    between atoms: C1_1  and  C6_6 
REMARK    2  A    between atoms: C6_6  and  C7_7 
REMARK    3  A    between atoms: C7_7  and  C8_8 
ROOT
HETATM    1  C2  UNL     1     -33.604   8.923   5.580  1.00 20.00     0.014 C 
HETATM    2  C7  UNL     1     -33.765   7.778   4.563  1.00 20.00     0.034 C 
ENDROOT
BRANCH   2   3
HETATM    3  C6  UNL     1     -33.895   6.442   5.325  1.00 20.00     0.275 C 
HETATM    4  F11 UNL     1     -34.326   6.690   6.593  1.00 20.00    -0.237 F 
BRANCH   3   5
HETATM    5  C1  UNL     1     -34.863   5.405   4.738  1.00 20.00     0.208 C 
HETATM    6  O9  UNL     1     -34.448   4.212   4.732  1.00 20.00    -0.646 OA
HETATM    7  O10 UNL     1     -35.954   5.873   4.305  1.00 20.00    -0.646 OA
ENDBRANCH   3   5
ENDBRANCH   2   3
BRANCH   2   8
HETATM    8  C8  UNL     1     -32.641   7.764   3.457  1.00 20.00    -0.045 C 
HETATM    9  C3  UNL     1     -32.892   8.882   2.419  1.00 20.00     0.015 C 
HETATM   10  C4  UNL     1     -31.263   8.047   4.096  1.00 20.00     0.015 C 
HETATM   11  C5  UNL     1     -32.554   6.424   2.704  1.00 20.00     0.015 C 
ENDBRANCH   2   8
TORSDOF 3
ENDMDL
MODEL 7
REMARK VINA RESULT:      -3.8      2.606      4.010
REMARK  3 active torsions:
REMARK  status: ('A' for Active; 'I' for Inactive)
REMARK    1  A    between atoms: C1_1  and  C6_6 
REMARK    2  A    between atoms: C6_6  and  C7_7 
REMARK    3  A    between atoms: C7_7  and  C8_8 
ROOT
HETATM    1  C2  UNL     1     -32.979   5.381   2.726  1.00 20.00     0.014 C 
HETATM    2  C7  UNL     1     -33.055   6.325   3.941  1.00 20.00     0.034 C 
ENDROOT
BRANCH   2   3
HETATM    3  C6  UNL     1     -34.395   6.100   4.671  1.00 20.00     0.275 C 
HETATM    4  F11 UNL     1     -34.913   4.897   4.296  1.00 20.00    -0.237 F 
BRANCH   3   5
HETATM    5  C1  UNL     1     -34.351   6.087   6.205  1.00 20.00     0.208 C 
HETATM    6  O9  UNL     1     -34.351   7.222   6.761  1.00 20.00    -0.646 OA
HETATM    7  O10 UNL     1     -34.293   4.940   6.732  1.00 20.00    -0.646 OA
ENDBRANCH   3   5
ENDBRANCH   2   3
BRANCH   2   8
HETATM    8  C8  UNL     1     -32.784   7.834   3.574  1.00 20.00    -0.045 C 
HETATM    9  C3  UNL     1     -34.101   8.644   3.612  1.00 20.00     0.015 C 
HETATM   10  C4  UNL     1     -31.835   8.472   4.614  1.00 20.00     0.015 C 
HETATM   11  C5  UNL     1     -32.155   8.011   2.180  1.00 20.00     0.015 C 
ENDBRANCH   2   8
TORSDOF 3
ENDMDL
MODEL 8
REMARK VINA RESULT:      -3.8     11.927     13.331
REMARK  3 active torsions:
REMARK  status: ('A' for Active; 'I' for Inactive)
REMARK    1  A    between atoms: C1_1  and  C6_6 
REMARK    2  A    between atoms: C6_6  and  C7_7 
REMARK    3  A    between atoms: C7_7  and  C8_8 
ROOT
HETATM    1  C2  UNL     1     -33.320  15.531  -3.778  1.00 20.00     0.014 C 
HETATM    2  C7  UNL     1     -33.380  17.067  -3.674  1.00 20.00     0.034 C 
ENDROOT
BRANCH   2   3
HETATM    3  C6  UNL     1     -33.630  17.462  -2.204  1.00 20.00     0.275 C 
HETATM    4  F11 UNL     1     -33.695  16.336  -1.442  1.00 20.00    -0.237 F 
BRANCH   3   5
HETATM    5  C1  UNL     1     -32.580  18.367  -1.545  1.00 20.00     0.208 C 
HETATM    6  O9  UNL     1     -32.340  18.129  -0.328  1.00 20.00    -0.646 OA
HETATM    7  O10 UNL     1     -32.097  19.263  -2.293  1.00 20.00    -0.646 OA
ENDBRANCH   3   5
ENDBRANCH   2   3
BRANCH   2   8
HETATM    8  C8  UNL     1     -34.399  17.720  -4.684  1.00 20.00    -0.045 C 
HETATM    9  C3  UNL     1     -34.813  16.699  -5.769  1.00 20.00     0.015 C 
HETATM   10  C4  UNL     1     -35.689  18.136  -3.943  1.00 20.00     0.015 C 
HETATM   11  C5  UNL     1     -33.831  18.964  -5.392  1.00 20.00     0.015 C 
ENDBRANCH   2   8
TORSDOF 3
ENDMDL
MODEL 9
REMARK VINA RESULT:      -3.6      9.467     10.379
REMARK  3 active torsions:
REMARK  status: ('A' for Active; 'I' for Inactive)
REMARK    1  A    between atoms: C1_1  and  C6_6 
REMARK    2  A    between atoms: C6_6  and  C7_7 
REMARK    3  A    between atoms: C7_7  and  C8_8 
ROOT
HETATM    1  C2  UNL     1     -40.545  14.932   7.071  1.00 20.00     0.014 C 
HETATM    2  C7  UNL     1     -41.136  13.516   7.208  1.00 20.00     0.034 C 
ENDROOT
BRANCH   2   3
HETATM    3  C6  UNL     1     -40.905  12.744   5.893  1.00 20.00     0.275 C 
HETATM    4  F11 UNL     1     -41.008  13.606   4.843  1.00 20.00    -0.237 F 
BRANCH   3   5
HETATM    5  C1  UNL     1     -39.550  12.038   5.736  1.00 20.00     0.208 C 
HETATM    6  O9  UNL     1     -38.931  11.799   6.811  1.00 20.00    -0.646 OA
HETATM    7  O10 UNL     1     -39.203  11.801   4.545  1.00 20.00    -0.646 OA
ENDBRANCH   3   5
ENDBRANCH   2   3
BRANCH   2   8
HETATM    8  C8  UNL     1     -42.639  13.511   7.685  1.00 20.00    -0.045 C 
HETATM    9  C3  UNL     1     -43.416  14.676   7.030  1.00 20.00     0.015 C 
HETATM   10  C4  UNL     1     -43.333  12.203   7.243  1.00 20.00     0.015 C 
HETATM   11  C5  UNL     1     -42.786  13.639   9.212  1.00 20.00     0.015 C 
ENDBRANCH   2   8
TORSDOF 3
ENDMDL
