MODEL 1
REMARK VINA RESULT:      -3.4      0.000      0.000
REMARK  1 active torsions:
REMARK  status: ('A' for Active; 'I' for Inactive)
REMARK    1  A    between atoms: C3_3  and  O10_10 
ROOT
HETATM    1  C1  UNL     1     -33.405  15.006  -4.481  1.00 20.00     0.143 C 
HETATM    2  C2  UNL     1     -33.257  16.388  -3.818  1.00 20.00     0.082 C 
HETATM    3  C3  UNL     1     -34.248  16.941  -4.888  1.00 20.00     0.146 C 
HETATM    4  C4  UNL     1     -34.506  15.500  -5.456  1.00 20.00     0.040 C 
HETATM    5  C5  UNL     1     -33.672  16.443  -2.359  1.00 20.00     0.020 C 
HETATM    6  C6  UNL     1     -35.878  14.897  -5.162  1.00 20.00     0.026 C 
HETATM    7  C7  UNL     1     -34.130  15.348  -6.928  1.00 20.00     0.026 C 
HETATM    8  O9  UNL     1     -32.868  13.933  -4.297  1.00 20.00    -0.297 OA
ENDROOT
BRANCH   3   9
HETATM    9  O10 UNL     1     -35.397  17.652  -4.386  1.00 20.00    -0.389 OA
HETATM   10  C8  UNL     1     -35.538  18.900  -5.034  1.00 20.00     0.202 C 
ENDBRANCH   3   9
TORSDOF 1
ENDMDL
MODEL 2
REMARK VINA RESULT:      -3.3     11.825     13.416
REMARK  1 active torsions:
REMARK  status: ('A' for Active; 'I' for Inactive)
REMARK    1  A    between atoms: C3_3  and  O10_10 
ROOT
HETATM    1  C1  UNL     1     -33.785   7.837   5.280  1.00 20.00     0.143 C 
HETATM    2  C2  UNL     1     -32.623   7.710   4.279  1.00 20.00     0.082 C 
HETATM    3  C3  UNL     1     -33.041   6.221   4.074  1.00 20.00     0.146 C 
HETATM    4  C4  UNL     1     -34.311   6.409   4.978  1.00 20.00     0.040 C 
HETATM    5  C5  UNL     1     -32.702   8.649   3.088  1.00 20.00     0.020 C 
HETATM    6  C6  UNL     1     -35.657   6.408   4.257  1.00 20.00     0.026 C 
HETATM    7  C7  UNL     1     -34.329   5.494   6.200  1.00 20.00     0.026 C 
HETATM    8  O9  UNL     1     -34.154   8.727   6.018  1.00 20.00    -0.297 OA
ENDROOT
BRANCH   3   9
HETATM    9  O10 UNL     1     -33.274   5.807   2.713  1.00 20.00    -0.389 OA
HETATM   10  C8  UNL     1     -32.776   4.501   2.494  1.00 20.00     0.202 C 
ENDBRANCH   3   9
TORSDOF 1
ENDMDL
MODEL 3
REMARK VINA RESULT:      -3.3      2.024      2.478
REMARK  1 active torsions:
REMARK  status: ('A' for Active; 'I' for Inactive)
REMARK    1  A    between atoms: C3_3  and  O10_10 
ROOT
HETATM    1  C1  UNL     1     -35.463  15.121  -6.376  1.00 20.00     0.143 C 
HETATM    2  C2  UNL     1     -34.176  15.230  -5.538  1.00 20.00     0.082 C 
HETATM    3  C3  UNL     1     -34.448  16.762  -5.427  1.00 20.00     0.146 C 
HETATM    4  C4  UNL     1     -35.833  16.611  -6.150  1.00 20.00     0.040 C 
HETATM    5  C5  UNL     1     -34.175  14.407  -4.262  1.00 20.00     0.020 C 
HETATM    6  C6  UNL     1     -37.072  16.792  -5.276  1.00 20.00     0.026 C 
HETATM    7  C7  UNL     1     -35.936  17.416  -7.443  1.00 20.00     0.026 C 
HETATM    8  O9  UNL     1     -35.990  14.208  -6.976  1.00 20.00    -0.297 OA
ENDROOT
BRANCH   3   9
HETATM    9  O10 UNL     1     -34.472  17.309  -4.094  1.00 20.00    -0.389 OA
HETATM   10  C8  UNL     1     -33.497  18.323  -3.949  1.00 20.00     0.202 C 
ENDBRANCH   3   9
TORSDOF 1
ENDMDL
MODEL 4
REMARK VINA RESULT:      -3.2     12.985     14.587
REMARK  1 active torsions:
REMARK  status: ('A' for Active; 'I' for Inactive)
REMARK    1  A    between atoms: C3_3  and  O10_10 
ROOT
HETATM    1  C1  UNL     1     -42.457  14.647   7.642  1.00 20.00     0.143 C 
HETATM    2  C2  UNL     1     -42.305  13.494   6.633  1.00 20.00     0.082 C 
HETATM    3  C3  UNL     1     -40.762  13.702   6.717  1.00 20.00     0.146 C 
HETATM    4  C4  UNL     1     -40.925  14.768   7.858  1.00 20.00     0.040 C 
HETATM    5  C5  UNL     1     -42.877  12.165   7.092  1.00 20.00     0.020 C 
HETATM    6  C6  UNL     1     -40.483  14.335   9.254  1.00 20.00     0.026 C 
HETATM    7  C7  UNL     1     -40.365  16.141   7.493  1.00 20.00     0.026 C 
HETATM    8  O9  UNL     1     -43.417  15.229   8.101  1.00 20.00    -0.297 OA
ENDROOT
BRANCH   3   9
HETATM    9  O10 UNL     1     -39.978  12.534   7.035  1.00 20.00    -0.389 OA
HETATM   10  C8  UNL     1     -39.216  12.123   5.917  1.00 20.00     0.202 C 
ENDBRANCH   3   9
TORSDOF 1
ENDMDL
MODEL 5
REMARK VINA RESULT:      -3.2     12.670     13.726
REMARK  1 active torsions:
REMARK  status: ('A' for Active; 'I' for Inactive)
REMARK    1  A    between atoms: C3_3  and  O10_10 
ROOT
HETATM    1  C1  UNL     1     -40.830  13.928   7.660  1.00 20.00     0.143 C 
HETATM    2  C2  UNL     1     -41.224  15.218   6.918  1.00 20.00     0.082 C 
HETATM    3  C3  UNL     1     -41.677  14.323   5.724  1.00 20.00     0.146 C 
HETATM    4  C4  UNL     1     -41.414  13.014   6.550  1.00 20.00     0.040 C 
HETATM    5  C5  UNL     1     -42.272  16.064   7.620  1.00 20.00     0.020 C 
HETATM    6  C6  UNL     1     -42.653  12.244   7.003  1.00 20.00     0.026 C 
HETATM    7  C7  UNL     1     -40.379  12.089   5.915  1.00 20.00     0.026 C 
HETATM    8  O9  UNL     1     -40.280  13.713   8.720  1.00 20.00    -0.297 OA
ENDROOT
BRANCH   3   9
HETATM    9  O10 UNL     1     -43.023  14.527   5.249  1.00 20.00    -0.389 OA
HETATM   10  C8  UNL     1     -43.046  14.646   3.840  1.00 20.00     0.202 C 
ENDBRANCH   3   9
TORSDOF 1
ENDMDL
MODEL 6
REMARK VINA RESULT:      -3.1     12.365     13.742
REMARK  1 active torsions:
REMARK  status: ('A' for Active; 'I' for Inactive)
REMARK    1  A    between atoms: C3_3  and  O10_10 
ROOT
HETATM    1  C1  UNL     1     -41.502  14.007   5.087  1.00 20.00     0.143 C 
HETATM    2  C2  UNL     1     -40.300  13.466   5.881  1.00 20.00     0.082 C 
HETATM    3  C3  UNL     1     -40.817  14.284   7.105  1.00 20.00     0.146 C 
HETATM    4  C4  UNL     1     -42.116  14.703   6.330  1.00 20.00     0.040 C 
HETATM    5  C5  UNL     1     -40.243  11.954   6.001  1.00 20.00     0.020 C 
HETATM    6  C6  UNL     1     -43.417  14.053   6.797  1.00 20.00     0.026 C 
HETATM    7  C7  UNL     1     -42.271  16.213   6.170  1.00 20.00     0.026 C 
HETATM    8  O9  UNL     1     -41.843  13.911   3.926  1.00 20.00    -0.297 OA
ENDROOT
BRANCH   3   9
HETATM    9  O10 UNL     1     -41.005  13.548   8.330  1.00 20.00    -0.389 OA
HETATM   10  C8  UNL     1     -40.567  14.303   9.442  1.00 20.00     0.202 C 
ENDBRANCH   3   9
TORSDOF 1
ENDMDL
MODEL 7
REMARK VINA RESULT:      -3.1      1.694      2.737
REMARK  1 active torsions:
REMARK  status: ('A' for Active; 'I' for Inactive)
REMARK    1  A    between atoms: C3_3  and  O10_10 
ROOT
HETATM    1  C1  UNL     1     -34.422  15.577  -6.653  1.00 20.00     0.143 C 
HETATM    2  C2  UNL     1     -35.192  16.900  -6.810  1.00 20.00     0.082 C 
HETATM    3  C3  UNL     1     -35.829  16.626  -5.412  1.00 20.00     0.146 C 
HETATM    4  C4  UNL     1     -34.924  15.361  -5.200  1.00 20.00     0.040 C 
HETATM    5  C5  UNL     1     -34.319  18.132  -6.972  1.00 20.00     0.020 C 
HETATM    6  C6  UNL     1     -33.814  15.494  -4.160  1.00 20.00     0.026 C 
HETATM    7  C7  UNL     1     -35.715  14.069  -5.014  1.00 20.00     0.026 C 
HETATM    8  O9  UNL     1     -33.688  14.949  -7.388  1.00 20.00    -0.297 OA
ENDROOT
BRANCH   3   9
HETATM    9  O10 UNL     1     -35.703  17.680  -4.437  1.00 20.00    -0.389 OA
HETATM   10  C8  UNL     1     -36.973  18.200  -4.094  1.00 20.00     0.202 C 
ENDBRANCH   3   9
TORSDOF 1
ENDMDL
MODEL 8
REMARK VINA RESULT:      -3.0     12.876     13.974
REMARK  1 active torsions:
REMARK  status: ('A' for Active; 'I' for Inactive)
REMARK    1  A    between atoms: C3_3  and  O10_10 
ROOT
HETATM    1  C1  UNL     1     -40.420  13.449   6.979  1.00 20.00     0.143 C 
HETATM    2  C2  UNL     1     -40.370  14.749   7.802  1.00 20.00     0.082 C 
HETATM    3  C3  UNL     1     -41.670  15.196   7.064  1.00 20.00     0.146 C 
HETATM    4  C4  UNL     1     -41.791  13.804   6.347  1.00 20.00     0.040 C 
HETATM    5  C5  UNL     1     -40.430  14.556   9.306  1.00 20.00     0.020 C 
HETATM    6  C6  UNL     1     -42.922  12.897   6.826  1.00 20.00     0.026 C 
HETATM    7  C7  UNL     1     -41.755  13.898   4.823  1.00 20.00     0.026 C 
HETATM    8  O9  UNL     1     -39.670  12.500   6.877  1.00 20.00    -0.297 OA
ENDROOT
BRANCH   3   9
HETATM    9  O10 UNL     1     -42.775  15.589   7.901  1.00 20.00    -0.389 OA
HETATM   10  C8  UNL     1     -43.289  16.843   7.498  1.00 20.00     0.202 C 
ENDBRANCH   3   9
TORSDOF 1
ENDMDL
MODEL 9
REMARK VINA RESULT:      -3.0      1.863      3.242
REMARK  1 active torsions:
REMARK  status: ('A' for Active; 'I' for Inactive)
REMARK    1  A    between atoms: C3_3  and  O10_10 
ROOT
HETATM    1  C1  UNL     1     -33.585  16.976  -2.738  1.00 20.00     0.143 C 
HETATM    2  C2  UNL     1     -33.900  15.765  -3.633  1.00 20.00     0.082 C 
HETATM    3  C3  UNL     1     -34.732  16.725  -4.539  1.00 20.00     0.146 C 
HETATM    4  C4  UNL     1     -34.277  17.974  -3.705  1.00 20.00     0.040 C 
HETATM    5  C5  UNL     1     -32.685  15.083  -4.236  1.00 20.00     0.020 C 
HETATM    6  C6  UNL     1     -33.293  18.920  -4.391  1.00 20.00     0.026 C 
HETATM    7  C7  UNL     1     -35.435  18.737  -3.067  1.00 20.00     0.026 C 
HETATM    8  O9  UNL     1     -33.003  17.100  -1.681  1.00 20.00    -0.297 OA
ENDROOT
BRANCH   3   9
HETATM    9  O10 UNL     1     -34.397  16.728  -5.941  1.00 20.00    -0.389 OA
HETATM   10  C8  UNL     1     -35.547  16.503  -6.732  1.00 20.00     0.202 C 
ENDBRANCH   3   9
TORSDOF 1
ENDMDL
