MODEL 1
REMARK VINA RESULT:      -4.9      0.000      0.000
REMARK  0 active torsions:
REMARK  status: ('A' for Active; 'I' for Inactive)
ROOT
HETATM    1  C1  UNL     1     -32.087  18.382  -0.837  1.00 20.00     0.068 C 
HETATM    2  C2  UNL     1     -33.244  16.062  -2.870  1.00 20.00     0.010 A 
HETATM    3  C3  UNL     1     -33.654  15.776  -4.174  1.00 20.00     0.019 A 
HETATM    4  C4  UNL     1     -34.996  17.804  -4.245  1.00 20.00     0.026 A 
HETATM    5  C5  UNL     1     -33.721  17.216  -2.267  1.00 20.00    -0.034 A 
HETATM    6  C6  UNL     1     -34.594  18.075  -2.948  1.00 20.00    -0.049 A 
HETATM    7  C7  UNL     1     -34.524  16.641  -4.857  1.00 20.00     0.011 A 
HETATM    8  C8  UNL     1     -34.939  19.263  -2.108  1.00 20.00     0.041 C 
HETATM    9  C9  UNL     1     -34.547  18.762  -0.708  1.00 20.00     0.028 C 
HETATM   10  C10 UNL     1     -33.406  17.739  -0.895  1.00 20.00     0.126 C 
HETATM   11  N11 UNL     1     -31.044  18.888  -0.791  1.00 20.00    -0.197 NA
HETATM   12 BR12 UNL     1     -35.053  16.231  -6.626  1.00 20.00    -0.051 Br
ENDROOT
TORSDOF 0
ENDMDL
MODEL 2
REMARK VINA RESULT:      -4.7      3.384      5.061
REMARK  0 active torsions:
REMARK  status: ('A' for Active; 'I' for Inactive)
ROOT
HETATM    1  C1  UNL     1     -34.261  15.308  -6.987  1.00 20.00     0.068 C 
HETATM    2  C2  UNL     1     -34.507  17.897  -4.965  1.00 20.00     0.010 A 
HETATM    3  C3  UNL     1     -33.878  18.637  -3.962  1.00 20.00     0.019 A 
HETATM    4  C4  UNL     1     -33.285  16.601  -2.770  1.00 20.00     0.026 A 
HETATM    5  C5  UNL     1     -34.522  16.515  -4.854  1.00 20.00    -0.034 A 
HETATM    6  C6  UNL     1     -33.921  15.875  -3.763  1.00 20.00    -0.049 A 
HETATM    7  C7  UNL     1     -33.271  17.994  -2.872  1.00 20.00     0.011 A 
HETATM    8  C8  UNL     1     -34.036  14.389  -3.884  1.00 20.00     0.041 C 
HETATM    9  C9  UNL     1     -35.169  14.261  -4.915  1.00 20.00     0.028 C 
HETATM   10  C10 UNL     1     -35.112  15.518  -5.810  1.00 20.00     0.126 C 
HETATM   11  N11 UNL     1     -33.588  15.143  -7.918  1.00 20.00    -0.197 NA
HETATM   12 BR12 UNL     1     -32.417  19.023  -1.534  1.00 20.00    -0.051 Br
ENDROOT
TORSDOF 0
ENDMDL
MODEL 3
REMARK VINA RESULT:      -4.7      3.766      5.210
REMARK  0 active torsions:
REMARK  status: ('A' for Active; 'I' for Inactive)
ROOT
HETATM    1  C1  UNL     1     -33.252  17.063  -2.634  1.00 20.00     0.068 C 
HETATM    2  C2  UNL     1     -31.147  18.366  -0.460  1.00 20.00     0.010 A 
HETATM    3  C3  UNL     1     -30.852  18.537   0.894  1.00 20.00     0.019 A 
HETATM    4  C4  UNL     1     -33.154  19.165   1.364  1.00 20.00     0.026 A 
HETATM    5  C5  UNL     1     -32.445  18.603  -0.886  1.00 20.00    -0.034 A 
HETATM    6  C6  UNL     1     -33.437  19.004   0.018  1.00 20.00    -0.049 A 
HETATM    7  C7  UNL     1     -31.848  18.934   1.800  1.00 20.00     0.011 A 
HETATM    8  C8  UNL     1     -34.756  19.163  -0.669  1.00 20.00     0.041 C 
HETATM    9  C9  UNL     1     -34.315  19.263  -2.139  1.00 20.00     0.028 C 
HETATM   10  C10 UNL     1     -33.001  18.464  -2.274  1.00 20.00     0.126 C 
HETATM   11  N11 UNL     1     -33.450  15.956  -2.917  1.00 20.00    -0.197 NA
HETATM   12 BR12 UNL     1     -31.418  19.147   3.630  1.00 20.00    -0.051 Br
ENDROOT
TORSDOF 0
ENDMDL
MODEL 4
REMARK VINA RESULT:      -4.4      3.373      4.722
REMARK  0 active torsions:
REMARK  status: ('A' for Active; 'I' for Inactive)
ROOT
HETATM    1  C1  UNL     1     -35.463  15.292  -5.986  1.00 20.00     0.068 C 
HETATM    2  C2  UNL     1     -33.373  16.166  -3.594  1.00 20.00     0.010 A 
HETATM    3  C3  UNL     1     -33.255  16.650  -2.289  1.00 20.00     0.019 A 
HETATM    4  C4  UNL     1     -34.910  18.377  -2.732  1.00 20.00     0.026 A 
HETATM    5  C5  UNL     1     -34.256  16.800  -4.455  1.00 20.00    -0.034 A 
HETATM    6  C6  UNL     1     -35.012  17.899  -4.028  1.00 20.00    -0.049 A 
HETATM    7  C7  UNL     1     -34.018  17.747  -1.861  1.00 20.00     0.011 A 
HETATM    8  C8  UNL     1     -35.912  18.386  -5.118  1.00 20.00     0.041 C 
HETATM    9  C9  UNL     1     -35.255  17.749  -6.353  1.00 20.00     0.028 C 
HETATM   10  C10 UNL     1     -34.566  16.450  -5.882  1.00 20.00     0.126 C 
HETATM   11  N11 UNL     1     -36.171  14.376  -6.067  1.00 20.00    -0.197 NA
HETATM   12 BR12 UNL     1     -33.843  18.372  -0.084  1.00 20.00    -0.051 Br
ENDROOT
TORSDOF 0
ENDMDL
MODEL 5
REMARK VINA RESULT:      -4.2      3.444      4.834
REMARK  0 active torsions:
REMARK  status: ('A' for Active; 'I' for Inactive)
ROOT
HETATM    1  C1  UNL     1     -36.304  15.778  -5.729  1.00 20.00     0.068 C 
HETATM    2  C2  UNL     1     -33.767  15.843  -3.629  1.00 20.00     0.010 A 
HETATM    3  C3  UNL     1     -33.186  16.509  -2.547  1.00 20.00     0.019 A 
HETATM    4  C4  UNL     1     -33.532  18.661  -3.627  1.00 20.00     0.026 A 
HETATM    5  C5  UNL     1     -34.219  16.597  -4.701  1.00 20.00    -0.034 A 
HETATM    6  C6  UNL     1     -34.097  17.993  -4.701  1.00 20.00    -0.049 A 
HETATM    7  C7  UNL     1     -33.069  17.908  -2.546  1.00 20.00     0.011 A 
HETATM    8  C8  UNL     1     -34.685  18.582  -5.943  1.00 20.00     0.041 C 
HETATM    9  C9  UNL     1     -34.736  17.350  -6.861  1.00 20.00     0.028 C 
HETATM   10  C10 UNL     1     -34.892  16.112  -5.952  1.00 20.00     0.126 C 
HETATM   11  N11 UNL     1     -37.420  15.514  -5.551  1.00 20.00    -0.197 NA
HETATM   12 BR12 UNL     1     -32.286  18.780  -1.061  1.00 20.00    -0.051 Br
ENDROOT
TORSDOF 0
ENDMDL
MODEL 6
REMARK VINA RESULT:      -4.0      2.170      3.651
REMARK  0 active torsions:
REMARK  status: ('A' for Active; 'I' for Inactive)
ROOT
HETATM    1  C1  UNL     1     -33.475  16.759  -2.530  1.00 20.00     0.068 C 
HETATM    2  C2  UNL     1     -34.837  17.992  -5.265  1.00 20.00     0.010 A 
HETATM    3  C3  UNL     1     -35.993  18.056  -6.046  1.00 20.00     0.019 A 
HETATM    4  C4  UNL     1     -36.290  15.647  -5.884  1.00 20.00     0.026 A 
HETATM    5  C5  UNL     1     -34.419  16.752  -4.807  1.00 20.00    -0.034 A 
HETATM    6  C6  UNL     1     -35.136  15.590  -5.120  1.00 20.00    -0.049 A 
HETATM    7  C7  UNL     1     -36.714  16.892  -6.353  1.00 20.00     0.011 A 
HETATM    8  C8  UNL     1     -34.512  14.388  -4.487  1.00 20.00     0.041 C 
HETATM    9  C9  UNL     1     -33.104  14.917  -4.168  1.00 20.00     0.028 C 
HETATM   10  C10 UNL     1     -33.231  16.439  -3.942  1.00 20.00     0.126 C 
HETATM   11  N11 UNL     1     -33.668  17.013  -1.414  1.00 20.00    -0.197 NA
HETATM   12 BR12 UNL     1     -38.282  17.013  -7.405  1.00 20.00    -0.051 Br
ENDROOT
TORSDOF 0
ENDMDL
MODEL 7
REMARK VINA RESULT:      -3.7     13.108     14.193
REMARK  0 active torsions:
REMARK  status: ('A' for Active; 'I' for Inactive)
ROOT
HETATM    1  C1  UNL     1     -42.708  13.842  10.705  1.00 20.00     0.068 C 
HETATM    2  C2  UNL     1     -42.671  13.002   7.519  1.00 20.00     0.010 A 
HETATM    3  C3  UNL     1     -41.930  12.408   6.495  1.00 20.00     0.019 A 
HETATM    4  C4  UNL     1     -39.953  13.677   7.128  1.00 20.00     0.026 A 
HETATM    5  C5  UNL     1     -42.042  13.932   8.333  1.00 20.00    -0.034 A 
HETATM    6  C6  UNL     1     -40.698  14.269   8.134  1.00 20.00    -0.049 A 
HETATM    7  C7  UNL     1     -40.581  12.743   6.300  1.00 20.00     0.011 A 
HETATM    8  C8  UNL     1     -40.238  15.262   9.153  1.00 20.00     0.041 C 
HETATM    9  C9  UNL     1     -41.582  15.807   9.665  1.00 20.00     0.028 C 
HETATM   10  C10 UNL     1     -42.621  14.678   9.501  1.00 20.00     0.126 C 
HETATM   11  N11 UNL     1     -42.777  13.180  11.655  1.00 20.00    -0.197 NA
HETATM   12 BR12 UNL     1     -39.602  11.913   4.910  1.00 20.00    -0.051 Br
ENDROOT
TORSDOF 0
ENDMDL
MODEL 8
REMARK VINA RESULT:      -3.7     13.274     14.526
REMARK  0 active torsions:
REMARK  status: ('A' for Active; 'I' for Inactive)
ROOT
HETATM    1  C1  UNL     1     -39.930  12.694   6.089  1.00 20.00     0.068 C 
HETATM    2  C2  UNL     1     -40.269  14.459   8.849  1.00 20.00     0.010 A 
HETATM    3  C3  UNL     1     -40.780  14.476  10.149  1.00 20.00     0.019 A 
HETATM    4  C4  UNL     1     -42.904  13.578   9.373  1.00 20.00     0.026 A 
HETATM    5  C5  UNL     1     -41.086  14.007   7.825  1.00 20.00    -0.034 A 
HETATM    6  C6  UNL     1     -42.394  13.576   8.085  1.00 20.00    -0.049 A 
HETATM    7  C7  UNL     1     -42.088  14.038  10.409  1.00 20.00     0.011 A 
HETATM    8  C8  UNL     1     -43.061  13.104   6.834  1.00 20.00     0.041 C 
HETATM    9  C9  UNL     1     -42.166  13.744   5.759  1.00 20.00     0.028 C 
HETATM   10  C10 UNL     1     -40.753  13.877   6.366  1.00 20.00     0.126 C 
HETATM   11  N11 UNL     1     -39.279  11.758   5.870  1.00 20.00    -0.197 NA
HETATM   12 BR12 UNL     1     -42.748  14.063  12.182  1.00 20.00    -0.051 Br
ENDROOT
TORSDOF 0
ENDMDL
MODEL 9
REMARK VINA RESULT:      -3.5     11.506     12.364
REMARK  0 active torsions:
REMARK  status: ('A' for Active; 'I' for Inactive)
ROOT
HETATM    1  C1  UNL     1     -41.456  16.826   7.857  1.00 20.00     0.068 C 
HETATM    2  C2  UNL     1     -40.378  13.734   7.490  1.00 20.00     0.010 A 
HETATM    3  C3  UNL     1     -39.751  12.829   6.632  1.00 20.00     0.019 A 
HETATM    4  C4  UNL     1     -41.174  13.524   4.785  1.00 20.00     0.026 A 
HETATM    5  C5  UNL     1     -41.402  14.521   6.985  1.00 20.00    -0.034 A 
HETATM    6  C6  UNL     1     -41.799  14.411   5.646  1.00 20.00    -0.049 A 
HETATM    7  C7  UNL     1     -40.146  12.725   5.289  1.00 20.00     0.011 A 
HETATM    8  C8  UNL     1     -42.892  15.382   5.330  1.00 20.00     0.041 C 
HETATM    9  C9  UNL     1     -43.397  15.731   6.740  1.00 20.00     0.028 C 
HETATM   10  C10 UNL     1     -42.201  15.570   7.703  1.00 20.00     0.126 C 
HETATM   11  N11 UNL     1     -40.866  17.818   7.978  1.00 20.00    -0.197 NA
HETATM   12 BR12 UNL     1     -39.269  11.496   4.148  1.00 20.00    -0.051 Br
ENDROOT
TORSDOF 0
ENDMDL
