MODEL 1
REMARK VINA RESULT:      -3.4      0.000      0.000
REMARK  1 active torsions:
REMARK  status: ('A' for Active; 'I' for Inactive)
REMARK    1  A    between atoms: C1_1  and  C5_5 
ROOT
HETATM    1  C1  UNL     1     -33.984   7.075   4.948  1.00 20.00    -0.089 C 
HETATM    2  C2  UNL     1     -33.219   7.995   4.852  1.00 20.00    -0.023 C 
HETATM    3 BR6  UNL     1     -32.007   9.450   4.701  1.00 20.00     0.010 Br
ENDROOT
BRANCH   1   4
HETATM    4  C5  UNL     1     -34.897   5.977   5.062  1.00 20.00     0.066 A 
HETATM    5  C3  UNL     1     -34.685   4.967   6.158  1.00 20.00     0.018 A 
HETATM    6  C4  UNL     1     -34.412   4.591   4.732  1.00 20.00     0.018 A 
ENDBRANCH   1   4
TORSDOF 1
ENDMDL
MODEL 2
REMARK VINA RESULT:      -3.3      1.169      1.283
REMARK  1 active torsions:
REMARK  status: ('A' for Active; 'I' for Inactive)
REMARK    1  A    between atoms: C1_1  and  C5_5 
ROOT
HETATM    1  C1  UNL     1     -33.720   7.323   5.160  1.00 20.00    -0.089 C 
HETATM    2  C2  UNL     1     -33.202   7.938   4.268  1.00 20.00    -0.023 C 
HETATM    3 BR6  UNL     1     -32.383   8.910   2.857  1.00 20.00     0.010 Br
ENDROOT
BRANCH   1   4
HETATM    4  C5  UNL     1     -34.337   6.589   6.225  1.00 20.00     0.066 A 
HETATM    5  C3  UNL     1     -33.762   5.254   6.616  1.00 20.00     0.018 A 
HETATM    6  C4  UNL     1     -35.078   5.320   5.898  1.00 20.00     0.018 A 
ENDBRANCH   1   4
TORSDOF 1
ENDMDL
MODEL 3
REMARK VINA RESULT:      -3.2     12.209     12.709
REMARK  1 active torsions:
REMARK  status: ('A' for Active; 'I' for Inactive)
REMARK    1  A    between atoms: C1_1  and  C5_5 
ROOT
HETATM    1  C1  UNL     1     -33.349  16.397  -2.772  1.00 20.00    -0.089 C 
HETATM    2  C2  UNL     1     -33.499  17.078  -1.794  1.00 20.00    -0.023 C 
HETATM    3 BR6  UNL     1     -33.735  18.156  -0.248  1.00 20.00     0.010 Br
ENDROOT
BRANCH   1   4
HETATM    4  C5  UNL     1     -33.171  15.584  -3.938  1.00 20.00     0.066 A 
HETATM    5  C3  UNL     1     -34.198  15.653  -5.036  1.00 20.00     0.018 A 
HETATM    6  C4  UNL     1     -34.110  14.431  -4.171  1.00 20.00     0.018 A 
ENDBRANCH   1   4
TORSDOF 1
ENDMDL
MODEL 4
REMARK VINA RESULT:      -3.1      8.950      9.381
REMARK  1 active torsions:
REMARK  status: ('A' for Active; 'I' for Inactive)
REMARK    1  A    between atoms: C1_1  and  C5_5 
ROOT
HETATM    1  C1  UNL     1     -40.766  12.895   5.549  1.00 20.00    -0.089 C 
HETATM    2  C2  UNL     1     -41.515  13.826   5.657  1.00 20.00    -0.023 C 
HETATM    3 BR6  UNL     1     -42.703  15.300   5.827  1.00 20.00     0.010 Br
ENDROOT
BRANCH   1   4
HETATM    4  C5  UNL     1     -39.871  11.783   5.421  1.00 20.00     0.066 A 
HETATM    5  C3  UNL     1     -38.387  12.037   5.458  1.00 20.00     0.018 A 
HETATM    6  C4  UNL     1     -39.048  11.654   4.167  1.00 20.00     0.018 A 
ENDBRANCH   1   4
TORSDOF 1
ENDMDL
MODEL 5
REMARK VINA RESULT:      -3.1     12.759     13.201
REMARK  1 active torsions:
REMARK  status: ('A' for Active; 'I' for Inactive)
REMARK    1  A    between atoms: C1_1  and  C5_5 
ROOT
HETATM    1  C1  UNL     1     -33.173  17.237  -2.370  1.00 20.00    -0.089 C 
HETATM    2  C2  UNL     1     -33.377  16.285  -3.073  1.00 20.00    -0.023 C 
HETATM    3 BR6  UNL     1     -33.699  14.778  -4.184  1.00 20.00     0.010 Br
ENDROOT
BRANCH   1   4
HETATM    4  C5  UNL     1     -32.930  18.373  -1.532  1.00 20.00     0.066 A 
HETATM    5  C3  UNL     1     -31.711  18.377  -0.650  1.00 20.00     0.018 A 
HETATM    6  C4  UNL     1     -33.073  18.220  -0.042  1.00 20.00     0.018 A 
ENDBRANCH   1   4
TORSDOF 1
ENDMDL
MODEL 6
REMARK VINA RESULT:      -3.0      8.731      9.175
REMARK  1 active torsions:
REMARK  status: ('A' for Active; 'I' for Inactive)
REMARK    1  A    between atoms: C1_1  and  C5_5 
ROOT
HETATM    1  C1  UNL     1     -40.209  13.040   6.434  1.00 20.00    -0.089 C 
HETATM    2  C2  UNL     1     -40.711  14.036   6.879  1.00 20.00    -0.023 C 
HETATM    3 BR6  UNL     1     -41.503  15.612   7.585  1.00 20.00     0.010 Br
ENDROOT
BRANCH   1   4
HETATM    4  C5  UNL     1     -39.612  11.852   5.903  1.00 20.00     0.066 A 
HETATM    5  C3  UNL     1     -38.223  11.932   5.327  1.00 20.00     0.018 A 
HETATM    6  C4  UNL     1     -39.401  11.746   4.417  1.00 20.00     0.018 A 
ENDBRANCH   1   4
TORSDOF 1
ENDMDL
MODEL 7
REMARK VINA RESULT:      -2.9     12.573     13.082
REMARK  1 active torsions:
REMARK  status: ('A' for Active; 'I' for Inactive)
REMARK    1  A    between atoms: C1_1  and  C5_5 
ROOT
HETATM    1  C1  UNL     1     -31.956  18.387  -0.551  1.00 20.00    -0.089 C 
HETATM    2  C2  UNL     1     -31.338  18.534   0.468  1.00 20.00    -0.023 C 
HETATM    3 BR6  UNL     1     -30.358  18.768   2.079  1.00 20.00     0.010 Br
ENDROOT
BRANCH   1   4
HETATM    4  C5  UNL     1     -32.695  18.211  -1.766  1.00 20.00     0.066 A 
HETATM    5  C3  UNL     1     -34.196  18.127  -1.698  1.00 20.00     0.018 A 
HETATM    6  C4  UNL     1     -33.392  16.900  -2.009  1.00 20.00     0.018 A 
ENDBRANCH   1   4
TORSDOF 1
ENDMDL
MODEL 8
REMARK VINA RESULT:      -2.9      2.712      4.089
REMARK  1 active torsions:
REMARK  status: ('A' for Active; 'I' for Inactive)
REMARK    1  A    between atoms: C1_1  and  C5_5 
ROOT
HETATM    1  C1  UNL     1     -32.997   7.519   4.300  1.00 20.00    -0.089 C 
HETATM    2  C2  UNL     1     -33.664   6.862   5.051  1.00 20.00    -0.023 C 
HETATM    3 BR6  UNL     1     -34.720   5.822   6.240  1.00 20.00     0.010 Br
ENDROOT
BRANCH   1   4
HETATM    4  C5  UNL     1     -32.201   8.304   3.403  1.00 20.00     0.066 A 
HETATM    5  C3  UNL     1     -32.892   9.119   2.343  1.00 20.00     0.018 A 
HETATM    6  C4  UNL     1     -32.118   7.894   1.958  1.00 20.00     0.018 A 
ENDBRANCH   1   4
TORSDOF 1
ENDMDL
MODEL 9
REMARK VINA RESULT:      -2.9     12.820     13.299
REMARK  1 active torsions:
REMARK  status: ('A' for Active; 'I' for Inactive)
REMARK    1  A    between atoms: C1_1  and  C5_5 
ROOT
HETATM    1  C1  UNL     1     -31.841  18.474  -0.356  1.00 20.00    -0.089 C 
HETATM    2  C2  UNL     1     -32.452  17.932  -1.235  1.00 20.00    -0.023 C 
HETATM    3 BR6  UNL     1     -33.419  17.073  -2.627  1.00 20.00     0.010 Br
ENDROOT
BRANCH   1   4
HETATM    4  C5  UNL     1     -31.112  19.122   0.694  1.00 20.00     0.066 A 
HETATM    5  C3  UNL     1     -30.621  18.297   1.853  1.00 20.00     0.018 A 
HETATM    6  C4  UNL     1     -31.755  19.260   2.047  1.00 20.00     0.018 A 
ENDBRANCH   1   4
TORSDOF 1
ENDMDL
