MODEL 1
REMARK VINA RESULT:      -4.0      0.000      0.000
REMARK  1 active torsions:
REMARK  status: ('A' for Active; 'I' for Inactive)
REMARK       I    between atoms: C1_1  and  N5_5 
REMARK    1  A    between atoms: C4_4  and  N5_5 
ROOT
HETATM    1  C1  UNL     1     -32.541   7.914   4.177  1.00 20.00     0.314 C 
HETATM    2  N5  UNL     1     -33.461   7.211   4.952  1.00 20.00    -0.343 N 
HETATM    3  O6  UNL     1     -32.139   7.517   3.085  1.00 20.00    -0.254 OA
HETATM    4 CL7  UNL     1     -32.035   9.404   4.932  1.00 20.00    -0.020 Cl
HETATM    5  H13 UNL     1     -33.744   7.612   5.849  1.00 20.00     0.164 HD
ENDROOT
BRANCH   2   6
HETATM    6  C4  UNL     1     -34.027   5.969   4.562  1.00 20.00     0.085 A 
HETATM    7  C2  UNL     1     -34.652   5.046   5.571  1.00 20.00     0.027 A 
HETATM    8  C3  UNL     1     -35.514   5.753   4.567  1.00 20.00     0.027 A 
ENDBRANCH   2   6
TORSDOF 1
ENDMDL
MODEL 2
REMARK VINA RESULT:      -3.9      2.533      3.645
REMARK  1 active torsions:
REMARK  status: ('A' for Active; 'I' for Inactive)
REMARK       I    between atoms: C1_1  and  N5_5 
REMARK    1  A    between atoms: C4_4  and  N5_5 
ROOT
HETATM    1  C1  UNL     1     -34.431   5.950   5.225  1.00 20.00     0.314 C 
HETATM    2  N5  UNL     1     -33.826   7.178   5.487  1.00 20.00    -0.343 N 
HETATM    3  O6  UNL     1     -34.670   5.548   4.088  1.00 20.00    -0.254 OA
HETATM    4 CL7  UNL     1     -34.804   5.067   6.683  1.00 20.00    -0.020 Cl
HETATM    5  H13 UNL     1     -33.663   7.438   6.463  1.00 20.00     0.164 HD
ENDROOT
BRANCH   2   6
HETATM    6  C4  UNL     1     -33.425   8.087   4.473  1.00 20.00     0.085 A 
HETATM    7  C2  UNL     1     -32.216   8.963   4.646  1.00 20.00     0.027 A 
HETATM    8  C3  UNL     1     -32.192   7.841   3.649  1.00 20.00     0.027 A 
ENDBRANCH   2   6
TORSDOF 1
ENDMDL
MODEL 3
REMARK VINA RESULT:      -3.9      1.688      1.850
REMARK  1 active torsions:
REMARK  status: ('A' for Active; 'I' for Inactive)
REMARK       I    between atoms: C1_1  and  N5_5 
REMARK    1  A    between atoms: C4_4  and  N5_5 
ROOT
HETATM    1  C1  UNL     1     -32.777   7.794   3.941  1.00 20.00     0.314 C 
HETATM    2  N5  UNL     1     -33.694   6.771   4.175  1.00 20.00    -0.343 N 
HETATM    3  O6  UNL     1     -32.572   8.708   4.738  1.00 20.00    -0.254 OA
HETATM    4 CL7  UNL     1     -31.967   7.624   2.405  1.00 20.00    -0.020 Cl
HETATM    5  H13 UNL     1     -33.805   6.048   3.461  1.00 20.00     0.164 HD
ENDROOT
BRANCH   2   6
HETATM    6  C4  UNL     1     -34.483   6.680   5.352  1.00 20.00     0.085 A 
HETATM    7  C2  UNL     1     -34.787   5.350   5.985  1.00 20.00     0.027 A 
HETATM    8  C3  UNL     1     -33.870   6.317   6.676  1.00 20.00     0.027 A 
ENDBRANCH   2   6
TORSDOF 1
ENDMDL
MODEL 4
REMARK VINA RESULT:      -3.8      1.573      1.704
REMARK  1 active torsions:
REMARK  status: ('A' for Active; 'I' for Inactive)
REMARK       I    between atoms: C1_1  and  N5_5 
REMARK    1  A    between atoms: C4_4  and  N5_5 
ROOT
HETATM    1  C1  UNL     1     -33.398   8.201   4.975  1.00 20.00     0.314 C 
HETATM    2  N5  UNL     1     -33.652   6.949   4.416  1.00 20.00    -0.343 N 
HETATM    3  O6  UNL     1     -34.053   8.667   5.904  1.00 20.00    -0.254 OA
HETATM    4 CL7  UNL     1     -32.059   9.014   4.206  1.00 20.00    -0.020 Cl
HETATM    5  H13 UNL     1     -33.059   6.635   3.644  1.00 20.00     0.164 HD
ENDROOT
BRANCH   2   6
HETATM    6  C4  UNL     1     -34.688   6.088   4.862  1.00 20.00     0.085 A 
HETATM    7  C2  UNL     1     -34.516   4.594   4.854  1.00 20.00     0.027 A 
HETATM    8  C3  UNL     1     -34.573   5.335   6.158  1.00 20.00     0.027 A 
ENDBRANCH   2   6
TORSDOF 1
ENDMDL
MODEL 5
REMARK VINA RESULT:      -3.7      2.526      2.681
REMARK  1 active torsions:
REMARK  status: ('A' for Active; 'I' for Inactive)
REMARK       I    between atoms: C1_1  and  N5_5 
REMARK    1  A    between atoms: C4_4  and  N5_5 
ROOT
HETATM    1  C1  UNL     1     -33.111   5.914   3.215  1.00 20.00     0.314 C 
HETATM    2  N5  UNL     1     -34.119   5.516   4.090  1.00 20.00    -0.343 N 
HETATM    3  O6  UNL     1     -32.572   7.018   3.269  1.00 20.00    -0.254 OA
HETATM    4 CL7  UNL     1     -32.713   4.677   2.050  1.00 20.00    -0.020 Cl
HETATM    5  H13 UNL     1     -34.516   4.580   3.977  1.00 20.00     0.164 HD
ENDROOT
BRANCH   2   6
HETATM    6  C4  UNL     1     -34.625   6.339   5.130  1.00 20.00     0.085 A 
HETATM    7  C2  UNL     1     -34.808   5.808   6.525  1.00 20.00     0.027 A 
HETATM    8  C3  UNL     1     -33.738   6.823   6.243  1.00 20.00     0.027 A 
ENDBRANCH   2   6
TORSDOF 1
ENDMDL
MODEL 6
REMARK VINA RESULT:      -3.6      2.908      3.826
REMARK  1 active torsions:
REMARK  status: ('A' for Active; 'I' for Inactive)
REMARK       I    between atoms: C1_1  and  N5_5 
REMARK    1  A    between atoms: C4_4  and  N5_5 
ROOT
HETATM    1  C1  UNL     1     -34.251   6.463   5.976  1.00 20.00     0.314 C 
HETATM    2  N5  UNL     1     -33.796   6.859   4.719  1.00 20.00    -0.343 N 
HETATM    3  O6  UNL     1     -34.421   7.248   6.906  1.00 20.00    -0.254 OA
HETATM    4 CL7  UNL     1     -34.543   4.745   6.068  1.00 20.00    -0.020 Cl
HETATM    5  H13 UNL     1     -33.680   6.142   3.999  1.00 20.00     0.164 HD
ENDROOT
BRANCH   2   6
HETATM    6  C4  UNL     1     -33.485   8.203   4.386  1.00 20.00     0.085 A 
HETATM    7  C2  UNL     1     -32.141   8.795   4.709  1.00 20.00     0.027 A 
HETATM    8  C3  UNL     1     -32.519   8.530   3.282  1.00 20.00     0.027 A 
ENDBRANCH   2   6
TORSDOF 1
ENDMDL
MODEL 7
REMARK VINA RESULT:      -3.5      1.930      1.930
REMARK  1 active torsions:
REMARK  status: ('A' for Active; 'I' for Inactive)
REMARK       I    between atoms: C1_1  and  N5_5 
REMARK    1  A    between atoms: C4_4  and  N5_5 
ROOT
HETATM    1  C1  UNL     1     -32.708   6.518   2.913  1.00 20.00     0.314 C 
HETATM    2  N5  UNL     1     -33.131   6.967   4.163  1.00 20.00    -0.343 N 
HETATM    3  O6  UNL     1     -32.712   5.332   2.590  1.00 20.00    -0.254 OA
HETATM    4 CL7  UNL     1     -32.181   7.822   1.880  1.00 20.00    -0.020 Cl
HETATM    5  H13 UNL     1     -33.096   7.972   4.353  1.00 20.00     0.164 HD
ENDROOT
BRANCH   2   6
HETATM    6  C4  UNL     1     -33.607   6.106   5.186  1.00 20.00     0.085 A 
HETATM    7  C2  UNL     1     -34.401   6.638   6.346  1.00 20.00     0.027 A 
HETATM    8  C3  UNL     1     -35.068   5.779   5.313  1.00 20.00     0.027 A 
ENDBRANCH   2   6
TORSDOF 1
ENDMDL
MODEL 8
REMARK VINA RESULT:      -3.4     12.175     12.563
REMARK  1 active torsions:
REMARK  status: ('A' for Active; 'I' for Inactive)
REMARK       I    between atoms: C1_1  and  N5_5 
REMARK    1  A    between atoms: C4_4  and  N5_5 
ROOT
HETATM    1  C1  UNL     1     -34.273  14.746  -4.473  1.00 20.00     0.314 C 
HETATM    2  N5  UNL     1     -34.312  15.999  -3.863  1.00 20.00    -0.343 N 
HETATM    3  O6  UNL     1     -33.333  13.965  -4.344  1.00 20.00    -0.254 OA
HETATM    4 CL7  UNL     1     -35.699  14.426  -5.427  1.00 20.00    -0.020 Cl
HETATM    5  H13 UNL     1     -35.132  16.589  -4.021  1.00 20.00     0.164 HD
ENDROOT
BRANCH   2   6
HETATM    6  C4  UNL     1     -33.274  16.499  -3.034  1.00 20.00     0.085 A 
HETATM    7  C2  UNL     1     -33.099  17.976  -2.810  1.00 20.00     0.027 A 
HETATM    8  C3  UNL     1     -33.570  17.098  -1.688  1.00 20.00     0.027 A 
ENDBRANCH   2   6
TORSDOF 1
ENDMDL
MODEL 9
REMARK VINA RESULT:      -3.3      9.222      9.539
REMARK  1 active torsions:
REMARK  status: ('A' for Active; 'I' for Inactive)
REMARK       I    between atoms: C1_1  and  N5_5 
REMARK    1  A    between atoms: C4_4  and  N5_5 
ROOT
HETATM    1  C1  UNL     1     -40.714  13.863   6.888  1.00 20.00     0.314 C 
HETATM    2  N5  UNL     1     -40.579  13.209   5.665  1.00 20.00    -0.343 N 
HETATM    3  O6  UNL     1     -40.217  13.445   7.932  1.00 20.00    -0.254 OA
HETATM    4 CL7  UNL     1     -41.661  15.324   6.761  1.00 20.00    -0.020 Cl
HETATM    5  H13 UNL     1     -41.024  13.624   4.843  1.00 20.00     0.164 HD
ENDROOT
BRANCH   2   6
HETATM    6  C4  UNL     1     -39.856  11.999   5.499  1.00 20.00     0.085 A 
HETATM    7  C2  UNL     1     -39.210  11.651   4.187  1.00 20.00     0.027 A 
HETATM    8  C3  UNL     1     -38.359  11.996   5.373  1.00 20.00     0.027 A 
ENDBRANCH   2   6
TORSDOF 1
ENDMDL
