MODEL 1
REMARK VINA RESULT:      -3.9      0.000      0.000
REMARK  0 active torsions:
REMARK  status: ('A' for Active; 'I' for Inactive)
ROOT
HETATM    1  C1  UNL     1     -25.076  17.031  11.776  1.00 20.00     0.007 C 
HETATM    2  C2  UNL     1     -23.563  16.845  11.960  1.00 20.00     0.027 C 
HETATM    3  C3  UNL     1     -24.689  18.784  10.037  1.00 20.00     0.027 C 
HETATM    4  C4  UNL     1     -24.089  19.130  12.332  1.00 20.00     0.032 C 
HETATM    5  C5  UNL     1     -25.205  18.534  11.468  1.00 20.00    -0.011 C 
HETATM    6  C6  UNL     1     -23.162  18.671  10.202  1.00 20.00     0.106 C 
HETATM    7  C7  UNL     1     -23.011  18.257  11.683  1.00 20.00     0.054 C 
HETATM    8 CL8  UNL     1     -22.429  17.549   9.041  1.00 20.00    -0.123 Cl
HETATM    9 CL9  UNL     1     -21.395  18.507  12.323  1.00 20.00    -0.118 Cl
ENDROOT
TORSDOF 0
ENDMDL
MODEL 2
REMARK VINA RESULT:      -3.7      1.401      1.743
REMARK  0 active torsions:
REMARK  status: ('A' for Active; 'I' for Inactive)
ROOT
HETATM    1  C1  UNL     1     -24.517  16.570  11.515  1.00 20.00     0.007 C 
HETATM    2  C2  UNL     1     -23.519  16.863  10.385  1.00 20.00     0.027 C 
HETATM    3  C3  UNL     1     -25.424  18.895  11.371  1.00 20.00     0.027 C 
HETATM    4  C4  UNL     1     -23.187  18.458  12.113  1.00 20.00     0.032 C 
HETATM    5  C5  UNL     1     -24.614  17.919  12.249  1.00 20.00    -0.011 C 
HETATM    6  C6  UNL     1     -24.423  19.263  10.260  1.00 20.00     0.106 C 
HETATM    7  C7  UNL     1     -23.211  18.361  10.584  1.00 20.00     0.054 C 
HETATM    8 CL8  UNL     1     -25.094  19.044   8.633  1.00 20.00    -0.123 Cl
HETATM    9 CL9  UNL     1     -21.724  18.871   9.803  1.00 20.00    -0.118 Cl
ENDROOT
TORSDOF 0
ENDMDL
MODEL 3
REMARK VINA RESULT:      -3.7     23.502     24.542
REMARK  0 active torsions:
REMARK  status: ('A' for Active; 'I' for Inactive)
ROOT
HETATM    1  C1  UNL     1     -42.282   8.371  -0.438  1.00 20.00     0.007 C 
HETATM    2  C2  UNL     1     -43.365   7.564   0.292  1.00 20.00     0.027 C 
HETATM    3  C3  UNL     1     -40.871   6.323  -0.691  1.00 20.00     0.027 C 
HETATM    4  C4  UNL     1     -41.313   7.293   1.456  1.00 20.00     0.032 C 
HETATM    5  C5  UNL     1     -40.978   7.690   0.015  1.00 20.00    -0.011 C 
HETATM    6  C6  UNL     1     -41.901   5.467   0.068  1.00 20.00     0.106 C 
HETATM    7  C7  UNL     1     -42.545   6.488   1.033  1.00 20.00     0.054 C 
HETATM    8 CL8  UNL     1     -43.043   4.650  -1.015  1.00 20.00    -0.123 Cl
HETATM    9 CL9  UNL     1     -43.417   5.747   2.364  1.00 20.00    -0.118 Cl
ENDROOT
TORSDOF 0
ENDMDL
MODEL 4
REMARK VINA RESULT:      -3.4     23.684     24.871
REMARK  0 active torsions:
REMARK  status: ('A' for Active; 'I' for Inactive)
ROOT
HETATM    1  C1  UNL     1     -40.749   7.210   0.810  1.00 20.00     0.007 C 
HETATM    2  C2  UNL     1     -40.796   5.927  -0.033  1.00 20.00     0.027 C 
HETATM    3  C3  UNL     1     -43.062   6.786   1.657  1.00 20.00     0.027 C 
HETATM    4  C4  UNL     1     -42.636   7.298  -0.646  1.00 20.00     0.032 C 
HETATM    5  C5  UNL     1     -42.204   7.707   0.766  1.00 20.00    -0.011 C 
HETATM    6  C6  UNL     1     -43.186   5.509   0.806  1.00 20.00     0.106 C 
HETATM    7  C7  UNL     1     -42.287   5.825  -0.411  1.00 20.00     0.054 C 
HETATM    8 CL8  UNL     1     -42.736   4.044   1.697  1.00 20.00    -0.123 Cl
HETATM    9 CL9  UNL     1     -42.581   4.783  -1.794  1.00 20.00    -0.118 Cl
ENDROOT
TORSDOF 0
ENDMDL
MODEL 5
REMARK VINA RESULT:      -3.4     15.915     17.227
REMARK  0 active torsions:
REMARK  status: ('A' for Active; 'I' for Inactive)
ROOT
HETATM    1  C1  UNL     1     -35.804   5.641   4.593  1.00 20.00     0.007 C 
HETATM    2  C2  UNL     1     -34.988   6.456   3.579  1.00 20.00     0.027 C 
HETATM    3  C3  UNL     1     -34.175   6.195   6.407  1.00 20.00     0.027 C 
HETATM    4  C4  UNL     1     -33.566   4.816   4.542  1.00 20.00     0.032 C 
HETATM    5  C5  UNL     1     -34.722   5.058   5.519  1.00 20.00    -0.011 C 
HETATM    6  C6  UNL     1     -33.294   6.995   5.431  1.00 20.00     0.106 C 
HETATM    7  C7  UNL     1     -33.543   6.278   4.084  1.00 20.00     0.054 C 
HETATM    8 CL8  UNL     1     -33.674   8.727   5.428  1.00 20.00    -0.123 Cl
HETATM    9 CL9  UNL     1     -32.333   6.634   2.863  1.00 20.00    -0.118 Cl
ENDROOT
TORSDOF 0
ENDMDL
MODEL 6
REMARK VINA RESULT:      -3.2     18.122     19.063
REMARK  0 active torsions:
REMARK  status: ('A' for Active; 'I' for Inactive)
ROOT
HETATM    1  C1  UNL     1     -43.391  13.330   6.377  1.00 20.00     0.007 C 
HETATM    2  C2  UNL     1     -42.444  13.035   7.549  1.00 20.00     0.027 C 
HETATM    3  C3  UNL     1     -41.448  13.683   4.844  1.00 20.00     0.027 C 
HETATM    4  C4  UNL     1     -41.904  15.172   6.667  1.00 20.00     0.032 C 
HETATM    5  C5  UNL     1     -42.618  14.384   5.564  1.00 20.00    -0.011 C 
HETATM    6  C6  UNL     1     -40.446  13.434   5.987  1.00 20.00     0.106 C 
HETATM    7  C7  UNL     1     -41.223  13.921   7.231  1.00 20.00     0.054 C 
HETATM    8 CL8  UNL     1     -39.904  11.748   6.067  1.00 20.00    -0.123 Cl
HETATM    9 CL9  UNL     1     -40.202  14.221   8.627  1.00 20.00    -0.118 Cl
ENDROOT
TORSDOF 0
ENDMDL
MODEL 7
REMARK VINA RESULT:      -3.2     23.366     24.541
REMARK  0 active torsions:
REMARK  status: ('A' for Active; 'I' for Inactive)
ROOT
HETATM    1  C1  UNL     1     -43.189   5.383   1.852  1.00 20.00     0.007 C 
HETATM    2  C2  UNL     1     -43.370   6.907   1.809  1.00 20.00     0.027 C 
HETATM    3  C3  UNL     1     -41.183   5.539   0.369  1.00 20.00     0.027 C 
HETATM    4  C4  UNL     1     -43.380   6.085  -0.419  1.00 20.00     0.032 C 
HETATM    5  C5  UNL     1     -42.646   5.059   0.449  1.00 20.00    -0.011 C 
HETATM    6  C6  UNL     1     -41.333   7.067   0.255  1.00 20.00     0.106 C 
HETATM    7  C7  UNL     1     -42.858   7.270   0.401  1.00 20.00     0.054 C 
HETATM    8 CL8  UNL     1     -40.354   7.943   1.447  1.00 20.00    -0.123 Cl
HETATM    9 CL9  UNL     1     -43.417   8.838  -0.157  1.00 20.00    -0.118 Cl
ENDROOT
TORSDOF 0
ENDMDL
MODEL 8
REMARK VINA RESULT:      -3.1     19.398     20.447
REMARK  0 active torsions:
REMARK  status: ('A' for Active; 'I' for Inactive)
ROOT
HETATM    1  C1  UNL     1     -35.496  15.252  -7.294  1.00 20.00     0.007 C 
HETATM    2  C2  UNL     1     -34.073  15.336  -6.725  1.00 20.00     0.027 C 
HETATM    3  C3  UNL     1     -36.376  16.634  -5.406  1.00 20.00     0.027 C 
HETATM    4  C4  UNL     1     -35.498  14.431  -5.055  1.00 20.00     0.032 C 
HETATM    5  C5  UNL     1     -36.374  15.224  -6.031  1.00 20.00    -0.011 C 
HETATM    6  C6  UNL     1     -34.979  16.723  -4.764  1.00 20.00     0.106 C 
HETATM    7  C7  UNL     1     -34.318  15.397  -5.204  1.00 20.00     0.054 C 
HETATM    8 CL8  UNL     1     -34.097  18.184  -5.245  1.00 20.00    -0.123 Cl
HETATM    9 CL9  UNL     1     -32.905  14.965  -4.256  1.00 20.00    -0.118 Cl
ENDROOT
TORSDOF 0
ENDMDL
MODEL 9
REMARK VINA RESULT:      -3.1     18.953     20.417
REMARK  0 active torsions:
REMARK  status: ('A' for Active; 'I' for Inactive)
ROOT
HETATM    1  C1  UNL     1     -35.180  14.076  -4.532  1.00 20.00     0.007 C 
HETATM    2  C2  UNL     1     -36.093  14.846  -5.498  1.00 20.00     0.027 C 
HETATM    3  C3  UNL     1     -33.817  16.130  -4.120  1.00 20.00     0.027 C 
HETATM    4  C4  UNL     1     -33.852  15.048  -6.258  1.00 20.00     0.032 C 
HETATM    5  C5  UNL     1     -33.805  14.728  -4.761  1.00 20.00    -0.011 C 
HETATM    6  C6  UNL     1     -34.672  16.947  -5.105  1.00 20.00     0.106 C 
HETATM    7  C7  UNL     1     -35.133  15.878  -6.122  1.00 20.00     0.054 C 
HETATM    8 CL8  UNL     1     -35.990  17.824  -4.306  1.00 20.00    -0.123 Cl
HETATM    9 CL9  UNL     1     -35.724  16.550  -7.632  1.00 20.00    -0.118 Cl
ENDROOT
TORSDOF 0
ENDMDL
