MODEL 1
REMARK VINA RESULT:      -4.4      0.000      0.000
REMARK  1 active torsions:
REMARK  status: ('A' for Active; 'I' for Inactive)
REMARK    1  A    between atoms: C2_2  and  C3_3 
ROOT
HETATM    1  C1  UNL     1     -34.410   5.011   5.912  1.00 20.00     0.060 C 
HETATM    2  C2  UNL     1     -34.389   6.006   4.756  1.00 20.00     0.206 C 
HETATM    3 CL7  UNL     1     -33.362   5.353   3.441  1.00 20.00    -0.092 Cl
HETATM    4 CL8  UNL     1     -36.056   6.204   4.125  1.00 20.00    -0.092 Cl
ENDROOT
BRANCH   2   5
HETATM    5  C3  UNL     1     -33.851   7.360   5.195  1.00 20.00     0.422 C 
HETATM    6  F4  UNL     1     -34.360   8.360   4.440  1.00 20.00    -0.168 F 
HETATM    7  F5  UNL     1     -34.176   7.626   6.481  1.00 20.00    -0.168 F 
HETATM    8  F6  UNL     1     -32.505   7.422   5.096  1.00 20.00    -0.168 F 
ENDBRANCH   2   5
TORSDOF 1
ENDMDL
MODEL 2
REMARK VINA RESULT:      -4.4      0.015      1.334
REMARK  1 active torsions:
REMARK  status: ('A' for Active; 'I' for Inactive)
REMARK    1  A    between atoms: C2_2  and  C3_3 
ROOT
HETATM    1  C1  UNL     1     -34.408   5.013   5.912  1.00 20.00     0.060 C 
HETATM    2  C2  UNL     1     -34.395   6.005   4.754  1.00 20.00     0.206 C 
HETATM    3 CL7  UNL     1     -33.360   5.359   3.441  1.00 20.00    -0.092 Cl
HETATM    4 CL8  UNL     1     -36.063   6.186   4.121  1.00 20.00    -0.092 Cl
ENDROOT
BRANCH   2   5
HETATM    5  C3  UNL     1     -33.870   7.365   5.190  1.00 20.00     0.422 C 
HETATM    6  F4  UNL     1     -34.193   7.628   6.477  1.00 20.00    -0.168 F 
HETATM    7  F5  UNL     1     -32.522   7.427   5.096  1.00 20.00    -0.168 F 
HETATM    8  F6  UNL     1     -34.375   8.365   4.434  1.00 20.00    -0.168 F 
ENDBRANCH   2   5
TORSDOF 1
ENDMDL
MODEL 3
REMARK VINA RESULT:      -4.4      1.867      2.268
REMARK  1 active torsions:
REMARK  status: ('A' for Active; 'I' for Inactive)
REMARK    1  A    between atoms: C2_2  and  C3_3 
ROOT
HETATM    1  C1  UNL     1     -35.710   6.162   4.353  1.00 20.00     0.060 C 
HETATM    2  C2  UNL     1     -34.275   5.884   4.791  1.00 20.00     0.206 C 
HETATM    3 CL7  UNL     1     -33.823   4.222   4.297  1.00 20.00    -0.092 Cl
HETATM    4 CL8  UNL     1     -33.179   7.037   3.963  1.00 20.00    -0.092 Cl
ENDROOT
BRANCH   2   5
HETATM    5  C3  UNL     1     -34.113   6.027   6.297  1.00 20.00     0.422 C 
HETATM    6  F4  UNL     1     -35.259   6.452   6.877  1.00 20.00    -0.168 F 
HETATM    7  F5  UNL     1     -33.789   4.846   6.873  1.00 20.00    -0.168 F 
HETATM    8  F6  UNL     1     -33.144   6.913   6.617  1.00 20.00    -0.168 F 
ENDBRANCH   2   5
TORSDOF 1
ENDMDL
MODEL 4
REMARK VINA RESULT:      -4.4      1.343      2.321
REMARK  1 active torsions:
REMARK  status: ('A' for Active; 'I' for Inactive)
REMARK    1  A    between atoms: C2_2  and  C3_3 
ROOT
HETATM    1  C1  UNL     1     -35.730   6.184   4.276  1.00 20.00     0.060 C 
HETATM    2  C2  UNL     1     -34.285   5.941   4.700  1.00 20.00     0.206 C 
HETATM    3 CL7  UNL     1     -34.273   5.134   6.300  1.00 20.00    -0.092 Cl
HETATM    4 CL8  UNL     1     -33.504   4.849   3.512  1.00 20.00    -0.092 Cl
ENDROOT
BRANCH   2   5
HETATM    5  C3  UNL     1     -33.501   7.242   4.783  1.00 20.00     0.422 C 
HETATM    6  F4  UNL     1     -32.991   7.431   6.021  1.00 20.00    -0.168 F 
HETATM    7  F5  UNL     1     -32.462   7.247   3.917  1.00 20.00    -0.168 F 
HETATM    8  F6  UNL     1     -34.273   8.313   4.495  1.00 20.00    -0.168 F 
ENDBRANCH   2   5
TORSDOF 1
ENDMDL
MODEL 5
REMARK VINA RESULT:      -4.4      1.348      2.295
REMARK  1 active torsions:
REMARK  status: ('A' for Active; 'I' for Inactive)
REMARK    1  A    between atoms: C2_2  and  C3_3 
ROOT
HETATM    1  C1  UNL     1     -33.637   4.954   3.654  1.00 20.00     0.060 C 
HETATM    2  C2  UNL     1     -34.284   5.908   4.653  1.00 20.00     0.206 C 
HETATM    3 CL7  UNL     1     -35.969   6.240   4.138  1.00 20.00    -0.092 Cl
HETATM    4 CL8  UNL     1     -34.331   5.123   6.264  1.00 20.00    -0.092 Cl
ENDROOT
BRANCH   2   5
HETATM    5  C3  UNL     1     -33.517   7.219   4.751  1.00 20.00     0.422 C 
HETATM    6  F4  UNL     1     -33.010   7.401   5.992  1.00 20.00    -0.168 F 
HETATM    7  F5  UNL     1     -32.476   7.246   3.887  1.00 20.00    -0.168 F 
HETATM    8  F6  UNL     1     -34.302   8.283   4.473  1.00 20.00    -0.168 F 
ENDBRANCH   2   5
TORSDOF 1
ENDMDL
MODEL 6
REMARK VINA RESULT:      -4.2      1.634      2.339
REMARK  1 active torsions:
REMARK  status: ('A' for Active; 'I' for Inactive)
REMARK    1  A    between atoms: C2_2  and  C3_3 
ROOT
HETATM    1  C1  UNL     1     -33.883   4.518   4.282  1.00 20.00     0.060 C 
HETATM    2  C2  UNL     1     -34.358   5.874   4.796  1.00 20.00     0.206 C 
HETATM    3 CL7  UNL     1     -33.256   7.150   4.188  1.00 20.00    -0.092 Cl
HETATM    4 CL8  UNL     1     -36.002   6.197   4.156  1.00 20.00    -0.092 Cl
ENDROOT
BRANCH   2   5
HETATM    5  C3  UNL     1     -34.390   5.914   6.317  1.00 20.00     0.422 C 
HETATM    6  F4  UNL     1     -33.338   5.251   6.849  1.00 20.00    -0.168 F 
HETATM    7  F5  UNL     1     -34.337   7.185   6.778  1.00 20.00    -0.168 F 
HETATM    8  F6  UNL     1     -35.515   5.352   6.811  1.00 20.00    -0.168 F 
ENDBRANCH   2   5
TORSDOF 1
ENDMDL
MODEL 7
REMARK VINA RESULT:      -4.2      1.519      2.678
REMARK  1 active torsions:
REMARK  status: ('A' for Active; 'I' for Inactive)
REMARK    1  A    between atoms: C2_2  and  C3_3 
ROOT
HETATM    1  C1  UNL     1     -33.429   6.993   4.259  1.00 20.00     0.060 C 
HETATM    2  C2  UNL     1     -34.367   5.926   4.813  1.00 20.00     0.206 C 
HETATM    3 CL7  UNL     1     -36.015   6.200   4.162  1.00 20.00    -0.092 Cl
HETATM    4 CL8  UNL     1     -33.806   4.313   4.265  1.00 20.00    -0.092 Cl
ENDROOT
BRANCH   2   5
HETATM    5  C3  UNL     1     -34.412   5.956   6.334  1.00 20.00     0.422 C 
HETATM    6  F4  UNL     1     -35.481   5.278   6.809  1.00 20.00    -0.168 F 
HETATM    7  F5  UNL     1     -33.308   5.387   6.871  1.00 20.00    -0.168 F 
HETATM    8  F6  UNL     1     -34.489   7.219   6.809  1.00 20.00    -0.168 F 
ENDBRANCH   2   5
TORSDOF 1
ENDMDL
MODEL 8
REMARK VINA RESULT:      -3.8      2.343      2.957
REMARK  1 active torsions:
REMARK  status: ('A' for Active; 'I' for Inactive)
REMARK    1  A    between atoms: C2_2  and  C3_3 
ROOT
HETATM    1  C1  UNL     1     -34.625   8.124   4.526  1.00 20.00     0.060 C 
HETATM    2  C2  UNL     1     -33.935   6.798   4.832  1.00 20.00     0.206 C 
HETATM    3 CL7  UNL     1     -32.707   6.471   3.568  1.00 20.00    -0.092 Cl
HETATM    4 CL8  UNL     1     -33.096   6.927   6.412  1.00 20.00    -0.092 Cl
ENDROOT
BRANCH   2   5
HETATM    5  C3  UNL     1     -34.931   5.649   4.881  1.00 20.00     0.422 C 
HETATM    6  F4  UNL     1     -35.253   5.330   6.155  1.00 20.00    -0.168 F 
HETATM    7  F5  UNL     1     -36.082   5.966   4.245  1.00 20.00    -0.168 F 
HETATM    8  F6  UNL     1     -34.440   4.533   4.297  1.00 20.00    -0.168 F 
ENDBRANCH   2   5
TORSDOF 1
ENDMDL
MODEL 9
REMARK VINA RESULT:      -3.7      8.201      9.131
REMARK  1 active torsions:
REMARK  status: ('A' for Active; 'I' for Inactive)
REMARK    1  A    between atoms: C2_2  and  C3_3 
ROOT
HETATM    1  C1  UNL     1     -43.154   5.693  -0.636  1.00 20.00     0.060 C 
HETATM    2  C2  UNL     1     -42.263   6.068   0.544  1.00 20.00     0.206 C 
HETATM    3 CL7  UNL     1     -43.091   7.316   1.529  1.00 20.00    -0.092 Cl
HETATM    4 CL8  UNL     1     -42.009   4.618   1.568  1.00 20.00    -0.092 Cl
ENDROOT
BRANCH   2   5
HETATM    5  C3  UNL     1     -40.916   6.601   0.079  1.00 20.00     0.422 C 
HETATM    6  F4  UNL     1     -40.142   6.964   1.127  1.00 20.00    -0.168 F 
HETATM    7  F5  UNL     1     -40.230   5.666  -0.619  1.00 20.00    -0.168 F 
HETATM    8  F6  UNL     1     -41.051   7.683  -0.719  1.00 20.00    -0.168 F 
ENDBRANCH   2   5
TORSDOF 1
ENDMDL
