MODEL 1
REMARK VINA RESULT:      -4.5      0.000      0.000
REMARK  2 active torsions:
REMARK  status: ('A' for Active; 'I' for Inactive)
REMARK    1  A    between atoms: C1_1  and  C3_3 
REMARK    2  A    between atoms: C2_2  and  C5_5 
ROOT
HETATM    1  C1  UNL     1     -34.760   7.026   5.140  1.00 20.00     0.005 C 
HETATM    2  C2  UNL     1     -35.079   5.937   4.427  1.00 20.00     0.068 C 
ENDROOT
BRANCH   1   3
HETATM    3  C3  UNL     1     -33.422   7.270   5.636  1.00 20.00    -0.004 C 
HETATM    4  C4  UNL     1     -32.537   8.053   5.004  1.00 20.00    -0.031 C 
HETATM    5  C6  UNL     1     -32.827   8.765   3.722  1.00 20.00     0.036 C 
ENDBRANCH   1   3
BRANCH   2   6
HETATM    6  C5  UNL     1     -34.049   4.904   4.101  1.00 20.00     0.241 C 
HETATM    7  O7  UNL     1     -33.947   3.887   4.783  1.00 20.00    -0.275 OA
HETATM    8 CL8  UNL     1     -33.038   5.256   2.715  1.00 20.00    -0.039 Cl
ENDBRANCH   2   6
TORSDOF 2
ENDMDL
MODEL 2
REMARK VINA RESULT:      -4.5      2.331      3.547
REMARK  2 active torsions:
REMARK  status: ('A' for Active; 'I' for Inactive)
REMARK    1  A    between atoms: C1_1  and  C3_3 
REMARK    2  A    between atoms: C2_2  and  C5_5 
ROOT
HETATM    1  C1  UNL     1     -33.525   7.740   5.486  1.00 20.00     0.005 C 
HETATM    2  C2  UNL     1     -32.530   8.277   4.767  1.00 20.00     0.068 C 
ENDROOT
BRANCH   1   3
HETATM    3  C3  UNL     1     -34.616   7.006   4.882  1.00 20.00    -0.004 C 
HETATM    4  C4  UNL     1     -34.984   5.780   5.279  1.00 20.00    -0.031 C 
HETATM    5  C6  UNL     1     -34.316   5.032   6.386  1.00 20.00     0.036 C 
ENDBRANCH   1   3
BRANCH   2   6
HETATM    6  C5  UNL     1     -32.498   8.141   3.279  1.00 20.00     0.241 C 
HETATM    7  O7  UNL     1     -32.629   9.127   2.558  1.00 20.00    -0.275 OA
HETATM    8 CL8  UNL     1     -32.265   6.514   2.675  1.00 20.00    -0.039 Cl
ENDBRANCH   2   6
TORSDOF 2
ENDMDL
MODEL 3
REMARK VINA RESULT:      -4.3      1.349      1.550
REMARK  2 active torsions:
REMARK  status: ('A' for Active; 'I' for Inactive)
REMARK    1  A    between atoms: C1_1  and  C3_3 
REMARK    2  A    between atoms: C2_2  and  C5_5 
ROOT
HETATM    1  C1  UNL     1     -33.734   7.184   6.169  1.00 20.00     0.005 C 
HETATM    2  C2  UNL     1     -34.084   5.929   5.856  1.00 20.00     0.068 C 
ENDROOT
BRANCH   1   3
HETATM    3  C3  UNL     1     -33.936   8.299   5.269  1.00 20.00    -0.004 C 
HETATM    4  C4  UNL     1     -33.056   8.645   4.320  1.00 20.00    -0.031 C 
HETATM    5  C6  UNL     1     -31.770   7.924   4.080  1.00 20.00     0.036 C 
ENDBRANCH   1   3
BRANCH   2   6
HETATM    6  C5  UNL     1     -34.716   5.615   4.539  1.00 20.00     0.241 C 
HETATM    7  O7  UNL     1     -35.922   5.779   4.369  1.00 20.00    -0.275 OA
HETATM    8 CL8  UNL     1     -33.629   5.015   3.304  1.00 20.00    -0.039 Cl
ENDBRANCH   2   6
TORSDOF 2
ENDMDL
MODEL 4
REMARK VINA RESULT:      -4.2      1.809      2.305
REMARK  2 active torsions:
REMARK  status: ('A' for Active; 'I' for Inactive)
REMARK    1  A    between atoms: C1_1  and  C3_3 
REMARK    2  A    between atoms: C2_2  and  C5_5 
ROOT
HETATM    1  C1  UNL     1     -33.064   8.128   4.941  1.00 20.00     0.005 C 
HETATM    2  C2  UNL     1     -33.949   7.660   5.831  1.00 20.00     0.068 C 
ENDROOT
BRANCH   1   3
HETATM    3  C3  UNL     1     -32.504   7.306   3.890  1.00 20.00    -0.004 C 
HETATM    4  C4  UNL     1     -32.335   7.738   2.632  1.00 20.00    -0.031 C 
HETATM    5  C6  UNL     1     -32.700   9.112   2.172  1.00 20.00     0.036 C 
ENDBRANCH   1   3
BRANCH   2   6
HETATM    6  C5  UNL     1     -34.411   6.240   5.779  1.00 20.00     0.241 C 
HETATM    7  O7  UNL     1     -34.032   5.428   6.620  1.00 20.00    -0.275 OA
HETATM    8 CL8  UNL     1     -35.500   5.847   4.465  1.00 20.00    -0.039 Cl
ENDBRANCH   2   6
TORSDOF 2
ENDMDL
MODEL 5
REMARK VINA RESULT:      -4.1      2.588      3.570
REMARK  2 active torsions:
REMARK  status: ('A' for Active; 'I' for Inactive)
REMARK    1  A    between atoms: C1_1  and  C3_3 
REMARK    2  A    between atoms: C2_2  and  C5_5 
ROOT
HETATM    1  C1  UNL     1     -33.646   5.277   3.501  1.00 20.00     0.005 C 
HETATM    2  C2  UNL     1     -32.553   5.814   2.941  1.00 20.00     0.068 C 
ENDROOT
BRANCH   1   3
HETATM    3  C3  UNL     1     -34.694   6.080   4.094  1.00 20.00    -0.004 C 
HETATM    4  C4  UNL     1     -34.979   6.063   5.403  1.00 20.00    -0.031 C 
HETATM    5  C6  UNL     1     -34.251   5.220   6.399  1.00 20.00     0.036 C 
ENDBRANCH   1   3
BRANCH   2   6
HETATM    6  C5  UNL     1     -32.362   7.296   2.899  1.00 20.00     0.241 C 
HETATM    7  O7  UNL     1     -32.341   7.893   1.826  1.00 20.00    -0.275 OA
HETATM    8 CL8  UNL     1     -32.177   8.078   4.455  1.00 20.00    -0.039 Cl
ENDBRANCH   2   6
TORSDOF 2
ENDMDL
MODEL 6
REMARK VINA RESULT:      -4.0      2.042      2.599
REMARK  2 active torsions:
REMARK  status: ('A' for Active; 'I' for Inactive)
REMARK    1  A    between atoms: C1_1  and  C3_3 
REMARK    2  A    between atoms: C2_2  and  C5_5 
ROOT
HETATM    1  C1  UNL     1     -32.899   8.149   4.623  1.00 20.00     0.005 C 
HETATM    2  C2  UNL     1     -33.867   7.740   5.454  1.00 20.00     0.068 C 
ENDROOT
BRANCH   1   3
HETATM    3  C3  UNL     1     -32.393   7.324   3.547  1.00 20.00    -0.004 C 
HETATM    4  C4  UNL     1     -32.299   7.749   2.279  1.00 20.00    -0.031 C 
HETATM    5  C6  UNL     1     -32.701   9.117   1.831  1.00 20.00     0.036 C 
ENDBRANCH   1   3
BRANCH   2   6
HETATM    6  C5  UNL     1     -34.485   6.388   5.305  1.00 20.00     0.241 C 
HETATM    7  O7  UNL     1     -35.227   6.140   4.357  1.00 20.00    -0.275 OA
HETATM    8 CL8  UNL     1     -34.075   5.228   6.552  1.00 20.00    -0.039 Cl
ENDBRANCH   2   6
TORSDOF 2
ENDMDL
MODEL 7
REMARK VINA RESULT:      -4.0      1.709      1.709
REMARK  2 active torsions:
REMARK  status: ('A' for Active; 'I' for Inactive)
REMARK    1  A    between atoms: C1_1  and  C3_3 
REMARK    2  A    between atoms: C2_2  and  C5_5 
ROOT
HETATM    1  C1  UNL     1     -34.657   7.417   4.492  1.00 20.00     0.005 C 
HETATM    2  C2  UNL     1     -35.197   6.190   4.491  1.00 20.00     0.068 C 
ENDROOT
BRANCH   1   3
HETATM    3  C3  UNL     1     -33.352   7.695   5.052  1.00 20.00    -0.004 C 
HETATM    4  C4  UNL     1     -32.259   7.890   4.303  1.00 20.00    -0.031 C 
HETATM    5  C6  UNL     1     -32.259   7.844   2.809  1.00 20.00     0.036 C 
ENDBRANCH   1   3
BRANCH   2   6
HETATM    6  C5  UNL     1     -34.462   5.028   5.077  1.00 20.00     0.241 C 
HETATM    7  O7  UNL     1     -34.069   4.111   4.359  1.00 20.00    -0.275 OA
HETATM    8 CL8  UNL     1     -34.218   5.084   6.810  1.00 20.00    -0.039 Cl
ENDBRANCH   2   6
TORSDOF 2
ENDMDL
MODEL 8
REMARK VINA RESULT:      -3.9      2.283      3.530
REMARK  2 active torsions:
REMARK  status: ('A' for Active; 'I' for Inactive)
REMARK    1  A    between atoms: C1_1  and  C3_3 
REMARK    2  A    between atoms: C2_2  and  C5_5 
ROOT
HETATM    1  C1  UNL     1     -34.199   6.178   6.370  1.00 20.00     0.005 C 
HETATM    2  C2  UNL     1     -33.275   7.147   6.345  1.00 20.00     0.068 C 
ENDROOT
BRANCH   1   3
HETATM    3  C3  UNL     1     -35.168   5.996   5.310  1.00 20.00    -0.004 C 
HETATM    4  C4  UNL     1     -34.992   5.140   4.294  1.00 20.00    -0.031 C 
HETATM    5  C6  UNL     1     -33.783   4.277   4.138  1.00 20.00     0.036 C 
ENDBRANCH   1   3
BRANCH   2   6
HETATM    6  C5  UNL     1     -33.197   8.104   5.200  1.00 20.00     0.241 C 
HETATM    7  O7  UNL     1     -33.769   9.190   5.253  1.00 20.00    -0.275 OA
HETATM    8 CL8  UNL     1     -32.254   7.564   3.826  1.00 20.00    -0.039 Cl
ENDBRANCH   2   6
TORSDOF 2
ENDMDL
MODEL 9
REMARK VINA RESULT:      -3.9      2.119      2.499
REMARK  2 active torsions:
REMARK  status: ('A' for Active; 'I' for Inactive)
REMARK    1  A    between atoms: C1_1  and  C3_3 
REMARK    2  A    between atoms: C2_2  and  C5_5 
ROOT
HETATM    1  C1  UNL     1     -32.853   5.917   3.231  1.00 20.00     0.005 C 
HETATM    2  C2  UNL     1     -33.818   5.085   3.644  1.00 20.00     0.068 C 
ENDROOT
BRANCH   1   3
HETATM    3  C3  UNL     1     -32.712   7.264   3.740  1.00 20.00    -0.004 C 
HETATM    4  C4  UNL     1     -32.397   8.312   2.966  1.00 20.00    -0.031 C 
HETATM    5  C6  UNL     1     -32.159   8.213   1.494  1.00 20.00     0.036 C 
ENDBRANCH   1   3
BRANCH   2   6
HETATM    6  C5  UNL     1     -34.813   5.516   4.673  1.00 20.00     0.241 C 
HETATM    7  O7  UNL     1     -35.897   5.987   4.335  1.00 20.00    -0.275 OA
HETATM    8 CL8  UNL     1     -34.320   5.298   6.339  1.00 20.00    -0.039 Cl
ENDBRANCH   2   6
TORSDOF 2
ENDMDL
