MODEL 1
REMARK VINA RESULT:      -4.8      0.000      0.000
REMARK  4 active torsions:
REMARK  status: ('A' for Active; 'I' for Inactive)
REMARK    1  A    between atoms: C2_2  and  C4_4 
REMARK    2  A    between atoms: C3_3  and  C7_7 
REMARK    3  A    between atoms: C6_6  and  O10_10 
REMARK    4  A    between atoms: C7_7  and  O10_10 
ROOT
HETATM    1  C2  UNL     1     -33.444   7.224   5.826  1.00 20.00     0.006 C 
HETATM    2  C3  UNL     1     -33.663   7.914   4.699  1.00 20.00     0.082 C 
ENDROOT
BRANCH   2   3
HETATM    3  C7  UNL     1     -32.577   8.734   4.113  1.00 20.00     0.287 C 
HETATM    4  O9  UNL     1     -31.935   9.579   4.719  1.00 20.00    -0.260 OA
BRANCH   3   5
HETATM    5  O10 UNL     1     -32.457   8.364   2.802  1.00 20.00    -0.289 OA
BRANCH   5   6
HETATM    6  C6  UNL     1     -32.791   9.362   1.907  1.00 20.00     0.135 C 
HETATM    7  C1  UNL     1     -32.698   9.261   0.579  1.00 20.00     0.038 C 
ENDBRANCH   5   6
ENDBRANCH   3   5
ENDBRANCH   2   3
BRANCH   1   8
HETATM    8  C4  UNL     1     -34.461   6.407   6.452  1.00 20.00    -0.004 C 
HETATM    9  C5  UNL     1     -34.863   5.228   5.955  1.00 20.00    -0.031 C 
HETATM   10  C8  UNL     1     -34.313   4.625   4.704  1.00 20.00     0.036 C 
ENDBRANCH   1   8
TORSDOF 4
ENDMDL
MODEL 2
REMARK VINA RESULT:      -4.7      1.215      1.360
REMARK  4 active torsions:
REMARK  status: ('A' for Active; 'I' for Inactive)
REMARK    1  A    between atoms: C2_2  and  C4_4 
REMARK    2  A    between atoms: C3_3  and  C7_7 
REMARK    3  A    between atoms: C6_6  and  O10_10 
REMARK    4  A    between atoms: C7_7  and  O10_10 
ROOT
HETATM    1  C2  UNL     1     -33.437   7.148   6.011  1.00 20.00     0.006 C 
HETATM    2  C3  UNL     1     -33.708   8.088   5.095  1.00 20.00     0.082 C 
ENDROOT
BRANCH   2   3
HETATM    3  C7  UNL     1     -32.602   8.863   4.485  1.00 20.00     0.287 C 
HETATM    4  O9  UNL     1     -31.842   9.596   5.099  1.00 20.00    -0.260 OA
BRANCH   3   5
HETATM    5  O10 UNL     1     -32.621   8.602   3.143  1.00 20.00    -0.289 OA
BRANCH   5   6
HETATM    6  C6  UNL     1     -31.955   7.444   2.790  1.00 20.00     0.135 C 
HETATM    7  C1  UNL     1     -32.543   6.287   2.480  1.00 20.00     0.038 C 
ENDBRANCH   5   6
ENDBRANCH   3   5
ENDBRANCH   2   3
BRANCH   1   8
HETATM    8  C4  UNL     1     -34.468   6.357   6.647  1.00 20.00    -0.004 C 
HETATM    9  C5  UNL     1     -34.961   5.230   6.114  1.00 20.00    -0.031 C 
HETATM   10  C8  UNL     1     -34.508   4.663   4.808  1.00 20.00     0.036 C 
ENDBRANCH   1   8
TORSDOF 4
ENDMDL
MODEL 3
REMARK VINA RESULT:      -4.3     11.392     11.896
REMARK  4 active torsions:
REMARK  status: ('A' for Active; 'I' for Inactive)
REMARK    1  A    between atoms: C2_2  and  C4_4 
REMARK    2  A    between atoms: C3_3  and  C7_7 
REMARK    3  A    between atoms: C6_6  and  O10_10 
REMARK    4  A    between atoms: C7_7  and  O10_10 
ROOT
HETATM    1  C2  UNL     1     -30.525  18.606   2.128  1.00 20.00     0.006 C 
HETATM    2  C3  UNL     1     -31.635  18.796   1.402  1.00 20.00     0.082 C 
ENDROOT
BRANCH   2   3
HETATM    3  C7  UNL     1     -31.630  18.488  -0.047  1.00 20.00     0.287 C 
HETATM    4  O9  UNL     1     -30.674  18.644  -0.791  1.00 20.00    -0.260 OA
BRANCH   3   5
HETATM    5  O10 UNL     1     -32.876  18.022  -0.363  1.00 20.00    -0.289 OA
BRANCH   5   6
HETATM    6  C6  UNL     1     -33.083  17.853  -1.719  1.00 20.00     0.135 C 
HETATM    7  C1  UNL     1     -33.444  16.707  -2.301  1.00 20.00     0.038 C 
ENDBRANCH   5   6
ENDBRANCH   3   5
ENDBRANCH   2   3
BRANCH   1   8
HETATM    8  C4  UNL     1     -30.461  18.887   3.545  1.00 20.00    -0.004 C 
HETATM    9  C5  UNL     1     -29.307  19.020   4.216  1.00 20.00    -0.031 C 
HETATM   10  C8  UNL     1     -27.961  18.893   3.581  1.00 20.00     0.036 C 
ENDBRANCH   1   8
TORSDOF 4
ENDMDL
MODEL 4
REMARK VINA RESULT:      -4.2      1.534      4.843
REMARK  4 active torsions:
REMARK  status: ('A' for Active; 'I' for Inactive)
REMARK    1  A    between atoms: C2_2  and  C4_4 
REMARK    2  A    between atoms: C3_3  and  C7_7 
REMARK    3  A    between atoms: C6_6  and  O10_10 
REMARK    4  A    between atoms: C7_7  and  O10_10 
ROOT
HETATM    1  C2  UNL     1     -32.557   8.214   3.125  1.00 20.00     0.006 C 
HETATM    2  C3  UNL     1     -32.819   7.395   4.152  1.00 20.00     0.082 C 
ENDROOT
BRANCH   2   3
HETATM    3  C7  UNL     1     -33.363   7.947   5.415  1.00 20.00     0.287 C 
HETATM    4  O9  UNL     1     -33.754   9.094   5.565  1.00 20.00    -0.260 OA
BRANCH   3   5
HETATM    5  O10 UNL     1     -33.326   6.941   6.341  1.00 20.00    -0.289 OA
BRANCH   5   6
HETATM    6  C6  UNL     1     -34.493   6.205   6.414  1.00 20.00     0.135 C 
HETATM    7  C1  UNL     1     -34.671   4.998   5.874  1.00 20.00     0.038 C 
ENDBRANCH   5   6
ENDBRANCH   3   5
ENDBRANCH   2   3
BRANCH   1   8
HETATM    8  C4  UNL     1     -32.024   7.743   1.866  1.00 20.00    -0.004 C 
HETATM    9  C5  UNL     1     -32.166   8.411   0.712  1.00 20.00    -0.031 C 
HETATM   10  C8  UNL     1     -32.888   9.713   0.593  1.00 20.00     0.036 C 
ENDBRANCH   1   8
TORSDOF 4
ENDMDL
MODEL 5
REMARK VINA RESULT:      -4.2      2.646      4.294
REMARK  4 active torsions:
REMARK  status: ('A' for Active; 'I' for Inactive)
REMARK    1  A    between atoms: C2_2  and  C4_4 
REMARK    2  A    between atoms: C3_3  and  C7_7 
REMARK    3  A    between atoms: C6_6  and  O10_10 
REMARK    4  A    between atoms: C7_7  and  O10_10 
ROOT
HETATM    1  C2  UNL     1     -33.257   7.450   5.617  1.00 20.00     0.006 C 
HETATM    2  C3  UNL     1     -34.432   6.897   5.287  1.00 20.00     0.082 C 
ENDROOT
BRANCH   2   3
HETATM    3  C7  UNL     1     -34.766   5.534   5.762  1.00 20.00     0.287 C 
HETATM    4  O9  UNL     1     -34.838   5.201   6.935  1.00 20.00    -0.260 OA
BRANCH   3   5
HETATM    5  O10 UNL     1     -34.957   4.758   4.652  1.00 20.00    -0.289 OA
BRANCH   5   6
HETATM    6  C6  UNL     1     -33.786   4.378   4.027  1.00 20.00     0.135 C 
HETATM    7  C1  UNL     1     -33.377   4.817   2.834  1.00 20.00     0.038 C 
ENDBRANCH   5   6
ENDBRANCH   3   5
ENDBRANCH   2   3
BRANCH   1   8
HETATM    8  C4  UNL     1     -32.868   8.774   5.187  1.00 20.00    -0.004 C 
HETATM    9  C5  UNL     1     -32.333   9.028   3.983  1.00 20.00    -0.031 C 
HETATM   10  C8  UNL     1     -32.077   7.977   2.953  1.00 20.00     0.036 C 
ENDBRANCH   1   8
TORSDOF 4
ENDMDL
MODEL 6
REMARK VINA RESULT:      -4.2      1.164      1.689
REMARK  4 active torsions:
REMARK  status: ('A' for Active; 'I' for Inactive)
REMARK    1  A    between atoms: C2_2  and  C4_4 
REMARK    2  A    between atoms: C3_3  and  C7_7 
REMARK    3  A    between atoms: C6_6  and  O10_10 
REMARK    4  A    between atoms: C7_7  and  O10_10 
ROOT
HETATM    1  C2  UNL     1     -33.661   7.525   4.589  1.00 20.00     0.006 C 
HETATM    2  C3  UNL     1     -32.592   8.139   4.065  1.00 20.00     0.082 C 
ENDROOT
BRANCH   2   3
HETATM    3  C7  UNL     1     -32.390   8.143   2.597  1.00 20.00     0.287 C 
HETATM    4  O9  UNL     1     -31.882   7.235   1.959  1.00 20.00    -0.260 OA
BRANCH   3   5
HETATM    5  O10 UNL     1     -32.865   9.338   2.130  1.00 20.00    -0.289 OA
BRANCH   5   6
HETATM    6  C6  UNL     1     -32.542   9.591   0.812  1.00 20.00     0.135 C 
HETATM    7  C1  UNL     1     -33.180   9.083  -0.245  1.00 20.00     0.038 C 
ENDBRANCH   5   6
ENDBRANCH   3   5
ENDBRANCH   2   3
BRANCH   1   8
HETATM    8  C4  UNL     1     -33.918   7.481   6.012  1.00 20.00    -0.004 C 
HETATM    9  C5  UNL     1     -34.376   6.390   6.642  1.00 20.00    -0.031 C 
HETATM   10  C8  UNL     1     -34.675   5.099   5.952  1.00 20.00     0.036 C 
ENDBRANCH   1   8
TORSDOF 4
ENDMDL
MODEL 7
REMARK VINA RESULT:      -4.2      2.692      5.029
REMARK  4 active torsions:
REMARK  status: ('A' for Active; 'I' for Inactive)
REMARK    1  A    between atoms: C2_2  and  C4_4 
REMARK    2  A    between atoms: C3_3  and  C7_7 
REMARK    3  A    between atoms: C6_6  and  O10_10 
REMARK    4  A    between atoms: C7_7  and  O10_10 
ROOT
HETATM    1  C2  UNL     1     -32.690   6.243   3.375  1.00 20.00     0.006 C 
HETATM    2  C3  UNL     1     -33.945   5.808   3.551  1.00 20.00     0.082 C 
ENDROOT
BRANCH   2   3
HETATM    3  C7  UNL     1     -34.197   4.593   4.362  1.00 20.00     0.287 C 
HETATM    4  O9  UNL     1     -33.661   3.510   4.184  1.00 20.00    -0.260 OA
BRANCH   3   5
HETATM    5  O10 UNL     1     -35.126   4.928   5.308  1.00 20.00    -0.289 OA
BRANCH   5   6
HETATM    6  C6  UNL     1     -34.583   5.465   6.459  1.00 20.00     0.135 C 
HETATM    7  C1  UNL     1     -34.356   6.764   6.664  1.00 20.00     0.038 C 
ENDBRANCH   5   6
ENDBRANCH   3   5
ENDBRANCH   2   3
BRANCH   1   8
HETATM    8  C4  UNL     1     -32.374   7.419   2.594  1.00 20.00    -0.004 C 
HETATM    9  C5  UNL     1     -32.210   8.636   3.133  1.00 20.00    -0.031 C 
HETATM   10  C8  UNL     1     -32.335   8.918   4.595  1.00 20.00     0.036 C 
ENDBRANCH   1   8
TORSDOF 4
ENDMDL
MODEL 8
REMARK VINA RESULT:      -4.1     11.502     12.214
REMARK  4 active torsions:
REMARK  status: ('A' for Active; 'I' for Inactive)
REMARK    1  A    between atoms: C2_2  and  C4_4 
REMARK    2  A    between atoms: C3_3  and  C7_7 
REMARK    3  A    between atoms: C6_6  and  O10_10 
REMARK    4  A    between atoms: C7_7  and  O10_10 
ROOT
HETATM    1  C2  UNL     1     -31.067  19.028   0.749  1.00 20.00     0.006 C 
HETATM    2  C3  UNL     1     -30.667  18.236   1.753  1.00 20.00     0.082 C 
ENDROOT
BRANCH   2   3
HETATM    3  C7  UNL     1     -30.342  18.826   3.073  1.00 20.00     0.287 C 
HETATM    4  O9  UNL     1     -31.155  19.064   3.952  1.00 20.00    -0.260 OA
BRANCH   3   5
HETATM    5  O10 UNL     1     -28.993  19.049   3.091  1.00 20.00    -0.289 OA
BRANCH   5   6
HETATM    6  C6  UNL     1     -28.431  18.978   4.351  1.00 20.00     0.135 C 
HETATM    7  C1  UNL     1     -27.350  18.262   4.668  1.00 20.00     0.038 C 
ENDBRANCH   5   6
ENDBRANCH   3   5
ENDBRANCH   2   3
BRANCH   1   8
HETATM    8  C4  UNL     1     -31.398  18.518  -0.564  1.00 20.00    -0.004 C 
HETATM    9  C5  UNL     1     -32.629  18.108  -0.903  1.00 20.00    -0.031 C 
HETATM   10  C8  UNL     1     -33.795  18.130   0.030  1.00 20.00     0.036 C 
ENDBRANCH   1   8
TORSDOF 4
ENDMDL
MODEL 9
REMARK VINA RESULT:      -4.1      1.845      3.012
REMARK  4 active torsions:
REMARK  status: ('A' for Active; 'I' for Inactive)
REMARK    1  A    between atoms: C2_2  and  C4_4 
REMARK    2  A    between atoms: C3_3  and  C7_7 
REMARK    3  A    between atoms: C6_6  and  O10_10 
REMARK    4  A    between atoms: C7_7  and  O10_10 
ROOT
HETATM    1  C2  UNL     1     -34.012   4.867   4.724  1.00 20.00     0.006 C 
HETATM    2  C3  UNL     1     -33.923   5.741   3.712  1.00 20.00     0.082 C 
ENDROOT
BRANCH   2   3
HETATM    3  C7  UNL     1     -32.948   5.507   2.621  1.00 20.00     0.287 C 
HETATM    4  O9  UNL     1     -32.683   4.415   2.142  1.00 20.00    -0.260 OA
BRANCH   3   5
HETATM    5  O10 UNL     1     -32.422   6.724   2.285  1.00 20.00    -0.289 OA
BRANCH   5   6
HETATM    6  C6  UNL     1     -32.160   7.538   3.370  1.00 20.00     0.135 C 
HETATM    7  C1  UNL     1     -32.495   8.827   3.458  1.00 20.00     0.038 C 
ENDBRANCH   5   6
ENDBRANCH   3   5
ENDBRANCH   2   3
BRANCH   1   8
HETATM    8  C4  UNL     1     -34.940   5.035   5.821  1.00 20.00    -0.004 C 
HETATM    9  C5  UNL     1     -34.915   6.089   6.650  1.00 20.00    -0.031 C 
HETATM   10  C8  UNL     1     -33.929   7.206   6.538  1.00 20.00     0.036 C 
ENDBRANCH   1   8
TORSDOF 4
ENDMDL
