MODEL 1
REMARK VINA RESULT:      -3.3      0.000      0.000
REMARK  0 active torsions:
REMARK  status: ('A' for Active; 'I' for Inactive)
ROOT
HETATM    1  C1  UNL     1     -34.922  19.228  -1.827  1.00 20.00     0.005 C 
HETATM    2  C2  UNL     1     -33.674  17.047  -1.408  1.00 20.00     0.005 C 
HETATM    3  C3  UNL     1     -32.444  19.050  -2.387  1.00 20.00     0.005 C 
HETATM    4  C4  UNL     1     -35.770  18.481  -2.848  1.00 20.00     0.006 C 
HETATM    5  C5  UNL     1     -33.402  16.312  -2.715  1.00 20.00     0.006 C 
HETATM    6  C6  UNL     1     -32.816  19.262  -3.849  1.00 20.00     0.006 C 
HETATM    7  C7  UNL     1     -33.580  18.576  -1.474  1.00 20.00    -0.014 C 
HETATM    8  C8  UNL     1     -35.084  17.926  -4.052  1.00 20.00    -0.006 A 
HETATM    9  C9  UNL     1     -34.012  16.857  -3.961  1.00 20.00    -0.006 A 
HETATM   10  C10 UNL     1     -33.669  18.230  -4.507  1.00 20.00    -0.006 A 
ENDROOT
TORSDOF 0
ENDMDL
MODEL 2
REMARK VINA RESULT:      -3.3      0.190      2.375
REMARK  0 active torsions:
REMARK  status: ('A' for Active; 'I' for Inactive)
ROOT
HETATM    1  C1  UNL     1     -32.522  19.071  -2.568  1.00 20.00     0.005 C 
HETATM    2  C2  UNL     1     -35.003  19.149  -1.998  1.00 20.00     0.005 C 
HETATM    3  C3  UNL     1     -33.666  17.023  -1.577  1.00 20.00     0.005 C 
HETATM    4  C4  UNL     1     -32.910  19.263  -4.029  1.00 20.00     0.006 C 
HETATM    5  C5  UNL     1     -35.824  18.364  -3.013  1.00 20.00     0.006 C 
HETATM    6  C6  UNL     1     -33.368  16.295  -2.881  1.00 20.00     0.006 C 
HETATM    7  C7  UNL     1     -33.634  18.554  -1.648  1.00 20.00    -0.014 C 
HETATM    8  C8  UNL     1     -33.723  18.194  -4.680  1.00 20.00    -0.006 A 
HETATM    9  C9  UNL     1     -35.121  17.834  -4.217  1.00 20.00    -0.006 A 
HETATM   10  C10 UNL     1     -34.006  16.810  -4.127  1.00 20.00    -0.006 A 
ENDROOT
TORSDOF 0
ENDMDL
MODEL 3
REMARK VINA RESULT:      -3.3      0.318      2.438
REMARK  0 active torsions:
REMARK  status: ('A' for Active; 'I' for Inactive)
ROOT
HETATM    1  C1  UNL     1     -33.665  17.066  -1.696  1.00 20.00     0.005 C 
HETATM    2  C2  UNL     1     -32.541  19.080  -2.779  1.00 20.00     0.005 C 
HETATM    3  C3  UNL     1     -34.980  19.217  -2.061  1.00 20.00     0.005 C 
HETATM    4  C4  UNL     1     -33.462  16.319  -3.008  1.00 20.00     0.006 C 
HETATM    5  C5  UNL     1     -33.013  19.263  -4.216  1.00 20.00     0.006 C 
HETATM    6  C6  UNL     1     -35.878  18.440  -3.015  1.00 20.00     0.006 C 
HETATM    7  C7  UNL     1     -33.606  18.596  -1.788  1.00 20.00    -0.014 C 
HETATM    8  C8  UNL     1     -34.163  16.835  -4.220  1.00 20.00    -0.006 A 
HETATM    9  C9  UNL     1     -33.885  18.206  -4.804  1.00 20.00    -0.006 A 
HETATM   10  C10 UNL     1     -35.260  17.881  -4.253  1.00 20.00    -0.006 A 
ENDROOT
TORSDOF 0
ENDMDL
MODEL 4
REMARK VINA RESULT:      -3.2      0.683      2.923
REMARK  0 active torsions:
REMARK  status: ('A' for Active; 'I' for Inactive)
ROOT
HETATM    1  C1  UNL     1     -33.665  16.714  -4.117  1.00 20.00     0.005 C 
HETATM    2  C2  UNL     1     -35.733  18.116  -3.619  1.00 20.00     0.005 C 
HETATM    3  C3  UNL     1     -33.574  19.249  -4.355  1.00 20.00     0.005 C 
HETATM    4  C4  UNL     1     -33.662  16.301  -2.651  1.00 20.00     0.006 C 
HETATM    5  C5  UNL     1     -35.595  18.843  -2.288  1.00 20.00     0.006 C 
HETATM    6  C6  UNL     1     -32.550  19.262  -3.228  1.00 20.00     0.006 C 
HETATM    7  C7  UNL     1     -34.447  17.992  -4.445  1.00 20.00    -0.014 C 
HETATM    8  C8  UNL     1     -33.450  17.366  -1.627  1.00 20.00    -0.006 A 
HETATM    9  C9  UNL     1     -34.413  18.521  -1.437  1.00 20.00    -0.006 A 
HETATM   10  C10 UNL     1     -32.988  18.787  -1.883  1.00 20.00    -0.006 A 
ENDROOT
TORSDOF 0
ENDMDL
MODEL 5
REMARK VINA RESULT:      -3.2      0.682      2.937
REMARK  0 active torsions:
REMARK  status: ('A' for Active; 'I' for Inactive)
ROOT
HETATM    1  C1  UNL     1     -33.570  19.216  -4.377  1.00 20.00     0.005 C 
HETATM    2  C2  UNL     1     -33.629  16.685  -4.090  1.00 20.00     0.005 C 
HETATM    3  C3  UNL     1     -35.717  18.068  -3.626  1.00 20.00     0.005 C 
HETATM    4  C4  UNL     1     -32.550  19.263  -3.247  1.00 20.00     0.006 C 
HETATM    5  C5  UNL     1     -33.624  16.300  -2.616  1.00 20.00     0.006 C 
HETATM    6  C6  UNL     1     -35.593  18.822  -2.308  1.00 20.00     0.006 C 
HETATM    7  C7  UNL     1     -34.427  17.946  -4.445  1.00 20.00    -0.014 C 
HETATM    8  C8  UNL     1     -32.986  18.809  -1.894  1.00 20.00    -0.006 A 
HETATM    9  C9  UNL     1     -33.429  17.386  -1.613  1.00 20.00    -0.006 A 
HETATM   10  C10 UNL     1     -34.409  18.532  -1.448  1.00 20.00    -0.006 A 
ENDROOT
TORSDOF 0
ENDMDL
MODEL 6
REMARK VINA RESULT:      -3.2      0.683      2.924
REMARK  0 active torsions:
REMARK  status: ('A' for Active; 'I' for Inactive)
ROOT
HETATM    1  C1  UNL     1     -35.736  18.137  -3.620  1.00 20.00     0.005 C 
HETATM    2  C2  UNL     1     -33.577  19.250  -4.386  1.00 20.00     0.005 C 
HETATM    3  C3  UNL     1     -33.683  16.719  -4.132  1.00 20.00     0.005 C 
HETATM    4  C4  UNL     1     -35.579  18.872  -2.296  1.00 20.00     0.006 C 
HETATM    5  C5  UNL     1     -32.541  19.263  -3.270  1.00 20.00     0.006 C 
HETATM    6  C6  UNL     1     -33.666  16.314  -2.663  1.00 20.00     0.006 C 
HETATM    7  C7  UNL     1     -34.460  17.999  -4.459  1.00 20.00    -0.014 C 
HETATM    8  C8  UNL     1     -34.389  18.547  -1.455  1.00 20.00    -0.006 A 
HETATM    9  C9  UNL     1     -32.968  18.800  -1.918  1.00 20.00    -0.006 A 
HETATM   10  C10 UNL     1     -33.436  17.383  -1.649  1.00 20.00    -0.006 A 
ENDROOT
TORSDOF 0
ENDMDL
MODEL 7
REMARK VINA RESULT:      -3.2     11.764     12.990
REMARK  0 active torsions:
REMARK  status: ('A' for Active; 'I' for Inactive)
ROOT
HETATM    1  C1  UNL     1     -42.508  15.201   5.410  1.00 20.00     0.005 C 
HETATM    2  C2  UNL     1     -43.417  13.329   6.878  1.00 20.00     0.005 C 
HETATM    3  C3  UNL     1     -41.747  14.997   7.832  1.00 20.00     0.005 C 
HETATM    4  C4  UNL     1     -41.864  14.130   4.540  1.00 20.00     0.006 C 
HETATM    5  C5  UNL     1     -42.370  12.243   7.093  1.00 20.00     0.006 C 
HETATM    6  C6  UNL     1     -40.342  14.727   7.309  1.00 20.00     0.006 C 
HETATM    7  C7  UNL     1     -42.884  14.766   6.831  1.00 20.00    -0.014 C 
HETATM    8  C8  UNL     1     -40.812  13.270   5.159  1.00 20.00    -0.006 A 
HETATM    9  C9  UNL     1     -41.096  12.342   6.324  1.00 20.00    -0.006 A 
HETATM   10  C10 UNL     1     -40.127  13.496   6.493  1.00 20.00    -0.006 A 
ENDROOT
TORSDOF 0
ENDMDL
MODEL 8
REMARK VINA RESULT:      -3.2     11.720     12.973
REMARK  0 active torsions:
REMARK  status: ('A' for Active; 'I' for Inactive)
ROOT
HETATM    1  C1  UNL     1     -43.394  13.449   6.855  1.00 20.00     0.005 C 
HETATM    2  C2  UNL     1     -41.589  14.939   7.860  1.00 20.00     0.005 C 
HETATM    3  C3  UNL     1     -42.334  15.290   5.450  1.00 20.00     0.005 C 
HETATM    4  C4  UNL     1     -42.441  12.274   7.029  1.00 20.00     0.006 C 
HETATM    5  C5  UNL     1     -40.212  14.571   7.322  1.00 20.00     0.006 C 
HETATM    6  C6  UNL     1     -41.780  14.200   4.541  1.00 20.00     0.006 C 
HETATM    7  C7  UNL     1     -42.744  14.837   6.856  1.00 20.00    -0.014 C 
HETATM    8  C8  UNL     1     -41.162  12.294   6.259  1.00 20.00    -0.006 A 
HETATM    9  C9  UNL     1     -40.101  13.357   6.464  1.00 20.00    -0.006 A 
HETATM   10  C10 UNL     1     -40.804  13.235   5.125  1.00 20.00    -0.006 A 
ENDROOT
TORSDOF 0
ENDMDL
MODEL 9
REMARK VINA RESULT:      -3.2     13.972     15.196
REMARK  0 active torsions:
REMARK  status: ('A' for Active; 'I' for Inactive)
ROOT
HETATM    1  C1  UNL     1     -40.619   6.167  -0.048  1.00 20.00     0.005 C 
HETATM    2  C2  UNL     1     -41.947   4.643   1.502  1.00 20.00     0.005 C 
HETATM    3  C3  UNL     1     -42.884   5.262  -0.784  1.00 20.00     0.005 C 
HETATM    4  C4  UNL     1     -40.781   7.269   0.991  1.00 20.00     0.006 C 
HETATM    5  C5  UNL     1     -43.125   5.384   2.123  1.00 20.00     0.006 C 
HETATM    6  C6  UNL     1     -43.390   6.698  -0.799  1.00 20.00     0.006 C 
HETATM    7  C7  UNL     1     -41.622   5.011   0.050  1.00 20.00    -0.014 C 
HETATM    8  C8  UNL     1     -42.162   7.750   1.288  1.00 20.00    -0.006 A 
HETATM    9  C9  UNL     1     -43.230   6.852   1.881  1.00 20.00    -0.006 A 
HETATM   10  C10 UNL     1     -43.417   7.441   0.496  1.00 20.00    -0.006 A 
ENDROOT
TORSDOF 0
ENDMDL
