MODEL 1
REMARK VINA RESULT:      -4.1      0.000      0.000
REMARK  1 active torsions:
REMARK  status: ('A' for Active; 'I' for Inactive)
REMARK    1  A    between atoms: C8_8  and  C11_11 
ROOT
HETATM    1  C1  UNL     1     -33.538  17.019  -3.160  1.00 20.00    -0.076 C 
HETATM    2  C2  UNL     1     -34.280  14.803  -4.611  1.00 20.00     0.136 C 
HETATM    3  C3  UNL     1     -33.518  16.916  -1.833  1.00 20.00     0.015 C 
HETATM    4  C4  UNL     1     -33.566  18.209  -4.165  1.00 20.00     0.045 C 
HETATM    5  C5  UNL     1     -34.832  15.008  -6.025  1.00 20.00     0.080 C 
HETATM    6  C6  UNL     1     -34.466  16.505  -6.333  1.00 20.00     0.018 C 
HETATM    7  C7  UNL     1     -33.511  16.078  -4.310  1.00 20.00     0.092 C 
HETATM    8  C8  UNL     1     -34.473  17.191  -4.955  1.00 20.00    -0.019 C 
HETATM    9  O12 UNL     1     -34.448  13.802  -3.933  1.00 20.00    -0.297 OA
ENDROOT
BRANCH   8  10
HETATM   10  C11 UNL     1     -35.947  17.430  -4.528  1.00 20.00    -0.013 C 
HETATM   11  C9  UNL     1     -36.106  18.850  -4.014  1.00 20.00     0.010 C 
HETATM   12  C10 UNL     1     -36.869  17.156  -5.701  1.00 20.00     0.010 C 
ENDBRANCH   8  10
TORSDOF 1
ENDMDL
MODEL 2
REMARK VINA RESULT:      -3.5      1.857      4.023
REMARK  1 active torsions:
REMARK  status: ('A' for Active; 'I' for Inactive)
REMARK    1  A    between atoms: C8_8  and  C11_11 
ROOT
HETATM    1  C1  UNL     1     -35.962  16.672  -5.423  1.00 20.00    -0.076 C 
HETATM    2  C2  UNL     1     -35.954  18.599  -3.460  1.00 20.00     0.136 C 
HETATM    3  C3  UNL     1     -37.017  15.864  -5.499  1.00 20.00     0.015 C 
HETATM    4  C4  UNL     1     -34.504  16.622  -5.970  1.00 20.00     0.045 C 
HETATM    5  C5  UNL     1     -34.607  19.159  -2.993  1.00 20.00     0.080 C 
HETATM    6  C6  UNL     1     -33.611  18.647  -4.096  1.00 20.00     0.018 C 
HETATM    7  C7  UNL     1     -35.669  18.002  -4.827  1.00 20.00     0.092 C 
HETATM    8  C8  UNL     1     -34.231  17.327  -4.588  1.00 20.00    -0.019 C 
HETATM    9  O12 UNL     1     -36.996  18.664  -2.827  1.00 20.00    -0.297 OA
ENDROOT
BRANCH   8  10
HETATM   10  C11 UNL     1     -33.945  16.222  -3.534  1.00 20.00    -0.013 C 
HETATM   11  C9  UNL     1     -33.181  15.082  -4.183  1.00 20.00     0.010 C 
HETATM   12  C10 UNL     1     -33.175  16.816  -2.368  1.00 20.00     0.010 C 
ENDBRANCH   8  10
TORSDOF 1
ENDMDL
MODEL 3
REMARK VINA RESULT:      -3.5      1.404      2.477
REMARK  1 active torsions:
REMARK  status: ('A' for Active; 'I' for Inactive)
REMARK    1  A    between atoms: C8_8  and  C11_11 
ROOT
HETATM    1  C1  UNL     1     -34.732  18.238  -4.840  1.00 20.00    -0.076 C 
HETATM    2  C2  UNL     1     -33.584  16.135  -3.488  1.00 20.00     0.136 C 
HETATM    3  C3  UNL     1     -35.283  19.214  -4.121  1.00 20.00     0.015 C 
HETATM    4  C4  UNL     1     -34.842  17.775  -6.324  1.00 20.00     0.045 C 
HETATM    5  C5  UNL     1     -33.440  14.793  -4.213  1.00 20.00     0.080 C 
HETATM    6  C6  UNL     1     -33.721  15.171  -5.712  1.00 20.00     0.018 C 
HETATM    7  C7  UNL     1     -33.739  17.158  -4.600  1.00 20.00     0.092 C 
HETATM    8  C8  UNL     1     -34.685  16.368  -5.631  1.00 20.00    -0.019 C 
HETATM    9  O12 UNL     1     -33.557  16.282  -2.276  1.00 20.00    -0.297 OA
ENDROOT
BRANCH   8  10
HETATM   10  C11 UNL     1     -36.105  15.839  -5.290  1.00 20.00    -0.013 C 
HETATM   11  C9  UNL     1     -37.109  16.395  -6.284  1.00 20.00     0.010 C 
HETATM   12  C10 UNL     1     -36.099  14.322  -5.294  1.00 20.00     0.010 C 
ENDBRANCH   8  10
TORSDOF 1
ENDMDL
MODEL 4
REMARK VINA RESULT:      -3.5      1.821      3.333
REMARK  1 active torsions:
REMARK  status: ('A' for Active; 'I' for Inactive)
REMARK    1  A    between atoms: C8_8  and  C11_11 
ROOT
HETATM    1  C1  UNL     1     -35.276  14.477  -5.353  1.00 20.00    -0.076 C 
HETATM    2  C2  UNL     1     -36.803  16.366  -6.645  1.00 20.00     0.136 C 
HETATM    3  C3  UNL     1     -35.895  13.630  -4.534  1.00 20.00     0.015 C 
HETATM    4  C4  UNL     1     -33.796  14.924  -5.551  1.00 20.00     0.045 C 
HETATM    5  C5  UNL     1     -36.118  17.646  -7.134  1.00 20.00     0.080 C 
HETATM    6  C6  UNL     1     -34.591  17.297  -7.018  1.00 20.00     0.018 C 
HETATM    7  C7  UNL     1     -35.671  15.367  -6.477  1.00 20.00     0.092 C 
HETATM    8  C8  UNL     1     -34.516  16.293  -5.854  1.00 20.00    -0.019 C 
HETATM    9  O12 UNL     1     -38.003  16.240  -6.463  1.00 20.00    -0.297 OA
ENDROOT
BRANCH   8  10
HETATM   10  C11 UNL     1     -34.643  17.074  -4.517  1.00 20.00    -0.013 C 
HETATM   11  C9  UNL     1     -33.617  16.558  -3.524  1.00 20.00     0.010 C 
HETATM   12  C10 UNL     1     -34.471  18.559  -4.776  1.00 20.00     0.010 C 
ENDBRANCH   8  10
TORSDOF 1
ENDMDL
MODEL 5
REMARK VINA RESULT:      -3.3     24.492     26.059
REMARK  1 active torsions:
REMARK  status: ('A' for Active; 'I' for Inactive)
REMARK    1  A    between atoms: C8_8  and  C11_11 
ROOT
HETATM    1  C1  UNL     1     -25.727  -3.863  11.041  1.00 20.00    -0.076 C 
HETATM    2  C2  UNL     1     -28.403  -3.400  11.482  1.00 20.00     0.136 C 
HETATM    3  C3  UNL     1     -25.108  -4.737  11.831  1.00 20.00     0.015 C 
HETATM    4  C4  UNL     1     -25.256  -2.727  10.083  1.00 20.00     0.045 C 
HETATM    5  C5  UNL     1     -29.003  -2.075  11.001  1.00 20.00     0.080 C 
HETATM    6  C6  UNL     1     -27.886  -1.504  10.056  1.00 20.00     0.018 C 
HETATM    7  C7  UNL     1     -27.135  -3.566  10.663  1.00 20.00     0.092 C 
HETATM    8  C8  UNL     1     -26.573  -2.061  10.635  1.00 20.00    -0.019 C 
HETATM    9  O12 UNL     1     -28.896  -4.125  12.332  1.00 20.00    -0.297 OA
ENDROOT
BRANCH   8  10
HETATM   10  C11 UNL     1     -26.202  -1.240  11.900  1.00 20.00    -0.013 C 
HETATM   11  C9  UNL     1     -24.698  -1.036  11.953  1.00 20.00     0.010 C 
HETATM   12  C10 UNL     1     -26.943   0.084  11.885  1.00 20.00     0.010 C 
ENDBRANCH   8  10
TORSDOF 1
ENDMDL
MODEL 6
REMARK VINA RESULT:      -3.3     12.793     14.400
REMARK  1 active torsions:
REMARK  status: ('A' for Active; 'I' for Inactive)
REMARK    1  A    between atoms: C8_8  and  C11_11 
ROOT
HETATM    1  C1  UNL     1     -41.563  14.059   5.635  1.00 20.00    -0.076 C 
HETATM    2  C2  UNL     1     -40.979  16.097   7.388  1.00 20.00     0.136 C 
HETATM    3  C3  UNL     1     -42.334  14.340   4.588  1.00 20.00     0.015 C 
HETATM    4  C4  UNL     1     -41.135  12.746   6.358  1.00 20.00     0.045 C 
HETATM    5  C5  UNL     1     -40.586  15.734   8.824  1.00 20.00     0.080 C 
HETATM    6  C6  UNL     1     -40.311  14.190   8.735  1.00 20.00     0.018 C 
HETATM    7  C7  UNL     1     -40.724  14.831   6.589  1.00 20.00     0.092 C 
HETATM    8  C8  UNL     1     -41.238  13.700   7.608  1.00 20.00    -0.019 C 
HETATM    9  O12 UNL     1     -41.388  17.189   7.029  1.00 20.00    -0.297 OA
ENDROOT
BRANCH   8  10
HETATM   10  C11 UNL     1     -42.686  13.611   8.162  1.00 20.00    -0.013 C 
HETATM   11  C9  UNL     1     -43.326  12.310   7.712  1.00 20.00     0.010 C 
HETATM   12  C10 UNL     1     -42.662  13.727   9.675  1.00 20.00     0.010 C 
ENDBRANCH   8  10
TORSDOF 1
ENDMDL
MODEL 7
REMARK VINA RESULT:      -3.3      1.702      3.081
REMARK  1 active torsions:
REMARK  status: ('A' for Active; 'I' for Inactive)
REMARK    1  A    between atoms: C8_8  and  C11_11 
ROOT
HETATM    1  C1  UNL     1     -34.419  18.392  -5.698  1.00 20.00    -0.076 C 
HETATM    2  C2  UNL     1     -34.551  15.945  -6.949  1.00 20.00     0.136 C 
HETATM    3  C3  UNL     1     -33.509  19.263  -6.128  1.00 20.00     0.015 C 
HETATM    4  C4  UNL     1     -35.268  18.247  -4.399  1.00 20.00     0.045 C 
HETATM    5  C5  UNL     1     -35.158  14.766  -6.181  1.00 20.00     0.080 C 
HETATM    6  C6  UNL     1     -35.855  15.462  -4.957  1.00 20.00     0.018 C 
HETATM    7  C7  UNL     1     -35.085  17.178  -6.241  1.00 20.00     0.092 C 
HETATM    8  C8  UNL     1     -35.009  16.723  -4.702  1.00 20.00    -0.019 C 
HETATM    9  O12 UNL     1     -33.816  15.845  -7.918  1.00 20.00    -0.297 OA
ENDROOT
BRANCH   8  10
HETATM   10  C11 UNL     1     -33.702  16.304  -3.975  1.00 20.00    -0.013 C 
HETATM   11  C9  UNL     1     -33.619  17.004  -2.630  1.00 20.00     0.010 C 
HETATM   12  C10 UNL     1     -33.665  14.795  -3.821  1.00 20.00     0.010 C 
ENDBRANCH   8  10
TORSDOF 1
ENDMDL
MODEL 8
REMARK VINA RESULT:      -3.2      1.497      2.020
REMARK  1 active torsions:
REMARK  status: ('A' for Active; 'I' for Inactive)
REMARK    1  A    between atoms: C8_8  and  C11_11 
ROOT
HETATM    1  C1  UNL     1     -34.118  16.279  -4.753  1.00 20.00    -0.076 C 
HETATM    2  C2  UNL     1     -35.707  15.417  -6.826  1.00 20.00     0.136 C 
HETATM    3  C3  UNL     1     -33.812  15.405  -3.797  1.00 20.00     0.015 C 
HETATM    4  C4  UNL     1     -34.084  17.833  -4.866  1.00 20.00     0.045 C 
HETATM    5  C5  UNL     1     -36.507  16.459  -7.614  1.00 20.00     0.080 C 
HETATM    6  C6  UNL     1     -35.863  17.817  -7.157  1.00 20.00     0.018 C 
HETATM    7  C7  UNL     1     -34.597  16.210  -6.159  1.00 20.00     0.092 C 
HETATM    8  C8  UNL     1     -35.375  17.546  -5.723  1.00 20.00    -0.019 C 
HETATM    9  O12 UNL     1     -35.955  14.222  -6.795  1.00 20.00    -0.297 OA
ENDROOT
BRANCH   8  10
HETATM   10  C11 UNL     1     -36.601  17.575  -4.769  1.00 20.00    -0.013 C 
HETATM   11  C9  UNL     1     -36.319  18.508  -3.604  1.00 20.00     0.010 C 
HETATM   12  C10 UNL     1     -37.837  18.003  -5.539  1.00 20.00     0.010 C 
ENDBRANCH   8  10
TORSDOF 1
ENDMDL
MODEL 9
REMARK VINA RESULT:      -3.1     12.245     13.680
REMARK  1 active torsions:
REMARK  status: ('A' for Active; 'I' for Inactive)
REMARK    1  A    between atoms: C8_8  and  C11_11 
ROOT
HETATM    1  C1  UNL     1     -42.795  16.206   5.770  1.00 20.00    -0.076 C 
HETATM    2  C2  UNL     1     -41.750  13.709   5.279  1.00 20.00     0.136 C 
HETATM    3  C3  UNL     1     -42.546  17.170   4.886  1.00 20.00     0.015 C 
HETATM    4  C4  UNL     1     -43.277  16.177   7.252  1.00 20.00     0.045 C 
HETATM    5  C5  UNL     1     -41.541  12.760   6.463  1.00 20.00     0.080 C 
HETATM    6  C6  UNL     1     -42.352  13.453   7.617  1.00 20.00     0.018 C 
HETATM    7  C7  UNL     1     -42.771  14.720   5.772  1.00 20.00     0.092 C 
HETATM    8  C8  UNL     1     -42.284  14.954   7.285  1.00 20.00    -0.019 C 
HETATM    9  O12 UNL     1     -41.195  13.610   4.196  1.00 20.00    -0.297 OA
ENDROOT
BRANCH   8  10
HETATM   10  C11 UNL     1     -40.879  15.486   7.682  1.00 20.00    -0.013 C 
HETATM   11  C9  UNL     1     -41.013  16.862   8.309  1.00 20.00     0.010 C 
HETATM   12  C10 UNL     1     -40.211  14.506   8.628  1.00 20.00     0.010 C 
ENDBRANCH   8  10
TORSDOF 1
ENDMDL
