MODEL 1
REMARK VINA RESULT:      -4.0      0.000      0.000
REMARK  3 active torsions:
REMARK  status: ('A' for Active; 'I' for Inactive)
REMARK    1  A    between atoms: C3_3  and  C5_5 
REMARK    2  A    between atoms: C4_4  and  C5_5 
REMARK    3  A    between atoms: C5_5  and  O6_6 
ROOT
HETATM    1  C5  UNL     1     -33.676   7.473   5.431  1.00 20.00     0.132 C 
ENDROOT
BRANCH   1   2
HETATM    2  C3  UNL     1     -34.057   6.262   4.653  1.00 20.00     0.015 A 
HETATM    3  C1  UNL     1     -34.566   5.036   5.360  1.00 20.00     0.007 A 
HETATM    4  C2  UNL     1     -35.503   5.867   4.529  1.00 20.00     0.007 A 
ENDBRANCH   1   2
BRANCH   1   5
HETATM    5  C4  UNL     1     -32.663   8.327   4.673  1.00 20.00     0.117 C 
HETATM    6 BR7  UNL     1     -32.181   7.481   2.981  1.00 20.00    -0.094 Br
ENDBRANCH   1   5
BRANCH   1   7
HETATM    7  O6  UNL     1     -33.085   7.074   6.672  1.00 20.00    -0.394 OA
HETATM    8  H16 UNL     1     -33.351   6.153   6.814  1.00 20.00     0.210 HD
ENDBRANCH   1   7
TORSDOF 3
ENDMDL
MODEL 2
REMARK VINA RESULT:      -3.8      1.572      1.614
REMARK  3 active torsions:
REMARK  status: ('A' for Active; 'I' for Inactive)
REMARK    1  A    between atoms: C3_3  and  C5_5 
REMARK    2  A    between atoms: C4_4  and  C5_5 
REMARK    3  A    between atoms: C5_5  and  O6_6 
ROOT
HETATM    1  C5  UNL     1     -33.187   7.547   4.425  1.00 20.00     0.132 C 
ENDROOT
BRANCH   1   2
HETATM    2  C3  UNL     1     -33.655   6.328   5.141  1.00 20.00     0.015 A 
HETATM    3  C1  UNL     1     -34.394   6.452   6.445  1.00 20.00     0.007 A 
HETATM    4  C2  UNL     1     -35.123   6.007   5.208  1.00 20.00     0.007 A 
ENDBRANCH   1   2
BRANCH   1   5
HETATM    5  C4  UNL     1     -32.420   7.188   3.155  1.00 20.00     0.117 C 
HETATM    6 BR7  UNL     1     -32.845   5.369   2.587  1.00 20.00    -0.094 Br
ENDBRANCH   1   5
BRANCH   1   7
HETATM    7  O6  UNL     1     -32.314   8.293   5.279  1.00 20.00    -0.394 OA
HETATM    8  H16 UNL     1     -32.044   7.687   5.985  1.00 20.00     0.210 HD
ENDBRANCH   1   7
TORSDOF 3
ENDMDL
MODEL 3
REMARK VINA RESULT:      -3.7      2.011      2.164
REMARK  3 active torsions:
REMARK  status: ('A' for Active; 'I' for Inactive)
REMARK    1  A    between atoms: C3_3  and  C5_5 
REMARK    2  A    between atoms: C4_4  and  C5_5 
REMARK    3  A    between atoms: C5_5  and  O6_6 
ROOT
HETATM    1  C5  UNL     1     -33.059   6.310   4.027  1.00 20.00     0.132 C 
ENDROOT
BRANCH   1   2
HETATM    2  C3  UNL     1     -34.326   6.525   4.779  1.00 20.00     0.015 A 
HETATM    3  C1  UNL     1     -35.167   5.350   5.198  1.00 20.00     0.007 A 
HETATM    4  C2  UNL     1     -34.418   6.144   6.231  1.00 20.00     0.007 A 
ENDBRANCH   1   2
BRANCH   1   5
HETATM    5  C4  UNL     1     -32.538   7.613   3.428  1.00 20.00     0.117 C 
HETATM    6 BR7  UNL     1     -32.195   8.926   4.832  1.00 20.00    -0.094 Br
ENDBRANCH   1   5
BRANCH   1   7
HETATM    7  O6  UNL     1     -33.293   5.388   2.957  1.00 20.00    -0.394 OA
HETATM    8  H16 UNL     1     -32.549   5.488   2.346  1.00 20.00     0.210 HD
ENDBRANCH   1   7
TORSDOF 3
ENDMDL
MODEL 4
REMARK VINA RESULT:      -3.7      2.541      3.548
REMARK  3 active torsions:
REMARK  status: ('A' for Active; 'I' for Inactive)
REMARK    1  A    between atoms: C3_3  and  C5_5 
REMARK    2  A    between atoms: C4_4  and  C5_5 
REMARK    3  A    between atoms: C5_5  and  O6_6 
ROOT
HETATM    1  C5  UNL     1     -33.831   6.041   3.702  1.00 20.00     0.132 C 
ENDROOT
BRANCH   1   2
HETATM    2  C3  UNL     1     -33.120   7.035   4.553  1.00 20.00     0.015 A 
HETATM    3  C1  UNL     1     -32.230   8.072   3.925  1.00 20.00     0.007 A 
HETATM    4  C2  UNL     1     -33.540   8.480   4.540  1.00 20.00     0.007 A 
ENDBRANCH   1   2
BRANCH   1   5
HETATM    5  C4  UNL     1     -34.435   4.919   4.542  1.00 20.00     0.117 C 
HETATM    6 BR7  UNL     1     -34.561   5.454   6.415  1.00 20.00    -0.094 Br
ENDBRANCH   1   5
BRANCH   1   7
HETATM    7  O6  UNL     1     -32.905   5.460   2.778  1.00 20.00    -0.394 OA
HETATM    8  H16 UNL     1     -32.201   5.066   3.313  1.00 20.00     0.210 HD
ENDBRANCH   1   7
TORSDOF 3
ENDMDL
MODEL 5
REMARK VINA RESULT:      -3.6      1.643      3.033
REMARK  3 active torsions:
REMARK  status: ('A' for Active; 'I' for Inactive)
REMARK    1  A    between atoms: C3_3  and  C5_5 
REMARK    2  A    between atoms: C4_4  and  C5_5 
REMARK    3  A    between atoms: C5_5  and  O6_6 
ROOT
HETATM    1  C5  UNL     1     -33.834   6.863   5.602  1.00 20.00     0.132 C 
ENDROOT
BRANCH   1   2
HETATM    2  C3  UNL     1     -33.555   7.977   4.654  1.00 20.00     0.015 A 
HETATM    3  C1  UNL     1     -32.380   8.888   4.878  1.00 20.00     0.007 A 
HETATM    4  C2  UNL     1     -32.365   7.910   3.736  1.00 20.00     0.007 A 
ENDBRANCH   1   2
BRANCH   1   5
HETATM    5  C4  UNL     1     -34.863   5.891   5.033  1.00 20.00     0.117 C 
HETATM    6 BR7  UNL     1     -33.981   4.445   4.062  1.00 20.00    -0.094 Br
ENDBRANCH   1   5
BRANCH   1   7
HETATM    7  O6  UNL     1     -34.351   7.399   6.824  1.00 20.00    -0.394 OA
HETATM    8  H16 UNL     1     -35.304   7.503   6.691  1.00 20.00     0.210 HD
ENDBRANCH   1   7
TORSDOF 3
ENDMDL
MODEL 6
REMARK VINA RESULT:      -3.6      2.472      3.011
REMARK  3 active torsions:
REMARK  status: ('A' for Active; 'I' for Inactive)
REMARK    1  A    between atoms: C3_3  and  C5_5 
REMARK    2  A    between atoms: C4_4  and  C5_5 
REMARK    3  A    between atoms: C5_5  and  O6_6 
ROOT
HETATM    1  C5  UNL     1     -32.792   7.514   5.097  1.00 20.00     0.132 C 
ENDROOT
BRANCH   1   2
HETATM    2  C3  UNL     1     -33.192   7.317   3.676  1.00 20.00     0.015 A 
HETATM    3  C1  UNL     1     -32.180   7.475   2.575  1.00 20.00     0.007 A 
HETATM    4  C2  UNL     1     -32.711   6.111   2.916  1.00 20.00     0.007 A 
ENDBRANCH   1   2
BRANCH   1   5
HETATM    5  C4  UNL     1     -33.990   7.396   6.035  1.00 20.00     0.117 C 
HETATM    6 BR7  UNL     1     -34.598   5.544   6.143  1.00 20.00    -0.094 Br
ENDBRANCH   1   5
BRANCH   1   7
HETATM    7  O6  UNL     1     -32.228   8.820   5.253  1.00 20.00    -0.394 OA
HETATM    8  H16 UNL     1     -32.781   9.278   5.904  1.00 20.00     0.210 HD
ENDBRANCH   1   7
TORSDOF 3
ENDMDL
MODEL 7
REMARK VINA RESULT:      -3.4      1.783      1.902
REMARK  3 active torsions:
REMARK  status: ('A' for Active; 'I' for Inactive)
REMARK    1  A    between atoms: C3_3  and  C5_5 
REMARK    2  A    between atoms: C4_4  and  C5_5 
REMARK    3  A    between atoms: C5_5  and  O6_6 
ROOT
HETATM    1  C5  UNL     1     -32.939   6.927   4.186  1.00 20.00     0.132 C 
ENDROOT
BRANCH   1   2
HETATM    2  C3  UNL     1     -34.246   6.851   4.894  1.00 20.00     0.015 A 
HETATM    3  C1  UNL     1     -34.845   5.515   5.241  1.00 20.00     0.007 A 
HETATM    4  C2  UNL     1     -34.305   6.401   6.329  1.00 20.00     0.007 A 
ENDBRANCH   1   2
BRANCH   1   5
HETATM    5  C4  UNL     1     -32.681   8.329   3.641  1.00 20.00     0.117 C 
HETATM    6 BR7  UNL     1     -32.249   8.259   1.739  1.00 20.00    -0.094 Br
ENDBRANCH   1   5
BRANCH   1   7
HETATM    7  O6  UNL     1     -32.942   6.013   3.086  1.00 20.00    -0.394 OA
HETATM    8  H16 UNL     1     -33.303   5.181   3.426  1.00 20.00     0.210 HD
ENDBRANCH   1   7
TORSDOF 3
ENDMDL
MODEL 8
REMARK VINA RESULT:      -3.4      1.588      2.812
REMARK  3 active torsions:
REMARK  status: ('A' for Active; 'I' for Inactive)
REMARK    1  A    between atoms: C3_3  and  C5_5 
REMARK    2  A    between atoms: C4_4  and  C5_5 
REMARK    3  A    between atoms: C5_5  and  O6_6 
ROOT
HETATM    1  C5  UNL     1     -34.033   5.776   5.363  1.00 20.00     0.132 C 
ENDROOT
BRANCH   1   2
HETATM    2  C3  UNL     1     -33.992   7.167   4.833  1.00 20.00     0.015 A 
HETATM    3  C1  UNL     1     -33.970   8.337   5.778  1.00 20.00     0.007 A 
HETATM    4  C2  UNL     1     -32.745   7.995   4.977  1.00 20.00     0.007 A 
ENDBRANCH   1   2
BRANCH   1   5
HETATM    5  C4  UNL     1     -34.192   4.756   4.239  1.00 20.00     0.117 C 
HETATM    6 BR7  UNL     1     -33.026   5.200   2.737  1.00 20.00    -0.094 Br
ENDBRANCH   1   5
BRANCH   1   7
HETATM    7  O6  UNL     1     -35.146   5.639   6.252  1.00 20.00    -0.394 OA
HETATM    8  H16 UNL     1     -35.934   5.860   5.735  1.00 20.00     0.210 HD
ENDBRANCH   1   7
TORSDOF 3
ENDMDL
MODEL 9
REMARK VINA RESULT:      -3.3      2.319      2.810
REMARK  3 active torsions:
REMARK  status: ('A' for Active; 'I' for Inactive)
REMARK    1  A    between atoms: C3_3  and  C5_5 
REMARK    2  A    between atoms: C4_4  and  C5_5 
REMARK    3  A    between atoms: C5_5  and  O6_6 
ROOT
HETATM    1  C5  UNL     1     -34.478   5.890   4.569  1.00 20.00     0.132 C 
ENDROOT
BRANCH   1   2
HETATM    2  C3  UNL     1     -33.182   5.566   3.911  1.00 20.00     0.015 A 
HETATM    3  C1  UNL     1     -33.162   4.915   2.555  1.00 20.00     0.007 A 
HETATM    4  C2  UNL     1     -32.729   6.346   2.707  1.00 20.00     0.007 A 
ENDBRANCH   1   2
BRANCH   1   5
HETATM    5  C4  UNL     1     -34.266   6.674   5.861  1.00 20.00     0.117 C 
HETATM    6 BR7  UNL     1     -33.354   8.362   5.501  1.00 20.00    -0.094 Br
ENDBRANCH   1   5
BRANCH   1   7
HETATM    7  O6  UNL     1     -35.164   4.676   4.888  1.00 20.00    -0.394 OA
HETATM    8  H16 UNL     1     -34.665   3.963   4.464  1.00 20.00     0.210 HD
ENDBRANCH   1   7
TORSDOF 3
ENDMDL
