MODEL 1
REMARK VINA RESULT:      -6.0      0.000      0.000
REMARK  0 active torsions:
REMARK  status: ('A' for Active; 'I' for Inactive)
ROOT
HETATM    1  C1  UNL     1     -33.320   5.727   3.323  1.00 20.00     0.198 C 
HETATM    2  C2  UNL     1     -32.917   7.135   2.942  1.00 20.00     0.085 C 
HETATM    3  C3  UNL     1     -31.947   7.737   3.953  1.00 20.00     0.008 C 
HETATM    4  C4  UNL     1     -32.569   8.753   4.911  1.00 20.00     0.000 C 
HETATM    5  C5  UNL     1     -33.943   8.427   5.491  1.00 20.00     0.000 C 
HETATM    6  C6  UNL     1     -34.023   7.210   6.407  1.00 20.00     0.006 C 
HETATM    7  C7  UNL     1     -33.734   5.826   5.824  1.00 20.00     0.087 C 
HETATM    8  C8  UNL     1     -34.314   5.519   4.448  1.00 20.00     0.302 C 
HETATM    9  O9  UNL     1     -32.830   4.760   2.736  1.00 20.00    -0.291 OA
HETATM   10  F10 UNL     1     -34.687   4.201   4.459  1.00 20.00    -0.198 F 
HETATM   11  F11 UNL     1     -35.465   6.208   4.245  1.00 20.00    -0.198 F 
ENDROOT
TORSDOF 0
ENDMDL
MODEL 2
REMARK VINA RESULT:      -5.8      1.216      1.592
REMARK  0 active torsions:
REMARK  status: ('A' for Active; 'I' for Inactive)
ROOT
HETATM    1  C1  UNL     1     -34.055   4.979   4.272  1.00 20.00     0.198 C 
HETATM    2  C2  UNL     1     -33.560   5.586   2.978  1.00 20.00     0.085 C 
HETATM    3  C3  UNL     1     -32.243   6.329   3.172  1.00 20.00     0.008 C 
HETATM    4  C4  UNL     1     -32.365   7.852   3.211  1.00 20.00     0.000 C 
HETATM    5  C5  UNL     1     -33.530   8.446   3.998  1.00 20.00     0.000 C 
HETATM    6  C6  UNL     1     -33.528   8.205   5.504  1.00 20.00     0.006 C 
HETATM    7  C7  UNL     1     -33.664   6.772   6.023  1.00 20.00     0.087 C 
HETATM    8  C8  UNL     1     -34.680   5.876   5.323  1.00 20.00     0.302 C 
HETATM    9  O9  UNL     1     -33.936   3.769   4.477  1.00 20.00    -0.291 OA
HETATM   10  F10 UNL     1     -35.245   5.086   6.288  1.00 20.00    -0.198 F 
HETATM   11  F11 UNL     1     -35.706   6.608   4.822  1.00 20.00    -0.198 F 
ENDROOT
TORSDOF 0
ENDMDL
MODEL 3
REMARK VINA RESULT:      -5.4      2.187      3.273
REMARK  0 active torsions:
REMARK  status: ('A' for Active; 'I' for Inactive)
ROOT
HETATM    1  C1  UNL     1     -32.873   8.005   4.950  1.00 20.00     0.198 C 
HETATM    2  C2  UNL     1     -31.960   7.335   3.946  1.00 20.00     0.085 C 
HETATM    3  C3  UNL     1     -32.727   6.854   2.720  1.00 20.00     0.008 C 
HETATM    4  C4  UNL     1     -32.987   5.348   2.676  1.00 20.00     0.000 C 
HETATM    5  C5  UNL     1     -33.410   4.668   3.975  1.00 20.00     0.000 C 
HETATM    6  C6  UNL     1     -34.756   5.089   4.557  1.00 20.00     0.006 C 
HETATM    7  C7  UNL     1     -34.936   6.531   5.035  1.00 20.00     0.087 C 
HETATM    8  C8  UNL     1     -33.780   7.151   5.813  1.00 20.00     0.302 C 
HETATM    9  O9  UNL     1     -32.891   9.234   5.050  1.00 20.00    -0.291 OA
HETATM   10  F10 UNL     1     -34.334   7.948   6.780  1.00 20.00    -0.198 F 
HETATM   11  F11 UNL     1     -33.091   6.202   6.494  1.00 20.00    -0.198 F 
ENDROOT
TORSDOF 0
ENDMDL
MODEL 4
REMARK VINA RESULT:      -5.2      2.183      3.534
REMARK  0 active torsions:
REMARK  status: ('A' for Active; 'I' for Inactive)
ROOT
HETATM    1  C1  UNL     1     -34.521   6.513   5.478  1.00 20.00     0.198 C 
HETATM    2  C2  UNL     1     -34.788   5.425   4.461  1.00 20.00     0.085 C 
HETATM    3  C3  UNL     1     -33.508   4.701   4.060  1.00 20.00     0.008 C 
HETATM    4  C4  UNL     1     -32.951   5.093   2.692  1.00 20.00     0.000 C 
HETATM    5  C5  UNL     1     -32.963   6.575   2.324  1.00 20.00     0.000 C 
HETATM    6  C6  UNL     1     -32.088   7.494   3.171  1.00 20.00     0.006 C 
HETATM    7  C7  UNL     1     -32.417   7.667   4.655  1.00 20.00     0.087 C 
HETATM    8  C8  UNL     1     -33.890   7.814   5.024  1.00 20.00     0.302 C 
HETATM    9  O9  UNL     1     -34.797   6.334   6.666  1.00 20.00    -0.291 OA
HETATM   10  F10 UNL     1     -33.953   8.710   6.058  1.00 20.00    -0.198 F 
HETATM   11  F11 UNL     1     -34.586   8.393   4.014  1.00 20.00    -0.198 F 
ENDROOT
TORSDOF 0
ENDMDL
MODEL 5
REMARK VINA RESULT:      -5.1      2.239      3.278
REMARK  0 active torsions:
REMARK  status: ('A' for Active; 'I' for Inactive)
ROOT
HETATM    1  C1  UNL     1     -32.536   7.276   3.036  1.00 20.00     0.198 C 
HETATM    2  C2  UNL     1     -32.667   5.796   3.324  1.00 20.00     0.085 C 
HETATM    3  C3  UNL     1     -34.108   5.406   3.629  1.00 20.00     0.008 C 
HETATM    4  C4  UNL     1     -34.410   5.170   5.109  1.00 20.00     0.000 C 
HETATM    5  C5  UNL     1     -33.809   6.148   6.116  1.00 20.00     0.000 C 
HETATM    6  C6  UNL     1     -34.295   7.591   6.037  1.00 20.00     0.006 C 
HETATM    7  C7  UNL     1     -33.990   8.407   4.781  1.00 20.00     0.087 C 
HETATM    8  C8  UNL     1     -32.593   8.264   4.184  1.00 20.00     0.302 C 
HETATM    9  O9  UNL     1     -32.402   7.674   1.877  1.00 20.00    -0.291 OA
HETATM   10  F10 UNL     1     -32.234   9.498   3.713  1.00 20.00    -0.198 F 
HETATM   11  F11 UNL     1     -31.683   7.977   5.149  1.00 20.00    -0.198 F 
ENDROOT
TORSDOF 0
ENDMDL
MODEL 6
REMARK VINA RESULT:      -4.8      2.276      3.679
REMARK  0 active torsions:
REMARK  status: ('A' for Active; 'I' for Inactive)
ROOT
HETATM    1  C1  UNL     1     -32.979   8.399   5.209  1.00 20.00     0.198 C 
HETATM    2  C2  UNL     1     -33.905   7.870   6.282  1.00 20.00     0.085 C 
HETATM    3  C3  UNL     1     -33.591   6.420   6.633  1.00 20.00     0.008 C 
HETATM    4  C4  UNL     1     -34.562   5.395   6.048  1.00 20.00     0.000 C 
HETATM    5  C5  UNL     1     -35.017   5.596   4.605  1.00 20.00     0.000 C 
HETATM    6  C6  UNL     1     -33.939   5.490   3.531  1.00 20.00     0.006 C 
HETATM    7  C7  UNL     1     -32.807   6.518   3.515  1.00 20.00     0.087 C 
HETATM    8  C8  UNL     1     -33.190   7.972   3.770  1.00 20.00     0.302 C 
HETATM    9  O9  UNL     1     -32.051   9.155   5.506  1.00 20.00    -0.291 OA
HETATM   10  F10 UNL     1     -32.389   8.741   2.968  1.00 20.00    -0.198 F 
HETATM   11  F11 UNL     1     -34.454   8.221   3.345  1.00 20.00    -0.198 F 
ENDROOT
TORSDOF 0
ENDMDL
MODEL 7
REMARK VINA RESULT:      -4.7      1.535      2.221
REMARK  0 active torsions:
REMARK  status: ('A' for Active; 'I' for Inactive)
ROOT
HETATM    1  C1  UNL     1     -32.877   6.958   3.398  1.00 20.00     0.198 C 
HETATM    2  C2  UNL     1     -33.416   7.989   4.365  1.00 20.00     0.085 C 
HETATM    3  C3  UNL     1     -33.041   7.662   5.805  1.00 20.00     0.008 C 
HETATM    4  C4  UNL     1     -34.174   7.072   6.645  1.00 20.00     0.000 C 
HETATM    5  C5  UNL     1     -35.068   6.024   5.987  1.00 20.00     0.000 C 
HETATM    6  C6  UNL     1     -34.400   4.710   5.595  1.00 20.00     0.006 C 
HETATM    7  C7  UNL     1     -33.311   4.725   4.522  1.00 20.00     0.087 C 
HETATM    8  C8  UNL     1     -33.555   5.606   3.300  1.00 20.00     0.302 C 
HETATM    9  O9  UNL     1     -31.885   7.210   2.710  1.00 20.00    -0.291 OA
HETATM   10  F10 UNL     1     -33.039   4.940   2.221  1.00 20.00    -0.198 F 
HETATM   11  F11 UNL     1     -34.882   5.718   3.043  1.00 20.00    -0.198 F 
ENDROOT
TORSDOF 0
ENDMDL
MODEL 8
REMARK VINA RESULT:      -4.2     12.529     13.540
REMARK  0 active torsions:
REMARK  status: ('A' for Active; 'I' for Inactive)
ROOT
HETATM    1  C1  UNL     1     -34.122  14.837  -4.440  1.00 20.00     0.198 C 
HETATM    2  C2  UNL     1     -33.041  15.659  -3.774  1.00 20.00     0.085 C 
HETATM    3  C3  UNL     1     -33.629  16.758  -2.896  1.00 20.00     0.008 C 
HETATM    4  C4  UNL     1     -33.571  18.161  -3.500  1.00 20.00     0.000 C 
HETATM    5  C5  UNL     1     -33.911  18.307  -4.981  1.00 20.00     0.000 C 
HETATM    6  C6  UNL     1     -35.342  17.970  -5.387  1.00 20.00     0.006 C 
HETATM    7  C7  UNL     1     -35.839  16.533  -5.222  1.00 20.00     0.087 C 
HETATM    8  C8  UNL     1     -34.877  15.418  -5.619  1.00 20.00     0.302 C 
HETATM    9  O9  UNL     1     -34.397  13.712  -4.016  1.00 20.00    -0.291 OA
HETATM   10  F10 UNL     1     -35.631  14.424  -6.183  1.00 20.00    -0.198 F 
HETATM   11  F11 UNL     1     -34.042  15.829  -6.606  1.00 20.00    -0.198 F 
ENDROOT
TORSDOF 0
ENDMDL
MODEL 9
REMARK VINA RESULT:      -4.0     13.102     14.118
REMARK  0 active torsions:
REMARK  status: ('A' for Active; 'I' for Inactive)
ROOT
HETATM    1  C1  UNL     1     -35.178  15.216  -6.336  1.00 20.00     0.198 C 
HETATM    2  C2  UNL     1     -33.885  14.831  -5.650  1.00 20.00     0.085 C 
HETATM    3  C3  UNL     1     -34.038  14.803  -4.134  1.00 20.00     0.008 C 
HETATM    4  C4  UNL     1     -33.436  16.005  -3.406  1.00 20.00     0.000 C 
HETATM    5  C5  UNL     1     -33.653  17.384  -4.023  1.00 20.00     0.000 C 
HETATM    6  C6  UNL     1     -35.093  17.884  -4.083  1.00 20.00     0.006 C 
HETATM    7  C7  UNL     1     -36.102  17.130  -4.951  1.00 20.00     0.087 C 
HETATM    8  C8  UNL     1     -35.623  16.664  -6.322  1.00 20.00     0.302 C 
HETATM    9  O9  UNL     1     -35.871  14.355  -6.884  1.00 20.00    -0.291 OA
HETATM   10  F10 UNL     1     -36.681  16.801  -7.180  1.00 20.00    -0.198 F 
HETATM   11  F11 UNL     1     -34.667  17.496  -6.808  1.00 20.00    -0.198 F 
ENDROOT
TORSDOF 0
ENDMDL
