MODEL 1
REMARK VINA RESULT:      -5.2      0.000      0.000
REMARK  1 active torsions:
REMARK  status: ('A' for Active; 'I' for Inactive)
REMARK    1  A    between atoms: C2_2  and  C4_4 
ROOT
HETATM    1  C1  UNL     1     -33.236   7.714   4.873  1.00 20.00    -0.102 C 
HETATM    2  C2  UNL     1     -33.976   6.771   4.954  1.00 20.00     0.008 C 
HETATM    3  C3  UNL     1     -32.336   8.861   4.773  1.00 20.00     0.112 C 
ENDROOT
BRANCH   2   4
HETATM    4  C4  UNL     1     -34.870   5.632   5.054  1.00 20.00     0.459 C 
HETATM    5  F5  UNL     1     -36.026   5.868   4.394  1.00 20.00    -0.159 F 
HETATM    6  F6  UNL     1     -35.172   5.369   6.344  1.00 20.00    -0.159 F 
HETATM    7  F7  UNL     1     -34.303   4.527   4.523  1.00 20.00    -0.159 F 
ENDBRANCH   2   4
TORSDOF 1
ENDMDL
MODEL 2
REMARK VINA RESULT:      -5.2      0.006      1.432
REMARK  1 active torsions:
REMARK  status: ('A' for Active; 'I' for Inactive)
REMARK    1  A    between atoms: C2_2  and  C4_4 
ROOT
HETATM    1  C1  UNL     1     -33.237   7.715   4.870  1.00 20.00    -0.102 C 
HETATM    2  C2  UNL     1     -33.979   6.773   4.953  1.00 20.00     0.008 C 
HETATM    3  C3  UNL     1     -32.334   8.859   4.769  1.00 20.00     0.112 C 
ENDROOT
BRANCH   2   4
HETATM    4  C4  UNL     1     -34.875   5.636   5.054  1.00 20.00     0.459 C 
HETATM    5  F5  UNL     1     -35.175   5.372   6.345  1.00 20.00    -0.159 F 
HETATM    6  F6  UNL     1     -34.310   4.530   4.522  1.00 20.00    -0.159 F 
HETATM    7  F7  UNL     1     -36.030   5.874   4.395  1.00 20.00    -0.159 F 
ENDBRANCH   2   4
TORSDOF 1
ENDMDL
MODEL 3
REMARK VINA RESULT:      -5.2      0.006      1.431
REMARK  1 active torsions:
REMARK  status: ('A' for Active; 'I' for Inactive)
REMARK    1  A    between atoms: C2_2  and  C4_4 
ROOT
HETATM    1  C1  UNL     1     -33.238   7.715   4.869  1.00 20.00    -0.102 C 
HETATM    2  C2  UNL     1     -33.979   6.773   4.954  1.00 20.00     0.008 C 
HETATM    3  C3  UNL     1     -32.337   8.861   4.767  1.00 20.00     0.112 C 
ENDROOT
BRANCH   2   4
HETATM    4  C4  UNL     1     -34.875   5.635   5.055  1.00 20.00     0.459 C 
HETATM    5  F5  UNL     1     -34.311   4.529   4.522  1.00 20.00    -0.159 F 
HETATM    6  F6  UNL     1     -36.031   5.873   4.397  1.00 20.00    -0.159 F 
HETATM    7  F7  UNL     1     -35.174   5.372   6.346  1.00 20.00    -0.159 F 
ENDBRANCH   2   4
TORSDOF 1
ENDMDL
MODEL 4
REMARK VINA RESULT:      -4.7      3.165      4.000
REMARK  1 active torsions:
REMARK  status: ('A' for Active; 'I' for Inactive)
REMARK    1  A    between atoms: C2_2  and  C4_4 
ROOT
HETATM    1  C1  UNL     1     -33.970   6.688   5.643  1.00 20.00    -0.102 C 
HETATM    2  C2  UNL     1     -33.285   7.489   5.067  1.00 20.00     0.008 C 
HETATM    3  C3  UNL     1     -34.803   5.713   6.344  1.00 20.00     0.112 C 
ENDROOT
BRANCH   2   4
HETATM    4  C4  UNL     1     -32.457   8.456   4.370  1.00 20.00     0.459 C 
HETATM    5  F5  UNL     1     -33.080   8.914   3.262  1.00 20.00    -0.159 F 
HETATM    6  F6  UNL     1     -31.285   7.901   3.991  1.00 20.00    -0.159 F 
HETATM    7  F7  UNL     1     -32.182   9.515   5.163  1.00 20.00    -0.159 F 
ENDBRANCH   2   4
TORSDOF 1
ENDMDL
MODEL 5
REMARK VINA RESULT:      -4.7      3.165      3.997
REMARK  1 active torsions:
REMARK  status: ('A' for Active; 'I' for Inactive)
REMARK    1  A    between atoms: C2_2  and  C4_4 
ROOT
HETATM    1  C1  UNL     1     -33.970   6.687   5.643  1.00 20.00    -0.102 C 
HETATM    2  C2  UNL     1     -33.284   7.488   5.067  1.00 20.00     0.008 C 
HETATM    3  C3  UNL     1     -34.803   5.712   6.344  1.00 20.00     0.112 C 
ENDROOT
BRANCH   2   4
HETATM    4  C4  UNL     1     -32.456   8.456   4.371  1.00 20.00     0.459 C 
HETATM    5  F5  UNL     1     -32.185   9.516   5.164  1.00 20.00    -0.159 F 
HETATM    6  F6  UNL     1     -33.079   8.912   3.261  1.00 20.00    -0.159 F 
HETATM    7  F7  UNL     1     -31.282   7.903   3.995  1.00 20.00    -0.159 F 
ENDBRANCH   2   4
TORSDOF 1
ENDMDL
MODEL 6
REMARK VINA RESULT:      -4.6      0.894      1.817
REMARK  1 active torsions:
REMARK  status: ('A' for Active; 'I' for Inactive)
REMARK    1  A    between atoms: C2_2  and  C4_4 
ROOT
HETATM    1  C1  UNL     1     -33.165   7.752   4.942  1.00 20.00    -0.102 C 
HETATM    2  C2  UNL     1     -33.830   6.860   5.395  1.00 20.00     0.008 C 
HETATM    3  C3  UNL     1     -32.355   8.837   4.391  1.00 20.00     0.112 C 
ENDROOT
BRANCH   2   4
HETATM    4  C4  UNL     1     -34.634   5.783   5.942  1.00 20.00     0.459 C 
HETATM    5  F5  UNL     1     -33.850   4.776   6.389  1.00 20.00    -0.159 F 
HETATM    6  F6  UNL     1     -35.466   5.279   5.004  1.00 20.00    -0.159 F 
HETATM    7  F7  UNL     1     -35.385   6.220   6.977  1.00 20.00    -0.159 F 
ENDBRANCH   2   4
TORSDOF 1
ENDMDL
MODEL 7
REMARK VINA RESULT:      -4.6      0.919      1.363
REMARK  1 active torsions:
REMARK  status: ('A' for Active; 'I' for Inactive)
REMARK    1  A    between atoms: C2_2  and  C4_4 
ROOT
HETATM    1  C1  UNL     1     -33.178   7.760   4.937  1.00 20.00    -0.102 C 
HETATM    2  C2  UNL     1     -33.846   6.877   5.403  1.00 20.00     0.008 C 
HETATM    3  C3  UNL     1     -32.366   8.834   4.371  1.00 20.00     0.112 C 
ENDROOT
BRANCH   2   4
HETATM    4  C4  UNL     1     -34.654   5.810   5.965  1.00 20.00     0.459 C 
HETATM    5  F5  UNL     1     -35.390   6.260   7.006  1.00 20.00    -0.159 F 
HETATM    6  F6  UNL     1     -33.873   4.801   6.412  1.00 20.00    -0.159 F 
HETATM    7  F7  UNL     1     -35.499   5.307   5.040  1.00 20.00    -0.159 F 
ENDBRANCH   2   4
TORSDOF 1
ENDMDL
MODEL 8
REMARK VINA RESULT:      -3.9      2.046      2.404
REMARK  1 active torsions:
REMARK  status: ('A' for Active; 'I' for Inactive)
REMARK    1  A    between atoms: C2_2  and  C4_4 
ROOT
HETATM    1  C1  UNL     1     -32.721   7.439   3.547  1.00 20.00    -0.102 C 
HETATM    2  C2  UNL     1     -33.248   7.327   4.621  1.00 20.00     0.008 C 
HETATM    3  C3  UNL     1     -32.081   7.576   2.241  1.00 20.00     0.112 C 
ENDROOT
BRANCH   2   4
HETATM    4  C4  UNL     1     -33.885   7.192   5.918  1.00 20.00     0.459 C 
HETATM    5  F5  UNL     1     -34.934   6.342   5.853  1.00 20.00    -0.159 F 
HETATM    6  F6  UNL     1     -34.341   8.386   6.357  1.00 20.00    -0.159 F 
HETATM    7  F7  UNL     1     -33.015   6.714   6.835  1.00 20.00    -0.159 F 
ENDBRANCH   2   4
TORSDOF 1
ENDMDL
MODEL 9
REMARK VINA RESULT:      -3.9      2.144      2.970
REMARK  1 active torsions:
REMARK  status: ('A' for Active; 'I' for Inactive)
REMARK    1  A    between atoms: C2_2  and  C4_4 
ROOT
HETATM    1  C1  UNL     1     -33.372   5.828   3.696  1.00 20.00    -0.102 C 
HETATM    2  C2  UNL     1     -33.649   6.344   4.745  1.00 20.00     0.008 C 
HETATM    3  C3  UNL     1     -33.034   5.200   2.421  1.00 20.00     0.112 C 
ENDROOT
BRANCH   2   4
HETATM    4  C4  UNL     1     -33.984   6.968   6.012  1.00 20.00     0.459 C 
HETATM    5  F5  UNL     1     -32.967   6.846   6.893  1.00 20.00    -0.159 F 
HETATM    6  F6  UNL     1     -35.079   6.393   6.557  1.00 20.00    -0.159 F 
HETATM    7  F7  UNL     1     -34.240   8.284   5.848  1.00 20.00    -0.159 F 
ENDBRANCH   2   4
TORSDOF 1
ENDMDL
