MODEL 1
REMARK VINA RESULT:      -4.6      0.000      0.000
REMARK  1 active torsions:
REMARK  status: ('A' for Active; 'I' for Inactive)
REMARK    1  A    between atoms: C6_6  and  C11_11 
ROOT
HETATM    1  C1  UNL     1     -32.489   9.103   1.189  1.00 20.00    -0.004 C 
HETATM    2  C2  UNL     1     -31.936   7.820   1.536  1.00 20.00    -0.003 C 
HETATM    3  C3  UNL     1     -33.339   9.735   2.010  1.00 20.00    -0.025 C 
HETATM    4  C4  UNL     1     -32.061   7.317   2.772  1.00 20.00    -0.013 C 
HETATM    5  C7  UNL     1     -33.754   9.147   3.332  1.00 20.00     0.044 C 
HETATM    6  C11 UNL     1     -32.795   8.045   3.887  1.00 20.00    -0.000 C 
HETATM    7  C12 UNL     1     -31.739   8.687   4.806  1.00 20.00     0.025 C 
ENDROOT
BRANCH   6   8
HETATM    8  C6  UNL     1     -33.602   7.070   4.709  1.00 20.00    -0.071 C 
HETATM    9  C5  UNL     1     -33.868   7.146   6.018  1.00 20.00    -0.023 C 
HETATM   10  C8  UNL     1     -34.732   6.020   6.477  1.00 20.00     0.027 C 
HETATM   11  C10 UNL     1     -34.682   5.050   5.297  1.00 20.00     0.008 C 
HETATM   12  C9  UNL     1     -34.248   5.874   4.084  1.00 20.00     0.035 C 
ENDBRANCH   6   8
TORSDOF 1
ENDMDL
MODEL 2
REMARK VINA RESULT:      -4.2     11.229     12.516
REMARK  1 active torsions:
REMARK  status: ('A' for Active; 'I' for Inactive)
REMARK    1  A    between atoms: C6_6  and  C11_11 
ROOT
HETATM    1  C1  UNL     1     -34.248  18.924  -0.294  1.00 20.00    -0.004 C 
HETATM    2  C2  UNL     1     -35.253  19.051  -1.317  1.00 20.00    -0.003 C 
HETATM    3  C3  UNL     1     -33.159  18.167  -0.485  1.00 20.00    -0.025 C 
HETATM    4  C4  UNL     1     -35.037  18.615  -2.566  1.00 20.00    -0.013 C 
HETATM    5  C7  UNL     1     -32.924  17.420  -1.770  1.00 20.00     0.044 C 
HETATM    6  C11 UNL     1     -33.737  17.951  -2.993  1.00 20.00    -0.000 C 
HETATM    7  C12 UNL     1     -32.905  18.996  -3.760  1.00 20.00     0.025 C 
ENDROOT
BRANCH   6   8
HETATM    8  C6  UNL     1     -34.018  16.799  -3.926  1.00 20.00    -0.071 C 
HETATM    9  C5  UNL     1     -34.891  16.776  -4.940  1.00 20.00    -0.023 C 
HETATM   10  C8  UNL     1     -34.865  15.474  -5.668  1.00 20.00     0.027 C 
HETATM   11  C10 UNL     1     -34.066  14.574  -4.726  1.00 20.00     0.008 C 
HETATM   12  C9  UNL     1     -33.270  15.508  -3.814  1.00 20.00     0.035 C 
ENDBRANCH   6   8
TORSDOF 1
ENDMDL
MODEL 3
REMARK VINA RESULT:      -4.1     11.073     12.602
REMARK  1 active torsions:
REMARK  status: ('A' for Active; 'I' for Inactive)
REMARK    1  A    between atoms: C6_6  and  C11_11 
ROOT
HETATM    1  C1  UNL     1     -34.978  19.103  -4.509  1.00 20.00    -0.004 C 
HETATM    2  C2  UNL     1     -35.629  18.871  -3.246  1.00 20.00    -0.003 C 
HETATM    3  C3  UNL     1     -33.646  19.017  -4.626  1.00 20.00    -0.025 C 
HETATM    4  C4  UNL     1     -34.969  18.343  -2.206  1.00 20.00    -0.013 C 
HETATM    5  C7  UNL     1     -32.765  18.671  -3.456  1.00 20.00     0.044 C 
HETATM    6  C11 UNL     1     -33.498  17.962  -2.272  1.00 20.00    -0.000 C 
HETATM    7  C12 UNL     1     -33.415  16.434  -2.446  1.00 20.00     0.025 C 
ENDROOT
BRANCH   6   8
HETATM    8  C6  UNL     1     -32.803  18.326  -0.984  1.00 20.00    -0.071 C 
HETATM    9  C5  UNL     1     -31.501  18.584  -0.815  1.00 20.00    -0.023 C 
HETATM   10  C8  UNL     1     -31.183  18.948   0.596  1.00 20.00     0.027 C 
HETATM   11  C10 UNL     1     -32.453  18.546   1.345  1.00 20.00     0.008 C 
HETATM   12  C9  UNL     1     -33.563  18.473   0.296  1.00 20.00     0.035 C 
ENDBRANCH   6   8
TORSDOF 1
ENDMDL
MODEL 4
REMARK VINA RESULT:      -4.1      9.571     10.940
REMARK  1 active torsions:
REMARK  status: ('A' for Active; 'I' for Inactive)
REMARK    1  A    between atoms: C6_6  and  C11_11 
ROOT
HETATM    1  C1  UNL     1     -41.000  16.670   8.823  1.00 20.00    -0.004 C 
HETATM    2  C2  UNL     1     -40.232  15.534   9.262  1.00 20.00    -0.003 C 
HETATM    3  C3  UNL     1     -41.637  16.660   7.644  1.00 20.00    -0.025 C 
HETATM    4  C4  UNL     1     -40.307  14.354   8.630  1.00 20.00    -0.013 C 
HETATM    5  C7  UNL     1     -41.589  15.471   6.723  1.00 20.00     0.044 C 
HETATM    6  C11 UNL     1     -41.188  14.127   7.411  1.00 20.00    -0.000 C 
HETATM    7  C12 UNL     1     -42.452  13.381   7.877  1.00 20.00     0.025 C 
ENDROOT
BRANCH   6   8
HETATM    8  C6  UNL     1     -40.476  13.260   6.402  1.00 20.00    -0.071 C 
HETATM    9  C5  UNL     1     -39.420  12.468   6.622  1.00 20.00    -0.023 C 
HETATM   10  C8  UNL     1     -39.013  11.729   5.392  1.00 20.00     0.027 C 
HETATM   11  C10 UNL     1     -39.787  12.451   4.290  1.00 20.00     0.008 C 
HETATM   12  C9  UNL     1     -40.940  13.178   4.983  1.00 20.00     0.035 C 
ENDBRANCH   6   8
TORSDOF 1
ENDMDL
MODEL 5
REMARK VINA RESULT:      -4.0     11.112     12.286
REMARK  1 active torsions:
REMARK  status: ('A' for Active; 'I' for Inactive)
REMARK    1  A    between atoms: C6_6  and  C11_11 
ROOT
HETATM    1  C1  UNL     1     -34.630  15.293  -5.298  1.00 20.00    -0.004 C 
HETATM    2  C2  UNL     1     -33.589  15.190  -4.308  1.00 20.00    -0.003 C 
HETATM    3  C3  UNL     1     -35.497  16.315  -5.286  1.00 20.00    -0.025 C 
HETATM    4  C4  UNL     1     -33.302  16.211  -3.488  1.00 20.00    -0.013 C 
HETATM    5  C7  UNL     1     -35.428  17.405  -4.251  1.00 20.00     0.044 C 
HETATM    6  C11 UNL     1     -34.049  17.535  -3.528  1.00 20.00    -0.000 C 
HETATM    7  C12 UNL     1     -33.164  18.552  -4.273  1.00 20.00     0.025 C 
ENDROOT
BRANCH   6   8
HETATM    8  C6  UNL     1     -34.282  18.051  -2.130  1.00 20.00    -0.071 C 
HETATM    9  C5  UNL     1     -35.072  19.068  -1.766  1.00 20.00    -0.023 C 
HETATM   10  C8  UNL     1     -35.082  19.263  -0.287  1.00 20.00     0.027 C 
HETATM   11  C10 UNL     1     -33.904  18.408   0.177  1.00 20.00     0.008 C 
HETATM   12  C9  UNL     1     -33.634  17.406  -0.946  1.00 20.00     0.035 C 
ENDBRANCH   6   8
TORSDOF 1
ENDMDL
MODEL 6
REMARK VINA RESULT:      -3.9      9.713     11.076
REMARK  1 active torsions:
REMARK  status: ('A' for Active; 'I' for Inactive)
REMARK    1  A    between atoms: C6_6  and  C11_11 
ROOT
HETATM    1  C1  UNL     1     -43.019  16.829   5.190  1.00 20.00    -0.004 C 
HETATM    2  C2  UNL     1     -42.250  16.574   6.380  1.00 20.00    -0.003 C 
HETATM    3  C3  UNL     1     -43.108  15.913   4.215  1.00 20.00    -0.025 C 
HETATM    4  C4  UNL     1     -41.790  15.348   6.665  1.00 20.00    -0.013 C 
HETATM    5  C7  UNL     1     -42.421  14.578   4.312  1.00 20.00     0.044 C 
HETATM    6  C11 UNL     1     -42.029  14.148   5.762  1.00 20.00    -0.000 C 
HETATM    7  C12 UNL     1     -43.163  13.310   6.382  1.00 20.00     0.025 C 
ENDROOT
BRANCH   6   8
HETATM    8  C6  UNL     1     -40.792  13.286   5.693  1.00 20.00    -0.071 C 
HETATM    9  C5  UNL     1     -40.289  12.682   4.611  1.00 20.00    -0.023 C 
HETATM   10  C8  UNL     1     -39.030  11.945   4.919  1.00 20.00     0.027 C 
HETATM   11  C10 UNL     1     -39.017  11.918   6.447  1.00 20.00     0.008 C 
HETATM   12  C9  UNL     1     -39.946  13.043   6.903  1.00 20.00     0.035 C 
ENDBRANCH   6   8
TORSDOF 1
ENDMDL
MODEL 7
REMARK VINA RESULT:      -3.9      9.476     10.926
REMARK  1 active torsions:
REMARK  status: ('A' for Active; 'I' for Inactive)
REMARK    1  A    between atoms: C6_6  and  C11_11 
ROOT
HETATM    1  C1  UNL     1     -39.184  11.799   5.038  1.00 20.00    -0.004 C 
HETATM    2  C2  UNL     1     -40.092  12.632   4.293  1.00 20.00    -0.003 C 
HETATM    3  C3  UNL     1     -39.037  11.947   6.362  1.00 20.00    -0.025 C 
HETATM    4  C4  UNL     1     -40.984  13.419   4.911  1.00 20.00    -0.013 C 
HETATM    5  C7  UNL     1     -39.810  12.980   7.137  1.00 20.00     0.044 C 
HETATM    6  C11 UNL     1     -41.098  13.504   6.425  1.00 20.00    -0.000 C 
HETATM    7  C12 UNL     1     -42.312  12.659   6.853  1.00 20.00     0.025 C 
ENDROOT
BRANCH   6   8
HETATM    8  C6  UNL     1     -41.343  14.930   6.855  1.00 20.00    -0.071 C 
HETATM    9  C5  UNL     1     -42.326  15.738   6.443  1.00 20.00    -0.023 C 
HETATM   10  C8  UNL     1     -42.273  17.067   7.118  1.00 20.00     0.027 C 
HETATM   11  C10 UNL     1     -40.892  17.062   7.771  1.00 20.00     0.008 C 
HETATM   12  C9  UNL     1     -40.472  15.595   7.872  1.00 20.00     0.035 C 
ENDBRANCH   6   8
TORSDOF 1
ENDMDL
MODEL 8
REMARK VINA RESULT:      -3.9      9.512     11.058
REMARK  1 active torsions:
REMARK  status: ('A' for Active; 'I' for Inactive)
REMARK    1  A    between atoms: C6_6  and  C11_11 
ROOT
HETATM    1  C1  UNL     1     -42.323  14.011  10.082  1.00 20.00    -0.004 C 
HETATM    2  C2  UNL     1     -43.024  13.343   9.016  1.00 20.00    -0.003 C 
HETATM    3  C3  UNL     1     -41.073  14.464   9.910  1.00 20.00    -0.025 C 
HETATM    4  C4  UNL     1     -42.555  13.350   7.760  1.00 20.00    -0.013 C 
HETATM    5  C7  UNL     1     -40.342  14.307   8.605  1.00 20.00     0.044 C 
HETATM    6  C11 UNL     1     -41.260  14.044   7.368  1.00 20.00    -0.000 C 
HETATM    7  C12 UNL     1     -41.626  15.380   6.696  1.00 20.00     0.025 C 
ENDROOT
BRANCH   6   8
HETATM    8  C6  UNL     1     -40.498  13.209   6.368  1.00 20.00    -0.071 C 
HETATM    9  C5  UNL     1     -39.435  12.433   6.609  1.00 20.00    -0.023 C 
HETATM   10  C8  UNL     1     -38.973  11.725   5.380  1.00 20.00     0.027 C 
HETATM   11  C10 UNL     1     -39.723  12.454   4.266  1.00 20.00     0.008 C 
HETATM   12  C9  UNL     1     -40.912  13.146   4.932  1.00 20.00     0.035 C 
ENDBRANCH   6   8
TORSDOF 1
ENDMDL
MODEL 9
REMARK VINA RESULT:      -3.9     11.419     12.906
REMARK  1 active torsions:
REMARK  status: ('A' for Active; 'I' for Inactive)
REMARK    1  A    between atoms: C6_6  and  C11_11 
ROOT
HETATM    1  C1  UNL     1     -33.991  18.295  -0.980  1.00 20.00    -0.004 C 
HETATM    2  C2  UNL     1     -35.127  18.769  -1.728  1.00 20.00    -0.003 C 
HETATM    3  C3  UNL     1     -33.151  17.390  -1.500  1.00 20.00    -0.025 C 
HETATM    4  C4  UNL     1     -35.262  18.507  -3.035  1.00 20.00    -0.013 C 
HETATM    5  C7  UNL     1     -33.343  16.828  -2.883  1.00 20.00     0.044 C 
HETATM    6  C11 UNL     1     -34.248  17.690  -3.820  1.00 20.00    -0.000 C 
HETATM    7  C12 UNL     1     -33.378  18.671  -4.628  1.00 20.00     0.025 C 
ENDROOT
BRANCH   6   8
HETATM    8  C6  UNL     1     -34.949  16.774  -4.793  1.00 20.00    -0.071 C 
HETATM    9  C5  UNL     1     -36.010  17.066  -5.553  1.00 20.00    -0.023 C 
HETATM   10  C8  UNL     1     -36.404  15.920  -6.423  1.00 20.00     0.027 C 
HETATM   11  C10 UNL     1     -35.613  14.755  -5.830  1.00 20.00     0.008 C 
HETATM   12  C9  UNL     1     -34.467  15.379  -5.033  1.00 20.00     0.035 C 
ENDBRANCH   6   8
TORSDOF 1
ENDMDL
