MODEL 1
REMARK VINA RESULT:      -5.2      0.000      0.000
REMARK  0 active torsions:
REMARK  status: ('A' for Active; 'I' for Inactive)
ROOT
HETATM    1  C1  UNL     1     -33.691   7.358   5.063  1.00 20.00     0.078 C 
HETATM    2  C2  UNL     1     -32.539   6.991   2.989  1.00 20.00     0.152 C 
HETATM    3  C3  UNL     1     -32.764   7.782   4.204  1.00 20.00     0.134 C 
HETATM    4  C4  UNL     1     -33.582   5.115   3.934  1.00 20.00     0.213 C 
HETATM    5  C5  UNL     1     -34.408   6.071   4.803  1.00 20.00     0.217 C 
HETATM    6  N6  UNL     1     -32.930   5.781   2.790  1.00 20.00    -0.294 NA
HETATM    7  F7  UNL     1     -32.114   8.951   4.317  1.00 20.00    -0.205 F 
HETATM    8  F8  UNL     1     -35.582   6.324   4.158  1.00 20.00    -0.219 F 
HETATM    9 CL9  UNL     1     -34.799   5.271   6.352  1.00 20.00    -0.076 Cl
ENDROOT
TORSDOF 0
ENDMDL
MODEL 2
REMARK VINA RESULT:      -4.8      2.419      3.156
REMARK  0 active torsions:
REMARK  status: ('A' for Active; 'I' for Inactive)
ROOT
HETATM    1  C1  UNL     1     -33.002   6.805   3.581  1.00 20.00     0.078 C 
HETATM    2  C2  UNL     1     -34.412   5.116   4.538  1.00 20.00     0.152 C 
HETATM    3  C3  UNL     1     -33.427   5.544   3.539  1.00 20.00     0.134 C 
HETATM    4  C4  UNL     1     -33.895   6.933   5.927  1.00 20.00     0.213 C 
HETATM    5  C5  UNL     1     -33.477   7.711   4.673  1.00 20.00     0.217 C 
HETATM    6  N6  UNL     1     -34.703   5.735   5.628  1.00 20.00    -0.294 NA
HETATM    7  F7  UNL     1     -33.109   4.675   2.565  1.00 20.00    -0.205 F 
HETATM    8  F8  UNL     1     -34.552   8.427   4.238  1.00 20.00    -0.219 F 
HETATM    9 CL9  UNL     1     -32.188   8.872   5.102  1.00 20.00    -0.076 Cl
ENDROOT
TORSDOF 0
ENDMDL
MODEL 3
REMARK VINA RESULT:      -4.1      2.015      2.387
REMARK  0 active torsions:
REMARK  status: ('A' for Active; 'I' for Inactive)
ROOT
HETATM    1  C1  UNL     1     -34.494   6.002   5.799  1.00 20.00     0.078 C 
HETATM    2  C2  UNL     1     -33.617   8.181   5.303  1.00 20.00     0.152 C 
HETATM    3  C3  UNL     1     -34.150   7.203   6.259  1.00 20.00     0.134 C 
HETATM    4  C4  UNL     1     -33.123   6.494   3.750  1.00 20.00     0.213 C 
HETATM    5  C5  UNL     1     -34.261   5.666   4.359  1.00 20.00     0.217 C 
HETATM    6  N6  UNL     1     -33.175   7.921   4.123  1.00 20.00    -0.294 NA
HETATM    7  F7  UNL     1     -34.377   7.620   7.515  1.00 20.00    -0.205 F 
HETATM    8  F8  UNL     1     -35.395   5.910   3.643  1.00 20.00    -0.219 F 
HETATM    9 CL9  UNL     1     -33.878   3.929   4.196  1.00 20.00    -0.076 Cl
ENDROOT
TORSDOF 0
ENDMDL
MODEL 4
REMARK VINA RESULT:      -3.9      2.098      3.266
REMARK  0 active torsions:
REMARK  status: ('A' for Active; 'I' for Inactive)
ROOT
HETATM    1  C1  UNL     1     -33.694   7.630   4.622  1.00 20.00     0.078 C 
HETATM    2  C2  UNL     1     -33.676   5.325   3.952  1.00 20.00     0.152 C 
HETATM    3  C3  UNL     1     -34.233   6.419   4.756  1.00 20.00     0.134 C 
HETATM    4  C4  UNL     1     -32.669   6.836   2.468  1.00 20.00     0.213 C 
HETATM    5  C5  UNL     1     -32.606   7.850   3.618  1.00 20.00     0.217 C 
HETATM    6  N6  UNL     1     -32.916   5.454   2.922  1.00 20.00    -0.294 NA
HETATM    7  F7  UNL     1     -35.166   6.109   5.670  1.00 20.00    -0.205 F 
HETATM    8  F8  UNL     1     -31.392   7.729   4.226  1.00 20.00    -0.219 F 
HETATM    9 CL9  UNL     1     -32.720   9.504   2.953  1.00 20.00    -0.076 Cl
ENDROOT
TORSDOF 0
ENDMDL
MODEL 5
REMARK VINA RESULT:      -3.8      2.035      2.411
REMARK  0 active torsions:
REMARK  status: ('A' for Active; 'I' for Inactive)
ROOT
HETATM    1  C1  UNL     1     -33.307   6.381   3.523  1.00 20.00     0.078 C 
HETATM    2  C2  UNL     1     -32.136   8.351   4.235  1.00 20.00     0.152 C 
HETATM    3  C3  UNL     1     -32.407   7.318   3.229  1.00 20.00     0.134 C 
HETATM    4  C4  UNL     1     -34.144   7.887   5.354  1.00 20.00     0.213 C 
HETATM    5  C5  UNL     1     -34.056   6.453   4.817  1.00 20.00     0.217 C 
HETATM    6  N6  UNL     1     -32.871   8.627   5.255  1.00 20.00    -0.294 NA
HETATM    7  F7  UNL     1     -31.642   7.305   2.126  1.00 20.00    -0.205 F 
HETATM    8  F8  UNL     1     -33.427   5.686   5.751  1.00 20.00    -0.219 F 
HETATM    9 CL9  UNL     1     -35.706   5.803   4.599  1.00 20.00    -0.076 Cl
ENDROOT
TORSDOF 0
ENDMDL
MODEL 6
REMARK VINA RESULT:      -3.8     16.153     16.753
REMARK  0 active torsions:
REMARK  status: ('A' for Active; 'I' for Inactive)
ROOT
HETATM    1  C1  UNL     1     -24.187  17.878  10.117  1.00 20.00     0.078 C 
HETATM    2  C2  UNL     1     -21.884  18.515  10.349  1.00 20.00     0.152 C 
HETATM    3  C3  UNL     1     -23.092  18.358   9.530  1.00 20.00     0.134 C 
HETATM    4  C4  UNL     1     -23.136  18.437  12.331  1.00 20.00     0.213 C 
HETATM    5  C5  UNL     1     -24.175  17.591  11.585  1.00 20.00     0.217 C 
HETATM    6  N6  UNL     1     -21.837  18.513  11.635  1.00 20.00    -0.294 NA
HETATM    7  F7  UNL     1     -22.984  18.586   8.211  1.00 20.00    -0.205 F 
HETATM    8  F8  UNL     1     -23.880  16.276  11.791  1.00 20.00    -0.219 F 
HETATM    9 CL9  UNL     1     -25.793  17.899  12.277  1.00 20.00    -0.076 Cl
ENDROOT
TORSDOF 0
ENDMDL
MODEL 7
REMARK VINA RESULT:      -3.7     16.173     16.531
REMARK  0 active torsions:
REMARK  status: ('A' for Active; 'I' for Inactive)
ROOT
HETATM    1  C1  UNL     1     -22.422  17.366   9.792  1.00 20.00     0.078 C 
HETATM    2  C2  UNL     1     -23.341  18.919   8.210  1.00 20.00     0.152 C 
HETATM    3  C3  UNL     1     -22.403  17.843   8.549  1.00 20.00     0.134 C 
HETATM    4  C4  UNL     1     -24.684  18.427  10.069  1.00 20.00     0.213 C 
HETATM    5  C5  UNL     1     -23.434  17.881  10.768  1.00 20.00     0.217 C 
HETATM    6  N6  UNL     1     -24.377  19.263   8.892  1.00 20.00    -0.294 NA
HETATM    7  F7  UNL     1     -21.497  17.491   7.623  1.00 20.00    -0.205 F 
HETATM    8  F8  UNL     1     -22.885  18.887  11.506  1.00 20.00    -0.219 F 
HETATM    9 CL9  UNL     1     -23.909  16.578  11.893  1.00 20.00    -0.076 Cl
ENDROOT
TORSDOF 0
ENDMDL
MODEL 8
REMARK VINA RESULT:      -3.6      9.050     10.047
REMARK  0 active torsions:
REMARK  status: ('A' for Active; 'I' for Inactive)
ROOT
HETATM    1  C1  UNL     1     -41.854   5.368   1.315  1.00 20.00     0.078 C 
HETATM    2  C2  UNL     1     -43.417   4.648  -0.359  1.00 20.00     0.152 C 
HETATM    3  C3  UNL     1     -42.876   4.572   1.003  1.00 20.00     0.134 C 
HETATM    4  C4  UNL     1     -42.428   6.745  -0.709  1.00 20.00     0.213 C 
HETATM    5  C5  UNL     1     -41.349   6.353   0.307  1.00 20.00     0.217 C 
HETATM    6  N6  UNL     1     -43.210   5.595  -1.204  1.00 20.00    -0.294 NA
HETATM    7  F7  UNL     1     -43.358   3.616   1.813  1.00 20.00    -0.205 F 
HETATM    8  F8  UNL     1     -40.300   5.810  -0.374  1.00 20.00    -0.219 F 
HETATM    9 CL9  UNL     1     -40.758   7.820   1.137  1.00 20.00    -0.076 Cl
ENDROOT
TORSDOF 0
ENDMDL
MODEL 9
REMARK VINA RESULT:      -3.5     12.753     12.994
REMARK  0 active torsions:
REMARK  status: ('A' for Active; 'I' for Inactive)
ROOT
HETATM    1  C1  UNL     1     -31.970  18.140  -1.170  1.00 20.00     0.078 C 
HETATM    2  C2  UNL     1     -33.055  18.725   0.890  1.00 20.00     0.152 C 
HETATM    3  C3  UNL     1     -31.842  18.598   0.074  1.00 20.00     0.134 C 
HETATM    4  C4  UNL     1     -34.424  18.665  -1.013  1.00 20.00     0.213 C 
HETATM    5  C5  UNL     1     -33.334  17.845  -1.713  1.00 20.00     0.217 C 
HETATM    6  N6  UNL     1     -34.265  18.716   0.454  1.00 20.00    -0.294 NA
HETATM    7  F7  UNL     1     -30.662  18.830   0.671  1.00 20.00    -0.205 F 
HETATM    8  F8  UNL     1     -33.618  16.523  -1.540  1.00 20.00    -0.219 F 
HETATM    9 CL9  UNL     1     -33.374  18.186  -3.466  1.00 20.00    -0.076 Cl
ENDROOT
TORSDOF 0
ENDMDL
