MODEL 1
REMARK VINA RESULT:      -5.2      0.000      0.000
REMARK  0 active torsions:
REMARK  status: ('A' for Active; 'I' for Inactive)
ROOT
HETATM    1  C1  UNL     1     -33.207   5.830   2.924  1.00 20.00     0.047 C 
HETATM    2  C2  UNL     1     -33.919   5.417   3.980  1.00 20.00    -0.014 C 
HETATM    3  C3  UNL     1     -32.526   7.150   2.986  1.00 20.00     0.149 C 
HETATM    4  C4  UNL     1     -32.595   7.950   4.278  1.00 20.00     0.084 C 
HETATM    5  C5  UNL     1     -33.884   7.684   5.051  1.00 20.00     0.021 C 
HETATM    6  C6  UNL     1     -35.116   5.730   6.229  1.00 20.00     0.014 A 
HETATM    7  C7  UNL     1     -33.654   5.548   6.515  1.00 20.00     0.014 A 
HETATM    8  C8  UNL     1     -34.091   6.197   5.221  1.00 20.00    -0.022 A 
HETATM    9  O9  UNL     1     -31.874   7.544   2.021  1.00 20.00    -0.293 OA
ENDROOT
TORSDOF 0
ENDMDL
MODEL 2
REMARK VINA RESULT:      -4.9      1.592      2.485
REMARK  0 active torsions:
REMARK  status: ('A' for Active; 'I' for Inactive)
ROOT
HETATM    1  C1  UNL     1     -33.238   8.099   6.064  1.00 20.00     0.047 C 
HETATM    2  C2  UNL     1     -33.949   6.965   6.012  1.00 20.00    -0.014 C 
HETATM    3  C3  UNL     1     -32.580   8.593   4.826  1.00 20.00     0.149 C 
HETATM    4  C4  UNL     1     -32.802   7.836   3.526  1.00 20.00     0.084 C 
HETATM    5  C5  UNL     1     -33.037   6.347   3.760  1.00 20.00     0.021 C 
HETATM    6  C6  UNL     1     -34.733   4.773   4.932  1.00 20.00     0.014 A 
HETATM    7  C7  UNL     1     -35.533   5.888   4.325  1.00 20.00     0.014 A 
HETATM    8  C8  UNL     1     -34.119   6.147   4.795  1.00 20.00    -0.022 A 
HETATM    9  O9  UNL     1     -31.919   9.629   4.860  1.00 20.00    -0.293 OA
ENDROOT
TORSDOF 0
ENDMDL
MODEL 3
REMARK VINA RESULT:      -4.8      0.710      1.958
REMARK  0 active torsions:
REMARK  status: ('A' for Active; 'I' for Inactive)
ROOT
HETATM    1  C1  UNL     1     -32.802   7.977   3.910  1.00 20.00     0.047 C 
HETATM    2  C2  UNL     1     -33.541   7.358   4.839  1.00 20.00    -0.014 C 
HETATM    3  C3  UNL     1     -32.454   7.248   2.663  1.00 20.00     0.149 C 
HETATM    4  C4  UNL     1     -33.017   5.851   2.449  1.00 20.00     0.084 C 
HETATM    5  C5  UNL     1     -33.236   5.112   3.767  1.00 20.00     0.021 C 
HETATM    6  C6  UNL     1     -34.641   5.315   5.937  1.00 20.00     0.014 A 
HETATM    7  C7  UNL     1     -35.529   5.756   4.810  1.00 20.00     0.014 A 
HETATM    8  C8  UNL     1     -34.034   5.972   4.719  1.00 20.00    -0.022 A 
HETATM    9  O9  UNL     1     -31.771   7.803   1.804  1.00 20.00    -0.293 OA
ENDROOT
TORSDOF 0
ENDMDL
MODEL 4
REMARK VINA RESULT:      -4.6      1.906      3.198
REMARK  0 active torsions:
REMARK  status: ('A' for Active; 'I' for Inactive)
ROOT
HETATM    1  C1  UNL     1     -33.173   5.621   3.429  1.00 20.00     0.047 C 
HETATM    2  C2  UNL     1     -32.693   6.866   3.541  1.00 20.00    -0.014 C 
HETATM    3  C3  UNL     1     -34.086   5.105   4.483  1.00 20.00     0.149 C 
HETATM    4  C4  UNL     1     -34.506   6.035   5.609  1.00 20.00     0.084 C 
HETATM    5  C5  UNL     1     -33.435   7.075   5.927  1.00 20.00     0.021 C 
HETATM    6  C6  UNL     1     -32.201   9.053   4.791  1.00 20.00     0.014 A 
HETATM    7  C7  UNL     1     -33.625   9.111   4.321  1.00 20.00     0.014 A 
HETATM    8  C8  UNL     1     -32.999   7.776   4.661  1.00 20.00    -0.022 A 
HETATM    9  O9  UNL     1     -34.529   3.961   4.396  1.00 20.00    -0.293 OA
ENDROOT
TORSDOF 0
ENDMDL
MODEL 5
REMARK VINA RESULT:      -4.6      2.302      3.861
REMARK  0 active torsions:
REMARK  status: ('A' for Active; 'I' for Inactive)
ROOT
HETATM    1  C1  UNL     1     -34.088   7.122   6.423  1.00 20.00     0.047 C 
HETATM    2  C2  UNL     1     -33.496   7.923   5.528  1.00 20.00    -0.014 C 
HETATM    3  C3  UNL     1     -34.489   5.752   6.008  1.00 20.00     0.149 C 
HETATM    4  C4  UNL     1     -34.141   5.279   4.605  1.00 20.00     0.084 C 
HETATM    5  C5  UNL     1     -34.097   6.431   3.605  1.00 20.00     0.021 C 
HETATM    6  C6  UNL     1     -32.776   8.618   3.164  1.00 20.00     0.014 A 
HETATM    7  C7  UNL     1     -31.781   7.611   3.662  1.00 20.00     0.014 A 
HETATM    8  C8  UNL     1     -33.219   7.542   4.129  1.00 20.00    -0.022 A 
HETATM    9  O9  UNL     1     -35.039   5.008   6.818  1.00 20.00    -0.293 OA
ENDROOT
TORSDOF 0
ENDMDL
MODEL 6
REMARK VINA RESULT:      -4.2      1.894      3.423
REMARK  0 active torsions:
REMARK  status: ('A' for Active; 'I' for Inactive)
ROOT
HETATM    1  C1  UNL     1     -34.521   6.137   5.138  1.00 20.00     0.047 C 
HETATM    2  C2  UNL     1     -34.048   7.375   4.953  1.00 20.00    -0.014 C 
HETATM    3  C3  UNL     1     -33.987   5.029   4.302  1.00 20.00     0.149 C 
HETATM    4  C4  UNL     1     -32.863   5.327   3.322  1.00 20.00     0.084 C 
HETATM    5  C5  UNL     1     -32.921   6.760   2.799  1.00 20.00     0.021 C 
HETATM    6  C6  UNL     1     -32.759   9.194   3.679  1.00 20.00     0.014 A 
HETATM    7  C7  UNL     1     -31.758   8.390   4.457  1.00 20.00     0.014 A 
HETATM    8  C8  UNL     1     -33.022   7.731   3.952  1.00 20.00    -0.022 A 
HETATM    9  O9  UNL     1     -34.418   3.888   4.457  1.00 20.00    -0.293 OA
ENDROOT
TORSDOF 0
ENDMDL
MODEL 7
REMARK VINA RESULT:      -3.9      2.130      3.554
REMARK  0 active torsions:
REMARK  status: ('A' for Active; 'I' for Inactive)
ROOT
HETATM    1  C1  UNL     1     -33.292   7.733   5.205  1.00 20.00     0.047 C 
HETATM    2  C2  UNL     1     -33.037   7.176   4.014  1.00 20.00    -0.014 C 
HETATM    3  C3  UNL     1     -34.141   6.996   6.178  1.00 20.00     0.149 C 
HETATM    4  C4  UNL     1     -34.625   5.600   5.817  1.00 20.00     0.084 C 
HETATM    5  C5  UNL     1     -34.807   5.425   4.312  1.00 20.00     0.021 C 
HETATM    6  C6  UNL     1     -33.401   5.469   2.133  1.00 20.00     0.014 A 
HETATM    7  C7  UNL     1     -32.548   4.814   3.179  1.00 20.00     0.014 A 
HETATM    8  C8  UNL     1     -33.559   5.864   3.583  1.00 20.00    -0.022 A 
HETATM    9  O9  UNL     1     -34.388   7.498   7.272  1.00 20.00    -0.293 OA
ENDROOT
TORSDOF 0
ENDMDL
MODEL 8
REMARK VINA RESULT:      -3.9     12.341     13.132
REMARK  0 active torsions:
REMARK  status: ('A' for Active; 'I' for Inactive)
ROOT
HETATM    1  C1  UNL     1     -31.491  18.670   0.160  1.00 20.00     0.047 C 
HETATM    2  C2  UNL     1     -31.778  18.298  -1.094  1.00 20.00    -0.014 C 
HETATM    3  C3  UNL     1     -32.601  18.823   1.137  1.00 20.00     0.149 C 
HETATM    4  C4  UNL     1     -34.015  18.474   0.700  1.00 20.00     0.084 C 
HETATM    5  C5  UNL     1     -34.232  18.713  -0.791  1.00 20.00     0.021 C 
HETATM    6  C6  UNL     1     -33.348  17.867  -3.078  1.00 20.00     0.014 A 
HETATM    7  C7  UNL     1     -33.417  16.669  -2.177  1.00 20.00     0.014 A 
HETATM    8  C8  UNL     1     -33.143  18.036  -1.590  1.00 20.00    -0.022 A 
HETATM    9  O9  UNL     1     -32.353  19.170   2.291  1.00 20.00    -0.293 OA
ENDROOT
TORSDOF 0
ENDMDL
MODEL 9
REMARK VINA RESULT:      -3.9     12.094     13.047
REMARK  0 active torsions:
REMARK  status: ('A' for Active; 'I' for Inactive)
ROOT
HETATM    1  C1  UNL     1     -35.278  16.674  -5.057  1.00 20.00     0.047 C 
HETATM    2  C2  UNL     1     -34.604  17.386  -4.145  1.00 20.00    -0.014 C 
HETATM    3  C3  UNL     1     -34.984  15.224  -5.199  1.00 20.00     0.149 C 
HETATM    4  C4  UNL     1     -33.986  14.582  -4.248  1.00 20.00     0.084 C 
HETATM    5  C5  UNL     1     -32.916  15.567  -3.785  1.00 20.00     0.021 C 
HETATM    6  C6  UNL     1     -32.713  17.784  -2.456  1.00 20.00     0.014 A 
HETATM    7  C7  UNL     1     -33.769  16.969  -1.769  1.00 20.00     0.014 A 
HETATM    8  C8  UNL     1     -33.562  16.828  -3.261  1.00 20.00    -0.022 A 
HETATM    9  O9  UNL     1     -35.590  14.560  -6.037  1.00 20.00    -0.293 OA
ENDROOT
TORSDOF 0
ENDMDL
