MODEL 1
REMARK VINA RESULT:      -4.0      0.000      0.000
REMARK  3 active torsions:
REMARK  status: ('A' for Active; 'I' for Inactive)
REMARK    1  A    between atoms: C5_5  and  C8_8 
REMARK    2  A    between atoms: C6_6  and  C7_7 
REMARK    3  A    between atoms: C6_6  and  C8_8 
ROOT
HETATM    1  C4  UNL     1     -31.988   9.097   4.856  1.00 20.00     0.032 C 
HETATM    2  C8  UNL     1     -32.745   8.306   3.773  1.00 20.00     0.033 C 
HETATM    3 CL9  UNL     1     -33.025   9.477   2.420  1.00 20.00    -0.120 Cl
ENDROOT
BRANCH   2   4
HETATM    4  C5  UNL     1     -31.868   7.159   3.221  1.00 20.00     0.021 C 
HETATM    5  C1  UNL     1     -32.619   6.091   2.434  1.00 20.00     0.007 C 
ENDBRANCH   2   4
BRANCH   2   6
HETATM    6  C6  UNL     1     -34.105   7.841   4.357  1.00 20.00     0.029 C 
BRANCH   6   7
HETATM    7  C7  UNL     1     -34.170   6.524   5.167  1.00 20.00    -0.021 C 
HETATM    8  C2  UNL     1     -34.273   6.859   6.661  1.00 20.00     0.009 C 
HETATM    9  C3  UNL     1     -35.327   5.602   4.784  1.00 20.00     0.009 C 
ENDBRANCH   6   7
ENDBRANCH   2   6
TORSDOF 3
ENDMDL
MODEL 2
REMARK VINA RESULT:      -4.0      1.450      1.896
REMARK  3 active torsions:
REMARK  status: ('A' for Active; 'I' for Inactive)
REMARK    1  A    between atoms: C5_5  and  C8_8 
REMARK    2  A    between atoms: C6_6  and  C7_7 
REMARK    3  A    between atoms: C6_6  and  C8_8 
ROOT
HETATM    1  C4  UNL     1     -31.962   7.284   3.108  1.00 20.00     0.032 C 
HETATM    2  C8  UNL     1     -32.802   8.468   3.622  1.00 20.00     0.033 C 
HETATM    3 CL9  UNL     1     -31.819   9.228   4.939  1.00 20.00    -0.120 Cl
ENDROOT
BRANCH   2   4
HETATM    4  C5  UNL     1     -32.990   9.526   2.512  1.00 20.00     0.021 C 
HETATM    5  C1  UNL     1     -32.635   9.059   1.104  1.00 20.00     0.007 C 
ENDBRANCH   2   4
BRANCH   2   6
HETATM    6  C6  UNL     1     -34.130   7.918   4.208  1.00 20.00     0.029 C 
BRANCH   6   7
HETATM    7  C7  UNL     1     -34.119   6.573   4.974  1.00 20.00    -0.021 C 
HETATM    8  C2  UNL     1     -34.151   6.857   6.482  1.00 20.00     0.009 C 
HETATM    9  C3  UNL     1     -35.270   5.634   4.621  1.00 20.00     0.009 C 
ENDBRANCH   6   7
ENDBRANCH   2   6
TORSDOF 3
ENDMDL
MODEL 3
REMARK VINA RESULT:      -4.0      1.952      4.043
REMARK  3 active torsions:
REMARK  status: ('A' for Active; 'I' for Inactive)
REMARK    1  A    between atoms: C5_5  and  C8_8 
REMARK    2  A    between atoms: C6_6  and  C7_7 
REMARK    3  A    between atoms: C6_6  and  C8_8 
ROOT
HETATM    1  C4  UNL     1     -33.724   5.018   3.695  1.00 20.00     0.032 C 
HETATM    2  C8  UNL     1     -34.507   6.039   4.541  1.00 20.00     0.033 C 
HETATM    3 CL9  UNL     1     -36.243   5.833   4.071  1.00 20.00    -0.120 Cl
ENDROOT
BRANCH   2   4
HETATM    4  C5  UNL     1     -34.389   5.706   6.045  1.00 20.00     0.021 C 
HETATM    5  C1  UNL     1     -34.342   6.914   6.975  1.00 20.00     0.007 C 
ENDBRANCH   2   4
BRANCH   2   6
HETATM    6  C6  UNL     1     -34.026   7.466   4.167  1.00 20.00     0.029 C 
BRANCH   6   7
HETATM    7  C7  UNL     1     -32.508   7.752   4.072  1.00 20.00    -0.021 C 
HETATM    8  C2  UNL     1     -32.116   7.887   2.594  1.00 20.00     0.009 C 
HETATM    9  C3  UNL     1     -32.051   9.002   4.823  1.00 20.00     0.009 C 
ENDBRANCH   6   7
ENDBRANCH   2   6
TORSDOF 3
ENDMDL
MODEL 4
REMARK VINA RESULT:      -3.9      2.115      3.735
REMARK  3 active torsions:
REMARK  status: ('A' for Active; 'I' for Inactive)
REMARK    1  A    between atoms: C5_5  and  C8_8 
REMARK    2  A    between atoms: C6_6  and  C7_7 
REMARK    3  A    between atoms: C6_6  and  C8_8 
ROOT
HETATM    1  C4  UNL     1     -35.794   5.805   4.319  1.00 20.00     0.032 C 
HETATM    2  C8  UNL     1     -34.335   6.075   4.731  1.00 20.00     0.033 C 
HETATM    3 CL9  UNL     1     -34.296   5.906   6.533  1.00 20.00    -0.120 Cl
ENDROOT
BRANCH   2   4
HETATM    4  C5  UNL     1     -33.394   5.001   4.142  1.00 20.00     0.021 C 
HETATM    5  C1  UNL     1     -33.322   4.965   2.619  1.00 20.00     0.007 C 
ENDBRANCH   2   4
BRANCH   2   6
HETATM    6  C6  UNL     1     -33.968   7.530   4.331  1.00 20.00     0.029 C 
BRANCH   6   7
HETATM    7  C7  UNL     1     -32.477   7.935   4.235  1.00 20.00    -0.021 C 
HETATM    8  C2  UNL     1     -32.124   8.200   2.766  1.00 20.00     0.009 C 
HETATM    9  C3  UNL     1     -32.100   9.160   5.066  1.00 20.00     0.009 C 
ENDBRANCH   6   7
ENDBRANCH   2   6
TORSDOF 3
ENDMDL
MODEL 5
REMARK VINA RESULT:      -3.7     11.486     12.418
REMARK  3 active torsions:
REMARK  status: ('A' for Active; 'I' for Inactive)
REMARK    1  A    between atoms: C5_5  and  C8_8 
REMARK    2  A    between atoms: C6_6  and  C7_7 
REMARK    3  A    between atoms: C6_6  and  C8_8 
ROOT
HETATM    1  C4  UNL     1     -33.041  18.957  -3.846  1.00 20.00     0.032 C 
HETATM    2  C8  UNL     1     -33.849  17.801  -3.228  1.00 20.00     0.033 C 
HETATM    3 CL9  UNL     1     -35.474  18.495  -2.834  1.00 20.00    -0.120 Cl
ENDROOT
BRANCH   2   4
HETATM    4  C5  UNL     1     -34.063  16.671  -4.260  1.00 20.00     0.021 C 
HETATM    5  C1  UNL     1     -33.539  15.302  -3.840  1.00 20.00     0.007 C 
ENDBRANCH   2   4
BRANCH   2   6
HETATM    6  C6  UNL     1     -33.142  17.345  -1.924  1.00 20.00     0.029 C 
BRANCH   6   7
HETATM    7  C7  UNL     1     -32.832  18.390  -0.825  1.00 20.00    -0.021 C 
HETATM    8  C2  UNL     1     -33.724  18.114   0.394  1.00 20.00     0.009 C 
HETATM    9  C3  UNL     1     -31.373  18.423  -0.376  1.00 20.00     0.009 C 
ENDBRANCH   6   7
ENDBRANCH   2   6
TORSDOF 3
ENDMDL
MODEL 6
REMARK VINA RESULT:      -3.7      8.724      9.894
REMARK  3 active torsions:
REMARK  status: ('A' for Active; 'I' for Inactive)
REMARK    1  A    between atoms: C5_5  and  C8_8 
REMARK    2  A    between atoms: C6_6  and  C7_7 
REMARK    3  A    between atoms: C6_6  and  C8_8 
ROOT
HETATM    1  C4  UNL     1     -42.855  12.937   6.730  1.00 20.00     0.032 C 
HETATM    2  C8  UNL     1     -41.528  13.448   6.137  1.00 20.00     0.033 C 
HETATM    3 CL9  UNL     1     -41.945  14.103   4.501  1.00 20.00    -0.120 Cl
ENDROOT
BRANCH   2   4
HETATM    4  C5  UNL     1     -40.968  14.617   6.978  1.00 20.00     0.021 C 
HETATM    5  C1  UNL     1     -40.342  14.216   8.309  1.00 20.00     0.007 C 
ENDBRANCH   2   4
BRANCH   2   6
HETATM    6  C6  UNL     1     -40.556  12.247   5.991  1.00 20.00     0.029 C 
BRANCH   6   7
HETATM    7  C7  UNL     1     -39.267  12.415   5.150  1.00 20.00    -0.021 C 
HETATM    8  C2  UNL     1     -38.048  12.153   6.045  1.00 20.00     0.009 C 
HETATM    9  C3  UNL     1     -39.188  11.507   3.924  1.00 20.00     0.009 C 
ENDBRANCH   6   7
ENDBRANCH   2   6
TORSDOF 3
ENDMDL
MODEL 7
REMARK VINA RESULT:      -3.6      9.375     10.279
REMARK  3 active torsions:
REMARK  status: ('A' for Active; 'I' for Inactive)
REMARK    1  A    between atoms: C5_5  and  C8_8 
REMARK    2  A    between atoms: C6_6  and  C7_7 
REMARK    3  A    between atoms: C6_6  and  C8_8 
ROOT
HETATM    1  C4  UNL     1     -41.358  13.622   4.796  1.00 20.00     0.032 C 
HETATM    2  C8  UNL     1     -40.854  12.941   6.082  1.00 20.00     0.033 C 
HETATM    3 CL9  UNL     1     -42.339  12.393   6.959  1.00 20.00    -0.120 Cl
ENDROOT
BRANCH   2   4
HETATM    4  C5  UNL     1     -40.022  11.684   5.744  1.00 20.00     0.021 C 
HETATM    5  C1  UNL     1     -39.215  11.768   4.453  1.00 20.00     0.007 C 
ENDBRANCH   2   4
BRANCH   2   6
HETATM    6  C6  UNL     1     -40.097  13.993   6.936  1.00 20.00     0.029 C 
BRANCH   6   7
HETATM    7  C7  UNL     1     -40.890  14.867   7.939  1.00 20.00    -0.021 C 
HETATM    8  C2  UNL     1     -40.411  14.554   9.363  1.00 20.00     0.009 C 
HETATM    9  C3  UNL     1     -40.776  16.371   7.696  1.00 20.00     0.009 C 
ENDBRANCH   6   7
ENDBRANCH   2   6
TORSDOF 3
ENDMDL
MODEL 8
REMARK VINA RESULT:      -3.6     11.622     12.471
REMARK  3 active torsions:
REMARK  status: ('A' for Active; 'I' for Inactive)
REMARK    1  A    between atoms: C5_5  and  C8_8 
REMARK    2  A    between atoms: C6_6  and  C7_7 
REMARK    3  A    between atoms: C6_6  and  C8_8 
ROOT
HETATM    1  C4  UNL     1     -34.863  18.792  -1.534  1.00 20.00     0.032 C 
HETATM    2  C8  UNL     1     -33.452  18.183  -1.637  1.00 20.00     0.033 C 
HETATM    3 CL9  UNL     1     -32.538  19.257  -2.771  1.00 20.00    -0.120 Cl
ENDROOT
BRANCH   2   4
HETATM    4  C5  UNL     1     -32.735  18.233  -0.269  1.00 20.00     0.021 C 
HETATM    5  C1  UNL     1     -31.247  18.564  -0.328  1.00 20.00     0.007 C 
ENDBRANCH   2   4
BRANCH   2   6
HETATM    6  C6  UNL     1     -33.570  16.758  -2.240  1.00 20.00     0.029 C 
BRANCH   6   7
HETATM    7  C7  UNL     1     -33.398  16.566  -3.767  1.00 20.00    -0.021 C 
HETATM    8  C2  UNL     1     -33.040  15.101  -4.050  1.00 20.00     0.009 C 
HETATM    9  C3  UNL     1     -34.625  16.946  -4.594  1.00 20.00     0.009 C 
ENDBRANCH   6   7
ENDBRANCH   2   6
TORSDOF 3
ENDMDL
MODEL 9
REMARK VINA RESULT:      -3.6      9.204     10.404
REMARK  3 active torsions:
REMARK  status: ('A' for Active; 'I' for Inactive)
REMARK    1  A    between atoms: C5_5  and  C8_8 
REMARK    2  A    between atoms: C6_6  and  C7_7 
REMARK    3  A    between atoms: C6_6  and  C8_8 
ROOT
HETATM    1  C4  UNL     1     -43.038  14.316   5.262  1.00 20.00     0.032 C 
HETATM    2  C8  UNL     1     -41.932  13.558   6.018  1.00 20.00     0.033 C 
HETATM    3 CL9  UNL     1     -41.293  14.723   7.248  1.00 20.00    -0.120 Cl
ENDROOT
BRANCH   2   4
HETATM    4  C5  UNL     1     -42.522  12.351   6.783  1.00 20.00     0.021 C 
HETATM    5  C1  UNL     1     -43.198  12.691   8.107  1.00 20.00     0.007 C 
ENDBRANCH   2   4
BRANCH   2   6
HETATM    6  C6  UNL     1     -40.809  13.186   5.013  1.00 20.00     0.029 C 
BRANCH   6   7
HETATM    7  C7  UNL     1     -39.932  11.939   5.285  1.00 20.00    -0.021 C 
HETATM    8  C2  UNL     1     -39.112  11.621   4.028  1.00 20.00     0.009 C 
HETATM    9  C3  UNL     1     -38.984  12.081   6.475  1.00 20.00     0.009 C 
ENDBRANCH   6   7
ENDBRANCH   2   6
TORSDOF 3
ENDMDL
