MODEL 1
REMARK VINA RESULT:      -4.7      0.000      0.000
REMARK  3 active torsions:
REMARK  status: ('A' for Active; 'I' for Inactive)
REMARK    1  A    between atoms: C3_3  and  C8_8 
REMARK    2  A    between atoms: C6_6  and  C7_7 
REMARK    3  A    between atoms: C7_7  and  C8_8 
ROOT
HETATM    1  C5  UNL     1     -34.435   6.771   6.739  1.00 20.00     0.010 C 
HETATM    2  C8  UNL     1     -33.766   6.751   5.365  1.00 20.00    -0.014 C 
ENDROOT
BRANCH   2   3
HETATM    3  C3  UNL     1     -33.559   8.186   4.870  1.00 20.00    -0.011 A 
HETATM    4  C1  UNL     1     -32.197   8.820   4.935  1.00 20.00     0.005 A 
HETATM    5  C2  UNL     1     -32.790   8.447   3.605  1.00 20.00     0.005 A 
ENDBRANCH   2   3
BRANCH   2   6
HETATM    6  C7  UNL     1     -34.577   5.954   4.326  1.00 20.00     0.004 C 
BRANCH   6   7
HETATM    7  C6  UNL     1     -33.850   4.711   3.808  1.00 20.00    -0.004 C 
HETATM    8  C4  UNL     1     -32.968   5.043   2.613  1.00 20.00     0.005 C 
ENDBRANCH   6   7
ENDBRANCH   2   6
TORSDOF 3
ENDMDL
MODEL 2
REMARK VINA RESULT:      -4.5      1.039      2.540
REMARK  3 active torsions:
REMARK  status: ('A' for Active; 'I' for Inactive)
REMARK    1  A    between atoms: C3_3  and  C8_8 
REMARK    2  A    between atoms: C6_6  and  C7_7 
REMARK    3  A    between atoms: C7_7  and  C8_8 
ROOT
HETATM    1  C5  UNL     1     -32.906   5.148   2.785  1.00 20.00     0.010 C 
HETATM    2  C8  UNL     1     -33.608   6.417   3.269  1.00 20.00    -0.014 C 
ENDROOT
BRANCH   2   3
HETATM    3  C3  UNL     1     -32.599   7.331   3.969  1.00 20.00    -0.011 A 
HETATM    4  C1  UNL     1     -32.537   8.794   3.625  1.00 20.00     0.005 A 
HETATM    5  C2  UNL     1     -33.069   8.357   4.962  1.00 20.00     0.005 A 
ENDBRANCH   2   3
BRANCH   2   6
HETATM    6  C7  UNL     1     -34.782   6.114   4.219  1.00 20.00     0.004 C 
BRANCH   6   7
HETATM    7  C6  UNL     1     -34.543   4.898   5.116  1.00 20.00    -0.004 C 
HETATM    8  C4  UNL     1     -34.438   5.302   6.580  1.00 20.00     0.005 C 
ENDBRANCH   6   7
ENDBRANCH   2   6
TORSDOF 3
ENDMDL
MODEL 3
REMARK VINA RESULT:      -4.2      1.168      2.810
REMARK  3 active torsions:
REMARK  status: ('A' for Active; 'I' for Inactive)
REMARK    1  A    between atoms: C3_3  and  C8_8 
REMARK    2  A    between atoms: C6_6  and  C7_7 
REMARK    3  A    between atoms: C7_7  and  C8_8 
ROOT
HETATM    1  C5  UNL     1     -32.216   9.139   4.906  1.00 20.00     0.010 C 
HETATM    2  C8  UNL     1     -32.807   7.730   4.848  1.00 20.00    -0.014 C 
ENDROOT
BRANCH   2   3
HETATM    3  C3  UNL     1     -33.123   7.362   3.396  1.00 20.00    -0.011 A 
HETATM    4  C1  UNL     1     -32.009   7.153   2.408  1.00 20.00     0.005 A 
HETATM    5  C2  UNL     1     -32.822   5.981   2.882  1.00 20.00     0.005 A 
ENDBRANCH   2   3
BRANCH   2   6
HETATM    6  C7  UNL     1     -34.076   7.588   5.709  1.00 20.00     0.004 C 
BRANCH   6   7
HETATM    7  C6  UNL     1     -34.123   6.288   6.516  1.00 20.00    -0.004 C 
HETATM    8  C4  UNL     1     -34.868   5.196   5.761  1.00 20.00     0.005 C 
ENDBRANCH   6   7
ENDBRANCH   2   6
TORSDOF 3
ENDMDL
MODEL 4
REMARK VINA RESULT:      -4.2      1.064      3.703
REMARK  3 active torsions:
REMARK  status: ('A' for Active; 'I' for Inactive)
REMARK    1  A    between atoms: C3_3  and  C8_8 
REMARK    2  A    between atoms: C6_6  and  C7_7 
REMARK    3  A    between atoms: C7_7  and  C8_8 
ROOT
HETATM    1  C5  UNL     1     -33.276   4.917   2.583  1.00 20.00     0.010 C 
HETATM    2  C8  UNL     1     -33.225   5.864   3.783  1.00 20.00    -0.014 C 
ENDROOT
BRANCH   2   3
HETATM    3  C3  UNL     1     -34.493   5.699   4.625  1.00 20.00    -0.011 A 
HETATM    4  C1  UNL     1     -34.453   4.920   5.910  1.00 20.00     0.005 A 
HETATM    5  C2  UNL     1     -34.625   6.413   5.942  1.00 20.00     0.005 A 
ENDBRANCH   2   3
BRANCH   2   6
HETATM    6  C7  UNL     1     -33.065   7.337   3.364  1.00 20.00     0.004 C 
BRANCH   6   7
HETATM    7  C6  UNL     1     -31.871   8.032   4.021  1.00 20.00    -0.004 C 
HETATM    8  C4  UNL     1     -32.324   9.113   4.992  1.00 20.00     0.005 C 
ENDBRANCH   6   7
ENDBRANCH   2   6
TORSDOF 3
ENDMDL
MODEL 5
REMARK VINA RESULT:      -4.2      1.368      3.467
REMARK  3 active torsions:
REMARK  status: ('A' for Active; 'I' for Inactive)
REMARK    1  A    between atoms: C3_3  and  C8_8 
REMARK    2  A    between atoms: C6_6  and  C7_7 
REMARK    3  A    between atoms: C7_7  and  C8_8 
ROOT
HETATM    1  C5  UNL     1     -33.225   5.458   2.819  1.00 20.00     0.010 C 
HETATM    2  C8  UNL     1     -33.005   6.413   3.992  1.00 20.00    -0.014 C 
ENDROOT
BRANCH   2   3
HETATM    3  C3  UNL     1     -34.282   6.501   4.833  1.00 20.00    -0.011 A 
HETATM    4  C1  UNL     1     -34.550   5.487   5.911  1.00 20.00     0.005 A 
HETATM    5  C2  UNL     1     -34.210   6.905   6.279  1.00 20.00     0.005 A 
ENDBRANCH   2   3
BRANCH   2   6
HETATM    6  C7  UNL     1     -32.585   7.822   3.534  1.00 20.00     0.004 C 
BRANCH   6   7
HETATM    7  C6  UNL     1     -32.186   7.891   2.059  1.00 20.00    -0.004 C 
HETATM    8  C4  UNL     1     -32.708   9.161   1.402  1.00 20.00     0.005 C 
ENDBRANCH   6   7
ENDBRANCH   2   6
TORSDOF 3
ENDMDL
MODEL 6
REMARK VINA RESULT:      -4.0      1.026      3.178
REMARK  3 active torsions:
REMARK  status: ('A' for Active; 'I' for Inactive)
REMARK    1  A    between atoms: C3_3  and  C8_8 
REMARK    2  A    between atoms: C6_6  and  C7_7 
REMARK    3  A    between atoms: C7_7  and  C8_8 
ROOT
HETATM    1  C5  UNL     1     -34.661   5.267   5.893  1.00 20.00     0.010 C 
HETATM    2  C8  UNL     1     -34.470   5.978   4.553  1.00 20.00    -0.014 C 
ENDROOT
BRANCH   2   3
HETATM    3  C3  UNL     1     -33.222   5.432   3.852  1.00 20.00    -0.011 A 
HETATM    4  C1  UNL     1     -33.335   4.791   2.496  1.00 20.00     0.005 A 
HETATM    5  C2  UNL     1     -32.667   6.130   2.642  1.00 20.00     0.005 A 
ENDBRANCH   2   3
BRANCH   2   6
HETATM    6  C7  UNL     1     -34.353   7.506   4.708  1.00 20.00     0.004 C 
BRANCH   6   7
HETATM    7  C6  UNL     1     -33.181   7.942   5.590  1.00 20.00    -0.004 C 
HETATM    8  C4  UNL     1     -32.294   8.950   4.873  1.00 20.00     0.005 C 
ENDBRANCH   6   7
ENDBRANCH   2   6
TORSDOF 3
ENDMDL
MODEL 7
REMARK VINA RESULT:      -3.9      0.974      2.628
REMARK  3 active torsions:
REMARK  status: ('A' for Active; 'I' for Inactive)
REMARK    1  A    between atoms: C3_3  and  C8_8 
REMARK    2  A    between atoms: C6_6  and  C7_7 
REMARK    3  A    between atoms: C7_7  and  C8_8 
ROOT
HETATM    1  C5  UNL     1     -32.212   8.813   4.865  1.00 20.00     0.010 C 
HETATM    2  C8  UNL     1     -33.496   7.986   4.807  1.00 20.00    -0.014 C 
ENDROOT
BRANCH   2   3
HETATM    3  C3  UNL     1     -33.460   6.899   5.885  1.00 20.00    -0.011 A 
HETATM    4  C1  UNL     1     -34.557   6.813   6.910  1.00 20.00     0.005 A 
HETATM    5  C2  UNL     1     -34.441   5.760   5.844  1.00 20.00     0.005 A 
ENDBRANCH   2   3
BRANCH   2   6
HETATM    6  C7  UNL     1     -33.720   7.343   3.426  1.00 20.00     0.004 C 
BRANCH   6   7
HETATM    7  C6  UNL     1     -32.507   6.567   2.910  1.00 20.00    -0.004 C 
HETATM    8  C4  UNL     1     -32.873   5.130   2.565  1.00 20.00     0.005 C 
ENDBRANCH   6   7
ENDBRANCH   2   6
TORSDOF 3
ENDMDL
MODEL 8
REMARK VINA RESULT:      -3.9      1.320      2.983
REMARK  3 active torsions:
REMARK  status: ('A' for Active; 'I' for Inactive)
REMARK    1  A    between atoms: C3_3  and  C8_8 
REMARK    2  A    between atoms: C6_6  and  C7_7 
REMARK    3  A    between atoms: C7_7  and  C8_8 
ROOT
HETATM    1  C5  UNL     1     -33.722   7.950   6.440  1.00 20.00     0.010 C 
HETATM    2  C8  UNL     1     -33.800   7.687   4.936  1.00 20.00    -0.014 C 
ENDROOT
BRANCH   2   3
HETATM    3  C3  UNL     1     -34.045   6.197   4.684  1.00 20.00    -0.011 A 
HETATM    4  C1  UNL     1     -34.642   5.335   5.763  1.00 20.00     0.005 A 
HETATM    5  C2  UNL     1     -35.448   5.674   4.539  1.00 20.00     0.005 A 
ENDBRANCH   2   3
BRANCH   2   6
HETATM    6  C7  UNL     1     -32.530   8.139   4.192  1.00 20.00     0.004 C 
BRANCH   6   7
HETATM    7  C6  UNL     1     -32.180   7.258   2.991  1.00 20.00    -0.004 C 
HETATM    8  C4  UNL     1     -32.176   8.060   1.698  1.00 20.00     0.005 C 
ENDBRANCH   6   7
ENDBRANCH   2   6
TORSDOF 3
ENDMDL
MODEL 9
REMARK VINA RESULT:      -3.6      8.737     10.089
REMARK  3 active torsions:
REMARK  status: ('A' for Active; 'I' for Inactive)
REMARK    1  A    between atoms: C3_3  and  C8_8 
REMARK    2  A    between atoms: C6_6  and  C7_7 
REMARK    3  A    between atoms: C7_7  and  C8_8 
ROOT
HETATM    1  C5  UNL     1     -42.247  12.469   6.796  1.00 20.00     0.010 C 
HETATM    2  C8  UNL     1     -41.034  12.983   6.022  1.00 20.00    -0.014 C 
ENDROOT
BRANCH   2   3
HETATM    3  C3  UNL     1     -40.027  11.845   5.826  1.00 20.00    -0.011 A 
HETATM    4  C1  UNL     1     -39.386  11.625   4.483  1.00 20.00     0.005 A 
HETATM    5  C2  UNL     1     -38.568  12.151   5.630  1.00 20.00     0.005 A 
ENDBRANCH   2   3
BRANCH   2   6
HETATM    6  C7  UNL     1     -40.347  14.170   6.723  1.00 20.00     0.004 C 
BRANCH   6   7
HETATM    7  C6  UNL     1     -40.492  14.146   8.246  1.00 20.00    -0.004 C 
HETATM    8  C4  UNL     1     -40.278  15.529   8.845  1.00 20.00     0.005 C 
ENDBRANCH   6   7
ENDBRANCH   2   6
TORSDOF 3
ENDMDL
