MODEL 1
REMARK VINA RESULT:      -3.8      0.000      0.000
REMARK  1 active torsions:
REMARK  status: ('A' for Active; 'I' for Inactive)
REMARK    1  A    between atoms: C5_5  and  C7_7 
ROOT
HETATM    1  C1  UNL     1     -32.595   7.891   3.395  1.00 20.00     0.019 C 
HETATM    2  C2  UNL     1     -35.449   6.382   4.503  1.00 20.00     0.292 C 
HETATM    3  C3  UNL     1     -34.198   5.261   5.742  1.00 20.00     0.292 C 
HETATM    4  C4  UNL     1     -32.388   8.664   4.687  1.00 20.00     0.075 C 
HETATM    5  C5  UNL     1     -32.832   6.434   3.792  1.00 20.00     0.037 C 
HETATM    6  C6  UNL     1     -33.936   6.495   4.847  1.00 20.00     0.066 C 
HETATM    7  N8  UNL     1     -35.382   4.961   4.906  1.00 20.00     0.086 N 
HETATM    8  S10 UNL     1     -33.630   8.031   5.855  1.00 20.00    -0.155 SA
HETATM    9  H22 UNL     1     -36.194   4.622   5.419  1.00 20.00     0.316 HD
ENDROOT
BRANCH   5  10
HETATM   10  C7  UNL     1     -33.158   5.564   2.588  1.00 20.00     0.228 C 
HETATM   11  F9  UNL     1     -32.339   4.484   2.607  1.00 20.00    -0.255 F 
ENDBRANCH   5  10
TORSDOF 1
ENDMDL
MODEL 2
REMARK VINA RESULT:      -3.7      2.420      2.971
REMARK  1 active torsions:
REMARK  status: ('A' for Active; 'I' for Inactive)
REMARK    1  A    between atoms: C5_5  and  C7_7 
ROOT
HETATM    1  C1  UNL     1     -32.213   7.650   3.746  1.00 20.00     0.019 C 
HETATM    2  C2  UNL     1     -33.722   5.307   5.716  1.00 20.00     0.292 C 
HETATM    3  C3  UNL     1     -35.450   5.714   4.619  1.00 20.00     0.292 C 
HETATM    4  C4  UNL     1     -32.216   6.757   2.516  1.00 20.00     0.075 C 
HETATM    5  C5  UNL     1     -33.634   7.624   4.309  1.00 20.00     0.037 C 
HETATM    6  C6  UNL     1     -33.975   6.139   4.426  1.00 20.00     0.066 C 
HETATM    7  N8  UNL     1     -35.151   5.484   6.050  1.00 20.00     0.086 N 
HETATM    8  S10 UNL     1     -33.195   5.291   2.964  1.00 20.00    -0.155 SA
HETATM    9  H22 UNL     1     -35.602   4.666   6.456  1.00 20.00     0.316 HD
ENDROOT
BRANCH   5  10
HETATM   10  C7  UNL     1     -33.743   8.401   5.611  1.00 20.00     0.228 C 
HETATM   11  F9  UNL     1     -32.783   9.359   5.619  1.00 20.00    -0.255 F 
ENDBRANCH   5  10
TORSDOF 1
ENDMDL
MODEL 3
REMARK VINA RESULT:      -3.6     12.689     13.652
REMARK  1 active torsions:
REMARK  status: ('A' for Active; 'I' for Inactive)
REMARK    1  A    between atoms: C5_5  and  C7_7 
ROOT
HETATM    1  C1  UNL     1     -34.902  18.140  -5.040  1.00 20.00     0.019 C 
HETATM    2  C2  UNL     1     -33.738  15.068  -5.967  1.00 20.00     0.292 C 
HETATM    3  C3  UNL     1     -35.116  14.299  -4.601  1.00 20.00     0.292 C 
HETATM    4  C4  UNL     1     -36.230  17.958  -5.756  1.00 20.00     0.075 C 
HETATM    5  C5  UNL     1     -34.688  16.886  -4.192  1.00 20.00     0.037 C 
HETATM    6  C6  UNL     1     -34.896  15.723  -5.162  1.00 20.00     0.066 C 
HETATM    7  N8  UNL     1     -33.712  13.991  -4.954  1.00 20.00     0.086 N 
HETATM    8  S10 UNL     1     -36.263  16.230  -6.321  1.00 20.00    -0.155 SA
HETATM    9  H22 UNL     1     -33.559  13.055  -5.326  1.00 20.00     0.316 HD
ENDROOT
BRANCH   5  10
HETATM   10  C7  UNL     1     -33.334  16.893  -3.498  1.00 20.00     0.228 C 
HETATM   11  F9  UNL     1     -33.441  16.186  -2.346  1.00 20.00    -0.255 F 
ENDBRANCH   5  10
TORSDOF 1
ENDMDL
MODEL 4
REMARK VINA RESULT:      -3.5     12.848     13.921
REMARK  1 active torsions:
REMARK  status: ('A' for Active; 'I' for Inactive)
REMARK    1  A    between atoms: C5_5  and  C7_7 
ROOT
HETATM    1  C1  UNL     1     -33.685  15.184  -3.746  1.00 20.00     0.019 C 
HETATM    2  C2  UNL     1     -35.669  17.934  -4.125  1.00 20.00     0.292 C 
HETATM    3  C3  UNL     1     -34.086  18.742  -5.219  1.00 20.00     0.292 C 
HETATM    4  C4  UNL     1     -33.841  14.754  -5.195  1.00 20.00     0.075 C 
HETATM    5  C5  UNL     1     -33.300  16.663  -3.769  1.00 20.00     0.037 C 
HETATM    6  C6  UNL     1     -34.347  17.321  -4.667  1.00 20.00     0.066 C 
HETATM    7  N8  UNL     1     -35.024  19.263  -4.199  1.00 20.00     0.086 N 
HETATM    8  S10 UNL     1     -34.725  16.107  -6.027  1.00 20.00    -0.155 SA
HETATM    9  H22 UNL     1     -35.629  20.017  -4.519  1.00 20.00     0.316 HD
ENDROOT
BRANCH   5  10
HETATM   10  C7  UNL     1     -33.214  17.249  -2.368  1.00 20.00     0.228 C 
HETATM   11  F9  UNL     1     -33.749  16.356  -1.498  1.00 20.00    -0.255 F 
ENDBRANCH   5  10
TORSDOF 1
ENDMDL
MODEL 5
REMARK VINA RESULT:      -3.3     12.553     13.431
REMARK  1 active torsions:
REMARK  status: ('A' for Active; 'I' for Inactive)
REMARK    1  A    between atoms: C5_5  and  C7_7 
ROOT
HETATM    1  C1  UNL     1     -33.295  16.764  -3.367  1.00 20.00     0.019 C 
HETATM    2  C2  UNL     1     -34.520  16.370  -6.528  1.00 20.00     0.292 C 
HETATM    3  C3  UNL     1     -36.190  15.513  -5.614  1.00 20.00     0.292 C 
HETATM    4  C4  UNL     1     -34.273  17.876  -3.025  1.00 20.00     0.075 C 
HETATM    5  C5  UNL     1     -34.123  15.620  -3.952  1.00 20.00     0.037 C 
HETATM    6  C6  UNL     1     -34.971  16.275  -5.043  1.00 20.00     0.066 C 
HETATM    7  N8  UNL     1     -35.376  15.197  -6.810  1.00 20.00     0.086 N 
HETATM    8  S10 UNL     1     -35.440  17.964  -4.416  1.00 20.00    -0.155 SA
HETATM    9  H22 UNL     1     -35.880  15.236  -7.694  1.00 20.00     0.316 HD
ENDROOT
BRANCH   5  10
HETATM   10  C7  UNL     1     -33.247  14.475  -4.436  1.00 20.00     0.228 C 
HETATM   11  F9  UNL     1     -31.954  14.784  -4.169  1.00 20.00    -0.255 F 
ENDBRANCH   5  10
TORSDOF 1
ENDMDL
MODEL 6
REMARK VINA RESULT:      -3.3     12.321     13.255
REMARK  1 active torsions:
REMARK  status: ('A' for Active; 'I' for Inactive)
REMARK    1  A    between atoms: C5_5  and  C7_7 
ROOT
HETATM    1  C1  UNL     1     -35.197  17.759  -4.172  1.00 20.00     0.019 C 
HETATM    2  C2  UNL     1     -34.388  14.459  -3.851  1.00 20.00     0.292 C 
HETATM    3  C3  UNL     1     -32.462  15.029  -4.418  1.00 20.00     0.292 C 
HETATM    4  C4  UNL     1     -34.435  18.166  -2.922  1.00 20.00     0.075 C 
HETATM    5  C5  UNL     1     -34.242  16.907  -5.008  1.00 20.00     0.037 C 
HETATM    6  C6  UNL     1     -33.717  15.849  -4.038  1.00 20.00     0.066 C 
HETATM    7  N8  UNL     1     -33.356  13.897  -4.749  1.00 20.00     0.086 N 
HETATM    8  S10 UNL     1     -33.525  16.685  -2.385  1.00 20.00    -0.155 SA
HETATM    9  H22 UNL     1     -33.004  12.980  -4.478  1.00 20.00     0.316 HD
ENDROOT
BRANCH   5  10
HETATM   10  C7  UNL     1     -34.920  16.345  -6.248  1.00 20.00     0.228 C 
HETATM   11  F9  UNL     1     -33.964  16.072  -7.170  1.00 20.00    -0.255 F 
ENDBRANCH   5  10
TORSDOF 1
ENDMDL
MODEL 7
REMARK VINA RESULT:      -3.3     13.015     13.928
REMARK  1 active torsions:
REMARK  status: ('A' for Active; 'I' for Inactive)
REMARK    1  A    between atoms: C5_5  and  C7_7 
ROOT
HETATM    1  C1  UNL     1     -33.088  15.844  -3.699  1.00 20.00     0.019 C 
HETATM    2  C2  UNL     1     -34.416  18.141  -5.845  1.00 20.00     0.292 C 
HETATM    3  C3  UNL     1     -36.275  17.510  -5.136  1.00 20.00     0.292 C 
HETATM    4  C4  UNL     1     -33.427  16.661  -2.464  1.00 20.00     0.075 C 
HETATM    5  C5  UNL     1     -34.365  15.767  -4.536  1.00 20.00     0.037 C 
HETATM    6  C6  UNL     1     -34.831  17.217  -4.665  1.00 20.00     0.066 C 
HETATM    7  N8  UNL     1     -35.726  17.848  -6.467  1.00 20.00     0.086 N 
HETATM    8  S10 UNL     1     -34.446  18.050  -3.045  1.00 20.00    -0.155 SA
HETATM    9  H22 UNL     1     -36.171  18.642  -6.925  1.00 20.00     0.316 HD
ENDROOT
BRANCH   5  10
HETATM   10  C7  UNL     1     -34.133  15.059  -5.862  1.00 20.00     0.228 C 
HETATM   11  F9  UNL     1     -35.302  14.492  -6.253  1.00 20.00    -0.255 F 
ENDBRANCH   5  10
TORSDOF 1
ENDMDL
MODEL 8
REMARK VINA RESULT:      -3.2     12.886     13.645
REMARK  1 active torsions:
REMARK  status: ('A' for Active; 'I' for Inactive)
REMARK    1  A    between atoms: C5_5  and  C7_7 
ROOT
HETATM    1  C1  UNL     1     -33.049  17.379  -1.678  1.00 20.00     0.019 C 
HETATM    2  C2  UNL     1     -33.816  18.644  -4.753  1.00 20.00     0.292 C 
HETATM    3  C3  UNL     1     -35.690  17.766  -4.483  1.00 20.00     0.292 C 
HETATM    4  C4  UNL     1     -33.936  18.370  -0.943  1.00 20.00     0.075 C 
HETATM    5  C5  UNL     1     -33.901  16.773  -2.793  1.00 20.00     0.037 C 
HETATM    6  C6  UNL     1     -34.495  17.976  -3.524  1.00 20.00     0.066 C 
HETATM    7  N8  UNL     1     -34.745  17.883  -5.615  1.00 20.00     0.086 N 
HETATM    8  S10 UNL     1     -34.862  19.262  -2.228  1.00 20.00    -0.155 SA
HETATM    9  H22 UNL     1     -35.102  18.395  -6.420  1.00 20.00     0.316 HD
ENDROOT
BRANCH   5  10
HETATM   10  C7  UNL     1     -33.095  15.833  -3.676  1.00 20.00     0.228 C 
HETATM   11  F9  UNL     1     -33.770  14.661  -3.780  1.00 20.00    -0.255 F 
ENDBRANCH   5  10
TORSDOF 1
ENDMDL
MODEL 9
REMARK VINA RESULT:      -3.2      8.716      9.692
REMARK  1 active torsions:
REMARK  status: ('A' for Active; 'I' for Inactive)
REMARK    1  A    between atoms: C5_5  and  C7_7 
ROOT
HETATM    1  C1  UNL     1     -42.193   4.640   1.225  1.00 20.00     0.019 C 
HETATM    2  C2  UNL     1     -40.808   7.741   0.896  1.00 20.00     0.292 C 
HETATM    3  C3  UNL     1     -42.308   8.099  -0.511  1.00 20.00     0.292 C 
HETATM    4  C4  UNL     1     -43.417   5.159   1.958  1.00 20.00     0.075 C 
HETATM    5  C5  UNL     1     -42.033   5.504  -0.026  1.00 20.00     0.037 C 
HETATM    6  C6  UNL     1     -42.079   6.942   0.490  1.00 20.00     0.066 C 
HETATM    7  N8  UNL     1     -40.861   8.399  -0.428  1.00 20.00     0.086 N 
HETATM    8  S10 UNL     1     -43.316   6.973   1.882  1.00 20.00    -0.155 SA
HETATM    9  H22 UNL     1     -40.629   9.390  -0.425  1.00 20.00     0.316 HD
ENDROOT
BRANCH   5  10
HETATM   10  C7  UNL     1     -40.773   5.153  -0.802  1.00 20.00     0.228 C 
HETATM   11  F9  UNL     1     -41.134   4.460  -1.911  1.00 20.00    -0.255 F 
ENDBRANCH   5  10
TORSDOF 1
ENDMDL
