MODEL 1
REMARK VINA RESULT:      -5.1      0.000      0.000
REMARK  0 active torsions:
REMARK  status: ('A' for Active; 'I' for Inactive)
ROOT
HETATM    1  C1  UNL     1     -33.166   6.056   2.968  1.00 20.00     0.008 C 
HETATM    2  C2  UNL     1     -33.725   4.996   3.913  1.00 20.00     0.030 C 
HETATM    3  C3  UNL     1     -32.411   7.189   3.647  1.00 20.00     0.081 C 
HETATM    4  C4  UNL     1     -34.920   5.497   4.723  1.00 20.00     0.270 C 
HETATM    5  C5  UNL     1     -33.462   7.086   5.981  1.00 20.00     0.348 C 
HETATM    6  C6  UNL     1     -33.167   7.921   4.743  1.00 20.00     0.269 C 
HETATM    7  N7  UNL     1     -34.629   6.220   5.951  1.00 20.00     0.089 N 
HETATM    8  F8  UNL     1     -34.309   8.459   4.248  1.00 20.00    -0.204 F 
HETATM    9  F9  UNL     1     -32.396   8.978   5.132  1.00 20.00    -0.204 F 
HETATM   10  H20 UNL     1     -35.481   6.760   6.255  1.00 20.00     0.316 HD
ENDROOT
TORSDOF 0
ENDMDL
MODEL 2
REMARK VINA RESULT:      -4.9      2.066      3.133
REMARK  0 active torsions:
REMARK  status: ('A' for Active; 'I' for Inactive)
ROOT
HETATM    1  C1  UNL     1     -33.454   8.028   4.984  1.00 20.00     0.008 C 
HETATM    2  C2  UNL     1     -32.445   7.467   3.986  1.00 20.00     0.030 C 
HETATM    3  C3  UNL     1     -34.059   7.002   5.931  1.00 20.00     0.081 C 
HETATM    4  C4  UNL     1     -33.101   6.631   2.889  1.00 20.00     0.270 C 
HETATM    5  C5  UNL     1     -33.739   4.873   4.543  1.00 20.00     0.348 C 
HETATM    6  C6  UNL     1     -34.706   5.796   5.271  1.00 20.00     0.269 C 
HETATM    7  N7  UNL     1     -33.354   5.229   3.188  1.00 20.00     0.089 N 
HETATM    8  F8  UNL     1     -35.702   6.192   4.442  1.00 20.00    -0.204 F 
HETATM    9  F9  UNL     1     -35.309   5.068   6.256  1.00 20.00    -0.204 F 
HETATM   10  H20 UNL     1     -34.055   4.842   2.505  1.00 20.00     0.316 HD
ENDROOT
TORSDOF 0
ENDMDL
MODEL 3
REMARK VINA RESULT:      -4.9      2.198      3.523
REMARK  0 active torsions:
REMARK  status: ('A' for Active; 'I' for Inactive)
ROOT
HETATM    1  C1  UNL     1     -34.444   6.572   6.605  1.00 20.00     0.008 C 
HETATM    2  C2  UNL     1     -33.396   7.593   6.169  1.00 20.00     0.030 C 
HETATM    3  C3  UNL     1     -34.327   5.208   5.941  1.00 20.00     0.081 C 
HETATM    4  C4  UNL     1     -33.627   8.106   4.748  1.00 20.00     0.270 C 
HETATM    5  C5  UNL     1     -33.085   5.862   3.798  1.00 20.00     0.348 C 
HETATM    6  C6  UNL     1     -34.312   5.213   4.421  1.00 20.00     0.269 C 
HETATM    7  N7  UNL     1     -33.080   7.309   3.661  1.00 20.00     0.089 N 
HETATM    8  F8  UNL     1     -35.447   5.781   3.942  1.00 20.00    -0.204 F 
HETATM    9  F9  UNL     1     -34.345   3.912   4.010  1.00 20.00    -0.204 F 
HETATM   10  H20 UNL     1     -33.541   7.583   2.755  1.00 20.00     0.316 HD
ENDROOT
TORSDOF 0
ENDMDL
MODEL 4
REMARK VINA RESULT:      -4.9      1.848      2.650
REMARK  0 active torsions:
REMARK  status: ('A' for Active; 'I' for Inactive)
ROOT
HETATM    1  C1  UNL     1     -34.218   4.865   4.543  1.00 20.00     0.008 C 
HETATM    2  C2  UNL     1     -33.803   5.607   3.275  1.00 20.00     0.030 C 
HETATM    3  C3  UNL     1     -34.836   5.739   5.625  1.00 20.00     0.081 C 
HETATM    4  C4  UNL     1     -32.565   6.478   3.479  1.00 20.00     0.270 C 
HETATM    5  C5  UNL     1     -33.832   8.009   4.991  1.00 20.00     0.348 C 
HETATM    6  C6  UNL     1     -34.009   6.938   6.058  1.00 20.00     0.269 C 
HETATM    7  N7  UNL     1     -32.779   7.817   4.008  1.00 20.00     0.089 N 
HETATM    8  F8  UNL     1     -32.805   6.532   6.530  1.00 20.00    -0.204 F 
HETATM    9  F9  UNL     1     -34.650   7.513   7.117  1.00 20.00    -0.204 F 
HETATM   10  H20 UNL     1     -31.871   8.201   4.378  1.00 20.00     0.316 HD
ENDROOT
TORSDOF 0
ENDMDL
MODEL 5
REMARK VINA RESULT:      -4.0     16.030     16.650
REMARK  0 active torsions:
REMARK  status: ('A' for Active; 'I' for Inactive)
ROOT
HETATM    1  C1  UNL     1     -23.613  18.842   8.896  1.00 20.00     0.008 C 
HETATM    2  C2  UNL     1     -22.201  19.263   9.295  1.00 20.00     0.030 C 
HETATM    3  C3  UNL     1     -24.615  18.789  10.039  1.00 20.00     0.081 C 
HETATM    4  C4  UNL     1     -21.462  18.181  10.082  1.00 20.00     0.270 C 
HETATM    5  C5  UNL     1     -23.018  18.456  12.015  1.00 20.00     0.348 C 
HETATM    6  C6  UNL     1     -24.213  17.934  11.230  1.00 20.00     0.269 C 
HETATM    7  N7  UNL     1     -21.690  18.137  11.518  1.00 20.00     0.089 N 
HETATM    8  F8  UNL     1     -24.004  16.653  10.839  1.00 20.00    -0.204 F 
HETATM    9  F9  UNL     1     -25.280  17.894  12.081  1.00 20.00    -0.204 F 
HETATM   10  H20 UNL     1     -21.384  17.203  11.896  1.00 20.00     0.316 HD
ENDROOT
TORSDOF 0
ENDMDL
MODEL 6
REMARK VINA RESULT:      -4.0      9.233     10.051
REMARK  0 active torsions:
REMARK  status: ('A' for Active; 'I' for Inactive)
ROOT
HETATM    1  C1  UNL     1     -43.139   5.684   1.487  1.00 20.00     0.008 C 
HETATM    2  C2  UNL     1     -43.293   7.197   1.609  1.00 20.00     0.030 C 
HETATM    3  C3  UNL     1     -41.788   5.215   0.965  1.00 20.00     0.081 C 
HETATM    4  C4  UNL     1     -43.417   7.890   0.253  1.00 20.00     0.270 C 
HETATM    5  C5  UNL     1     -41.055   7.311  -0.313  1.00 20.00     0.348 C 
HETATM    6  C6  UNL     1     -41.348   5.818  -0.359  1.00 20.00     0.269 C 
HETATM    7  N7  UNL     1     -42.179   8.225  -0.434  1.00 20.00     0.089 N 
HETATM    8  F8  UNL     1     -42.255   5.539  -1.327  1.00 20.00    -0.204 F 
HETATM    9  F9  UNL     1     -40.198   5.184  -0.732  1.00 20.00    -0.204 F 
HETATM   10  H20 UNL     1     -42.378   8.413  -1.450  1.00 20.00     0.316 HD
ENDROOT
TORSDOF 0
ENDMDL
MODEL 7
REMARK VINA RESULT:      -3.9      1.998      2.915
REMARK  0 active torsions:
REMARK  status: ('A' for Active; 'I' for Inactive)
ROOT
HETATM    1  C1  UNL     1     -32.810   7.684   5.054  1.00 20.00     0.008 C 
HETATM    2  C2  UNL     1     -34.000   7.613   6.007  1.00 20.00     0.030 C 
HETATM    3  C3  UNL     1     -33.072   7.144   3.656  1.00 20.00     0.081 C 
HETATM    4  C4  UNL     1     -34.309   6.188   6.462  1.00 20.00     0.270 C 
HETATM    5  C5  UNL     1     -35.019   5.554   4.153  1.00 20.00     0.348 C 
HETATM    6  C6  UNL     1     -33.617   5.727   3.588  1.00 20.00     0.269 C 
HETATM    7  N7  UNL     1     -35.154   5.385   5.590  1.00 20.00     0.089 N 
HETATM    8  F8  UNL     1     -32.754   4.864   4.181  1.00 20.00    -0.204 F 
HETATM    9  F9  UNL     1     -33.655   5.368   2.272  1.00 20.00    -0.204 F 
HETATM   10  H20 UNL     1     -35.054   4.367   5.840  1.00 20.00     0.316 HD
ENDROOT
TORSDOF 0
ENDMDL
MODEL 8
REMARK VINA RESULT:      -3.9      1.822      2.583
REMARK  0 active torsions:
REMARK  status: ('A' for Active; 'I' for Inactive)
ROOT
HETATM    1  C1  UNL     1     -33.932   6.893   5.497  1.00 20.00     0.008 C 
HETATM    2  C2  UNL     1     -34.261   6.004   4.301  1.00 20.00     0.030 C 
HETATM    3  C3  UNL     1     -33.571   8.329   5.149  1.00 20.00     0.081 C 
HETATM    4  C4  UNL     1     -33.027   5.644   3.475  1.00 20.00     0.270 C 
HETATM    5  C5  UNL     1     -32.771   8.015   2.735  1.00 20.00     0.348 C 
HETATM    6  C6  UNL     1     -32.447   8.502   4.140  1.00 20.00     0.269 C 
HETATM    7  N7  UNL     1     -32.613   6.597   2.457  1.00 20.00     0.089 N 
HETATM    8  F8  UNL     1     -31.313   7.917   4.598  1.00 20.00    -0.204 F 
HETATM    9  F9  UNL     1     -32.173   9.836   4.062  1.00 20.00    -0.204 F 
HETATM   10  H20 UNL     1     -31.619   6.399   2.171  1.00 20.00     0.316 HD
ENDROOT
TORSDOF 0
ENDMDL
MODEL 9
REMARK VINA RESULT:      -3.9      8.614      9.522
REMARK  0 active torsions:
REMARK  status: ('A' for Active; 'I' for Inactive)
ROOT
HETATM    1  C1  UNL     1     -42.171   8.346  -0.327  1.00 20.00     0.008 C 
HETATM    2  C2  UNL     1     -43.416   7.868   0.415  1.00 20.00     0.030 C 
HETATM    3  C3  UNL     1     -41.315   7.239  -0.925  1.00 20.00     0.081 C 
HETATM    4  C4  UNL     1     -43.089   7.205   1.752  1.00 20.00     0.270 C 
HETATM    5  C5  UNL     1     -41.997   5.285   0.587  1.00 20.00     0.348 C 
HETATM    6  C6  UNL     1     -40.871   6.153   0.042  1.00 20.00     0.269 C 
HETATM    7  N7  UNL     1     -42.752   5.790   1.722  1.00 20.00     0.089 N 
HETATM    8  F8  UNL     1     -40.152   6.693   1.057  1.00 20.00    -0.204 F 
HETATM    9  F9  UNL     1     -40.009   5.336  -0.631  1.00 20.00    -0.204 F 
HETATM   10  H20 UNL     1     -42.269   5.522   2.618  1.00 20.00     0.316 HD
ENDROOT
TORSDOF 0
ENDMDL
