MODEL 1
REMARK VINA RESULT:      -5.0      0.000      0.000
REMARK  0 active torsions:
REMARK  status: ('A' for Active; 'I' for Inactive)
ROOT
HETATM    1  C1  UNL     1     -33.901   5.142   3.945  1.00 20.00     0.078 C 
HETATM    2  C2  UNL     1     -32.582   6.888   2.956  1.00 20.00     0.152 C 
HETATM    3  C3  UNL     1     -33.001   5.483   3.024  1.00 20.00     0.134 C 
HETATM    4  C4  UNL     1     -33.378   7.300   5.124  1.00 20.00     0.213 C 
HETATM    5  C5  UNL     1     -34.394   6.171   4.914  1.00 20.00     0.217 C 
HETATM    6  N6  UNL     1     -32.768   7.778   3.868  1.00 20.00    -0.294 NA
HETATM    7  F7  UNL     1     -32.545   4.650   2.075  1.00 20.00    -0.205 F 
HETATM    8  F8  UNL     1     -35.550   6.723   4.445  1.00 20.00    -0.219 F 
HETATM    9 CL9  UNL     1     -34.756   5.402   6.485  1.00 20.00    -0.076 Cl
ENDROOT
TORSDOF 0
ENDMDL
MODEL 2
REMARK VINA RESULT:      -5.0      2.534      3.261
REMARK  0 active torsions:
REMARK  status: ('A' for Active; 'I' for Inactive)
ROOT
HETATM    1  C1  UNL     1     -33.987   7.090   5.924  1.00 20.00     0.078 C 
HETATM    2  C2  UNL     1     -34.477   5.125   4.634  1.00 20.00     0.152 C 
HETATM    3  C3  UNL     1     -34.446   5.840   5.916  1.00 20.00     0.134 C 
HETATM    4  C4  UNL     1     -32.945   6.626   3.683  1.00 20.00     0.213 C 
HETATM    5  C5  UNL     1     -33.457   7.693   4.660  1.00 20.00     0.217 C 
HETATM    6  N6  UNL     1     -33.846   5.464   3.564  1.00 20.00    -0.294 NA
HETATM    7  F7  UNL     1     -34.997   5.235   6.980  1.00 20.00    -0.205 F 
HETATM    8  F8  UNL     1     -34.447   8.395   4.039  1.00 20.00    -0.219 F 
HETATM    9 CL9  UNL     1     -32.134   8.831   5.038  1.00 20.00    -0.076 Cl
ENDROOT
TORSDOF 0
ENDMDL
MODEL 3
REMARK VINA RESULT:      -4.7      2.178      2.771
REMARK  0 active torsions:
REMARK  status: ('A' for Active; 'I' for Inactive)
ROOT
HETATM    1  C1  UNL     1     -33.488   6.709   4.001  1.00 20.00     0.078 C 
HETATM    2  C2  UNL     1     -33.757   8.005   6.004  1.00 20.00     0.152 C 
HETATM    3  C3  UNL     1     -33.153   7.803   4.682  1.00 20.00     0.134 C 
HETATM    4  C4  UNL     1     -34.339   5.738   6.159  1.00 20.00     0.213 C 
HETATM    5  C5  UNL     1     -34.398   5.698   4.626  1.00 20.00     0.217 C 
HETATM    6  N6  UNL     1     -34.354   7.107   6.708  1.00 20.00    -0.294 NA
HETATM    7  F7  UNL     1     -32.395   8.794   4.185  1.00 20.00    -0.205 F 
HETATM    8  F8  UNL     1     -35.684   5.945   4.246  1.00 20.00    -0.219 F 
HETATM    9 CL9  UNL     1     -33.968   4.060   4.061  1.00 20.00    -0.076 Cl
ENDROOT
TORSDOF 0
ENDMDL
MODEL 4
REMARK VINA RESULT:      -4.6      2.368      3.310
REMARK  0 active torsions:
REMARK  status: ('A' for Active; 'I' for Inactive)
ROOT
HETATM    1  C1  UNL     1     -33.531   7.092   4.201  1.00 20.00     0.078 C 
HETATM    2  C2  UNL     1     -34.164   7.084   6.517  1.00 20.00     0.152 C 
HETATM    3  C3  UNL     1     -33.493   7.717   5.376  1.00 20.00     0.134 C 
HETATM    4  C4  UNL     1     -34.178   5.000   5.438  1.00 20.00     0.213 C 
HETATM    5  C5  UNL     1     -34.183   5.748   4.099  1.00 20.00     0.217 C 
HETATM    6  N6  UNL     1     -34.543   5.854   6.585  1.00 20.00    -0.294 NA
HETATM    7  F7  UNL     1     -32.987   8.948   5.556  1.00 20.00    -0.205 F 
HETATM    8  F8  UNL     1     -35.480   5.899   3.703  1.00 20.00    -0.219 F 
HETATM    9 CL9  UNL     1     -33.350   4.760   2.867  1.00 20.00    -0.076 Cl
ENDROOT
TORSDOF 0
ENDMDL
MODEL 5
REMARK VINA RESULT:      -4.2      2.144      2.501
REMARK  0 active torsions:
REMARK  status: ('A' for Active; 'I' for Inactive)
ROOT
HETATM    1  C1  UNL     1     -33.043   6.718   3.961  1.00 20.00     0.078 C 
HETATM    2  C2  UNL     1     -34.032   4.536   4.112  1.00 20.00     0.152 C 
HETATM    3  C3  UNL     1     -33.224   5.528   3.393  1.00 20.00     0.134 C 
HETATM    4  C4  UNL     1     -34.993   6.198   5.460  1.00 20.00     0.213 C 
HETATM    5  C5  UNL     1     -33.720   7.030   5.260  1.00 20.00     0.217 C 
HETATM    6  N6  UNL     1     -34.826   4.778   5.097  1.00 20.00    -0.294 NA
HETATM    7  F7  UNL     1     -32.612   5.133   2.265  1.00 20.00    -0.205 F 
HETATM    8  F8  UNL     1     -32.871   6.760   6.293  1.00 20.00    -0.219 F 
HETATM    9 CL9  UNL     1     -34.130   8.766   5.330  1.00 20.00    -0.076 Cl
ENDROOT
TORSDOF 0
ENDMDL
MODEL 6
REMARK VINA RESULT:      -4.1      2.732      3.130
REMARK  0 active torsions:
REMARK  status: ('A' for Active; 'I' for Inactive)
ROOT
HETATM    1  C1  UNL     1     -33.224   6.499   3.519  1.00 20.00     0.078 C 
HETATM    2  C2  UNL     1     -34.101   6.313   5.746  1.00 20.00     0.152 C 
HETATM    3  C3  UNL     1     -33.911   5.770   4.396  1.00 20.00     0.134 C 
HETATM    4  C4  UNL     1     -33.594   8.485   5.017  1.00 20.00     0.213 C 
HETATM    5  C5  UNL     1     -32.737   7.860   3.908  1.00 20.00     0.217 C 
HETATM    6  N6  UNL     1     -33.926   7.539   6.100  1.00 20.00    -0.294 NA
HETATM    7  F7  UNL     1     -34.335   4.518   4.163  1.00 20.00    -0.205 F 
HETATM    8  F8  UNL     1     -31.454   7.773   4.363  1.00 20.00    -0.219 F 
HETATM    9 CL9  UNL     1     -32.738   8.937   2.483  1.00 20.00    -0.076 Cl
ENDROOT
TORSDOF 0
ENDMDL
MODEL 7
REMARK VINA RESULT:      -3.9     16.023     16.751
REMARK  0 active torsions:
REMARK  status: ('A' for Active; 'I' for Inactive)
ROOT
HETATM    1  C1  UNL     1     -23.547  17.090  10.358  1.00 20.00     0.078 C 
HETATM    2  C2  UNL     1     -25.327  17.763  11.822  1.00 20.00     0.152 C 
HETATM    3  C3  UNL     1     -24.444  16.727  11.273  1.00 20.00     0.134 C 
HETATM    4  C4  UNL     1     -24.878  19.195  10.018  1.00 20.00     0.213 C 
HETATM    5  C5  UNL     1     -23.516  18.505   9.871  1.00 20.00     0.217 C 
HETATM    6  N6  UNL     1     -25.530  18.929  11.315  1.00 20.00    -0.294 NA
HETATM    7  F7  UNL     1     -24.510  15.501  11.816  1.00 20.00    -0.205 F 
HETATM    8  F8  UNL     1     -22.602  19.216  10.591  1.00 20.00    -0.219 F 
HETATM    9 CL9  UNL     1     -23.014  18.548   8.158  1.00 20.00    -0.076 Cl
ENDROOT
TORSDOF 0
ENDMDL
MODEL 8
REMARK VINA RESULT:      -3.9     12.997     13.377
REMARK  0 active torsions:
REMARK  status: ('A' for Active; 'I' for Inactive)
ROOT
HETATM    1  C1  UNL     1     -33.461  18.558   0.709  1.00 20.00     0.078 C 
HETATM    2  C2  UNL     1     -31.070  18.631   0.511  1.00 20.00     0.152 C 
HETATM    3  C3  UNL     1     -32.291  18.744   1.316  1.00 20.00     0.134 C 
HETATM    4  C4  UNL     1     -32.277  18.911  -1.481  1.00 20.00     0.213 C 
HETATM    5  C5  UNL     1     -33.498  18.316  -0.768  1.00 20.00     0.217 C 
HETATM    6  N6  UNL     1     -31.007  18.655  -0.775  1.00 20.00    -0.294 NA
HETATM    7  F7  UNL     1     -32.150  18.906   2.642  1.00 20.00    -0.205 F 
HETATM    8  F8  UNL     1     -33.517  16.974  -1.011  1.00 20.00    -0.219 F 
HETATM    9 CL9  UNL     1     -34.987  19.017  -1.462  1.00 20.00    -0.076 Cl
ENDROOT
TORSDOF 0
ENDMDL
MODEL 9
REMARK VINA RESULT:      -3.8      2.006      2.828
REMARK  0 active torsions:
REMARK  status: ('A' for Active; 'I' for Inactive)
ROOT
HETATM    1  C1  UNL     1     -33.860   7.485   5.091  1.00 20.00     0.078 C 
HETATM    2  C2  UNL     1     -31.951   7.630   3.642  1.00 20.00     0.152 C 
HETATM    3  C3  UNL     1     -32.837   8.217   4.654  1.00 20.00     0.134 C 
HETATM    4  C4  UNL     1     -33.563   6.026   3.065  1.00 20.00     0.213 C 
HETATM    5  C5  UNL     1     -34.115   6.137   4.492  1.00 20.00     0.217 C 
HETATM    6  N6  UNL     1     -32.212   6.599   2.915  1.00 20.00    -0.294 NA
HETATM    7  F7  UNL     1     -32.490   9.407   5.170  1.00 20.00    -0.205 F 
HETATM    8  F8  UNL     1     -33.515   5.178   5.253  1.00 20.00    -0.219 F 
HETATM    9 CL9  UNL     1     -35.869   5.801   4.474  1.00 20.00    -0.076 Cl
ENDROOT
TORSDOF 0
ENDMDL
