MODEL 1
REMARK VINA RESULT:      -3.6      0.000      0.000
REMARK  3 active torsions:
REMARK  status: ('A' for Active; 'I' for Inactive)
REMARK    1  A    between atoms: C1_1  and  C3_3 
REMARK    2  A    between atoms: C2_2  and  C9_9 
REMARK    3  A    between atoms: C3_3  and  O11_11 
ROOT
HETATM    1  C1  UNL     1     -33.152  17.024  -1.998  1.00 20.00     0.085 C 
HETATM    2  C2  UNL     1     -33.612  16.779  -3.244  1.00 20.00    -0.070 C 
HETATM    3  C4  UNL     1     -33.607  15.386  -3.837  1.00 20.00     0.044 C 
ENDROOT
BRANCH   2   4
HETATM    4  C9  UNL     1     -34.194  17.898  -4.151  1.00 20.00    -0.028 C 
HETATM    5  C5  UNL     1     -34.470  17.345  -5.567  1.00 20.00     0.019 C 
HETATM    6  C6  UNL     1     -33.254  19.116  -4.329  1.00 20.00     0.019 C 
HETATM    7  C7  UNL     1     -35.511  18.428  -3.547  1.00 20.00     0.019 C 
ENDBRANCH   2   4
BRANCH   1   8
HETATM    8  C3  UNL     1     -33.123  18.357  -1.345  1.00 20.00     0.282 C 
HETATM    9  O10 UNL     1     -34.081  18.935  -0.859  1.00 20.00    -0.260 OA
BRANCH   8  10
HETATM   10  O11 UNL     1     -31.834  18.793  -1.370  1.00 20.00    -0.323 OA
HETATM   11  C8  UNL     1     -31.101  18.618  -0.153  1.00 20.00     0.213 C 
ENDBRANCH   8  10
ENDBRANCH   1   8
TORSDOF 3
ENDMDL
MODEL 2
REMARK VINA RESULT:      -3.6      0.386      1.360
REMARK  3 active torsions:
REMARK  status: ('A' for Active; 'I' for Inactive)
REMARK    1  A    between atoms: C1_1  and  C3_3 
REMARK    2  A    between atoms: C2_2  and  C9_9 
REMARK    3  A    between atoms: C3_3  and  O11_11 
ROOT
HETATM    1  C1  UNL     1     -33.296  16.709  -2.233  1.00 20.00     0.085 C 
HETATM    2  C2  UNL     1     -33.712  16.543  -3.507  1.00 20.00    -0.070 C 
HETATM    3  C4  UNL     1     -33.617  15.204  -4.209  1.00 20.00     0.044 C 
ENDROOT
BRANCH   2   4
HETATM    4  C9  UNL     1     -34.331  17.700  -4.338  1.00 20.00    -0.028 C 
HETATM    5  C5  UNL     1     -33.344  18.886  -4.413  1.00 20.00     0.019 C 
HETATM    6  C6  UNL     1     -35.650  18.260  -3.750  1.00 20.00     0.019 C 
HETATM    7  C7  UNL     1     -34.644  17.208  -5.766  1.00 20.00     0.019 C 
ENDBRANCH   2   4
BRANCH   1   8
HETATM    8  C3  UNL     1     -33.354  17.984  -1.475  1.00 20.00     0.282 C 
HETATM    9  O10 UNL     1     -34.329  18.418  -0.882  1.00 20.00    -0.260 OA
BRANCH   8  10
HETATM   10  O11 UNL     1     -32.121  18.555  -1.545  1.00 20.00    -0.323 OA
HETATM   11  C8  UNL     1     -31.380  18.570  -0.321  1.00 20.00     0.213 C 
ENDBRANCH   8  10
ENDBRANCH   1   8
TORSDOF 3
ENDMDL
MODEL 3
REMARK VINA RESULT:      -3.4     11.502     12.806
REMARK  3 active torsions:
REMARK  status: ('A' for Active; 'I' for Inactive)
REMARK    1  A    between atoms: C1_1  and  C3_3 
REMARK    2  A    between atoms: C2_2  and  C9_9 
REMARK    3  A    between atoms: C3_3  and  O11_11 
ROOT
HETATM    1  C1  UNL     1     -32.335   7.328   3.115  1.00 20.00     0.085 C 
HETATM    2  C2  UNL     1     -33.077   6.282   3.537  1.00 20.00    -0.070 C 
HETATM    3  C4  UNL     1     -32.959   4.912   2.903  1.00 20.00     0.044 C 
ENDROOT
BRANCH   2   4
HETATM    4  C9  UNL     1     -34.090   6.400   4.709  1.00 20.00    -0.028 C 
HETATM    5  C5  UNL     1     -35.126   7.505   4.407  1.00 20.00     0.019 C 
HETATM    6  C6  UNL     1     -33.440   6.764   6.067  1.00 20.00     0.019 C 
HETATM    7  C7  UNL     1     -34.822   5.056   4.904  1.00 20.00     0.019 C 
ENDBRANCH   2   4
BRANCH   1   8
HETATM    8  C3  UNL     1     -32.389   8.699   3.682  1.00 20.00     0.282 C 
HETATM    9  O10 UNL     1     -32.017   9.026   4.797  1.00 20.00    -0.260 OA
BRANCH   8  10
HETATM   10  O11 UNL     1     -32.905   9.514   2.722  1.00 20.00    -0.323 OA
HETATM   11  C8  UNL     1     -32.635   9.122   1.372  1.00 20.00     0.213 C 
ENDBRANCH   8  10
ENDBRANCH   1   8
TORSDOF 3
ENDMDL
MODEL 4
REMARK VINA RESULT:      -3.4     11.805     13.145
REMARK  3 active torsions:
REMARK  status: ('A' for Active; 'I' for Inactive)
REMARK    1  A    between atoms: C1_1  and  C3_3 
REMARK    2  A    between atoms: C2_2  and  C9_9 
REMARK    3  A    between atoms: C3_3  and  O11_11 
ROOT
HETATM    1  C1  UNL     1     -32.876   8.109   4.645  1.00 20.00     0.085 C 
HETATM    2  C2  UNL     1     -33.673   7.231   5.291  1.00 20.00    -0.070 C 
HETATM    3  C4  UNL     1     -34.020   7.397   6.755  1.00 20.00     0.044 C 
ENDROOT
BRANCH   2   4
HETATM    4  C9  UNL     1     -34.303   6.001   4.581  1.00 20.00    -0.028 C 
HETATM    5  C5  UNL     1     -34.527   4.859   5.597  1.00 20.00     0.019 C 
HETATM    6  C6  UNL     1     -33.429   5.416   3.444  1.00 20.00     0.019 C 
HETATM    7  C7  UNL     1     -35.655   6.397   3.955  1.00 20.00     0.019 C 
ENDBRANCH   2   4
BRANCH   1   8
HETATM    8  C3  UNL     1     -32.488   8.019   3.214  1.00 20.00     0.282 C 
HETATM    9  O10 UNL     1     -31.768   7.166   2.722  1.00 20.00    -0.260 OA
BRANCH   8  10
HETATM   10  O11 UNL     1     -33.101   9.044   2.563  1.00 20.00    -0.323 OA
HETATM   11  C8  UNL     1     -32.699   9.237   1.203  1.00 20.00     0.213 C 
ENDBRANCH   8  10
ENDBRANCH   1   8
TORSDOF 3
ENDMDL
MODEL 5
REMARK VINA RESULT:      -3.3     12.492     13.544
REMARK  3 active torsions:
REMARK  status: ('A' for Active; 'I' for Inactive)
REMARK    1  A    between atoms: C1_1  and  C3_3 
REMARK    2  A    between atoms: C2_2  and  C9_9 
REMARK    3  A    between atoms: C3_3  and  O11_11 
ROOT
HETATM    1  C1  UNL     1     -40.189  13.687   6.462  1.00 20.00     0.085 C 
HETATM    2  C2  UNL     1     -40.959  13.920   7.547  1.00 20.00    -0.070 C 
HETATM    3  C4  UNL     1     -40.394  14.541   8.807  1.00 20.00     0.044 C 
ENDROOT
BRANCH   2   4
HETATM    4  C9  UNL     1     -42.476  13.587   7.576  1.00 20.00    -0.028 C 
HETATM    5  C5  UNL     1     -43.009  13.667   9.024  1.00 20.00     0.019 C 
HETATM    6  C6  UNL     1     -42.819  12.169   7.057  1.00 20.00     0.019 C 
HETATM    7  C7  UNL     1     -43.247  14.591   6.695  1.00 20.00     0.019 C 
ENDBRANCH   2   4
BRANCH   1   8
HETATM    8  C3  UNL     1     -40.663  13.086   5.190  1.00 20.00     0.282 C 
HETATM    9  O10 UNL     1     -41.349  13.642   4.349  1.00 20.00    -0.260 OA
BRANCH   8  10
HETATM   10  O11 UNL     1     -40.171  11.818   5.133  1.00 20.00    -0.323 OA
HETATM   11  C8  UNL     1     -39.071  11.625   4.236  1.00 20.00     0.213 C 
ENDBRANCH   8  10
ENDBRANCH   1   8
TORSDOF 3
ENDMDL
MODEL 6
REMARK VINA RESULT:      -3.3      3.389      4.802
REMARK  3 active torsions:
REMARK  status: ('A' for Active; 'I' for Inactive)
REMARK    1  A    between atoms: C1_1  and  C3_3 
REMARK    2  A    between atoms: C2_2  and  C9_9 
REMARK    3  A    between atoms: C3_3  and  O11_11 
ROOT
HETATM    1  C1  UNL     1     -33.915  15.267  -4.727  1.00 20.00     0.085 C 
HETATM    2  C2  UNL     1     -34.020  16.439  -4.065  1.00 20.00    -0.070 C 
HETATM    3  C4  UNL     1     -33.339  16.665  -2.731  1.00 20.00     0.044 C 
ENDROOT
BRANCH   2   4
HETATM    4  C9  UNL     1     -34.829  17.642  -4.624  1.00 20.00    -0.028 C 
HETATM    5  C5  UNL     1     -34.862  18.788  -3.589  1.00 20.00     0.019 C 
HETATM    6  C6  UNL     1     -36.303  17.306  -4.959  1.00 20.00     0.019 C 
HETATM    7  C7  UNL     1     -34.173  18.151  -5.924  1.00 20.00     0.019 C 
ENDBRANCH   2   4
BRANCH   1   8
HETATM    8  C3  UNL     1     -34.548  14.965  -6.036  1.00 20.00     0.282 C 
HETATM    9  O10 UNL     1     -34.045  15.148  -7.132  1.00 20.00    -0.260 OA
BRANCH   8  10
HETATM   10  O11 UNL     1     -35.773  14.429  -5.779  1.00 20.00    -0.323 OA
HETATM   11  C8  UNL     1     -35.840  13.567  -4.639  1.00 20.00     0.213 C 
ENDBRANCH   8  10
ENDBRANCH   1   8
TORSDOF 3
ENDMDL
MODEL 7
REMARK VINA RESULT:      -3.2      3.816      5.583
REMARK  3 active torsions:
REMARK  status: ('A' for Active; 'I' for Inactive)
REMARK    1  A    between atoms: C1_1  and  C3_3 
REMARK    2  A    between atoms: C2_2  and  C9_9 
REMARK    3  A    between atoms: C3_3  and  O11_11 
ROOT
HETATM    1  C1  UNL     1     -36.253  17.039  -5.332  1.00 20.00     0.085 C 
HETATM    2  C2  UNL     1     -35.039  16.685  -4.857  1.00 20.00    -0.070 C 
HETATM    3  C4  UNL     1     -34.192  17.639  -4.042  1.00 20.00     0.044 C 
ENDROOT
BRANCH   2   4
HETATM    4  C9  UNL     1     -34.432  15.275  -5.096  1.00 20.00    -0.028 C 
HETATM    5  C5  UNL     1     -33.997  15.127  -6.571  1.00 20.00     0.019 C 
HETATM    6  C6  UNL     1     -35.412  14.111  -4.806  1.00 20.00     0.019 C 
HETATM    7  C7  UNL     1     -33.206  15.073  -4.183  1.00 20.00     0.019 C 
ENDBRANCH   2   4
BRANCH   1   8
HETATM    8  C3  UNL     1     -37.145  16.166  -6.136  1.00 20.00     0.282 C 
HETATM    9  O10 UNL     1     -37.024  15.924  -7.325  1.00 20.00    -0.260 OA
BRANCH   8  10
HETATM   10  O11 UNL     1     -38.097  15.675  -5.296  1.00 20.00    -0.323 OA
HETATM   11  C8  UNL     1     -38.847  16.659  -4.575  1.00 20.00     0.213 C 
ENDBRANCH   8  10
ENDBRANCH   1   8
TORSDOF 3
ENDMDL
MODEL 8
REMARK VINA RESULT:      -3.1     11.741     13.083
REMARK  3 active torsions:
REMARK  status: ('A' for Active; 'I' for Inactive)
REMARK    1  A    between atoms: C1_1  and  C3_3 
REMARK    2  A    between atoms: C2_2  and  C9_9 
REMARK    3  A    between atoms: C3_3  and  O11_11 
ROOT
HETATM    1  C1  UNL     1     -32.757   8.089   4.519  1.00 20.00     0.085 C 
HETATM    2  C2  UNL     1     -33.542   7.235   5.212  1.00 20.00    -0.070 C 
HETATM    3  C4  UNL     1     -33.768   7.389   6.701  1.00 20.00     0.044 C 
ENDROOT
BRANCH   2   4
HETATM    4  C9  UNL     1     -34.280   6.048   4.534  1.00 20.00    -0.028 C 
HETATM    5  C5  UNL     1     -33.388   5.424   3.438  1.00 20.00     0.019 C 
HETATM    6  C6  UNL     1     -35.610   6.445   3.848  1.00 20.00     0.019 C 
HETATM    7  C7  UNL     1     -34.617   4.973   5.588  1.00 20.00     0.019 C 
ENDBRANCH   2   4
BRANCH   1   8
HETATM    8  C3  UNL     1     -32.485   8.008   3.062  1.00 20.00     0.282 C 
HETATM    9  O10 UNL     1     -31.842   7.135   2.503  1.00 20.00    -0.260 OA
BRANCH   8  10
HETATM   10  O11 UNL     1     -33.103   9.069   2.475  1.00 20.00    -0.323 OA
HETATM   11  C8  UNL     1     -32.741   9.315   1.112  1.00 20.00     0.213 C 
ENDBRANCH   8  10
ENDBRANCH   1   8
TORSDOF 3
ENDMDL
MODEL 9
REMARK VINA RESULT:      -3.0     12.370     13.359
REMARK  3 active torsions:
REMARK  status: ('A' for Active; 'I' for Inactive)
REMARK    1  A    between atoms: C1_1  and  C3_3 
REMARK    2  A    between atoms: C2_2  and  C9_9 
REMARK    3  A    between atoms: C3_3  and  O11_11 
ROOT
HETATM    1  C1  UNL     1     -41.726  12.665   6.494  1.00 20.00     0.085 C 
HETATM    2  C2  UNL     1     -42.266  13.504   7.404  1.00 20.00    -0.070 C 
HETATM    3  C4  UNL     1     -43.200  13.010   8.488  1.00 20.00     0.044 C 
ENDROOT
BRANCH   2   4
HETATM    4  C9  UNL     1     -41.959  15.027   7.417  1.00 20.00    -0.028 C 
HETATM    5  C5  UNL     1     -42.770  15.723   8.533  1.00 20.00     0.019 C 
HETATM    6  C6  UNL     1     -42.315  15.751   6.095  1.00 20.00     0.019 C 
HETATM    7  C7  UNL     1     -40.454  15.253   7.666  1.00 20.00     0.019 C 
ENDBRANCH   2   4
BRANCH   1   8
HETATM    8  C3  UNL     1     -40.803  13.067   5.403  1.00 20.00     0.282 C 
HETATM    9  O10 UNL     1     -41.134  13.497   4.310  1.00 20.00    -0.260 OA
BRANCH   8  10
HETATM   10  O11 UNL     1     -39.533  12.889   5.859  1.00 20.00    -0.323 OA
HETATM   11  C8  UNL     1     -38.730  11.978   5.101  1.00 20.00     0.213 C 
ENDBRANCH   8  10
ENDBRANCH   1   8
TORSDOF 3
ENDMDL
