MODEL 1
REMARK VINA RESULT:      -4.4      0.000      0.000
REMARK  1 active torsions:
REMARK  status: ('A' for Active; 'I' for Inactive)
REMARK    1  A    between atoms: C1_1  and  C4_4 
ROOT
HETATM    1  C2  UNL     1     -34.280   5.247   6.501  1.00 20.00     0.173 C 
HETATM    2  C3  UNL     1     -35.265   5.645   4.429  1.00 20.00     0.173 C 
HETATM    3  C4  UNL     1     -33.265   7.193   5.083  1.00 20.00     0.060 A 
HETATM    4  C5  UNL     1     -34.119   6.701   6.225  1.00 20.00     0.027 A 
HETATM    5  C6  UNL     1     -34.745   6.953   4.911  1.00 20.00     0.027 A 
HETATM    6  O8  UNL     1     -34.674   4.630   5.261  1.00 20.00    -0.390 OA
ENDROOT
BRANCH   3   7
HETATM    7  C1  UNL     1     -32.767   8.573   5.109  1.00 20.00     0.236 C 
HETATM    8  O7  UNL     1     -32.215   9.111   4.154  1.00 20.00    -0.306 OA
ENDBRANCH   3   7
TORSDOF 1
ENDMDL
MODEL 2
REMARK VINA RESULT:      -4.1      1.223      3.672
REMARK  1 active torsions:
REMARK  status: ('A' for Active; 'I' for Inactive)
REMARK    1  A    between atoms: C1_1  and  C4_4 
ROOT
HETATM    1  C2  UNL     1     -32.432   7.194   3.341  1.00 20.00     0.173 C 
HETATM    2  C3  UNL     1     -32.342   9.006   4.802  1.00 20.00     0.173 C 
HETATM    3  C4  UNL     1     -33.434   6.819   5.725  1.00 20.00     0.060 A 
HETATM    4  C5  UNL     1     -33.607   7.069   4.248  1.00 20.00     0.027 A 
HETATM    5  C6  UNL     1     -33.550   8.219   5.174  1.00 20.00     0.027 A 
HETATM    6  O8  UNL     1     -31.556   8.174   3.929  1.00 20.00    -0.390 OA
ENDROOT
BRANCH   3   7
HETATM    7  C1  UNL     1     -34.555   6.260   6.490  1.00 20.00     0.236 C 
HETATM    8  O7  UNL     1     -35.011   5.138   6.298  1.00 20.00    -0.306 OA
ENDBRANCH   3   7
TORSDOF 1
ENDMDL
MODEL 3
REMARK VINA RESULT:      -4.0      1.316      1.368
REMARK  1 active torsions:
REMARK  status: ('A' for Active; 'I' for Inactive)
REMARK    1  A    between atoms: C1_1  and  C4_4 
ROOT
HETATM    1  C2  UNL     1     -34.238   6.634   6.675  1.00 20.00     0.173 C 
HETATM    2  C3  UNL     1     -34.807   5.205   4.926  1.00 20.00     0.173 C 
HETATM    3  C4  UNL     1     -33.001   7.021   4.406  1.00 20.00     0.060 A 
HETATM    4  C5  UNL     1     -34.053   7.407   5.416  1.00 20.00     0.027 A 
HETATM    5  C6  UNL     1     -34.414   6.501   4.307  1.00 20.00     0.027 A 
HETATM    6  O8  UNL     1     -34.371   5.251   6.297  1.00 20.00    -0.390 OA
ENDROOT
BRANCH   3   7
HETATM    7  C1  UNL     1     -32.542   8.023   3.437  1.00 20.00     0.236 C 
HETATM    8  O7  UNL     1     -32.141   7.741   2.313  1.00 20.00    -0.306 OA
ENDBRANCH   3   7
TORSDOF 1
ENDMDL
MODEL 4
REMARK VINA RESULT:      -3.8      1.200      3.640
REMARK  1 active torsions:
REMARK  status: ('A' for Active; 'I' for Inactive)
REMARK    1  A    between atoms: C1_1  and  C4_4 
ROOT
HETATM    1  C2  UNL     1     -32.566   8.831   4.870  1.00 20.00     0.173 C 
HETATM    2  C3  UNL     1     -32.376   7.603   2.900  1.00 20.00     0.173 C 
HETATM    3  C4  UNL     1     -34.272   6.879   4.545  1.00 20.00     0.060 A 
HETATM    4  C5  UNL     1     -33.030   7.451   5.181  1.00 20.00     0.027 A 
HETATM    5  C6  UNL     1     -32.909   6.672   3.932  1.00 20.00     0.027 A 
HETATM    6  O8  UNL     1     -32.503   8.934   3.434  1.00 20.00    -0.390 OA
ENDROOT
BRANCH   3   7
HETATM    7  C1  UNL     1     -34.943   5.742   5.188  1.00 20.00     0.236 C 
HETATM    8  O7  UNL     1     -34.874   5.508   6.389  1.00 20.00    -0.306 OA
ENDBRANCH   3   7
TORSDOF 1
ENDMDL
MODEL 5
REMARK VINA RESULT:      -3.7      0.817      1.485
REMARK  1 active torsions:
REMARK  status: ('A' for Active; 'I' for Inactive)
REMARK    1  A    between atoms: C1_1  and  C4_4 
ROOT
HETATM    1  C2  UNL     1     -34.383   5.401   4.151  1.00 20.00     0.173 C 
HETATM    2  C3  UNL     1     -34.741   5.839   6.410  1.00 20.00     0.173 C 
HETATM    3  C4  UNL     1     -33.751   7.794   4.988  1.00 20.00     0.060 A 
HETATM    4  C5  UNL     1     -33.359   6.402   4.558  1.00 20.00     0.027 A 
HETATM    5  C6  UNL     1     -33.586   6.679   5.992  1.00 20.00     0.027 A 
HETATM    6  O8  UNL     1     -35.364   5.357   5.205  1.00 20.00    -0.390 OA
ENDROOT
BRANCH   3   7
HETATM    7  C1  UNL     1     -32.746   8.863   4.942  1.00 20.00     0.236 C 
HETATM    8  O7  UNL     1     -32.222   9.253   3.904  1.00 20.00    -0.306 OA
ENDBRANCH   3   7
TORSDOF 1
ENDMDL
MODEL 6
REMARK VINA RESULT:      -3.7     16.034     16.620
REMARK  1 active torsions:
REMARK  status: ('A' for Active; 'I' for Inactive)
REMARK    1  A    between atoms: C1_1  and  C4_4 
ROOT
HETATM    1  C2  UNL     1     -22.755  18.143  12.176  1.00 20.00     0.173 C 
HETATM    2  C3  UNL     1     -24.661  18.460  10.875  1.00 20.00     0.173 C 
HETATM    3  C4  UNL     1     -22.546  17.553   9.639  1.00 20.00     0.060 A 
HETATM    4  C5  UNL     1     -22.284  18.476  10.803  1.00 20.00     0.027 A 
HETATM    5  C6  UNL     1     -23.493  18.677   9.978  1.00 20.00     0.027 A 
HETATM    6  O8  UNL     1     -24.158  17.834  12.070  1.00 20.00    -0.390 OA
ENDROOT
BRANCH   3   7
HETATM    7  C1  UNL     1     -21.709  17.665   8.438  1.00 20.00     0.236 C 
HETATM    8  O7  UNL     1     -21.782  16.892   7.489  1.00 20.00    -0.306 OA
ENDBRANCH   3   7
TORSDOF 1
ENDMDL
MODEL 7
REMARK VINA RESULT:      -3.6     12.930     13.468
REMARK  1 active torsions:
REMARK  status: ('A' for Active; 'I' for Inactive)
REMARK    1  A    between atoms: C1_1  and  C4_4 
ROOT
HETATM    1  C2  UNL     1     -33.658  16.574  -3.440  1.00 20.00     0.173 C 
HETATM    2  C3  UNL     1     -34.995  18.371  -2.803  1.00 20.00     0.173 C 
HETATM    3  C4  UNL     1     -32.611  18.259  -1.740  1.00 20.00     0.060 A 
HETATM    4  C5  UNL     1     -33.257  16.932  -2.052  1.00 20.00     0.027 A 
HETATM    5  C6  UNL     1     -34.105  18.072  -1.647  1.00 20.00     0.027 A 
HETATM    6  O8  UNL     1     -34.458  17.664  -3.936  1.00 20.00    -0.390 OA
ENDROOT
BRANCH   3   7
HETATM    7  C1  UNL     1     -31.834  18.401  -0.502  1.00 20.00     0.236 C 
HETATM    8  O7  UNL     1     -30.638  18.673  -0.483  1.00 20.00    -0.306 OA
ENDBRANCH   3   7
TORSDOF 1
ENDMDL
MODEL 8
REMARK VINA RESULT:      -3.6     15.480     16.355
REMARK  1 active torsions:
REMARK  status: ('A' for Active; 'I' for Inactive)
REMARK    1  A    between atoms: C1_1  and  C4_4 
ROOT
HETATM    1  C2  UNL     1     -23.643  19.163   8.420  1.00 20.00     0.173 C 
HETATM    2  C3  UNL     1     -21.745  17.815   8.492  1.00 20.00     0.173 C 
HETATM    3  C4  UNL     1     -23.629  17.265  10.216  1.00 20.00     0.060 A 
HETATM    4  C5  UNL     1     -23.490  18.717   9.832  1.00 20.00     0.027 A 
HETATM    5  C6  UNL     1     -22.285  17.863   9.878  1.00 20.00     0.027 A 
HETATM    6  O8  UNL     1     -22.771  18.336   7.627  1.00 20.00    -0.390 OA
ENDROOT
BRANCH   3   7
HETATM    7  C1  UNL     1     -23.924  16.922  11.612  1.00 20.00     0.236 C 
HETATM    8  O7  UNL     1     -24.463  15.874  11.951  1.00 20.00    -0.306 OA
ENDBRANCH   3   7
TORSDOF 1
ENDMDL
MODEL 9
REMARK VINA RESULT:      -3.5     12.413     13.628
REMARK  1 active torsions:
REMARK  status: ('A' for Active; 'I' for Inactive)
REMARK    1  A    between atoms: C1_1  and  C4_4 
ROOT
HETATM    1  C2  UNL     1     -33.025  18.930  -3.413  1.00 20.00     0.173 C 
HETATM    2  C3  UNL     1     -32.685  17.901  -1.351  1.00 20.00     0.173 C 
HETATM    3  C4  UNL     1     -33.079  16.318  -3.392  1.00 20.00     0.060 A 
HETATM    4  C5  UNL     1     -33.784  17.651  -3.445  1.00 20.00     0.027 A 
HETATM    5  C6  UNL     1     -33.570  16.998  -2.138  1.00 20.00     0.027 A 
HETATM    6  O8  UNL     1     -32.142  18.861  -2.277  1.00 20.00    -0.390 OA
ENDROOT
BRANCH   3   7
HETATM    7  C1  UNL     1     -33.780  15.121  -3.873  1.00 20.00     0.236 C 
HETATM    8  O7  UNL     1     -33.203  14.124  -4.294  1.00 20.00    -0.306 OA
ENDBRANCH   3   7
TORSDOF 1
ENDMDL
