MODEL 1
REMARK VINA RESULT:      -3.3      0.000      0.000
REMARK  1 active torsions:
REMARK  status: ('A' for Active; 'I' for Inactive)
REMARK    1  A    between atoms: C5_5  and  C6_6 
ROOT
HETATM    1  C1  UNL     1     -34.029   4.696   5.511  1.00 20.00     0.011 C 
HETATM    2  C2  UNL     1     -34.722   5.730   6.404  1.00 20.00     0.011 C 
HETATM    3  C3  UNL     1     -34.356   4.840   4.026  1.00 20.00     0.075 C 
HETATM    4  C4  UNL     1     -34.078   7.110   6.473  1.00 20.00     0.075 C 
HETATM    5  C5  UNL     1     -32.625   7.101   4.123  1.00 20.00     0.122 C 
HETATM    6  S7  UNL     1     -33.161   5.767   3.006  1.00 20.00    -0.152 SA
HETATM    7  S8  UNL     1     -34.013   7.993   4.887  1.00 20.00    -0.152 SA
ENDROOT
BRANCH   5   8
HETATM    8  C6  UNL     1     -31.800   8.100   3.312  1.00 20.00     0.140 C 
HETATM    9 CL9  UNL     1     -32.154   7.922   1.584  1.00 20.00    -0.128 Cl
ENDBRANCH   5   8
TORSDOF 1
ENDMDL
MODEL 2
REMARK VINA RESULT:      -3.0     12.933     13.944
REMARK  1 active torsions:
REMARK  status: ('A' for Active; 'I' for Inactive)
REMARK    1  A    between atoms: C5_5  and  C6_6 
ROOT
HETATM    1  C1  UNL     1     -33.141  15.136  -4.092  1.00 20.00     0.011 C 
HETATM    2  C2  UNL     1     -33.324  16.300  -3.110  1.00 20.00     0.011 C 
HETATM    3  C3  UNL     1     -34.451  14.496  -4.545  1.00 20.00     0.075 C 
HETATM    4  C4  UNL     1     -33.689  17.650  -3.716  1.00 20.00     0.075 C 
HETATM    5  C5  UNL     1     -34.758  16.841  -6.133  1.00 20.00     0.122 C 
HETATM    6  S7  UNL     1     -35.137  15.060  -6.137  1.00 20.00    -0.152 SA
HETATM    7  S8  UNL     1     -35.274  17.676  -4.602  1.00 20.00    -0.152 SA
ENDROOT
BRANCH   5   8
HETATM    8  C6  UNL     1     -35.492  17.489  -7.306  1.00 20.00     0.140 C 
HETATM    9 CL9  UNL     1     -36.891  16.503  -7.768  1.00 20.00    -0.128 Cl
ENDBRANCH   5   8
TORSDOF 1
ENDMDL
MODEL 3
REMARK VINA RESULT:      -3.0      0.887      2.400
REMARK  1 active torsions:
REMARK  status: ('A' for Active; 'I' for Inactive)
REMARK    1  A    between atoms: C5_5  and  C6_6 
ROOT
HETATM    1  C1  UNL     1     -34.791   6.080   5.732  1.00 20.00     0.011 C 
HETATM    2  C2  UNL     1     -34.391   4.874   4.874  1.00 20.00     0.011 C 
HETATM    3  C3  UNL     1     -33.606   6.856   6.301  1.00 20.00     0.075 C 
HETATM    4  C4  UNL     1     -33.986   5.168   3.434  1.00 20.00     0.075 C 
HETATM    5  C5  UNL     1     -33.292   7.834   3.644  1.00 20.00     0.122 C 
HETATM    6  S7  UNL     1     -33.072   8.337   5.380  1.00 20.00    -0.152 SA
HETATM    7  S8  UNL     1     -32.524   6.231   3.262  1.00 20.00    -0.152 SA
ENDROOT
BRANCH   5   8
HETATM    8  C6  UNL     1     -32.652   8.898   2.753  1.00 20.00     0.140 C 
HETATM    9 CL9  UNL     1     -32.122   8.174   1.225  1.00 20.00    -0.128 Cl
ENDBRANCH   5   8
TORSDOF 1
ENDMDL
MODEL 4
REMARK VINA RESULT:      -3.0     12.501     13.753
REMARK  1 active torsions:
REMARK  status: ('A' for Active; 'I' for Inactive)
REMARK    1  A    between atoms: C5_5  and  C6_6 
ROOT
HETATM    1  C1  UNL     1     -34.798  16.049  -5.944  1.00 20.00     0.011 C 
HETATM    2  C2  UNL     1     -34.236  14.882  -5.123  1.00 20.00     0.011 C 
HETATM    3  C3  UNL     1     -35.778  16.932  -5.176  1.00 20.00     0.075 C 
HETATM    4  C4  UNL     1     -33.087  15.208  -4.176  1.00 20.00     0.075 C 
HETATM    5  C5  UNL     1     -33.458  17.927  -3.856  1.00 20.00     0.122 C 
HETATM    6  S7  UNL     1     -35.105  18.453  -4.427  1.00 20.00    -0.152 SA
HETATM    7  S8  UNL     1     -33.499  16.400  -2.870  1.00 20.00    -0.152 SA
ENDROOT
BRANCH   5   8
HETATM    8  C6  UNL     1     -32.874  19.043  -2.991  1.00 20.00     0.140 C 
HETATM    9 CL9  UNL     1     -32.254  18.374  -1.471  1.00 20.00    -0.128 Cl
ENDBRANCH   5   8
TORSDOF 1
ENDMDL
MODEL 5
REMARK VINA RESULT:      -2.9     13.104     14.104
REMARK  1 active torsions:
REMARK  status: ('A' for Active; 'I' for Inactive)
REMARK    1  A    between atoms: C5_5  and  C6_6 
ROOT
HETATM    1  C1  UNL     1     -33.417  16.297  -3.042  1.00 20.00     0.011 C 
HETATM    2  C2  UNL     1     -33.065  15.220  -4.075  1.00 20.00     0.011 C 
HETATM    3  C3  UNL     1     -33.313  17.724  -3.574  1.00 20.00     0.075 C 
HETATM    4  C4  UNL     1     -34.158  14.850  -5.071  1.00 20.00     0.075 C 
HETATM    5  C5  UNL     1     -35.732  17.118  -4.952  1.00 20.00     0.122 C 
HETATM    6  S7  UNL     1     -34.858  18.501  -4.153  1.00 20.00    -0.152 SA
HETATM    7  S8  UNL     1     -34.698  16.213  -6.142  1.00 20.00    -0.152 SA
ENDROOT
BRANCH   5   8
HETATM    8  C6  UNL     1     -36.940  17.683  -5.697  1.00 20.00     0.140 C 
HETATM    9 CL9  UNL     1     -38.336  16.609  -5.497  1.00 20.00    -0.128 Cl
ENDBRANCH   5   8
TORSDOF 1
ENDMDL
MODEL 6
REMARK VINA RESULT:      -2.9      2.520      3.825
REMARK  1 active torsions:
REMARK  status: ('A' for Active; 'I' for Inactive)
REMARK    1  A    between atoms: C5_5  and  C6_6 
ROOT
HETATM    1  C1  UNL     1     -32.573   8.456   2.754  1.00 20.00     0.011 C 
HETATM    2  C2  UNL     1     -32.389   9.195   4.084  1.00 20.00     0.011 C 
HETATM    3  C3  UNL     1     -31.980   7.049   2.739  1.00 20.00     0.075 C 
HETATM    4  C4  UNL     1     -33.371   8.848   5.197  1.00 20.00     0.075 C 
HETATM    5  C5  UNL     1     -34.222   6.358   4.355  1.00 20.00     0.122 C 
HETATM    6  S7  UNL     1     -33.123   5.669   3.076  1.00 20.00    -0.152 SA
HETATM    7  S8  UNL     1     -33.319   7.116   5.739  1.00 20.00    -0.152 SA
ENDROOT
BRANCH   5   8
HETATM    8  C6  UNL     1     -35.083   5.222   4.907  1.00 20.00     0.140 C 
HETATM    9 CL9  UNL     1     -34.776   5.013   6.640  1.00 20.00    -0.128 Cl
ENDBRANCH   5   8
TORSDOF 1
ENDMDL
MODEL 7
REMARK VINA RESULT:      -2.9     12.876     13.686
REMARK  1 active torsions:
REMARK  status: ('A' for Active; 'I' for Inactive)
REMARK    1  A    between atoms: C5_5  and  C6_6 
ROOT
HETATM    1  C1  UNL     1     -35.768  14.901  -5.433  1.00 20.00     0.011 C 
HETATM    2  C2  UNL     1     -36.282  16.081  -6.267  1.00 20.00     0.011 C 
HETATM    3  C3  UNL     1     -34.253  14.720  -5.482  1.00 20.00     0.075 C 
HETATM    4  C4  UNL     1     -36.170  17.462  -5.631  1.00 20.00     0.075 C 
HETATM    5  C5  UNL     1     -34.179  16.998  -3.772  1.00 20.00     0.122 C 
HETATM    6  S7  UNL     1     -33.293  15.444  -4.110  1.00 20.00    -0.152 SA
HETATM    7  S8  UNL     1     -34.473  17.992  -5.266  1.00 20.00    -0.152 SA
ENDROOT
BRANCH   5   8
HETATM    8  C6  UNL     1     -33.338  17.826  -2.801  1.00 20.00     0.140 C 
HETATM    9 CL9  UNL     1     -33.666  17.326  -1.133  1.00 20.00    -0.128 Cl
ENDBRANCH   5   8
TORSDOF 1
ENDMDL
MODEL 8
REMARK VINA RESULT:      -2.9     13.501     14.238
REMARK  1 active torsions:
REMARK  status: ('A' for Active; 'I' for Inactive)
REMARK    1  A    between atoms: C5_5  and  C6_6 
ROOT
HETATM    1  C1  UNL     1     -36.272  16.570  -6.961  1.00 20.00     0.011 C 
HETATM    2  C2  UNL     1     -35.608  15.189  -6.995  1.00 20.00     0.011 C 
HETATM    3  C3  UNL     1     -36.936  16.906  -5.627  1.00 20.00     0.075 C 
HETATM    4  C4  UNL     1     -34.225  15.083  -6.363  1.00 20.00     0.075 C 
HETATM    5  C5  UNL     1     -34.275  17.274  -4.680  1.00 20.00     0.122 C 
HETATM    6  S7  UNL     1     -35.966  17.909  -4.453  1.00 20.00    -0.152 SA
HETATM    7  S8  UNL     1     -34.174  15.461  -4.588  1.00 20.00    -0.152 SA
ENDROOT
BRANCH   5   8
HETATM    8  C6  UNL     1     -33.392  17.861  -3.580  1.00 20.00     0.140 C 
HETATM    9 CL9  UNL     1     -33.344  16.765  -2.188  1.00 20.00    -0.128 Cl
ENDBRANCH   5   8
TORSDOF 1
ENDMDL
MODEL 9
REMARK VINA RESULT:      -2.9     12.242     13.735
REMARK  1 active torsions:
REMARK  status: ('A' for Active; 'I' for Inactive)
REMARK    1  A    between atoms: C5_5  and  C6_6 
ROOT
HETATM    1  C1  UNL     1     -34.173  18.790  -3.409  1.00 20.00     0.011 C 
HETATM    2  C2  UNL     1     -33.244  17.977  -2.499  1.00 20.00     0.011 C 
HETATM    3  C3  UNL     1     -33.790  18.744  -4.886  1.00 20.00     0.075 C 
HETATM    4  C4  UNL     1     -33.491  16.474  -2.442  1.00 20.00     0.075 C 
HETATM    5  C5  UNL     1     -34.847  16.099  -4.820  1.00 20.00     0.122 C 
HETATM    6  S7  UNL     1     -34.670  17.533  -5.928  1.00 20.00    -0.152 SA
HETATM    7  S8  UNL     1     -33.285  15.613  -4.027  1.00 20.00    -0.152 SA
ENDROOT
BRANCH   5   8
HETATM    8  C6  UNL     1     -35.355  14.918  -5.645  1.00 20.00     0.140 C 
HETATM    9 CL9  UNL     1     -35.843  13.592  -4.575  1.00 20.00    -0.128 Cl
ENDBRANCH   5   8
TORSDOF 1
ENDMDL
