MODEL 1
REMARK VINA RESULT:      -4.3      0.000      0.000
REMARK  1 active torsions:
REMARK  status: ('A' for Active; 'I' for Inactive)
REMARK    1  A    between atoms: C1_1  and  C3_3 
ROOT
HETATM    1  C1  UNL     1     -34.508   5.724   6.156  1.00 20.00     0.072 C 
HETATM    2  C2  UNL     1     -34.072   6.957   6.412  1.00 20.00     0.189 C 
HETATM    3  F4  UNL     1     -33.977   7.887   5.444  1.00 20.00    -0.220 F 
ENDROOT
BRANCH   1   4
HETATM    4  C3  UNL     1     -34.929   5.245   4.809  1.00 20.00     0.378 C 
HETATM    5  F5  UNL     1     -35.961   5.967   4.296  1.00 20.00    -0.210 F 
HETATM    6  F6  UNL     1     -33.907   5.357   3.919  1.00 20.00    -0.210 F 
ENDBRANCH   1   4
TORSDOF 1
ENDMDL
MODEL 2
REMARK VINA RESULT:      -4.2      0.599      1.301
REMARK  1 active torsions:
REMARK  status: ('A' for Active; 'I' for Inactive)
REMARK    1  A    between atoms: C1_1  and  C3_3 
ROOT
HETATM    1  C1  UNL     1     -34.477   5.944   6.086  1.00 20.00     0.072 C 
HETATM    2  C2  UNL     1     -34.103   7.146   6.526  1.00 20.00     0.189 C 
HETATM    3  F4  UNL     1     -33.883   8.169   5.681  1.00 20.00    -0.220 F 
ENDROOT
BRANCH   1   4
HETATM    4  C3  UNL     1     -34.686   5.603   4.651  1.00 20.00     0.378 C 
HETATM    5  F5  UNL     1     -34.469   4.288   4.389  1.00 20.00    -0.210 F 
HETATM    6  F6  UNL     1     -35.969   5.859   4.280  1.00 20.00    -0.210 F 
ENDBRANCH   1   4
TORSDOF 1
ENDMDL
MODEL 3
REMARK VINA RESULT:      -4.1      1.677      2.966
REMARK  1 active torsions:
REMARK  status: ('A' for Active; 'I' for Inactive)
REMARK    1  A    between atoms: C1_1  and  C3_3 
ROOT
HETATM    1  C1  UNL     1     -34.353   6.426   4.735  1.00 20.00     0.072 C 
HETATM    2  C2  UNL     1     -34.620   5.137   4.943  1.00 20.00     0.189 C 
HETATM    3  F4  UNL     1     -34.360   4.544   6.122  1.00 20.00    -0.220 F 
ENDROOT
BRANCH   1   4
HETATM    4  C3  UNL     1     -33.753   7.334   5.753  1.00 20.00     0.378 C 
HETATM    5  F5  UNL     1     -33.765   8.636   5.363  1.00 20.00    -0.210 F 
HETATM    6  F6  UNL     1     -34.453   7.279   6.917  1.00 20.00    -0.210 F 
ENDBRANCH   1   4
TORSDOF 1
ENDMDL
MODEL 4
REMARK VINA RESULT:      -4.0      1.174      2.747
REMARK  1 active torsions:
REMARK  status: ('A' for Active; 'I' for Inactive)
REMARK    1  A    between atoms: C1_1  and  C3_3 
ROOT
HETATM    1  C1  UNL     1     -34.655   5.564   5.665  1.00 20.00     0.072 C 
HETATM    2  C2  UNL     1     -34.461   4.802   4.589  1.00 20.00     0.189 C 
HETATM    3  F4  UNL     1     -33.605   5.161   3.615  1.00 20.00    -0.220 F 
ENDROOT
BRANCH   1   4
HETATM    4  C3  UNL     1     -33.969   6.865   5.908  1.00 20.00     0.378 C 
HETATM    5  F5  UNL     1     -34.139   7.744   4.886  1.00 20.00    -0.210 F 
HETATM    6  F6  UNL     1     -34.468   7.470   7.018  1.00 20.00    -0.210 F 
ENDBRANCH   1   4
TORSDOF 1
ENDMDL
MODEL 5
REMARK VINA RESULT:      -4.0      1.613      1.904
REMARK  1 active torsions:
REMARK  status: ('A' for Active; 'I' for Inactive)
REMARK    1  A    between atoms: C1_1  and  C3_3 
ROOT
HETATM    1  C1  UNL     1     -33.960   7.159   5.832  1.00 20.00     0.072 C 
HETATM    2  C2  UNL     1     -33.076   7.847   5.110  1.00 20.00     0.189 C 
HETATM    3  F4  UNL     1     -32.626   7.393   3.926  1.00 20.00    -0.220 F 
ENDROOT
BRANCH   1   4
HETATM    4  C3  UNL     1     -34.535   5.845   5.426  1.00 20.00     0.378 C 
HETATM    5  F5  UNL     1     -34.943   5.103   6.488  1.00 20.00    -0.210 F 
HETATM    6  F6  UNL     1     -35.633   6.024   4.642  1.00 20.00    -0.210 F 
ENDBRANCH   1   4
TORSDOF 1
ENDMDL
MODEL 6
REMARK VINA RESULT:      -4.0      1.447      1.702
REMARK  1 active torsions:
REMARK  status: ('A' for Active; 'I' for Inactive)
REMARK    1  A    between atoms: C1_1  and  C3_3 
ROOT
HETATM    1  C1  UNL     1     -33.988   7.107   6.168  1.00 20.00     0.072 C 
HETATM    2  C2  UNL     1     -33.255   7.562   5.152  1.00 20.00     0.189 C 
HETATM    3  F4  UNL     1     -33.224   6.929   3.966  1.00 20.00    -0.220 F 
ENDROOT
BRANCH   1   4
HETATM    4  C3  UNL     1     -34.833   5.881   6.111  1.00 20.00     0.378 C 
HETATM    5  F5  UNL     1     -35.440   5.720   4.906  1.00 20.00    -0.210 F 
HETATM    6  F6  UNL     1     -34.077   4.768   6.309  1.00 20.00    -0.210 F 
ENDBRANCH   1   4
TORSDOF 1
ENDMDL
MODEL 7
REMARK VINA RESULT:      -3.9      1.297      2.607
REMARK  1 active torsions:
REMARK  status: ('A' for Active; 'I' for Inactive)
REMARK    1  A    between atoms: C1_1  and  C3_3 
ROOT
HETATM    1  C1  UNL     1     -33.974   6.834   6.207  1.00 20.00     0.072 C 
HETATM    2  C2  UNL     1     -34.596   5.655   6.208  1.00 20.00     0.189 C 
HETATM    3  F4  UNL     1     -35.069   5.107   5.074  1.00 20.00    -0.220 F 
ENDROOT
BRANCH   1   4
HETATM    4  C3  UNL     1     -33.736   7.658   4.989  1.00 20.00     0.378 C 
HETATM    5  F5  UNL     1     -33.072   8.812   5.260  1.00 20.00    -0.210 F 
HETATM    6  F6  UNL     1     -32.971   6.979   4.093  1.00 20.00    -0.210 F 
ENDBRANCH   1   4
TORSDOF 1
ENDMDL
MODEL 8
REMARK VINA RESULT:      -3.9      1.749      1.920
REMARK  1 active torsions:
REMARK  status: ('A' for Active; 'I' for Inactive)
REMARK    1  A    between atoms: C1_1  and  C3_3 
ROOT
HETATM    1  C1  UNL     1     -33.958   6.524   4.945  1.00 20.00     0.072 C 
HETATM    2  C2  UNL     1     -34.311   6.598   6.228  1.00 20.00     0.189 C 
HETATM    3  F4  UNL     1     -34.991   5.605   6.830  1.00 20.00    -0.220 F 
ENDROOT
BRANCH   1   4
HETATM    4  C3  UNL     1     -34.265   5.370   4.054  1.00 20.00     0.378 C 
HETATM    5  F5  UNL     1     -33.490   5.350   2.938  1.00 20.00    -0.210 F 
HETATM    6  F6  UNL     1     -34.037   4.193   4.697  1.00 20.00    -0.210 F 
ENDBRANCH   1   4
TORSDOF 1
ENDMDL
MODEL 9
REMARK VINA RESULT:      -3.8      2.356      3.561
REMARK  1 active torsions:
REMARK  status: ('A' for Active; 'I' for Inactive)
REMARK    1  A    between atoms: C1_1  and  C3_3 
ROOT
HETATM    1  C1  UNL     1     -32.522   8.196   4.304  1.00 20.00     0.072 C 
HETATM    2  C2  UNL     1     -32.153   7.454   3.260  1.00 20.00     0.189 C 
HETATM    3  F4  UNL     1     -32.718   6.259   3.010  1.00 20.00    -0.220 F 
ENDROOT
BRANCH   1   4
HETATM    4  C3  UNL     1     -33.571   7.801   5.286  1.00 20.00     0.378 C 
HETATM    5  F5  UNL     1     -33.073   7.067   6.316  1.00 20.00    -0.210 F 
HETATM    6  F6  UNL     1     -34.143   8.901   5.845  1.00 20.00    -0.210 F 
ENDBRANCH   1   4
TORSDOF 1
ENDMDL
