MODEL 1
REMARK VINA RESULT:      -3.8      0.000      0.000
REMARK  0 active torsions:
REMARK  status: ('A' for Active; 'I' for Inactive)
ROOT
HETATM    1  C1  UNL     1     -34.178   5.625   3.992  1.00 20.00     0.017 C 
HETATM    2  C2  UNL     1     -32.961   6.527   3.810  1.00 20.00     0.027 C 
HETATM    3  C3  UNL     1     -34.826   6.215   5.247  1.00 20.00     0.123 C 
HETATM    4  C4  UNL     1     -33.533   7.876   4.224  1.00 20.00     0.197 C 
HETATM    5  C5  UNL     1     -33.861   4.139   4.046  1.00 20.00     0.013 C 
HETATM    6  C6  UNL     1     -32.392   6.521   2.398  1.00 20.00     0.014 C 
HETATM    7  C7  UNL     1     -34.299   5.696   6.579  1.00 20.00     0.040 C 
HETATM    8  O8  UNL     1     -34.563   7.630   5.190  1.00 20.00    -0.369 OA
HETATM    9 BR9  UNL     1     -32.165   9.015   5.000  1.00 20.00    -0.061 Br
ENDROOT
TORSDOF 0
ENDMDL
MODEL 2
REMARK VINA RESULT:      -3.7      1.949      2.813
REMARK  0 active torsions:
REMARK  status: ('A' for Active; 'I' for Inactive)
ROOT
HETATM    1  C1  UNL     1     -33.285   6.981   5.392  1.00 20.00     0.017 C 
HETATM    2  C2  UNL     1     -32.947   8.132   4.451  1.00 20.00     0.027 C 
HETATM    3  C3  UNL     1     -33.752   5.898   4.415  1.00 20.00     0.123 C 
HETATM    4  C4  UNL     1     -32.346   7.379   3.271  1.00 20.00     0.197 C 
HETATM    5  C5  UNL     1     -34.260   7.337   6.502  1.00 20.00     0.013 C 
HETATM    6  C6  UNL     1     -32.002   9.165   5.050  1.00 20.00     0.014 C 
HETATM    7  C7  UNL     1     -35.222   5.945   4.019  1.00 20.00     0.040 C 
HETATM    8  O8  UNL     1     -32.967   6.088   3.222  1.00 20.00    -0.369 OA
HETATM    9 BR9  UNL     1     -32.657   8.320   1.601  1.00 20.00    -0.061 Br
ENDROOT
TORSDOF 0
ENDMDL
MODEL 3
REMARK VINA RESULT:      -3.3     12.500     13.675
REMARK  0 active torsions:
REMARK  status: ('A' for Active; 'I' for Inactive)
ROOT
HETATM    1  C1  UNL     1     -34.534  16.183  -5.608  1.00 20.00     0.017 C 
HETATM    2  C2  UNL     1     -33.993  15.787  -4.238  1.00 20.00     0.027 C 
HETATM    3  C3  UNL     1     -35.078  17.589  -5.340  1.00 20.00     0.123 C 
HETATM    4  C4  UNL     1     -33.425  17.114  -3.753  1.00 20.00     0.197 C 
HETATM    5  C5  UNL     1     -35.520  15.195  -6.209  1.00 20.00     0.013 C 
HETATM    6  C6  UNL     1     -32.960  14.669  -4.281  1.00 20.00     0.014 C 
HETATM    7  C7  UNL     1     -36.503  17.664  -4.806  1.00 20.00     0.040 C 
HETATM    8  O8  UNL     1     -34.204  18.160  -4.347  1.00 20.00    -0.369 OA
HETATM    9 BR9  UNL     1     -33.509  17.252  -1.818  1.00 20.00    -0.061 Br
ENDROOT
TORSDOF 0
ENDMDL
MODEL 4
REMARK VINA RESULT:      -3.2     10.509     11.446
REMARK  0 active torsions:
REMARK  status: ('A' for Active; 'I' for Inactive)
ROOT
HETATM    1  C1  UNL     1     -42.261  13.991   5.863  1.00 20.00     0.017 C 
HETATM    2  C2  UNL     1     -41.644  15.037   6.785  1.00 20.00     0.027 C 
HETATM    3  C3  UNL     1     -41.753  12.685   6.480  1.00 20.00     0.123 C 
HETATM    4  C4  UNL     1     -41.756  14.340   8.134  1.00 20.00     0.197 C 
HETATM    5  C5  UNL     1     -41.954  14.190   4.387  1.00 20.00     0.013 C 
HETATM    6  C6  UNL     1     -42.346  16.388   6.746  1.00 20.00     0.014 C 
HETATM    7  C7  UNL     1     -40.379  12.217   6.017  1.00 20.00     0.040 C 
HETATM    8  O8  UNL     1     -41.682  12.928   7.898  1.00 20.00    -0.369 OA
HETATM    9 BR9  UNL     1     -40.324  14.880   9.329  1.00 20.00    -0.061 Br
ENDROOT
TORSDOF 0
ENDMDL
MODEL 5
REMARK VINA RESULT:      -3.2     12.676     13.871
REMARK  0 active torsions:
REMARK  status: ('A' for Active; 'I' for Inactive)
ROOT
HETATM    1  C1  UNL     1     -33.471  16.583  -4.007  1.00 20.00     0.017 C 
HETATM    2  C2  UNL     1     -34.682  17.296  -4.599  1.00 20.00     0.027 C 
HETATM    3  C3  UNL     1     -33.527  15.223  -4.708  1.00 20.00     0.123 C 
HETATM    4  C4  UNL     1     -34.640  16.795  -6.037  1.00 20.00     0.197 C 
HETATM    5  C5  UNL     1     -33.442  16.544  -2.487  1.00 20.00     0.013 C 
HETATM    6  C6  UNL     1     -34.623  18.813  -4.488  1.00 20.00     0.014 C 
HETATM    7  C7  UNL     1     -34.411  14.170  -4.052  1.00 20.00     0.040 C 
HETATM    8  O8  UNL     1     -34.055  15.487  -6.022  1.00 20.00    -0.369 OA
HETATM    9 BR9  UNL     1     -36.421  16.707  -6.806  1.00 20.00    -0.061 Br
ENDROOT
TORSDOF 0
ENDMDL
MODEL 6
REMARK VINA RESULT:      -3.2     16.230     16.870
REMARK  0 active torsions:
REMARK  status: ('A' for Active; 'I' for Inactive)
ROOT
HETATM    1  C1  UNL     1     -24.115  18.261   8.905  1.00 20.00     0.017 C 
HETATM    2  C2  UNL     1     -23.976  18.777  10.333  1.00 20.00     0.027 C 
HETATM    3  C3  UNL     1     -22.693  17.785   8.599  1.00 20.00     0.123 C 
HETATM    4  C4  UNL     1     -23.005  17.760  10.918  1.00 20.00     0.197 C 
HETATM    5  C5  UNL     1     -24.704  19.263   7.925  1.00 20.00     0.013 C 
HETATM    6  C6  UNL     1     -25.293  18.858  11.093  1.00 20.00     0.014 C 
HETATM    7  C7  UNL     1     -21.732  18.844   8.074  1.00 20.00     0.040 C 
HETATM    8  O8  UNL     1     -22.171  17.296   9.849  1.00 20.00    -0.369 OA
HETATM    9 BR9  UNL     1     -21.907  18.552  12.310  1.00 20.00    -0.061 Br
ENDROOT
TORSDOF 0
ENDMDL
MODEL 7
REMARK VINA RESULT:      -3.1      2.105      3.258
REMARK  0 active torsions:
REMARK  status: ('A' for Active; 'I' for Inactive)
ROOT
HETATM    1  C1  UNL     1     -33.185   7.296   3.310  1.00 20.00     0.017 C 
HETATM    2  C2  UNL     1     -33.291   7.207   4.829  1.00 20.00     0.027 C 
HETATM    3  C3  UNL     1     -33.683   5.914   2.875  1.00 20.00     0.123 C 
HETATM    4  C4  UNL     1     -34.572   6.398   4.985  1.00 20.00     0.197 C 
HETATM    5  C5  UNL     1     -31.813   7.698   2.795  1.00 20.00     0.013 C 
HETATM    6  C6  UNL     1     -33.345   8.560   5.525  1.00 20.00     0.014 C 
HETATM    7  C7  UNL     1     -32.636   4.808   2.839  1.00 20.00     0.040 C 
HETATM    8  O8  UNL     1     -34.685   5.543   3.841  1.00 20.00    -0.369 OA
HETATM    9 BR9  UNL     1     -34.537   5.327   6.605  1.00 20.00    -0.061 Br
ENDROOT
TORSDOF 0
ENDMDL
MODEL 8
REMARK VINA RESULT:      -3.1     12.836     14.077
REMARK  0 active torsions:
REMARK  status: ('A' for Active; 'I' for Inactive)
ROOT
HETATM    1  C1  UNL     1     -34.212  16.861  -3.444  1.00 20.00     0.017 C 
HETATM    2  C2  UNL     1     -33.908  15.890  -4.580  1.00 20.00     0.027 C 
HETATM    3  C3  UNL     1     -34.560  18.143  -4.205  1.00 20.00     0.123 C 
HETATM    4  C4  UNL     1     -34.947  16.312  -5.610  1.00 20.00     0.197 C 
HETATM    5  C5  UNL     1     -33.108  16.986  -2.407  1.00 20.00     0.013 C 
HETATM    6  C6  UNL     1     -34.012  14.424  -4.186  1.00 20.00     0.014 C 
HETATM    7  C7  UNL     1     -33.384  19.032  -4.589  1.00 20.00     0.040 C 
HETATM    8  O8  UNL     1     -35.201  17.710  -5.420  1.00 20.00    -0.369 OA
HETATM    9 BR9  UNL     1     -34.314  16.001  -7.420  1.00 20.00    -0.061 Br
ENDROOT
TORSDOF 0
ENDMDL
MODEL 9
REMARK VINA RESULT:      -3.1     12.549     13.737
REMARK  0 active torsions:
REMARK  status: ('A' for Active; 'I' for Inactive)
ROOT
HETATM    1  C1  UNL     1     -33.704  15.812  -4.522  1.00 20.00     0.017 C 
HETATM    2  C2  UNL     1     -34.121  16.784  -3.423  1.00 20.00     0.027 C 
HETATM    3  C3  UNL     1     -34.516  16.316  -5.718  1.00 20.00     0.123 C 
HETATM    4  C4  UNL     1     -34.233  18.083  -4.210  1.00 20.00     0.197 C 
HETATM    5  C5  UNL     1     -33.885  14.345  -4.170  1.00 20.00     0.013 C 
HETATM    6  C6  UNL     1     -33.138  16.865  -2.263  1.00 20.00     0.014 C 
HETATM    7  C7  UNL     1     -35.935  15.774  -5.839  1.00 20.00     0.040 C 
HETATM    8  O8  UNL     1     -34.603  17.745  -5.552  1.00 20.00    -0.369 OA
HETATM    9 BR9  UNL     1     -35.569  19.263  -3.439  1.00 20.00    -0.061 Br
ENDROOT
TORSDOF 0
ENDMDL
