MODEL 1
REMARK VINA RESULT:      -4.9      0.000      0.000
REMARK  0 active torsions:
REMARK  status: ('A' for Active; 'I' for Inactive)
ROOT
HETATM    1  C1  UNL     1     -34.764   5.212   5.801  1.00 20.00     0.184 A 
HETATM    2  C2  UNL     1     -34.315   6.541   5.913  1.00 20.00     0.175 A 
HETATM    3  C3  UNL     1     -33.634   6.772   4.742  1.00 20.00     0.162 A 
HETATM    4  C4  UNL     1     -33.156   5.343   2.723  1.00 20.00     0.181 C 
HETATM    5  N5  UNL     1     -34.400   4.639   4.651  1.00 20.00    -0.181 NA
HETATM    6  N6  UNL     1     -33.715   5.614   4.029  1.00 20.00    -0.260 N 
HETATM    7  F7  UNL     1     -34.506   7.382   6.924  1.00 20.00    -0.201 F 
HETATM    8 CL8  UNL     1     -32.816   8.131   4.148  1.00 20.00    -0.059 Cl
ENDROOT
TORSDOF 0
ENDMDL
MODEL 2
REMARK VINA RESULT:      -4.6      2.087      2.740
REMARK  0 active torsions:
REMARK  status: ('A' for Active; 'I' for Inactive)
ROOT
HETATM    1  C1  UNL     1     -32.239   7.645   3.346  1.00 20.00     0.184 A 
HETATM    2  C2  UNL     1     -32.606   8.179   4.597  1.00 20.00     0.175 A 
HETATM    3  C3  UNL     1     -33.455   7.243   5.134  1.00 20.00     0.162 A 
HETATM    4  C4  UNL     1     -34.316   5.026   4.300  1.00 20.00     0.181 C 
HETATM    5  N5  UNL     1     -32.810   6.462   3.104  1.00 20.00    -0.181 NA
HETATM    6  N6  UNL     1     -33.543   6.244   4.210  1.00 20.00    -0.260 N 
HETATM    7  F7  UNL     1     -32.216   9.330   5.135  1.00 20.00    -0.201 F 
HETATM    8 CL8  UNL     1     -34.298   7.175   6.602  1.00 20.00    -0.059 Cl
ENDROOT
TORSDOF 0
ENDMDL
MODEL 3
REMARK VINA RESULT:      -4.6      1.935      2.590
REMARK  0 active torsions:
REMARK  status: ('A' for Active; 'I' for Inactive)
ROOT
HETATM    1  C1  UNL     1     -32.465   8.405   4.106  1.00 20.00     0.184 A 
HETATM    2  C2  UNL     1     -33.522   8.028   4.957  1.00 20.00     0.175 A 
HETATM    3  C3  UNL     1     -33.854   6.759   4.549  1.00 20.00     0.162 A 
HETATM    4  C4  UNL     1     -32.954   5.243   2.749  1.00 20.00     0.181 C 
HETATM    5  N5  UNL     1     -32.147   7.453   3.225  1.00 20.00    -0.181 NA
HETATM    6  N6  UNL     1     -33.009   6.465   3.521  1.00 20.00    -0.260 N 
HETATM    7  F7  UNL     1     -34.073   8.741   5.933  1.00 20.00    -0.201 F 
HETATM    8 CL8  UNL     1     -35.022   5.657   5.088  1.00 20.00    -0.059 Cl
ENDROOT
TORSDOF 0
ENDMDL
MODEL 4
REMARK VINA RESULT:      -4.4      2.337      2.974
REMARK  0 active torsions:
REMARK  status: ('A' for Active; 'I' for Inactive)
ROOT
HETATM    1  C1  UNL     1     -33.059   5.697   2.935  1.00 20.00     0.184 A 
HETATM    2  C2  UNL     1     -33.846   5.467   4.080  1.00 20.00     0.175 A 
HETATM    3  C3  UNL     1     -33.678   6.597   4.843  1.00 20.00     0.162 A 
HETATM    4  C4  UNL     1     -32.348   8.711   4.513  1.00 20.00     0.181 C 
HETATM    5  N5  UNL     1     -32.438   6.879   2.965  1.00 20.00    -0.181 NA
HETATM    6  N6  UNL     1     -32.836   7.403   4.137  1.00 20.00    -0.260 N 
HETATM    7  F7  UNL     1     -34.584   4.397   4.358  1.00 20.00    -0.201 F 
HETATM    8 CL8  UNL     1     -34.301   7.058   6.349  1.00 20.00    -0.059 Cl
ENDROOT
TORSDOF 0
ENDMDL
MODEL 5
REMARK VINA RESULT:      -4.3      2.164      2.508
REMARK  0 active torsions:
REMARK  status: ('A' for Active; 'I' for Inactive)
ROOT
HETATM    1  C1  UNL     1     -34.272   6.948   6.274  1.00 20.00     0.184 A 
HETATM    2  C2  UNL     1     -34.321   5.814   5.440  1.00 20.00     0.175 A 
HETATM    3  C3  UNL     1     -33.626   6.186   4.315  1.00 20.00     0.162 A 
HETATM    4  C4  UNL     1     -32.450   8.312   3.647  1.00 20.00     0.181 C 
HETATM    5  N5  UNL     1     -33.599   7.963   5.725  1.00 20.00    -0.181 NA
HETATM    6  N6  UNL     1     -33.218   7.468   4.535  1.00 20.00    -0.260 N 
HETATM    7  F7  UNL     1     -34.908   4.648   5.687  1.00 20.00    -0.201 F 
HETATM    8 CL8  UNL     1     -33.257   5.366   2.879  1.00 20.00    -0.059 Cl
ENDROOT
TORSDOF 0
ENDMDL
MODEL 6
REMARK VINA RESULT:      -4.2      2.405      3.024
REMARK  0 active torsions:
REMARK  status: ('A' for Active; 'I' for Inactive)
ROOT
HETATM    1  C1  UNL     1     -33.273   8.250   5.182  1.00 20.00     0.184 A 
HETATM    2  C2  UNL     1     -32.796   7.758   3.953  1.00 20.00     0.175 A 
HETATM    3  C3  UNL     1     -33.266   6.469   3.894  1.00 20.00     0.162 A 
HETATM    4  C4  UNL     1     -34.663   5.077   5.463  1.00 20.00     0.181 C 
HETATM    5  N5  UNL     1     -33.991   7.347   5.856  1.00 20.00    -0.181 NA
HETATM    6  N6  UNL     1     -33.969   6.275   5.045  1.00 20.00    -0.260 N 
HETATM    7  F7  UNL     1     -32.056   8.398   3.053  1.00 20.00    -0.201 F 
HETATM    8 CL8  UNL     1     -33.108   5.249   2.729  1.00 20.00    -0.059 Cl
ENDROOT
TORSDOF 0
ENDMDL
MODEL 7
REMARK VINA RESULT:      -4.1      2.190      3.020
REMARK  0 active torsions:
REMARK  status: ('A' for Active; 'I' for Inactive)
ROOT
HETATM    1  C1  UNL     1     -33.291   5.676   3.000  1.00 20.00     0.184 A 
HETATM    2  C2  UNL     1     -32.612   6.910   3.004  1.00 20.00     0.175 A 
HETATM    3  C3  UNL     1     -32.905   7.459   4.228  1.00 20.00     0.162 A 
HETATM    4  C4  UNL     1     -34.292   6.668   6.177  1.00 20.00     0.181 C 
HETATM    5  N5  UNL     1     -33.965   5.456   4.132  1.00 20.00    -0.181 NA
HETATM    6  N6  UNL     1     -33.710   6.558   4.859  1.00 20.00    -0.260 N 
HETATM    7  F7  UNL     1     -31.857   7.425   2.039  1.00 20.00    -0.201 F 
HETATM    8 CL8  UNL     1     -32.456   8.919   4.961  1.00 20.00    -0.059 Cl
ENDROOT
TORSDOF 0
ENDMDL
MODEL 8
REMARK VINA RESULT:      -4.1      1.807      2.101
REMARK  0 active torsions:
REMARK  status: ('A' for Active; 'I' for Inactive)
ROOT
HETATM    1  C1  UNL     1     -34.005   7.568   6.326  1.00 20.00     0.184 A 
HETATM    2  C2  UNL     1     -33.206   8.000   5.250  1.00 20.00     0.175 A 
HETATM    3  C3  UNL     1     -33.231   6.952   4.362  1.00 20.00     0.162 A 
HETATM    4  C4  UNL     1     -34.352   4.695   4.401  1.00 20.00     0.181 C 
HETATM    5  N5  UNL     1     -34.500   6.342   6.141  1.00 20.00    -0.181 NA
HETATM    6  N6  UNL     1     -34.013   5.994   4.938  1.00 20.00    -0.260 N 
HETATM    7  F7  UNL     1     -32.571   9.160   5.123  1.00 20.00    -0.201 F 
HETATM    8 CL8  UNL     1     -32.513   6.724   2.845  1.00 20.00    -0.059 Cl
ENDROOT
TORSDOF 0
ENDMDL
MODEL 9
REMARK VINA RESULT:      -4.0      2.143      2.777
REMARK  0 active torsions:
REMARK  status: ('A' for Active; 'I' for Inactive)
ROOT
HETATM    1  C1  UNL     1     -34.349   4.696   4.427  1.00 20.00     0.184 A 
HETATM    2  C2  UNL     1     -33.582   5.503   3.565  1.00 20.00     0.175 A 
HETATM    3  C3  UNL     1     -33.393   6.670   4.266  1.00 20.00     0.162 A 
HETATM    4  C4  UNL     1     -34.127   7.440   6.549  1.00 20.00     0.181 C 
HETATM    5  N5  UNL     1     -34.627   5.299   5.586  1.00 20.00    -0.181 NA
HETATM    6  N6  UNL     1     -34.032   6.497   5.457  1.00 20.00    -0.260 N 
HETATM    7  F7  UNL     1     -33.141   5.203   2.348  1.00 20.00    -0.201 F 
HETATM    8 CL8  UNL     1     -32.575   8.105   3.891  1.00 20.00    -0.059 Cl
ENDROOT
TORSDOF 0
ENDMDL
