MODEL 1
REMARK VINA RESULT:      -3.2      0.000      0.000
REMARK  1 active torsions:
REMARK  status: ('A' for Active; 'I' for Inactive)
REMARK    1  A    between atoms: C4_4  and  C10_10 
ROOT
HETATM    1  C1  UNL     1     -33.724  19.073  -0.723  1.00 20.00     0.016 C 
HETATM    2  C2  UNL     1     -34.516  19.263  -2.022  1.00 20.00     0.017 C 
HETATM    3  C3  UNL     1     -32.296  19.096  -1.275  1.00 20.00     0.122 C 
HETATM    4  C4  UNL     1     -33.664  18.549  -3.084  1.00 20.00     0.129 C 
HETATM    5  C5  UNL     1     -34.074  17.803   0.053  1.00 20.00     0.013 C 
HETATM    6  C6  UNL     1     -35.993  18.905  -1.981  1.00 20.00     0.013 C 
HETATM    7  C7  UNL     1     -31.213  18.503  -0.392  1.00 20.00     0.040 C 
HETATM    8  O11 UNL     1     -32.351  18.378  -2.516  1.00 20.00    -0.380 OA
ENDROOT
BRANCH   4   9
HETATM    9  C10 UNL     1     -34.152  17.192  -3.566  1.00 20.00     0.007 C 
HETATM   10  C8  UNL     1     -34.397  17.208  -5.076  1.00 20.00     0.012 C 
HETATM   11  C9  UNL     1     -33.152  16.095  -3.201  1.00 20.00     0.012 C 
ENDBRANCH   4   9
TORSDOF 1
ENDMDL
MODEL 2
REMARK VINA RESULT:      -3.2     12.072     13.548
REMARK  1 active torsions:
REMARK  status: ('A' for Active; 'I' for Inactive)
REMARK    1  A    between atoms: C4_4  and  C10_10 
ROOT
HETATM    1  C1  UNL     1     -41.024  15.904   9.515  1.00 20.00     0.016 C 
HETATM    2  C2  UNL     1     -40.483  15.902   8.080  1.00 20.00     0.017 C 
HETATM    3  C3  UNL     1     -40.494  14.553  10.003  1.00 20.00     0.122 C 
HETATM    4  C4  UNL     1     -40.516  14.420   7.673  1.00 20.00     0.129 C 
HETATM    5  C5  UNL     1     -42.543  16.054   9.619  1.00 20.00     0.013 C 
HETATM    6  C6  UNL     1     -41.113  16.889   7.110  1.00 20.00     0.013 C 
HETATM    7  C7  UNL     1     -41.167  13.957  11.225  1.00 20.00     0.040 C 
HETATM    8  O11 UNL     1     -40.638  13.658   8.890  1.00 20.00    -0.380 OA
ENDROOT
BRANCH   4   9
HETATM    9  C10 UNL     1     -41.624  13.985   6.728  1.00 20.00     0.007 C 
HETATM   10  C8  UNL     1     -41.042  13.388   5.446  1.00 20.00     0.012 C 
HETATM   11  C9  UNL     1     -42.554  12.980   7.408  1.00 20.00     0.012 C 
ENDBRANCH   4   9
TORSDOF 1
ENDMDL
MODEL 3
REMARK VINA RESULT:      -3.2      2.044      5.023
REMARK  1 active torsions:
REMARK  status: ('A' for Active; 'I' for Inactive)
REMARK    1  A    between atoms: C4_4  and  C10_10 
ROOT
HETATM    1  C1  UNL     1     -35.074  15.752  -6.083  1.00 20.00     0.016 C 
HETATM    2  C2  UNL     1     -33.963  15.499  -5.058  1.00 20.00     0.017 C 
HETATM    3  C3  UNL     1     -34.709  17.170  -6.529  1.00 20.00     0.122 C 
HETATM    4  C4  UNL     1     -33.702  16.884  -4.444  1.00 20.00     0.129 C 
HETATM    5  C5  UNL     1     -36.493  15.617  -5.527  1.00 20.00     0.013 C 
HETATM    6  C6  UNL     1     -34.180  14.352  -4.084  1.00 20.00     0.013 C 
HETATM    7  C7  UNL     1     -35.800  17.974  -7.213  1.00 20.00     0.040 C 
HETATM    8  O11 UNL     1     -34.285  17.851  -5.339  1.00 20.00    -0.380 OA
ENDROOT
BRANCH   4   9
HETATM    9  C10 UNL     1     -34.251  17.138  -3.049  1.00 20.00     0.007 C 
HETATM   10  C8  UNL     1     -33.117  17.220  -2.026  1.00 20.00     0.012 C 
HETATM   11  C9  UNL     1     -35.088  18.418  -3.020  1.00 20.00     0.012 C 
ENDBRANCH   4   9
TORSDOF 1
ENDMDL
MODEL 4
REMARK VINA RESULT:      -3.1      2.854      5.271
REMARK  1 active torsions:
REMARK  status: ('A' for Active; 'I' for Inactive)
REMARK    1  A    between atoms: C4_4  and  C10_10 
ROOT
HETATM    1  C1  UNL     1     -35.220  17.537  -6.809  1.00 20.00     0.016 C 
HETATM    2  C2  UNL     1     -34.990  18.105  -5.403  1.00 20.00     0.017 C 
HETATM    3  C3  UNL     1     -36.058  16.304  -6.465  1.00 20.00     0.122 C 
HETATM    4  C4  UNL     1     -34.917  16.858  -4.507  1.00 20.00     0.129 C 
HETATM    5  C5  UNL     1     -33.940  17.228  -7.585  1.00 20.00     0.013 C 
HETATM    6  C6  UNL     1     -33.868  19.120  -5.251  1.00 20.00     0.013 C 
HETATM    7  C7  UNL     1     -36.134  15.214  -7.520  1.00 20.00     0.040 C 
HETATM    8  O11 UNL     1     -35.483  15.769  -5.264  1.00 20.00    -0.380 OA
ENDROOT
BRANCH   4   9
HETATM    9  C10 UNL     1     -33.540  16.432  -4.024  1.00 20.00     0.007 C 
HETATM   10  C8  UNL     1     -33.396  16.666  -2.519  1.00 20.00     0.012 C 
HETATM   11  C9  UNL     1     -33.275  14.964  -4.361  1.00 20.00     0.012 C 
ENDBRANCH   4   9
TORSDOF 1
ENDMDL
MODEL 5
REMARK VINA RESULT:      -3.1      2.425      3.803
REMARK  1 active torsions:
REMARK  status: ('A' for Active; 'I' for Inactive)
REMARK    1  A    between atoms: C4_4  and  C10_10 
ROOT
HETATM    1  C1  UNL     1     -34.402  18.203  -4.296  1.00 20.00     0.016 C 
HETATM    2  C2  UNL     1     -34.520  17.953  -5.805  1.00 20.00     0.017 C 
HETATM    3  C3  UNL     1     -33.522  17.016  -3.897  1.00 20.00     0.122 C 
HETATM    4  C4  UNL     1     -34.501  16.421  -5.929  1.00 20.00     0.129 C 
HETATM    5  C5  UNL     1     -35.739  18.268  -3.558  1.00 20.00     0.013 C 
HETATM    6  C6  UNL     1     -35.638  18.682  -6.533  1.00 20.00     0.013 C 
HETATM    7  C7  UNL     1     -33.521  16.630  -2.429  1.00 20.00     0.040 C 
HETATM    8  O11 UNL     1     -33.986  15.910  -4.684  1.00 20.00    -0.380 OA
ENDROOT
BRANCH   4   9
HETATM    9  C10 UNL     1     -35.827  15.732  -6.212  1.00 20.00     0.007 C 
HETATM   10  C8  UNL     1     -35.920  15.314  -7.680  1.00 20.00     0.012 C 
HETATM   11  C9  UNL     1     -36.014  14.519  -5.300  1.00 20.00     0.012 C 
ENDBRANCH   4   9
TORSDOF 1
ENDMDL
MODEL 6
REMARK VINA RESULT:      -2.9     11.522     12.792
REMARK  1 active torsions:
REMARK  status: ('A' for Active; 'I' for Inactive)
REMARK    1  A    between atoms: C4_4  and  C10_10 
ROOT
HETATM    1  C1  UNL     1     -42.317  14.383   7.796  1.00 20.00     0.016 C 
HETATM    2  C2  UNL     1     -42.545  13.373   6.664  1.00 20.00     0.017 C 
HETATM    3  C3  UNL     1     -41.374  15.362   7.094  1.00 20.00     0.122 C 
HETATM    4  C4  UNL     1     -41.211  13.363   5.901  1.00 20.00     0.129 C 
HETATM    5  C5  UNL     1     -41.748  13.778   9.080  1.00 20.00     0.013 C 
HETATM    6  C6  UNL     1     -43.113  12.019   7.060  1.00 20.00     0.013 C 
HETATM    7  C7  UNL     1     -40.552  16.276   7.984  1.00 20.00     0.040 C 
HETATM    8  O11 UNL     1     -40.497  14.551   6.298  1.00 20.00    -0.380 OA
ENDROOT
BRANCH   4   9
HETATM    9  C10 UNL     1     -40.298  12.167   6.117  1.00 20.00     0.007 C 
HETATM   10  C8  UNL     1     -39.688  11.704   4.793  1.00 20.00     0.012 C 
HETATM   11  C9  UNL     1     -39.195  12.500   7.123  1.00 20.00     0.012 C 
ENDBRANCH   4   9
TORSDOF 1
ENDMDL
MODEL 7
REMARK VINA RESULT:      -2.9     24.292     25.634
REMARK  1 active torsions:
REMARK  status: ('A' for Active; 'I' for Inactive)
REMARK    1  A    between atoms: C4_4  and  C10_10 
ROOT
HETATM    1  C1  UNL     1     -28.551  -1.752  11.292  1.00 20.00     0.016 C 
HETATM    2  C2  UNL     1     -27.451  -1.441  12.313  1.00 20.00     0.017 C 
HETATM    3  C3  UNL     1     -28.481  -3.281  11.280  1.00 20.00     0.122 C 
HETATM    4  C4  UNL     1     -26.418  -2.560  12.097  1.00 20.00     0.129 C 
HETATM    5  C5  UNL     1     -28.346  -1.106   9.921  1.00 20.00     0.013 C 
HETATM    6  C6  UNL     1     -26.918  -0.017  12.332  1.00 20.00     0.013 C 
HETATM    7  C7  UNL     1     -29.096  -3.984  10.083  1.00 20.00     0.040 C 
HETATM    8  O11 UNL     1     -27.085  -3.603  11.360  1.00 20.00    -0.380 OA
ENDROOT
BRANCH   4   9
HETATM    9  C10 UNL     1     -25.144  -2.193  11.353  1.00 20.00     0.007 C 
HETATM   10  C8  UNL     1     -23.919  -2.373  12.251  1.00 20.00     0.012 C 
HETATM   11  C9  UNL     1     -24.999  -3.029  10.081  1.00 20.00     0.012 C 
ENDBRANCH   4   9
TORSDOF 1
ENDMDL
MODEL 8
REMARK VINA RESULT:      -2.9     11.247     13.011
REMARK  1 active torsions:
REMARK  status: ('A' for Active; 'I' for Inactive)
REMARK    1  A    between atoms: C4_4  and  C10_10 
ROOT
HETATM    1  C1  UNL     1     -41.223  12.495   5.682  1.00 20.00     0.016 C 
HETATM    2  C2  UNL     1     -42.105  12.796   6.900  1.00 20.00     0.017 C 
HETATM    3  C3  UNL     1     -39.891  12.210   6.379  1.00 20.00     0.122 C 
HETATM    4  C4  UNL     1     -41.144  13.463   7.897  1.00 20.00     0.129 C 
HETATM    5  C5  UNL     1     -41.161  13.622   4.650  1.00 20.00     0.013 C 
HETATM    6  C6  UNL     1     -43.417  13.515   6.633  1.00 20.00     0.013 C 
HETATM    7  C7  UNL     1     -38.640  12.298   5.524  1.00 20.00     0.040 C 
HETATM    8  O11 UNL     1     -39.807  13.159   7.452  1.00 20.00    -0.380 OA
ENDROOT
BRANCH   4   9
HETATM    9  C10 UNL     1     -41.256  14.970   8.064  1.00 20.00     0.007 C 
HETATM   10  C8  UNL     1     -41.420  15.343   9.538  1.00 20.00     0.012 C 
HETATM   11  C9  UNL     1     -40.036  15.674   7.470  1.00 20.00     0.012 C 
ENDBRANCH   4   9
TORSDOF 1
ENDMDL
MODEL 9
REMARK VINA RESULT:      -2.8      3.902      5.388
REMARK  1 active torsions:
REMARK  status: ('A' for Active; 'I' for Inactive)
REMARK    1  A    between atoms: C4_4  and  C10_10 
ROOT
HETATM    1  C1  UNL     1     -34.947  14.931  -6.368  1.00 20.00     0.016 C 
HETATM    2  C2  UNL     1     -36.240  15.748  -6.483  1.00 20.00     0.017 C 
HETATM    3  C3  UNL     1     -34.646  15.116  -4.879  1.00 20.00     0.122 C 
HETATM    4  C4  UNL     1     -36.053  16.883  -5.463  1.00 20.00     0.129 C 
HETATM    5  C5  UNL     1     -33.822  15.390  -7.296  1.00 20.00     0.013 C 
HETATM    6  C6  UNL     1     -36.668  16.156  -7.884  1.00 20.00     0.013 C 
HETATM    7  C7  UNL     1     -33.223  14.839  -4.430  1.00 20.00     0.040 C 
HETATM    8  O11 UNL     1     -34.986  16.478  -4.582  1.00 20.00    -0.380 OA
ENDROOT
BRANCH   4   9
HETATM    9  C10 UNL     1     -35.718  18.260  -6.012  1.00 20.00     0.007 C 
HETATM   10  C8  UNL     1     -36.835  19.257  -5.699  1.00 20.00     0.012 C 
HETATM   11  C9  UNL     1     -34.387  18.760  -5.449  1.00 20.00     0.012 C 
ENDBRANCH   4   9
TORSDOF 1
ENDMDL
