MODEL 1
REMARK VINA RESULT:      -4.3      0.000      0.000
REMARK  0 active torsions:
REMARK  status: ('A' for Active; 'I' for Inactive)
ROOT
HETATM    1  C1  UNL     1     -33.868   6.411   4.642  1.00 20.00     0.094 A 
HETATM    2  C2  UNL     1     -33.004   6.370   3.532  1.00 20.00     0.073 A 
HETATM    3  C3  UNL     1     -33.580   7.604   5.258  1.00 20.00     0.225 A 
HETATM    4  C4  UNL     1     -32.881   5.315   2.509  1.00 20.00     0.074 C 
HETATM    5  C5  UNL     1     -31.966   9.455   4.764  1.00 20.00     0.183 C 
HETATM    6  N6  UNL     1     -32.224   7.451   3.446  1.00 20.00    -0.174 NA
HETATM    7  N7  UNL     1     -32.598   8.183   4.509  1.00 20.00    -0.247 N 
HETATM    8  F8  UNL     1     -34.139   8.099   6.362  1.00 20.00    -0.183 F 
HETATM    9 BR9  UNL     1     -35.117   5.118   5.136  1.00 20.00    -0.044 Br
ENDROOT
TORSDOF 0
ENDMDL
MODEL 2
REMARK VINA RESULT:      -3.9      1.909      3.129
REMARK  0 active torsions:
REMARK  status: ('A' for Active; 'I' for Inactive)
ROOT
HETATM    1  C1  UNL     1     -33.655   6.556   4.898  1.00 20.00     0.094 A 
HETATM    2  C2  UNL     1     -32.831   7.420   4.153  1.00 20.00     0.073 A 
HETATM    3  C3  UNL     1     -33.800   5.447   4.101  1.00 20.00     0.225 A 
HETATM    4  C4  UNL     1     -32.342   8.760   4.525  1.00 20.00     0.074 C 
HETATM    5  C5  UNL     1     -32.934   4.828   1.833  1.00 20.00     0.183 C 
HETATM    6  N6  UNL     1     -32.478   6.904   2.973  1.00 20.00    -0.174 NA
HETATM    7  N7  UNL     1     -33.082   5.704   2.970  1.00 20.00    -0.247 N 
HETATM    8  F8  UNL     1     -34.500   4.344   4.368  1.00 20.00    -0.183 F 
HETATM    9 BR9  UNL     1     -34.373   6.874   6.589  1.00 20.00    -0.044 Br
ENDROOT
TORSDOF 0
ENDMDL
MODEL 3
REMARK VINA RESULT:      -3.8      2.576      3.600
REMARK  0 active torsions:
REMARK  status: ('A' for Active; 'I' for Inactive)
ROOT
HETATM    1  C1  UNL     1     -32.934   7.176   3.729  1.00 20.00     0.094 A 
HETATM    2  C2  UNL     1     -32.884   7.971   4.889  1.00 20.00     0.073 A 
HETATM    3  C3  UNL     1     -33.663   6.073   4.100  1.00 20.00     0.225 A 
HETATM    4  C4  UNL     1     -32.230   9.280   5.070  1.00 20.00     0.074 C 
HETATM    5  C5  UNL     1     -34.760   5.370   6.239  1.00 20.00     0.183 C 
HETATM    6  N6  UNL     1     -33.529   7.419   5.920  1.00 20.00    -0.174 NA
HETATM    7  N7  UNL     1     -33.993   6.266   5.409  1.00 20.00    -0.247 N 
HETATM    8  F8  UNL     1     -33.984   5.024   3.343  1.00 20.00    -0.183 F 
HETATM    9 BR9  UNL     1     -32.171   7.562   2.073  1.00 20.00    -0.044 Br
ENDROOT
TORSDOF 0
ENDMDL
MODEL 4
REMARK VINA RESULT:      -3.8      2.014      2.544
REMARK  0 active torsions:
REMARK  status: ('A' for Active; 'I' for Inactive)
ROOT
HETATM    1  C1  UNL     1     -33.267   6.237   3.802  1.00 20.00     0.094 A 
HETATM    2  C2  UNL     1     -33.890   6.413   5.051  1.00 20.00     0.073 A 
HETATM    3  C3  UNL     1     -32.533   7.383   3.619  1.00 20.00     0.225 A 
HETATM    4  C4  UNL     1     -34.798   5.490   5.757  1.00 20.00     0.074 C 
HETATM    5  C5  UNL     1     -32.191   9.449   4.993  1.00 20.00     0.183 C 
HETATM    6  N6  UNL     1     -33.579   7.580   5.622  1.00 20.00    -0.174 NA
HETATM    7  N7  UNL     1     -32.752   8.147   4.728  1.00 20.00    -0.247 N 
HETATM    8  F8  UNL     1     -31.765   7.693   2.575  1.00 20.00    -0.183 F 
HETATM    9 BR9  UNL     1     -33.424   4.763   2.671  1.00 20.00    -0.044 Br
ENDROOT
TORSDOF 0
ENDMDL
MODEL 5
REMARK VINA RESULT:      -3.7      1.901      2.142
REMARK  0 active torsions:
REMARK  status: ('A' for Active; 'I' for Inactive)
ROOT
HETATM    1  C1  UNL     1     -33.439   6.930   4.743  1.00 20.00     0.094 A 
HETATM    2  C2  UNL     1     -33.490   5.807   3.897  1.00 20.00     0.073 A 
HETATM    3  C3  UNL     1     -32.810   7.895   3.995  1.00 20.00     0.225 A 
HETATM    4  C4  UNL     1     -34.065   4.478   4.179  1.00 20.00     0.074 C 
HETATM    5  C5  UNL     1     -31.872   7.938   1.672  1.00 20.00     0.183 C 
HETATM    6  N6  UNL     1     -32.937   6.035   2.703  1.00 20.00    -0.174 NA
HETATM    7  N7  UNL     1     -32.533   7.314   2.792  1.00 20.00    -0.247 N 
HETATM    8  F8  UNL     1     -32.522   9.144   4.362  1.00 20.00    -0.183 F 
HETATM    9 BR9  UNL     1     -34.090   7.051   6.485  1.00 20.00    -0.044 Br
ENDROOT
TORSDOF 0
ENDMDL
MODEL 6
REMARK VINA RESULT:      -3.7      1.999      2.901
REMARK  0 active torsions:
REMARK  status: ('A' for Active; 'I' for Inactive)
ROOT
HETATM    1  C1  UNL     1     -33.666   6.367   4.382  1.00 20.00     0.094 A 
HETATM    2  C2  UNL     1     -33.409   7.700   4.753  1.00 20.00     0.073 A 
HETATM    3  C3  UNL     1     -33.109   6.245   3.133  1.00 20.00     0.225 A 
HETATM    4  C4  UNL     1     -33.779   8.386   6.005  1.00 20.00     0.074 C 
HETATM    5  C5  UNL     1     -31.877   7.827   1.631  1.00 20.00     0.183 C 
HETATM    6  N6  UNL     1     -32.741   8.376   3.815  1.00 20.00    -0.174 NA
HETATM    7  N7  UNL     1     -32.572   7.465   2.842  1.00 20.00    -0.247 N 
HETATM    8  F8  UNL     1     -33.094   5.161   2.356  1.00 20.00    -0.183 F 
HETATM    9 BR9  UNL     1     -34.564   5.078   5.385  1.00 20.00    -0.044 Br
ENDROOT
TORSDOF 0
ENDMDL
MODEL 7
REMARK VINA RESULT:      -3.7      2.397      2.849
REMARK  0 active torsions:
REMARK  status: ('A' for Active; 'I' for Inactive)
ROOT
HETATM    1  C1  UNL     1     -33.220   7.135   4.012  1.00 20.00     0.094 A 
HETATM    2  C2  UNL     1     -33.385   5.799   3.603  1.00 20.00     0.073 A 
HETATM    3  C3  UNL     1     -33.830   7.195   5.241  1.00 20.00     0.225 A 
HETATM    4  C4  UNL     1     -32.921   5.162   2.356  1.00 20.00     0.074 C 
HETATM    5  C5  UNL     1     -35.027   5.512   6.657  1.00 20.00     0.183 C 
HETATM    6  N6  UNL     1     -34.049   5.063   4.499  1.00 20.00    -0.174 NA
HETATM    7  N7  UNL     1     -34.305   5.940   5.484  1.00 20.00    -0.247 N 
HETATM    8  F8  UNL     1     -33.942   8.259   6.037  1.00 20.00    -0.183 F 
HETATM    9 BR9  UNL     1     -32.358   8.495   3.073  1.00 20.00    -0.044 Br
ENDROOT
TORSDOF 0
ENDMDL
MODEL 8
REMARK VINA RESULT:      -3.7      2.624      3.601
REMARK  0 active torsions:
REMARK  status: ('A' for Active; 'I' for Inactive)
ROOT
HETATM    1  C1  UNL     1     -33.271   7.172   4.511  1.00 20.00     0.094 A 
HETATM    2  C2  UNL     1     -34.036   6.083   4.971  1.00 20.00     0.073 A 
HETATM    3  C3  UNL     1     -32.778   6.757   3.299  1.00 20.00     0.225 A 
HETATM    4  C4  UNL     1     -34.802   5.972   6.225  1.00 20.00     0.074 C 
HETATM    5  C5  UNL     1     -33.009   4.644   1.974  1.00 20.00     0.183 C 
HETATM    6  N6  UNL     1     -34.032   5.054   4.119  1.00 20.00    -0.174 NA
HETATM    7  N7  UNL     1     -33.259   5.495   3.112  1.00 20.00    -0.247 N 
HETATM    8  F8  UNL     1     -31.989   7.441   2.470  1.00 20.00    -0.183 F 
HETATM    9 BR9  UNL     1     -33.007   8.800   5.379  1.00 20.00    -0.044 Br
ENDROOT
TORSDOF 0
ENDMDL
MODEL 9
REMARK VINA RESULT:      -3.5      9.151      9.898
REMARK  0 active torsions:
REMARK  status: ('A' for Active; 'I' for Inactive)
ROOT
HETATM    1  C1  UNL     1     -40.529  13.554   6.728  1.00 20.00     0.094 A 
HETATM    2  C2  UNL     1     -41.290  13.865   5.586  1.00 20.00     0.073 A 
HETATM    3  C3  UNL     1     -39.627  12.614   6.295  1.00 20.00     0.225 A 
HETATM    4  C4  UNL     1     -42.404  14.822   5.464  1.00 20.00     0.074 C 
HETATM    5  C5  UNL     1     -39.200  11.525   4.079  1.00 20.00     0.183 C 
HETATM    6  N6  UNL     1     -40.905  13.177   4.507  1.00 20.00    -0.174 NA
HETATM    7  N7  UNL     1     -39.891  12.426   4.970  1.00 20.00    -0.247 N 
HETATM    8  F8  UNL     1     -38.685  12.004   7.015  1.00 20.00    -0.183 F 
HETATM    9 BR9  UNL     1     -40.727  14.276   8.435  1.00 20.00    -0.044 Br
ENDROOT
TORSDOF 0
ENDMDL
