MODEL 1
REMARK VINA RESULT:      -4.1      0.000      0.000
REMARK  2 active torsions:
REMARK  status: ('A' for Active; 'I' for Inactive)
REMARK    1  A    between atoms: C2_2  and  C9_9 
REMARK    2  A    between atoms: C3_3  and  C6_6 
ROOT
HETATM    1  C1  UNL     1     -42.059  14.760   6.696  1.00 20.00     0.079 A 
HETATM    2  C2  UNL     1     -41.374  14.320   7.811  1.00 20.00     0.045 A 
HETATM    3  C3  UNL     1     -40.573  12.896   6.348  1.00 20.00     0.079 A 
HETATM    4  N10 UNL     1     -40.522  13.251   7.612  1.00 20.00    -0.249 NA
HETATM    5  S11 UNL     1     -41.624  13.804   5.340  1.00 20.00    -0.084 SA
ENDROOT
BRANCH   2   6
HETATM    6  C9  UNL     1     -41.483  14.907   9.205  1.00 20.00     0.030 C 
HETATM    7  C7  UNL     1     -40.107  15.247   9.782  1.00 20.00     0.016 C 
HETATM    8  C8  UNL     1     -42.256  13.979  10.148  1.00 20.00     0.016 C 
ENDBRANCH   2   6
BRANCH   3   9
HETATM    9  C6  UNL     1     -39.736  11.728   5.801  1.00 20.00     0.045 A 
HETATM   10  C4  UNL     1     -38.301  11.991   5.404  1.00 20.00     0.012 A 
HETATM   11  C5  UNL     1     -39.331  11.748   4.345  1.00 20.00     0.012 A 
ENDBRANCH   3   9
TORSDOF 2
ENDMDL
MODEL 2
REMARK VINA RESULT:      -4.0     11.527     12.865
REMARK  2 active torsions:
REMARK  status: ('A' for Active; 'I' for Inactive)
REMARK    1  A    between atoms: C2_2  and  C9_9 
REMARK    2  A    between atoms: C3_3  and  C6_6 
ROOT
HETATM    1  C1  UNL     1     -33.106  19.173  -2.848  1.00 20.00     0.079 A 
HETATM    2  C2  UNL     1     -32.914  18.389  -1.728  1.00 20.00     0.045 A 
HETATM    3  C3  UNL     1     -33.532  16.818  -3.128  1.00 20.00     0.079 A 
HETATM    4  N10 UNL     1     -33.158  17.039  -1.887  1.00 20.00    -0.249 NA
HETATM    5  S11 UNL     1     -33.610  18.188  -4.159  1.00 20.00    -0.084 SA
ENDROOT
BRANCH   2   6
HETATM    6  C9  UNL     1     -32.468  18.886  -0.366  1.00 20.00     0.030 C 
HETATM    7  C7  UNL     1     -31.038  18.444  -0.047  1.00 20.00     0.016 C 
HETATM    8  C8  UNL     1     -33.433  18.447   0.738  1.00 20.00     0.016 C 
ENDBRANCH   2   6
BRANCH   3   9
HETATM    9  C6  UNL     1     -33.880  15.407  -3.630  1.00 20.00     0.045 A 
HETATM   10  C4  UNL     1     -32.841  14.645  -4.420  1.00 20.00     0.012 A 
HETATM   11  C5  UNL     1     -34.050  15.189  -5.116  1.00 20.00     0.012 A 
ENDBRANCH   3   9
TORSDOF 2
ENDMDL
MODEL 3
REMARK VINA RESULT:      -3.9      9.915     10.783
REMARK  2 active torsions:
REMARK  status: ('A' for Active; 'I' for Inactive)
REMARK    1  A    between atoms: C2_2  and  C9_9 
REMARK    2  A    between atoms: C3_3  and  C6_6 
ROOT
HETATM    1  C1  UNL     1     -33.318   7.813   5.494  1.00 20.00     0.079 A 
HETATM    2  C2  UNL     1     -33.695   6.811   4.623  1.00 20.00     0.045 A 
HETATM    3  C3  UNL     1     -32.510   8.027   3.235  1.00 20.00     0.079 A 
HETATM    4  N10 UNL     1     -33.232   6.933   3.327  1.00 20.00    -0.249 NA
HETATM    5  S11 UNL     1     -32.343   8.957   4.668  1.00 20.00    -0.084 SA
ENDROOT
BRANCH   2   6
HETATM    6  C9  UNL     1     -34.560   5.615   4.970  1.00 20.00     0.030 C 
HETATM    7  C7  UNL     1     -34.678   5.426   6.484  1.00 20.00     0.016 C 
HETATM    8  C8  UNL     1     -34.049   4.337   4.300  1.00 20.00     0.016 C 
ENDBRANCH   2   6
BRANCH   3   9
HETATM    9  C6  UNL     1     -31.848   8.452   1.914  1.00 20.00     0.045 A 
HETATM   10  C4  UNL     1     -32.630   9.329   0.963  1.00 20.00     0.012 A 
HETATM   11  C5  UNL     1     -32.391   7.891   0.620  1.00 20.00     0.012 A 
ENDBRANCH   3   9
TORSDOF 2
ENDMDL
MODEL 4
REMARK VINA RESULT:      -3.9      2.117      3.577
REMARK  2 active torsions:
REMARK  status: ('A' for Active; 'I' for Inactive)
REMARK    1  A    between atoms: C2_2  and  C9_9 
REMARK    2  A    between atoms: C3_3  and  C6_6 
ROOT
HETATM    1  C1  UNL     1     -41.937  15.080   6.662  1.00 20.00     0.079 A 
HETATM    2  C2  UNL     1     -42.089  14.796   5.320  1.00 20.00     0.045 A 
HETATM    3  C3  UNL     1     -40.749  13.145   5.858  1.00 20.00     0.079 A 
HETATM    4  N10 UNL     1     -41.408  13.686   4.858  1.00 20.00    -0.249 NA
HETATM    5  S11 UNL     1     -40.904  13.917   7.383  1.00 20.00    -0.084 SA
ENDROOT
BRANCH   2   6
HETATM    6  C9  UNL     1     -42.926  15.590   4.336  1.00 20.00     0.030 C 
HETATM    7  C7  UNL     1     -42.512  15.309   2.890  1.00 20.00     0.016 C 
HETATM    8  C8  UNL     1     -42.877  17.091   4.636  1.00 20.00     0.016 C 
ENDBRANCH   2   6
BRANCH   3   9
HETATM    9  C6  UNL     1     -39.885  11.887   5.672  1.00 20.00     0.045 A 
HETATM   10  C4  UNL     1     -38.393  12.054   5.493  1.00 20.00     0.012 A 
HETATM   11  C5  UNL     1     -39.239  11.645   4.327  1.00 20.00     0.012 A 
ENDBRANCH   3   9
TORSDOF 2
ENDMDL
MODEL 5
REMARK VINA RESULT:      -3.8     11.574     13.651
REMARK  2 active torsions:
REMARK  status: ('A' for Active; 'I' for Inactive)
REMARK    1  A    between atoms: C2_2  and  C9_9 
REMARK    2  A    between atoms: C3_3  and  C6_6 
ROOT
HETATM    1  C1  UNL     1     -34.420  17.439  -4.721  1.00 20.00     0.079 A 
HETATM    2  C2  UNL     1     -33.919  16.241  -4.255  1.00 20.00     0.045 A 
HETATM    3  C3  UNL     1     -33.386  17.509  -2.547  1.00 20.00     0.079 A 
HETATM    4  N10 UNL     1     -33.325  16.280  -3.008  1.00 20.00    -0.249 NA
HETATM    5  S11 UNL     1     -34.144  18.669  -3.557  1.00 20.00    -0.084 SA
ENDROOT
BRANCH   2   6
HETATM    6  C9  UNL     1     -33.967  14.915  -4.991  1.00 20.00     0.030 C 
HETATM    7  C7  UNL     1     -34.020  15.114  -6.507  1.00 20.00     0.016 C 
HETATM    8  C8  UNL     1     -35.135  14.048  -4.513  1.00 20.00     0.016 C 
ENDBRANCH   2   6
BRANCH   3   9
HETATM    9  C6  UNL     1     -32.809  17.887  -1.172  1.00 20.00     0.045 A 
HETATM   10  C4  UNL     1     -33.750  17.982   0.006  1.00 20.00     0.012 A 
HETATM   11  C5  UNL     1     -33.168  19.230  -0.581  1.00 20.00     0.012 A 
ENDBRANCH   3   9
TORSDOF 2
ENDMDL
MODEL 6
REMARK VINA RESULT:      -3.7      0.860      4.517
REMARK  2 active torsions:
REMARK  status: ('A' for Active; 'I' for Inactive)
REMARK    1  A    between atoms: C2_2  and  C9_9 
REMARK    2  A    between atoms: C3_3  and  C6_6 
ROOT
HETATM    1  C1  UNL     1     -41.281  13.495   5.157  1.00 20.00     0.079 A 
HETATM    2  C2  UNL     1     -40.322  12.879   5.934  1.00 20.00     0.045 A 
HETATM    3  C3  UNL     1     -41.235  14.143   7.477  1.00 20.00     0.079 A 
HETATM    4  N10 UNL     1     -40.295  13.249   7.265  1.00 20.00    -0.249 NA
HETATM    5  S11 UNL     1     -42.192  14.583   6.122  1.00 20.00    -0.084 SA
ENDROOT
BRANCH   2   6
HETATM    6  C9  UNL     1     -39.318  11.850   5.452  1.00 20.00     0.030 C 
HETATM    7  C7  UNL     1     -37.921  12.119   6.016  1.00 20.00     0.016 C 
HETATM    8  C8  UNL     1     -39.282  11.772   3.923  1.00 20.00     0.016 C 
ENDBRANCH   2   6
BRANCH   3   9
HETATM    9  C6  UNL     1     -41.467  14.760   8.866  1.00 20.00     0.045 A 
HETATM   10  C4  UNL     1     -40.732  16.032   9.224  1.00 20.00     0.012 A 
HETATM   11  C5  UNL     1     -40.334  14.739   9.866  1.00 20.00     0.012 A 
ENDBRANCH   3   9
TORSDOF 2
ENDMDL
MODEL 7
REMARK VINA RESULT:      -3.6     20.894     23.051
REMARK  2 active torsions:
REMARK  status: ('A' for Active; 'I' for Inactive)
REMARK    1  A    between atoms: C2_2  and  C9_9 
REMARK    2  A    between atoms: C3_3  and  C6_6 
ROOT
HETATM    1  C1  UNL     1     -23.560  -2.489  11.113  1.00 20.00     0.079 A 
HETATM    2  C2  UNL     1     -24.178  -3.135  10.062  1.00 20.00     0.045 A 
HETATM    3  C3  UNL     1     -25.939  -2.160  10.932  1.00 20.00     0.079 A 
HETATM    4  N10 UNL     1     -25.542  -2.947   9.957  1.00 20.00    -0.249 NA
HETATM    5  S11 UNL     1     -24.725  -1.607  12.011  1.00 20.00    -0.084 SA
ENDROOT
BRANCH   2   6
HETATM    6  C9  UNL     1     -23.490  -4.017   9.037  1.00 20.00     0.030 C 
HETATM    7  C7  UNL     1     -22.251  -4.698   9.621  1.00 20.00     0.016 C 
HETATM    8  C8  UNL     1     -23.136  -3.235   7.769  1.00 20.00     0.016 C 
ENDBRANCH   2   6
BRANCH   3   9
HETATM    9  C6  UNL     1     -27.413  -1.756  11.097  1.00 20.00     0.045 A 
HETATM   10  C4  UNL     1     -27.906  -0.516  10.385  1.00 20.00     0.012 A 
HETATM   11  C5  UNL     1     -27.737  -0.500  11.873  1.00 20.00     0.012 A 
ENDBRANCH   3   9
TORSDOF 2
ENDMDL
MODEL 8
REMARK VINA RESULT:      -3.6      2.610      4.749
REMARK  2 active torsions:
REMARK  status: ('A' for Active; 'I' for Inactive)
REMARK    1  A    between atoms: C2_2  and  C9_9 
REMARK    2  A    between atoms: C3_3  and  C6_6 
ROOT
HETATM    1  C1  UNL     1     -41.160  13.897   6.470  1.00 20.00     0.079 A 
HETATM    2  C2  UNL     1     -40.807  13.154   5.363  1.00 20.00     0.045 A 
HETATM    3  C3  UNL     1     -42.151  14.585   4.385  1.00 20.00     0.079 A 
HETATM    4  N10 UNL     1     -41.375  13.548   4.166  1.00 20.00    -0.249 NA
HETATM    5  S11 UNL     1     -42.245  15.142   6.005  1.00 20.00    -0.084 SA
ENDROOT
BRANCH   2   6
HETATM    6  C9  UNL     1     -39.865  11.965   5.358  1.00 20.00     0.030 C 
HETATM    7  C7  UNL     1     -38.859  12.039   6.508  1.00 20.00     0.016 C 
HETATM    8  C8  UNL     1     -39.146  11.822   4.013  1.00 20.00     0.016 C 
ENDBRANCH   2   6
BRANCH   3   9
HETATM    9  C6  UNL     1     -42.934  15.265   3.249  1.00 20.00     0.045 A 
HETATM   10  C4  UNL     1     -42.233  16.311   2.414  1.00 20.00     0.012 A 
HETATM   11  C5  UNL     1     -43.290  16.727   3.390  1.00 20.00     0.012 A 
ENDBRANCH   3   9
TORSDOF 2
ENDMDL
MODEL 9
REMARK VINA RESULT:      -3.5      1.029      1.512
REMARK  2 active torsions:
REMARK  status: ('A' for Active; 'I' for Inactive)
REMARK    1  A    between atoms: C2_2  and  C9_9 
REMARK    2  A    between atoms: C3_3  and  C6_6 
ROOT
HETATM    1  C1  UNL     1     -42.546  14.091   8.079  1.00 20.00     0.079 A 
HETATM    2  C2  UNL     1     -41.240  14.065   8.522  1.00 20.00     0.045 A 
HETATM    3  C3  UNL     1     -40.923  13.237   6.516  1.00 20.00     0.079 A 
HETATM    4  N10 UNL     1     -40.308  13.576   7.627  1.00 20.00    -0.249 NA
HETATM    5  S11 UNL     1     -42.621  13.481   6.477  1.00 20.00    -0.084 SA
ENDROOT
BRANCH   2   6
HETATM    6  C9  UNL     1     -40.758  14.522   9.886  1.00 20.00     0.030 C 
HETATM    7  C7  UNL     1     -41.543  13.848  11.015  1.00 20.00     0.016 C 
HETATM    8  C8  UNL     1     -40.810  16.046  10.021  1.00 20.00     0.016 C 
ENDBRANCH   2   6
BRANCH   3   9
HETATM    9  C6  UNL     1     -40.162  12.653   5.315  1.00 20.00     0.045 A 
HETATM   10  C4  UNL     1     -39.801  11.185   5.331  1.00 20.00     0.012 A 
HETATM   11  C5  UNL     1     -38.729  12.215   5.510  1.00 20.00     0.012 A 
ENDBRANCH   3   9
TORSDOF 2
ENDMDL
