MODEL 1
REMARK VINA RESULT:      -4.4      0.000      0.000
REMARK  2 active torsions:
REMARK  status: ('A' for Active; 'I' for Inactive)
REMARK    1  A    between atoms: C2_2  and  C9_9 
REMARK    2  A    between atoms: C3_3  and  C10_10 
ROOT
HETATM    1  C1  UNL     1     -33.632  17.846  -4.139  1.00 20.00     0.079 A 
HETATM    2  C2  UNL     1     -33.522  16.753  -3.307  1.00 20.00     0.046 A 
HETATM    3  C3  UNL     1     -32.854  18.302  -1.906  1.00 20.00     0.079 A 
HETATM    4  N11 UNL     1     -33.075  17.012  -2.025  1.00 20.00    -0.249 NA
HETATM    5  S12 UNL     1     -33.162  19.263  -3.293  1.00 20.00    -0.084 SA
ENDROOT
BRANCH   3   6
HETATM    6  C10 UNL     1     -32.332  18.937  -0.552  1.00 20.00     0.045 C 
HETATM    7  C7  UNL     1     -32.969  18.476   0.794  1.00 20.00     0.011 C 
HETATM    8  C4  UNL     1     -31.587  18.683   1.442  1.00 20.00     0.002 C 
HETATM    9  C8  UNL     1     -30.983  18.434   0.046  1.00 20.00     0.011 C 
ENDBRANCH   3   6
BRANCH   2  10
HETATM   10  C9  UNL     1     -33.870  15.334  -3.768  1.00 20.00     0.038 A 
HETATM   11  C5  UNL     1     -32.800  14.504  -4.444  1.00 20.00     0.011 A 
HETATM   12  C6  UNL     1     -33.937  15.046  -5.252  1.00 20.00     0.011 A 
ENDBRANCH   2  10
TORSDOF 2
ENDMDL
MODEL 2
REMARK VINA RESULT:      -4.3     11.873     12.974
REMARK  2 active torsions:
REMARK  status: ('A' for Active; 'I' for Inactive)
REMARK    1  A    between atoms: C2_2  and  C9_9 
REMARK    2  A    between atoms: C3_3  and  C10_10 
ROOT
HETATM    1  C1  UNL     1     -41.334  13.594   5.477  1.00 20.00     0.079 A 
HETATM    2  C2  UNL     1     -40.472  12.852   6.255  1.00 20.00     0.046 A 
HETATM    3  C3  UNL     1     -41.188  14.242   7.792  1.00 20.00     0.079 A 
HETATM    4  N11 UNL     1     -40.387  13.222   7.583  1.00 20.00    -0.249 NA
HETATM    5  S12 UNL     1     -42.076  14.807   6.437  1.00 20.00    -0.084 SA
ENDROOT
BRANCH   3   6
HETATM    6  C10 UNL     1     -41.330  14.914   9.220  1.00 20.00     0.045 C 
HETATM    7  C7  UNL     1     -41.586  14.005  10.460  1.00 20.00     0.011 C 
HETATM    8  C4  UNL     1     -40.756  15.009  11.282  1.00 20.00     0.002 C 
HETATM    9  C8  UNL     1     -40.042  15.376   9.967  1.00 20.00     0.011 C 
ENDBRANCH   3   6
BRANCH   2  10
HETATM   10  C9  UNL     1     -39.654  11.686   5.689  1.00 20.00     0.038 A 
HETATM   11  C5  UNL     1     -38.206  11.925   5.318  1.00 20.00     0.011 A 
HETATM   12  C6  UNL     1     -39.224  11.735   4.238  1.00 20.00     0.011 A 
ENDBRANCH   2  10
TORSDOF 2
ENDMDL
MODEL 3
REMARK VINA RESULT:      -4.2     11.995     14.055
REMARK  2 active torsions:
REMARK  status: ('A' for Active; 'I' for Inactive)
REMARK    1  A    between atoms: C2_2  and  C9_9 
REMARK    2  A    between atoms: C3_3  and  C10_10 
ROOT
HETATM    1  C1  UNL     1     -41.238  15.764   8.432  1.00 20.00     0.079 A 
HETATM    2  C2  UNL     1     -40.468  14.871   9.146  1.00 20.00     0.046 A 
HETATM    3  C3  UNL     1     -40.643  13.735   7.279  1.00 20.00     0.079 A 
HETATM    4  N11 UNL     1     -40.127  13.706   8.487  1.00 20.00    -0.249 NA
HETATM    5  S12 UNL     1     -41.550  15.132   6.868  1.00 20.00    -0.084 SA
ENDROOT
BRANCH   3   6
HETATM    6  C10 UNL     1     -40.438  12.543   6.255  1.00 20.00     0.045 C 
HETATM    7  C7  UNL     1     -40.388  12.861   4.729  1.00 20.00     0.011 C 
HETATM    8  C4  UNL     1     -39.385  11.700   4.590  1.00 20.00     0.002 C 
HETATM    9  C8  UNL     1     -39.009  11.952   6.063  1.00 20.00     0.011 C 
ENDBRANCH   3   6
BRANCH   2  10
HETATM   10  C9  UNL     1     -40.017  15.146  10.585  1.00 20.00     0.038 A 
HETATM   11  C5  UNL     1     -40.749  14.464  11.721  1.00 20.00     0.011 A 
HETATM   12  C6  UNL     1     -40.933  15.932  11.498  1.00 20.00     0.011 A 
ENDBRANCH   2  10
TORSDOF 2
ENDMDL
MODEL 4
REMARK VINA RESULT:      -4.1     11.719     12.864
REMARK  2 active torsions:
REMARK  status: ('A' for Active; 'I' for Inactive)
REMARK    1  A    between atoms: C2_2  and  C9_9 
REMARK    2  A    between atoms: C3_3  and  C10_10 
ROOT
HETATM    1  C1  UNL     1     -41.326  13.639   5.684  1.00 20.00     0.079 A 
HETATM    2  C2  UNL     1     -40.331  12.936   6.330  1.00 20.00     0.046 A 
HETATM    3  C3  UNL     1     -40.727  14.441   7.874  1.00 20.00     0.079 A 
HETATM    4  N11 UNL     1     -39.986  13.396   7.586  1.00 20.00    -0.249 NA
HETATM    5  S12 UNL     1     -41.861  14.927   6.682  1.00 20.00    -0.084 SA
ENDROOT
BRANCH   3   6
HETATM    6  C10 UNL     1     -40.584  15.213   9.250  1.00 20.00     0.045 C 
HETATM    7  C7  UNL     1     -41.100  16.681   9.349  1.00 20.00     0.011 C 
HETATM    8  C4  UNL     1     -41.470  16.380  10.814  1.00 20.00     0.002 C 
HETATM    9  C8  UNL     1     -41.593  14.901  10.397  1.00 20.00     0.011 C 
ENDBRANCH   3   6
BRANCH   2  10
HETATM   10  C9  UNL     1     -39.644  11.721   5.698  1.00 20.00     0.038 A 
HETATM   11  C5  UNL     1     -38.212  11.857   5.226  1.00 20.00     0.011 A 
HETATM   12  C6  UNL     1     -39.316  11.755   4.221  1.00 20.00     0.011 A 
ENDBRANCH   2  10
TORSDOF 2
ENDMDL
MODEL 5
REMARK VINA RESULT:      -4.1      1.555      2.166
REMARK  2 active torsions:
REMARK  status: ('A' for Active; 'I' for Inactive)
REMARK    1  A    between atoms: C2_2  and  C9_9 
REMARK    2  A    between atoms: C3_3  and  C10_10 
ROOT
HETATM    1  C1  UNL     1     -35.673  18.108  -4.462  1.00 20.00     0.079 A 
HETATM    2  C2  UNL     1     -34.788  17.090  -4.748  1.00 20.00     0.046 A 
HETATM    3  C3  UNL     1     -34.058  17.607  -2.747  1.00 20.00     0.079 A 
HETATM    4  N11 UNL     1     -33.861  16.802  -3.766  1.00 20.00    -0.249 NA
HETATM    5  S12 UNL     1     -35.342  18.734  -2.900  1.00 20.00    -0.084 SA
ENDROOT
BRANCH   3   6
HETATM    6  C10 UNL     1     -33.159  17.539  -1.443  1.00 20.00     0.045 C 
HETATM    7  C7  UNL     1     -32.087  18.646  -1.209  1.00 20.00     0.011 C 
HETATM    8  C4  UNL     1     -32.359  18.495   0.300  1.00 20.00     0.002 C 
HETATM    9  C8  UNL     1     -33.768  18.001  -0.084  1.00 20.00     0.011 C 
ENDBRANCH   3   6
BRANCH   2  10
HETATM   10  C9  UNL     1     -34.824  16.323  -6.074  1.00 20.00     0.038 A 
HETATM   11  C5  UNL     1     -35.515  14.977  -6.119  1.00 20.00     0.011 A 
HETATM   12  C6  UNL     1     -34.022  15.045  -6.199  1.00 20.00     0.011 A 
ENDBRANCH   2  10
TORSDOF 2
ENDMDL
MODEL 6
REMARK VINA RESULT:      -4.1      1.289      5.378
REMARK  2 active torsions:
REMARK  status: ('A' for Active; 'I' for Inactive)
REMARK    1  A    between atoms: C2_2  and  C9_9 
REMARK    2  A    between atoms: C3_3  and  C10_10 
ROOT
HETATM    1  C1  UNL     1     -33.712  19.202   0.083  1.00 20.00     0.079 A 
HETATM    2  C2  UNL     1     -32.383  18.902  -0.127  1.00 20.00     0.046 A 
HETATM    3  C3  UNL     1     -33.203  18.072  -1.982  1.00 20.00     0.079 A 
HETATM    4  N11 UNL     1     -32.089  18.253  -1.310  1.00 20.00    -0.249 NA
HETATM    5  S12 UNL     1     -34.642  18.657  -1.252  1.00 20.00    -0.084 SA
ENDROOT
BRANCH   3   6
HETATM    6  C10 UNL     1     -33.220  17.352  -3.394  1.00 20.00     0.045 C 
HETATM    7  C7  UNL     1     -33.435  15.809  -3.452  1.00 20.00     0.011 C 
HETATM    8  C4  UNL     1     -34.179  16.031  -4.783  1.00 20.00     0.002 C 
HETATM    9  C8  UNL     1     -34.502  17.450  -4.275  1.00 20.00     0.011 C 
ENDBRANCH   3   6
BRANCH   2  10
HETATM   10  C9  UNL     1     -31.292  19.262   0.888  1.00 20.00     0.038 A 
HETATM   11  C5  UNL     1     -30.698  18.160   1.740  1.00 20.00     0.011 A 
HETATM   12  C6  UNL     1     -31.611  19.168   2.365  1.00 20.00     0.011 A 
ENDBRANCH   2  10
TORSDOF 2
ENDMDL
MODEL 7
REMARK VINA RESULT:      -4.0     11.020     11.942
REMARK  2 active torsions:
REMARK  status: ('A' for Active; 'I' for Inactive)
REMARK    1  A    between atoms: C2_2  and  C9_9 
REMARK    2  A    between atoms: C3_3  and  C10_10 
ROOT
HETATM    1  C1  UNL     1     -41.149  13.651   6.661  1.00 20.00     0.079 A 
HETATM    2  C2  UNL     1     -40.834  13.051   5.460  1.00 20.00     0.046 A 
HETATM    3  C3  UNL     1     -42.147  14.635   4.702  1.00 20.00     0.079 A 
HETATM    4  N11 UNL     1     -41.406  13.614   4.336  1.00 20.00    -0.249 NA
HETATM    5  S12 UNL     1     -42.201  14.977   6.383  1.00 20.00    -0.084 SA
ENDROOT
BRANCH   3   6
HETATM    6  C10 UNL     1     -42.947  15.508   3.649  1.00 20.00     0.045 C 
HETATM    7  C7  UNL     1     -42.775  17.057   3.667  1.00 20.00     0.011 C 
HETATM    8  C4  UNL     1     -42.958  17.027   2.138  1.00 20.00     0.002 C 
HETATM    9  C8  UNL     1     -42.427  15.581   2.181  1.00 20.00     0.011 C 
ENDBRANCH   3   6
BRANCH   2  10
HETATM   10  C9  UNL     1     -39.908  11.833   5.370  1.00 20.00     0.038 A 
HETATM   11  C5  UNL     1     -38.411  12.049   5.442  1.00 20.00     0.011 A 
HETATM   12  C6  UNL     1     -39.043  11.665   4.140  1.00 20.00     0.011 A 
ENDBRANCH   2  10
TORSDOF 2
ENDMDL
MODEL 8
REMARK VINA RESULT:      -3.8      2.492      3.356
REMARK  2 active torsions:
REMARK  status: ('A' for Active; 'I' for Inactive)
REMARK    1  A    between atoms: C2_2  and  C9_9 
REMARK    2  A    between atoms: C3_3  and  C10_10 
ROOT
HETATM    1  C1  UNL     1     -34.479  15.396  -5.431  1.00 20.00     0.079 A 
HETATM    2  C2  UNL     1     -35.007  16.660  -5.277  1.00 20.00     0.046 A 
HETATM    3  C3  UNL     1     -33.676  16.645  -3.535  1.00 20.00     0.079 A 
HETATM    4  N11 UNL     1     -34.548  17.378  -4.190  1.00 20.00    -0.249 NA
HETATM    5  S12 UNL     1     -33.358  15.083  -4.171  1.00 20.00    -0.084 SA
ENDROOT
BRANCH   3   6
HETATM    6  C10 UNL     1     -32.953  17.175  -2.229  1.00 20.00     0.045 C 
HETATM    7  C7  UNL     1     -32.550  18.679  -2.147  1.00 20.00     0.011 C 
HETATM    8  C4  UNL     1     -32.832  18.602  -0.635  1.00 20.00     0.002 C 
HETATM    9  C8  UNL     1     -33.807  17.452  -0.955  1.00 20.00     0.011 C 
ENDBRANCH   3   6
BRANCH   2  10
HETATM   10  C9  UNL     1     -36.042  17.240  -6.248  1.00 20.00     0.038 A 
HETATM   11  C5  UNL     1     -37.505  16.920  -6.029  1.00 20.00     0.011 A 
HETATM   12  C6  UNL     1     -36.775  16.299  -7.179  1.00 20.00     0.011 A 
ENDBRANCH   2  10
TORSDOF 2
ENDMDL
MODEL 9
REMARK VINA RESULT:      -3.7      1.462      5.461
REMARK  2 active torsions:
REMARK  status: ('A' for Active; 'I' for Inactive)
REMARK    1  A    between atoms: C2_2  and  C9_9 
REMARK    2  A    between atoms: C3_3  and  C10_10 
ROOT
HETATM    1  C1  UNL     1     -33.128  19.263  -3.295  1.00 20.00     0.079 A 
HETATM    2  C2  UNL     1     -33.166  18.031  -2.676  1.00 20.00     0.046 A 
HETATM    3  C3  UNL     1     -34.018  17.454  -4.612  1.00 20.00     0.079 A 
HETATM    4  N11 UNL     1     -33.677  16.993  -3.430  1.00 20.00    -0.249 NA
HETATM    5  S12 UNL     1     -33.751  19.126  -4.887  1.00 20.00    -0.084 SA
ENDROOT
BRANCH   3   6
HETATM    6  C10 UNL     1     -34.641  16.516  -5.727  1.00 20.00     0.045 C 
HETATM    7  C7  UNL     1     -34.298  14.995  -5.711  1.00 20.00     0.011 C 
HETATM    8  C4  UNL     1     -35.716  14.739  -6.256  1.00 20.00     0.002 C 
HETATM    9  C8  UNL     1     -36.127  16.066  -5.589  1.00 20.00     0.011 C 
ENDBRANCH   3   6
BRANCH   2  10
HETATM   10  C9  UNL     1     -32.676  17.820  -1.240  1.00 20.00     0.038 A 
HETATM   11  C5  UNL     1     -33.639  18.064  -0.098  1.00 20.00     0.011 A 
HETATM   12  C6  UNL     1     -32.518  19.026  -0.339  1.00 20.00     0.011 A 
ENDBRANCH   2  10
TORSDOF 2
ENDMDL
