MODEL 1
REMARK VINA RESULT:      -4.6      0.000      0.000
REMARK  1 active torsions:
REMARK  status: ('A' for Active; 'I' for Inactive)
REMARK    1  A    between atoms: CA_4  and  C_5 
ROOT
HETATM    1  C1  UNK A   1     -32.681   8.121   4.501  1.00 20.00     0.013 A 
HETATM    2  C2  UNK A   1     -32.111   9.452   4.863  1.00 20.00     0.066 C 
ATOM      3  N   VAL A   1     -33.612   7.537   5.194  1.00 20.00    -0.255 NA
ATOM      4  CA  VAL A   1     -33.839   6.361   4.530  1.00 20.00     0.096 A 
ATOM      5  CB  VAL A   1     -33.081   6.188   3.440  1.00 20.00    -0.047 A 
ATOM      6  CG1 VAL A   1     -33.020   5.072   2.461  1.00 20.00     0.046 C 
ATOM      7  CG2 VAL A   1     -32.190   7.379   3.285  1.00 20.00     0.090 A 
ENDROOT
BRANCH   4   8
ATOM      8  C   VAL A   1     -34.839   5.422   5.023  1.00 20.00     0.290 C 
ATOM      9  O   VAL A   1     -34.842   4.996   6.176  1.00 20.00    -0.300 OA
ENDBRANCH   4   8
TORSDOF 1
ENDMDL
MODEL 2
REMARK VINA RESULT:      -4.4      1.779      2.538
REMARK  1 active torsions:
REMARK  status: ('A' for Active; 'I' for Inactive)
REMARK    1  A    between atoms: CA_4  and  C_5 
ROOT
HETATM    1  C1  UNK A   1     -32.833   8.068   4.806  1.00 20.00     0.013 A 
HETATM    2  C2  UNK A   1     -32.157   9.397   4.876  1.00 20.00     0.066 C 
ATOM      3  N   VAL A   1     -32.723   7.270   3.786  1.00 20.00    -0.255 NA
ATOM      4  CA  VAL A   1     -33.485   6.184   4.125  1.00 20.00     0.096 A 
ATOM      5  CB  VAL A   1     -34.069   6.273   5.326  1.00 20.00    -0.047 A 
ATOM      6  CG1 VAL A   1     -34.957   5.328   6.051  1.00 20.00     0.046 C 
ATOM      7  CG2 VAL A   1     -33.693   7.582   5.944  1.00 20.00     0.090 A 
ENDROOT
BRANCH   4   8
ATOM      8  C   VAL A   1     -33.604   5.058   3.207  1.00 20.00     0.290 C 
ATOM      9  O   VAL A   1     -32.784   4.830   2.321  1.00 20.00    -0.300 OA
ENDBRANCH   4   8
TORSDOF 1
ENDMDL
MODEL 3
REMARK VINA RESULT:      -4.3      2.326      3.819
REMARK  1 active torsions:
REMARK  status: ('A' for Active; 'I' for Inactive)
REMARK    1  A    between atoms: CA_4  and  C_5 
ROOT
HETATM    1  C1  UNK A   1     -34.122   6.150   5.104  1.00 20.00     0.013 A 
HETATM    2  C2  UNK A   1     -35.051   5.186   5.767  1.00 20.00     0.066 C 
ATOM      3  N   VAL A   1     -33.605   5.942   3.931  1.00 20.00    -0.255 NA
ATOM      4  CA  VAL A   1     -32.829   7.047   3.705  1.00 20.00     0.096 A 
ATOM      5  CB  VAL A   1     -32.843   7.944   4.698  1.00 20.00    -0.047 A 
ATOM      6  CG1 VAL A   1     -32.152   9.251   4.843  1.00 20.00     0.046 C 
ATOM      7  CG2 VAL A   1     -33.735   7.437   5.786  1.00 20.00     0.090 A 
ENDROOT
BRANCH   4   8
ATOM      8  C   VAL A   1     -32.077   7.173   2.461  1.00 20.00     0.290 C 
ATOM      9  O   VAL A   1     -32.297   8.058   1.638  1.00 20.00    -0.300 OA
ENDBRANCH   4   8
TORSDOF 1
ENDMDL
MODEL 4
REMARK VINA RESULT:      -4.3      2.071      3.616
REMARK  1 active torsions:
REMARK  status: ('A' for Active; 'I' for Inactive)
REMARK    1  A    between atoms: CA_4  and  C_5 
ROOT
HETATM    1  C1  UNK A   1     -33.308   5.515   3.260  1.00 20.00     0.013 A 
HETATM    2  C2  UNK A   1     -32.943   4.725   2.048  1.00 20.00     0.066 C 
ATOM      3  N   VAL A   1     -32.931   6.744   3.444  1.00 20.00    -0.255 NA
ATOM      4  CA  VAL A   1     -33.469   7.084   4.656  1.00 20.00     0.096 A 
ATOM      5  CB  VAL A   1     -34.174   6.107   5.240  1.00 20.00    -0.047 A 
ATOM      6  CG1 VAL A   1     -34.906   6.070   6.533  1.00 20.00     0.046 C 
ATOM      7  CG2 VAL A   1     -34.150   4.905   4.351  1.00 20.00     0.090 A 
ENDROOT
BRANCH   4   8
ATOM      8  C   VAL A   1     -33.255   8.417   5.206  1.00 20.00     0.290 C 
ATOM      9  O   VAL A   1     -32.265   9.095   4.943  1.00 20.00    -0.300 OA
ENDBRANCH   4   8
TORSDOF 1
ENDMDL
MODEL 5
REMARK VINA RESULT:      -4.2      1.098      2.844
REMARK  1 active torsions:
REMARK  status: ('A' for Active; 'I' for Inactive)
REMARK    1  A    between atoms: CA_4  and  C_5 
ROOT
HETATM    1  C1  UNK A   1     -33.051   5.958   3.130  1.00 20.00     0.013 A 
HETATM    2  C2  UNK A   1     -32.967   4.967   2.018  1.00 20.00     0.066 C 
ATOM      3  N   VAL A   1     -33.768   5.768   4.197  1.00 20.00    -0.255 NA
ATOM      4  CA  VAL A   1     -33.567   6.897   4.944  1.00 20.00     0.096 A 
ATOM      5  CB  VAL A   1     -32.745   7.792   4.382  1.00 20.00    -0.047 A 
ATOM      6  CG1 VAL A   1     -32.276   9.119   4.856  1.00 20.00     0.046 C 
ATOM      7  CG2 VAL A   1     -32.288   7.256   3.062  1.00 20.00     0.090 A 
ENDROOT
BRANCH   4   8
ATOM      8  C   VAL A   1     -34.223   7.046   6.238  1.00 20.00     0.290 C 
ATOM      9  O   VAL A   1     -34.888   6.152   6.754  1.00 20.00    -0.300 OA
ENDBRANCH   4   8
TORSDOF 1
ENDMDL
MODEL 6
REMARK VINA RESULT:      -4.2      1.508      2.464
REMARK  1 active torsions:
REMARK  status: ('A' for Active; 'I' for Inactive)
REMARK    1  A    between atoms: CA_4  and  C_5 
ROOT
HETATM    1  C1  UNK A   1     -32.652   7.436   3.146  1.00 20.00     0.013 A 
HETATM    2  C2  UNK A   1     -31.909   7.980   1.971  1.00 20.00     0.066 C 
ATOM      3  N   VAL A   1     -33.200   6.258   3.154  1.00 20.00    -0.255 NA
ATOM      4  CA  VAL A   1     -33.766   6.158   4.396  1.00 20.00     0.096 A 
ATOM      5  CB  VAL A   1     -33.591   7.236   5.171  1.00 20.00    -0.047 A 
ATOM      6  CG1 VAL A   1     -34.037   7.524   6.558  1.00 20.00     0.046 C 
ATOM      7  CG2 VAL A   1     -32.802   8.250   4.406  1.00 20.00     0.090 A 
ENDROOT
BRANCH   4   8
ATOM      8  C   VAL A   1     -34.485   4.949   4.780  1.00 20.00     0.290 C 
ATOM      9  O   VAL A   1     -34.087   3.821   4.499  1.00 20.00    -0.300 OA
ENDBRANCH   4   8
TORSDOF 1
ENDMDL
MODEL 7
REMARK VINA RESULT:      -4.1      2.003      3.195
REMARK  1 active torsions:
REMARK  status: ('A' for Active; 'I' for Inactive)
REMARK    1  A    between atoms: CA_4  and  C_5 
ROOT
HETATM    1  C1  UNK A   1     -34.318   5.952   5.556  1.00 20.00     0.013 A 
HETATM    2  C2  UNK A   1     -35.088   5.663   6.802  1.00 20.00     0.066 C 
ATOM      3  N   VAL A   1     -33.713   7.082   5.343  1.00 20.00    -0.255 NA
ATOM      4  CA  VAL A   1     -33.144   6.931   4.108  1.00 20.00     0.096 A 
ATOM      5  CB  VAL A   1     -33.370   5.742   3.536  1.00 20.00    -0.047 A 
ATOM      6  CG1 VAL A   1     -32.937   5.190   2.227  1.00 20.00     0.046 C 
ATOM      7  CG2 VAL A   1     -34.208   4.920   4.463  1.00 20.00     0.090 A 
ENDROOT
BRANCH   4   8
ATOM      8  C   VAL A   1     -32.365   8.017   3.523  1.00 20.00     0.290 C 
ATOM      9  O   VAL A   1     -32.278   9.128   4.039  1.00 20.00    -0.300 OA
ENDBRANCH   4   8
TORSDOF 1
ENDMDL
MODEL 8
REMARK VINA RESULT:      -3.9      1.974      3.364
REMARK  1 active torsions:
REMARK  status: ('A' for Active; 'I' for Inactive)
REMARK    1  A    between atoms: CA_4  and  C_5 
ROOT
HETATM    1  C1  UNK A   1     -34.309   6.171   5.747  1.00 20.00     0.013 A 
HETATM    2  C2  UNK A   1     -35.121   5.563   6.842  1.00 20.00     0.066 C 
ATOM      3  N   VAL A   1     -34.034   5.549   4.640  1.00 20.00    -0.255 NA
ATOM      4  CA  VAL A   1     -33.283   6.445   3.928  1.00 20.00     0.096 A 
ATOM      5  CB  VAL A   1     -33.078   7.613   4.551  1.00 20.00    -0.047 A 
ATOM      6  CG1 VAL A   1     -32.334   8.827   4.129  1.00 20.00     0.046 C 
ATOM      7  CG2 VAL A   1     -33.759   7.568   5.882  1.00 20.00     0.090 A 
ENDROOT
BRANCH   4   8
ATOM      8  C   VAL A   1     -32.782   6.094   2.604  1.00 20.00     0.290 C 
ATOM      9  O   VAL A   1     -32.769   4.941   2.182  1.00 20.00    -0.300 OA
ENDBRANCH   4   8
TORSDOF 1
ENDMDL
MODEL 9
REMARK VINA RESULT:      -3.6     12.976     13.149
REMARK  1 active torsions:
REMARK  status: ('A' for Active; 'I' for Inactive)
REMARK    1  A    between atoms: CA_4  and  C_5 
ROOT
HETATM    1  C1  UNK A   1     -30.706  18.911   1.683  1.00 20.00     0.013 A 
HETATM    2  C2  UNK A   1     -29.522  19.065   2.580  1.00 20.00     0.066 C 
ATOM      3  N   VAL A   1     -30.604  18.696   0.406  1.00 20.00    -0.255 NA
ATOM      4  CA  VAL A   1     -31.900  18.621  -0.027  1.00 20.00     0.096 A 
ATOM      5  CB  VAL A   1     -32.815  18.782   0.937  1.00 20.00    -0.047 A 
ATOM      6  CG1 VAL A   1     -34.300  18.771   0.886  1.00 20.00     0.046 C 
ATOM      7  CG2 VAL A   1     -32.105  19.002   2.235  1.00 20.00     0.090 A 
ENDROOT
BRANCH   4   8
ATOM      8  C   VAL A   1     -32.190  18.382  -1.436  1.00 20.00     0.290 C 
ATOM      9  O   VAL A   1     -32.110  19.260  -2.291  1.00 20.00    -0.300 OA
ENDBRANCH   4   8
TORSDOF 1
ENDMDL
