MODEL 1
REMARK VINA RESULT:      -3.6      0.000      0.000
REMARK  1 active torsions:
REMARK  status: ('A' for Active; 'I' for Inactive)
REMARK    1  A    between atoms: C4_4  and  C10_10 
ROOT
HETATM    1  C1  UNL     1     -32.475   7.005   3.234  1.00 20.00     0.016 C 
HETATM    2  C2  UNL     1     -33.393   7.920   4.036  1.00 20.00     0.017 C 
HETATM    3  C3  UNL     1     -33.464   5.928   2.789  1.00 20.00     0.122 C 
HETATM    4  C4  UNL     1     -34.302   6.913   4.748  1.00 20.00     0.129 C 
HETATM    5  C5  UNL     1     -31.765   7.689   2.076  1.00 20.00     0.013 C 
HETATM    6  C6  UNL     1     -32.668   8.913   4.932  1.00 20.00     0.013 C 
HETATM    7  C7  UNL     1     -32.817   4.588   2.491  1.00 20.00     0.040 C 
HETATM    8  O11 UNL     1     -34.399   5.772   3.872  1.00 20.00    -0.380 OA
ENDROOT
BRANCH   4   9
HETATM    9  C10 UNL     1     -33.811   6.410   6.100  1.00 20.00     0.007 C 
HETATM   10  C8  UNL     1     -34.320   7.308   7.227  1.00 20.00     0.012 C 
HETATM   11  C9  UNL     1     -34.251   4.964   6.331  1.00 20.00     0.012 C 
ENDBRANCH   4   9
TORSDOF 1
ENDMDL
MODEL 2
REMARK VINA RESULT:      -3.6     12.582     14.261
REMARK  1 active torsions:
REMARK  status: ('A' for Active; 'I' for Inactive)
REMARK    1  A    between atoms: C4_4  and  C10_10 
ROOT
HETATM    1  C1  UNL     1     -34.419  17.762  -6.587  1.00 20.00     0.016 C 
HETATM    2  C2  UNL     1     -34.501  18.380  -5.197  1.00 20.00     0.017 C 
HETATM    3  C3  UNL     1     -35.489  16.677  -6.481  1.00 20.00     0.122 C 
HETATM    4  C4  UNL     1     -34.721  17.148  -4.313  1.00 20.00     0.129 C 
HETATM    5  C5  UNL     1     -34.662  18.742  -7.725  1.00 20.00     0.013 C 
HETATM    6  C6  UNL     1     -33.319  19.263  -4.827  1.00 20.00     0.013 C 
HETATM    7  C7  UNL     1     -35.278  15.512  -7.432  1.00 20.00     0.040 C 
HETATM    8  O11 UNL     1     -35.439  16.196  -5.126  1.00 20.00    -0.380 OA
ENDROOT
BRANCH   4   9
HETATM    9  C10 UNL     1     -33.461  16.457  -3.806  1.00 20.00     0.007 C 
HETATM   10  C8  UNL     1     -33.312  16.647  -2.297  1.00 20.00     0.012 C 
HETATM   11  C9  UNL     1     -33.482  14.969  -4.157  1.00 20.00     0.012 C 
ENDBRANCH   4   9
TORSDOF 1
ENDMDL
MODEL 3
REMARK VINA RESULT:      -3.5     12.100     13.848
REMARK  1 active torsions:
REMARK  status: ('A' for Active; 'I' for Inactive)
REMARK    1  A    between atoms: C4_4  and  C10_10 
ROOT
HETATM    1  C1  UNL     1     -35.419  16.080  -5.309  1.00 20.00     0.016 C 
HETATM    2  C2  UNL     1     -33.992  15.933  -4.793  1.00 20.00     0.017 C 
HETATM    3  C3  UNL     1     -35.405  17.534  -5.776  1.00 20.00     0.122 C 
HETATM    4  C4  UNL     1     -33.753  17.291  -4.126  1.00 20.00     0.129 C 
HETATM    5  C5  UNL     1     -35.794  15.095  -6.405  1.00 20.00     0.013 C 
HETATM    6  C6  UNL     1     -33.760  14.710  -3.919  1.00 20.00     0.013 C 
HETATM    7  C7  UNL     1     -36.775  18.187  -5.792  1.00 20.00     0.040 C 
HETATM    8  O11 UNL     1     -34.554  18.242  -4.857  1.00 20.00    -0.380 OA
ENDROOT
BRANCH   4   9
HETATM    9  C10 UNL     1     -34.150  17.393  -2.658  1.00 20.00     0.007 C 
HETATM   10  C8  UNL     1     -32.912  17.489  -1.769  1.00 20.00     0.012 C 
HETATM   11  C9  UNL     1     -35.067  18.594  -2.429  1.00 20.00     0.012 C 
ENDBRANCH   4   9
TORSDOF 1
ENDMDL
MODEL 4
REMARK VINA RESULT:      -3.4     12.276     14.082
REMARK  1 active torsions:
REMARK  status: ('A' for Active; 'I' for Inactive)
REMARK    1  A    between atoms: C4_4  and  C10_10 
ROOT
HETATM    1  C1  UNL     1     -36.587  17.063  -4.939  1.00 20.00     0.016 C 
HETATM    2  C2  UNL     1     -35.568  16.262  -5.741  1.00 20.00     0.017 C 
HETATM    3  C3  UNL     1     -35.804  18.351  -4.689  1.00 20.00     0.122 C 
HETATM    4  C4  UNL     1     -34.255  16.622  -5.037  1.00 20.00     0.129 C 
HETATM    5  C5  UNL     1     -37.910  17.288  -5.654  1.00 20.00     0.013 C 
HETATM    6  C6  UNL     1     -35.879  14.778  -5.854  1.00 20.00     0.013 C 
HETATM    7  C7  UNL     1     -36.256  19.114  -3.457  1.00 20.00     0.040 C 
HETATM    8  O11 UNL     1     -34.430  17.960  -4.525  1.00 20.00    -0.380 OA
ENDROOT
BRANCH   4   9
HETATM    9  C10 UNL     1     -33.861  15.732  -3.865  1.00 20.00     0.007 C 
HETATM   10  C8  UNL     1     -32.745  14.770  -4.269  1.00 20.00     0.012 C 
HETATM   11  C9  UNL     1     -33.429  16.578  -2.666  1.00 20.00     0.012 C 
ENDBRANCH   4   9
TORSDOF 1
ENDMDL
MODEL 5
REMARK VINA RESULT:      -3.4     12.173     13.629
REMARK  1 active torsions:
REMARK  status: ('A' for Active; 'I' for Inactive)
REMARK    1  A    between atoms: C4_4  and  C10_10 
ROOT
HETATM    1  C1  UNL     1     -34.062  15.586  -4.339  1.00 20.00     0.016 C 
HETATM    2  C2  UNL     1     -33.591  16.876  -3.677  1.00 20.00     0.017 C 
HETATM    3  C3  UNL     1     -34.464  16.104  -5.719  1.00 20.00     0.122 C 
HETATM    4  C4  UNL     1     -34.605  17.894  -4.207  1.00 20.00     0.129 C 
HETATM    5  C5  UNL     1     -33.012  14.487  -4.387  1.00 20.00     0.013 C 
HETATM    6  C6  UNL     1     -33.455  16.796  -2.164  1.00 20.00     0.013 C 
HETATM    7  C7  UNL     1     -35.502  15.245  -6.418  1.00 20.00     0.040 C 
HETATM    8  O11 UNL     1     -35.002  17.422  -5.511  1.00 20.00    -0.380 OA
ENDROOT
BRANCH   4   9
HETATM    9  C10 UNL     1     -35.873  18.068  -3.379  1.00 20.00     0.007 C 
HETATM   10  C8  UNL     1     -35.737  19.255  -2.428  1.00 20.00     0.012 C 
HETATM   11  C9  UNL     1     -37.091  18.246  -4.286  1.00 20.00     0.012 C 
ENDBRANCH   4   9
TORSDOF 1
ENDMDL
MODEL 6
REMARK VINA RESULT:      -3.4     12.237     14.339
REMARK  1 active torsions:
REMARK  status: ('A' for Active; 'I' for Inactive)
REMARK    1  A    between atoms: C4_4  and  C10_10 
ROOT
HETATM    1  C1  UNL     1     -33.774  16.850  -3.643  1.00 20.00     0.016 C 
HETATM    2  C2  UNL     1     -34.338  15.594  -4.298  1.00 20.00     0.017 C 
HETATM    3  C3  UNL     1     -34.972  17.791  -3.755  1.00 20.00     0.122 C 
HETATM    4  C4  UNL     1     -35.162  16.179  -5.450  1.00 20.00     0.129 C 
HETATM    5  C5  UNL     1     -33.294  16.649  -2.214  1.00 20.00     0.013 C 
HETATM    6  C6  UNL     1     -33.291  14.560  -4.685  1.00 20.00     0.013 C 
HETATM    7  C7  UNL     1     -34.599  19.263  -3.752  1.00 20.00     0.040 C 
HETATM    8  O11 UNL     1     -35.620  17.470  -4.999  1.00 20.00    -0.380 OA
ENDROOT
BRANCH   4   9
HETATM    9  C10 UNL     1     -34.418  16.391  -6.763  1.00 20.00     0.007 C 
HETATM   10  C8  UNL     1     -35.005  15.511  -7.865  1.00 20.00     0.012 C 
HETATM   11  C9  UNL     1     -34.460  17.863  -7.175  1.00 20.00     0.012 C 
ENDBRANCH   4   9
TORSDOF 1
ENDMDL
MODEL 7
REMARK VINA RESULT:      -3.3     12.407     14.195
REMARK  1 active torsions:
REMARK  status: ('A' for Active; 'I' for Inactive)
REMARK    1  A    between atoms: C4_4  and  C10_10 
ROOT
HETATM    1  C1  UNL     1     -34.149  16.834  -3.484  1.00 20.00     0.016 C 
HETATM    2  C2  UNL     1     -34.168  18.079  -4.363  1.00 20.00     0.017 C 
HETATM    3  C3  UNL     1     -33.710  15.777  -4.496  1.00 20.00     0.122 C 
HETATM    4  C4  UNL     1     -34.729  17.530  -5.679  1.00 20.00     0.129 C 
HETATM    5  C5  UNL     1     -33.229  16.934  -2.277  1.00 20.00     0.013 C 
HETATM    6  C6  UNL     1     -34.912  19.263  -3.765  1.00 20.00     0.013 C 
HETATM    7  C7  UNL     1     -34.146  14.368  -4.140  1.00 20.00     0.040 C 
HETATM    8  O11 UNL     1     -34.304  16.153  -5.751  1.00 20.00    -0.380 OA
ENDROOT
BRANCH   4   9
HETATM    9  C10 UNL     1     -36.246  17.548  -5.818  1.00 20.00     0.007 C 
HETATM   10  C8  UNL     1     -36.677  18.533  -6.904  1.00 20.00     0.012 C 
HETATM   11  C9  UNL     1     -36.777  16.148  -6.126  1.00 20.00     0.012 C 
ENDBRANCH   4   9
TORSDOF 1
ENDMDL
MODEL 8
REMARK VINA RESULT:      -3.3     10.579     11.790
REMARK  1 active torsions:
REMARK  status: ('A' for Active; 'I' for Inactive)
REMARK    1  A    between atoms: C4_4  and  C10_10 
ROOT
HETATM    1  C1  UNL     1     -41.787  14.284   5.738  1.00 20.00     0.016 C 
HETATM    2  C2  UNL     1     -42.940  14.660   6.660  1.00 20.00     0.017 C 
HETATM    3  C3  UNL     1     -41.425  12.903   6.283  1.00 20.00     0.122 C 
HETATM    4  C4  UNL     1     -42.461  14.112   8.008  1.00 20.00     0.129 C 
HETATM    5  C5  UNL     1     -42.145  14.275   4.259  1.00 20.00     0.013 C 
HETATM    6  C6  UNL     1     -43.313  16.135   6.636  1.00 20.00     0.013 C 
HETATM    7  C7  UNL     1     -39.988  12.495   6.013  1.00 20.00     0.040 C 
HETATM    8  O11 UNL     1     -41.640  12.965   7.704  1.00 20.00    -0.380 OA
ENDROOT
BRANCH   4   9
HETATM    9  C10 UNL     1     -41.624  15.061   8.856  1.00 20.00     0.007 C 
HETATM   10  C8  UNL     1     -42.366  15.438  10.137  1.00 20.00     0.012 C 
HETATM   11  C9  UNL     1     -40.268  14.436   9.188  1.00 20.00     0.012 C 
ENDBRANCH   4   9
TORSDOF 1
ENDMDL
MODEL 9
REMARK VINA RESULT:      -3.2     10.816     12.408
REMARK  1 active torsions:
REMARK  status: ('A' for Active; 'I' for Inactive)
REMARK    1  A    between atoms: C4_4  and  C10_10 
ROOT
HETATM    1  C1  UNL     1     -41.397  15.770   9.376  1.00 20.00     0.016 C 
HETATM    2  C2  UNL     1     -40.623  15.903   8.069  1.00 20.00     0.017 C 
HETATM    3  C3  UNL     1     -40.828  14.457   9.912  1.00 20.00     0.122 C 
HETATM    4  C4  UNL     1     -40.577  14.452   7.578  1.00 20.00     0.129 C 
HETATM    5  C5  UNL     1     -41.220  16.940  10.330  1.00 20.00     0.013 C 
HETATM    6  C6  UNL     1     -41.199  16.919   7.095  1.00 20.00     0.013 C 
HETATM    7  C7  UNL     1     -41.760  13.727  10.862  1.00 20.00     0.040 C 
HETATM    8  O11 UNL     1     -40.581  13.628   8.762  1.00 20.00    -0.380 OA
ENDROOT
BRANCH   4   9
HETATM    9  C10 UNL     1     -41.745  14.005   6.707  1.00 20.00     0.007 C 
HETATM   10  C8  UNL     1     -41.266  13.658   5.298  1.00 20.00     0.012 C 
HETATM   11  C9  UNL     1     -42.462  12.810   7.337  1.00 20.00     0.012 C 
ENDBRANCH   4   9
TORSDOF 1
ENDMDL
