MODEL 1
REMARK VINA RESULT:      -6.2      0.000      0.000
REMARK  2 active torsions:
REMARK  status: ('A' for Active; 'I' for Inactive)
REMARK    1  A    between atoms: C1_1  and  C3_3 
REMARK    2  A    between atoms: C3_3  and  C4_4 
ROOT
HETATM    1  C3  UNL     1     -34.335   5.867   4.824  1.00 20.00     0.319 C 
HETATM    2  F7  UNL     1     -34.027   4.566   4.531  1.00 20.00    -0.209 F 
HETATM    3 CL12 UNL     1     -35.981   6.159   4.175  1.00 20.00    -0.067 Cl
ENDROOT
BRANCH   1   4
HETATM    4  C1  UNL     1     -33.347   6.801   4.165  1.00 20.00     0.143 C 
HETATM    5  C2  UNL     1     -32.687   6.531   3.029  1.00 20.00     0.289 C 
HETATM    6  F5  UNL     1     -31.820   7.424   2.509  1.00 20.00    -0.171 F 
HETATM    7  F6  UNL     1     -32.879   5.358   2.386  1.00 20.00    -0.171 F 
HETATM    8 CL11 UNL     1     -33.056   8.328   4.949  1.00 20.00    -0.078 Cl
ENDBRANCH   1   4
BRANCH   1   9
HETATM    9  C4  UNL     1     -34.353   5.961   6.343  1.00 20.00     0.443 C 
HETATM   10  F8  UNL     1     -35.235   5.079   6.867  1.00 20.00    -0.166 F 
HETATM   11  F9  UNL     1     -34.698   7.187   6.786  1.00 20.00    -0.166 F 
HETATM   12  F10 UNL     1     -33.139   5.663   6.858  1.00 20.00    -0.166 F 
ENDBRANCH   1   9
TORSDOF 2
ENDMDL
MODEL 2
REMARK VINA RESULT:      -6.0      1.418      2.019
REMARK  2 active torsions:
REMARK  status: ('A' for Active; 'I' for Inactive)
REMARK    1  A    between atoms: C1_1  and  C3_3 
REMARK    2  A    between atoms: C3_3  and  C4_4 
ROOT
HETATM    1  C3  UNL     1     -34.226   5.956   4.761  1.00 20.00     0.319 C 
HETATM    2  F7  UNL     1     -33.920   4.696   4.321  1.00 20.00    -0.209 F 
HETATM    3 CL12 UNL     1     -35.934   6.252   4.305  1.00 20.00    -0.067 Cl
ENDROOT
BRANCH   1   4
HETATM    4  C1  UNL     1     -33.329   6.975   4.097  1.00 20.00     0.143 C 
HETATM    5  C2  UNL     1     -33.247   8.264   4.457  1.00 20.00     0.289 C 
HETATM    6  F5  UNL     1     -32.417   9.107   3.807  1.00 20.00    -0.171 F 
HETATM    7  F6  UNL     1     -33.994   8.742   5.476  1.00 20.00    -0.171 F 
HETATM    8 CL11 UNL     1     -32.343   6.418   2.775  1.00 20.00    -0.078 Cl
ENDBRANCH   1   4
BRANCH   1   9
HETATM    9  C4  UNL     1     -34.094   5.913   6.277  1.00 20.00     0.443 C 
HETATM   10  F8  UNL     1     -35.158   6.504   6.867  1.00 20.00    -0.166 F 
HETATM   11  F9  UNL     1     -32.986   6.541   6.722  1.00 20.00    -0.166 F 
HETATM   12  F10 UNL     1     -34.050   4.636   6.721  1.00 20.00    -0.166 F 
ENDBRANCH   1   9
TORSDOF 2
ENDMDL
MODEL 3
REMARK VINA RESULT:      -5.9      1.285      2.472
REMARK  2 active torsions:
REMARK  status: ('A' for Active; 'I' for Inactive)
REMARK    1  A    between atoms: C1_1  and  C3_3 
REMARK    2  A    between atoms: C3_3  and  C4_4 
ROOT
HETATM    1  C3  UNL     1     -33.826   6.960   4.820  1.00 20.00     0.319 C 
HETATM    2  F7  UNL     1     -34.885   7.667   4.317  1.00 20.00    -0.209 F 
HETATM    3 CL12 UNL     1     -32.426   8.081   4.830  1.00 20.00    -0.067 Cl
ENDROOT
BRANCH   1   4
HETATM    4  C1  UNL     1     -33.527   5.767   3.941  1.00 20.00     0.143 C 
HETATM    5  C2  UNL     1     -32.852   5.825   2.784  1.00 20.00     0.289 C 
HETATM    6  F5  UNL     1     -32.630   4.708   2.061  1.00 20.00    -0.171 F 
HETATM    7  F6  UNL     1     -32.383   7.005   2.321  1.00 20.00    -0.171 F 
HETATM    8 CL11 UNL     1     -34.109   4.219   4.485  1.00 20.00    -0.078 Cl
ENDBRANCH   1   4
BRANCH   1   9
HETATM    9  C4  UNL     1     -34.208   6.594   6.247  1.00 20.00     0.443 C 
HETATM   10  F8  UNL     1     -33.206   5.915   6.852  1.00 20.00    -0.166 F 
HETATM   11  F9  UNL     1     -35.312   5.822   6.310  1.00 20.00    -0.166 F 
HETATM   12  F10 UNL     1     -34.439   7.704   6.984  1.00 20.00    -0.166 F 
ENDBRANCH   1   9
TORSDOF 2
ENDMDL
MODEL 4
REMARK VINA RESULT:      -5.8      1.418      2.083
REMARK  2 active torsions:
REMARK  status: ('A' for Active; 'I' for Inactive)
REMARK    1  A    between atoms: C1_1  and  C3_3 
REMARK    2  A    between atoms: C3_3  and  C4_4 
ROOT
HETATM    1  C3  UNL     1     -34.349   6.858   4.912  1.00 20.00     0.319 C 
HETATM    2  F7  UNL     1     -35.626   6.585   4.501  1.00 20.00    -0.209 F 
HETATM    3 CL12 UNL     1     -34.216   8.644   5.005  1.00 20.00    -0.067 Cl
ENDROOT
BRANCH   1   4
HETATM    4  C1  UNL     1     -33.352   6.317   3.913  1.00 20.00     0.143 C 
HETATM    5  C2  UNL     1     -33.330   5.051   3.470  1.00 20.00     0.289 C 
HETATM    6  F5  UNL     1     -32.402   4.652   2.576  1.00 20.00    -0.171 F 
HETATM    7  F6  UNL     1     -34.239   4.154   3.911  1.00 20.00    -0.171 F 
HETATM    8 CL11 UNL     1     -32.154   7.427   3.310  1.00 20.00    -0.078 Cl
ENDBRANCH   1   4
BRANCH   1   9
HETATM    9  C4  UNL     1     -34.219   6.255   6.302  1.00 20.00     0.443 C 
HETATM   10  F8  UNL     1     -34.636   7.131   7.245  1.00 20.00    -0.166 F 
HETATM   11  F9  UNL     1     -32.950   5.912   6.605  1.00 20.00    -0.166 F 
HETATM   12  F10 UNL     1     -34.985   5.147   6.421  1.00 20.00    -0.166 F 
ENDBRANCH   1   9
TORSDOF 2
ENDMDL
MODEL 5
REMARK VINA RESULT:      -5.8      1.712      2.706
REMARK  2 active torsions:
REMARK  status: ('A' for Active; 'I' for Inactive)
REMARK    1  A    between atoms: C1_1  and  C3_3 
REMARK    2  A    between atoms: C3_3  and  C4_4 
ROOT
HETATM    1  C3  UNL     1     -34.038   6.761   4.893  1.00 20.00     0.319 C 
HETATM    2  F7  UNL     1     -34.939   7.786   4.787  1.00 20.00    -0.209 F 
HETATM    3 CL12 UNL     1     -33.093   7.067   6.386  1.00 20.00    -0.067 Cl
ENDROOT
BRANCH   1   4
HETATM    4  C1  UNL     1     -33.119   6.745   3.693  1.00 20.00     0.143 C 
HETATM    5  C2  UNL     1     -32.356   7.778   3.306  1.00 20.00     0.289 C 
HETATM    6  F5  UNL     1     -31.562   7.677   2.220  1.00 20.00    -0.171 F 
HETATM    7  F6  UNL     1     -32.369   8.939   3.998  1.00 20.00    -0.171 F 
HETATM    8 CL11 UNL     1     -33.061   5.276   2.761  1.00 20.00    -0.078 Cl
ENDBRANCH   1   4
BRANCH   1   9
HETATM    9  C4  UNL     1     -34.864   5.493   5.053  1.00 20.00     0.443 C 
HETATM   10  F8  UNL     1     -35.273   5.347   6.334  1.00 20.00    -0.166 F 
HETATM   11  F9  UNL     1     -34.181   4.379   4.719  1.00 20.00    -0.166 F 
HETATM   12  F10 UNL     1     -35.975   5.542   4.283  1.00 20.00    -0.166 F 
ENDBRANCH   1   9
TORSDOF 2
ENDMDL
MODEL 6
REMARK VINA RESULT:      -5.3      2.101      3.528
REMARK  2 active torsions:
REMARK  status: ('A' for Active; 'I' for Inactive)
REMARK    1  A    between atoms: C1_1  and  C3_3 
REMARK    2  A    between atoms: C3_3  and  C4_4 
ROOT
HETATM    1  C3  UNL     1     -33.591   7.722   4.090  1.00 20.00     0.319 C 
HETATM    2  F7  UNL     1     -34.813   8.303   3.884  1.00 20.00    -0.209 F 
HETATM    3 CL12 UNL     1     -32.499   8.374   2.827  1.00 20.00    -0.067 Cl
ENDROOT
BRANCH   1   4
HETATM    4  C1  UNL     1     -33.697   6.220   3.957  1.00 20.00     0.143 C 
HETATM    5  C2  UNL     1     -34.516   5.448   4.687  1.00 20.00     0.289 C 
HETATM    6  F5  UNL     1     -34.546   4.112   4.502  1.00 20.00    -0.171 F 
HETATM    7  F6  UNL     1     -35.325   5.996   5.620  1.00 20.00    -0.171 F 
HETATM    8 CL11 UNL     1     -32.676   5.457   2.771  1.00 20.00    -0.078 Cl
ENDBRANCH   1   4
BRANCH   1   9
HETATM    9  C4  UNL     1     -33.132   8.189   5.464  1.00 20.00     0.443 C 
HETATM   10  F8  UNL     1     -32.038   8.978   5.361  1.00 20.00    -0.166 F 
HETATM   11  F9  UNL     1     -32.814   7.165   6.283  1.00 20.00    -0.166 F 
HETATM   12  F10 UNL     1     -34.095   8.919   6.071  1.00 20.00    -0.166 F 
ENDBRANCH   1   9
TORSDOF 2
ENDMDL
MODEL 7
REMARK VINA RESULT:      -5.2      1.935      3.213
REMARK  2 active torsions:
REMARK  status: ('A' for Active; 'I' for Inactive)
REMARK    1  A    between atoms: C1_1  and  C3_3 
REMARK    2  A    between atoms: C3_3  and  C4_4 
ROOT
HETATM    1  C3  UNL     1     -33.529   7.475   4.279  1.00 20.00     0.319 C 
HETATM    2  F7  UNL     1     -34.552   8.195   3.724  1.00 20.00    -0.209 F 
HETATM    3 CL12 UNL     1     -32.181   7.512   3.099  1.00 20.00    -0.067 Cl
ENDROOT
BRANCH   1   4
HETATM    4  C1  UNL     1     -33.965   6.048   4.521  1.00 20.00     0.143 C 
HETATM    5  C2  UNL     1     -33.685   5.019   3.708  1.00 20.00     0.289 C 
HETATM    6  F5  UNL     1     -34.115   3.774   4.002  1.00 20.00    -0.171 F 
HETATM    7  F6  UNL     1     -32.967   5.212   2.579  1.00 20.00    -0.171 F 
HETATM    8 CL11 UNL     1     -34.896   5.738   5.960  1.00 20.00    -0.078 Cl
ENDBRANCH   1   4
BRANCH   1   9
HETATM    9  C4  UNL     1     -33.132   8.221   5.545  1.00 20.00     0.443 C 
HETATM   10  F8  UNL     1     -32.099   9.060   5.302  1.00 20.00    -0.166 F 
HETATM   11  F9  UNL     1     -32.753   7.394   6.541  1.00 20.00    -0.166 F 
HETATM   12  F10 UNL     1     -34.158   8.974   6.002  1.00 20.00    -0.166 F 
ENDBRANCH   1   9
TORSDOF 2
ENDMDL
MODEL 8
REMARK VINA RESULT:      -5.2      1.410      1.823
REMARK  2 active torsions:
REMARK  status: ('A' for Active; 'I' for Inactive)
REMARK    1  A    between atoms: C1_1  and  C3_3 
REMARK    2  A    between atoms: C3_3  and  C4_4 
ROOT
HETATM    1  C3  UNL     1     -34.275   6.126   5.002  1.00 20.00     0.319 C 
HETATM    2  F7  UNL     1     -34.190   5.055   5.851  1.00 20.00    -0.209 F 
HETATM    3 CL12 UNL     1     -35.981   6.208   4.456  1.00 20.00    -0.067 Cl
ENDROOT
BRANCH   1   4
HETATM    4  C1  UNL     1     -33.361   5.927   3.815  1.00 20.00     0.143 C 
HETATM    5  C2  UNL     1     -33.201   4.765   3.165  1.00 20.00     0.289 C 
HETATM    6  F5  UNL     1     -32.362   4.677   2.112  1.00 20.00    -0.171 F 
HETATM    7  F6  UNL     1     -33.878   3.662   3.553  1.00 20.00    -0.171 F 
HETATM    8 CL11 UNL     1     -32.460   7.314   3.270  1.00 20.00    -0.078 Cl
ENDBRANCH   1   4
BRANCH   1   9
HETATM    9  C4  UNL     1     -33.939   7.351   5.840  1.00 20.00     0.443 C 
HETATM   10  F8  UNL     1     -34.612   7.327   7.014  1.00 20.00    -0.166 F 
HETATM   11  F9  UNL     1     -34.252   8.508   5.222  1.00 20.00    -0.166 F 
HETATM   12  F10 UNL     1     -32.620   7.385   6.137  1.00 20.00    -0.166 F 
ENDBRANCH   1   9
TORSDOF 2
ENDMDL
MODEL 9
REMARK VINA RESULT:      -5.1      1.851      3.731
REMARK  2 active torsions:
REMARK  status: ('A' for Active; 'I' for Inactive)
REMARK    1  A    between atoms: C1_1  and  C3_3 
REMARK    2  A    between atoms: C3_3  and  C4_4 
ROOT
HETATM    1  C3  UNL     1     -33.357   7.453   4.832  1.00 20.00     0.319 C 
HETATM    2  F7  UNL     1     -32.961   7.327   6.137  1.00 20.00    -0.209 F 
HETATM    3 CL12 UNL     1     -34.943   8.287   4.859  1.00 20.00    -0.067 Cl
ENDROOT
BRANCH   1   4
HETATM    4  C1  UNL     1     -33.499   6.090   4.195  1.00 20.00     0.143 C 
HETATM    5  C2  UNL     1     -34.166   5.061   4.740  1.00 20.00     0.289 C 
HETATM    6  F5  UNL     1     -34.244   3.876   4.100  1.00 20.00    -0.171 F 
HETATM    7  F6  UNL     1     -34.772   5.195   5.941  1.00 20.00    -0.171 F 
HETATM    8 CL11 UNL     1     -32.738   5.857   2.647  1.00 20.00    -0.078 Cl
ENDBRANCH   1   4
BRANCH   1   9
HETATM    9  C4  UNL     1     -32.316   8.339   4.164  1.00 20.00     0.443 C 
HETATM   10  F8  UNL     1     -32.770   8.798   2.975  1.00 20.00    -0.166 F 
HETATM   11  F9  UNL     1     -31.155   7.695   3.929  1.00 20.00    -0.166 F 
HETATM   12  F10 UNL     1     -32.040   9.420   4.929  1.00 20.00    -0.166 F 
ENDBRANCH   1   9
TORSDOF 2
ENDMDL
