MODEL 1
REMARK VINA RESULT:      -4.6      0.000      0.000
REMARK  0 active torsions:
REMARK  status: ('A' for Active; 'I' for Inactive)
ROOT
HETATM    1  C1  UNL     1     -32.892   6.866   3.926  1.00 20.00     0.016 C 
HETATM    2  C2  UNL     1     -34.020   7.428   4.784  1.00 20.00     0.016 C 
HETATM    3  C3  UNL     1     -33.637   5.782   3.150  1.00 20.00     0.122 C 
HETATM    4  C4  UNL     1     -34.799   6.161   5.153  1.00 20.00     0.122 C 
HETATM    5  C5  UNL     1     -32.215   7.893   3.032  1.00 20.00     0.013 C 
HETATM    6  C6  UNL     1     -33.559   8.291   5.948  1.00 20.00     0.013 C 
HETATM    7  C7  UNL     1     -32.744   4.657   2.658  1.00 20.00     0.040 C 
HETATM    8  C8  UNL     1     -34.347   5.445   6.420  1.00 20.00     0.040 C 
HETATM    9  O9  UNL     1     -34.620   5.246   4.052  1.00 20.00    -0.381 OA
ENDROOT
TORSDOF 0
ENDMDL
MODEL 2
REMARK VINA RESULT:      -4.0      1.514      3.002
REMARK  0 active torsions:
REMARK  status: ('A' for Active; 'I' for Inactive)
ROOT
HETATM    1  C1  UNL     1     -33.788   7.459   5.094  1.00 20.00     0.016 C 
HETATM    2  C2  UNL     1     -32.380   7.891   4.700  1.00 20.00     0.016 C 
HETATM    3  C3  UNL     1     -33.842   6.065   4.473  1.00 20.00     0.122 C 
HETATM    4  C4  UNL     1     -32.259   7.322   3.282  1.00 20.00     0.122 C 
HETATM    5  C5  UNL     1     -34.048   7.465   6.592  1.00 20.00     0.013 C 
HETATM    6  C6  UNL     1     -32.113   9.381   4.845  1.00 20.00     0.013 C 
HETATM    7  C7  UNL     1     -35.249   5.589   4.157  1.00 20.00     0.040 C 
HETATM    8  C8  UNL     1     -32.730   8.232   2.155  1.00 20.00     0.040 C 
HETATM    9  O9  UNL     1     -33.082   6.138   3.254  1.00 20.00    -0.381 OA
ENDROOT
TORSDOF 0
ENDMDL
MODEL 3
REMARK VINA RESULT:      -3.9      1.528      2.755
REMARK  0 active torsions:
REMARK  status: ('A' for Active; 'I' for Inactive)
ROOT
HETATM    1  C1  UNL     1     -33.363   6.354   3.398  1.00 20.00     0.016 C 
HETATM    2  C2  UNL     1     -33.423   6.266   4.918  1.00 20.00     0.016 C 
HETATM    3  C3  UNL     1     -32.150   7.264   3.212  1.00 20.00     0.122 C 
HETATM    4  C4  UNL     1     -33.056   7.695   5.333  1.00 20.00     0.122 C 
HETATM    5  C5  UNL     1     -33.224   5.011   2.698  1.00 20.00     0.013 C 
HETATM    6  C6  UNL     1     -34.733   5.727   5.469  1.00 20.00     0.013 C 
HETATM    7  C7  UNL     1     -32.154   8.029   1.900  1.00 20.00     0.040 C 
HETATM    8  C8  UNL     1     -34.219   8.672   5.459  1.00 20.00     0.040 C 
HETATM    9  O9  UNL     1     -32.178   8.198   4.305  1.00 20.00    -0.381 OA
ENDROOT
TORSDOF 0
ENDMDL
MODEL 4
REMARK VINA RESULT:      -3.9      1.382      2.780
REMARK  0 active torsions:
REMARK  status: ('A' for Active; 'I' for Inactive)
ROOT
HETATM    1  C1  UNL     1     -33.989   6.386   4.384  1.00 20.00     0.016 C 
HETATM    2  C2  UNL     1     -33.201   7.485   5.087  1.00 20.00     0.016 C 
HETATM    3  C3  UNL     1     -32.893   5.753   3.528  1.00 20.00     0.122 C 
HETATM    4  C4  UNL     1     -32.270   7.971   3.971  1.00 20.00     0.122 C 
HETATM    5  C5  UNL     1     -34.666   5.401   5.324  1.00 20.00     0.013 C 
HETATM    6  C6  UNL     1     -34.059   8.550   5.752  1.00 20.00     0.013 C 
HETATM    7  C7  UNL     1     -33.415   5.043   2.291  1.00 20.00     0.040 C 
HETATM    8  C8  UNL     1     -32.815   9.086   3.086  1.00 20.00     0.040 C 
HETATM    9  O9  UNL     1     -32.027   6.829   3.126  1.00 20.00    -0.381 OA
ENDROOT
TORSDOF 0
ENDMDL
MODEL 5
REMARK VINA RESULT:      -3.9      1.102      2.170
REMARK  0 active torsions:
REMARK  status: ('A' for Active; 'I' for Inactive)
ROOT
HETATM    1  C1  UNL     1     -33.397   7.162   5.041  1.00 20.00     0.016 C 
HETATM    2  C2  UNL     1     -34.618   6.263   5.202  1.00 20.00     0.016 C 
HETATM    3  C3  UNL     1     -33.230   7.146   3.523  1.00 20.00     0.122 C 
HETATM    4  C4  UNL     1     -34.359   5.186   4.144  1.00 20.00     0.122 C 
HETATM    5  C5  UNL     1     -33.569   8.560   5.617  1.00 20.00     0.013 C 
HETATM    6  C6  UNL     1     -34.851   5.763   6.619  1.00 20.00     0.013 C 
HETATM    7  C7  UNL     1     -31.813   7.432   3.060  1.00 20.00     0.040 C 
HETATM    8  C8  UNL     1     -33.552   3.978   4.603  1.00 20.00     0.040 C 
HETATM    9  O9  UNL     1     -33.613   5.829   3.090  1.00 20.00    -0.381 OA
ENDROOT
TORSDOF 0
ENDMDL
MODEL 6
REMARK VINA RESULT:      -3.9     16.172     16.792
REMARK  0 active torsions:
REMARK  status: ('A' for Active; 'I' for Inactive)
ROOT
HETATM    1  C1  UNL     1     -24.014  18.956   9.439  1.00 20.00     0.016 C 
HETATM    2  C2  UNL     1     -24.612  18.222  10.634  1.00 20.00     0.016 C 
HETATM    3  C3  UNL     1     -22.920  17.975   9.021  1.00 20.00     0.122 C 
HETATM    4  C4  UNL     1     -23.365  17.628  11.298  1.00 20.00     0.122 C 
HETATM    5  C5  UNL     1     -25.008  19.263   8.330  1.00 20.00     0.013 C 
HETATM    6  C6  UNL     1     -25.498  19.080  11.523  1.00 20.00     0.013 C 
HETATM    7  C7  UNL     1     -21.771  18.623   8.269  1.00 20.00     0.040 C 
HETATM    8  C8  UNL     1     -22.676  18.510  12.332  1.00 20.00     0.040 C 
HETATM    9  O9  UNL     1     -22.420  17.389  10.235  1.00 20.00    -0.381 OA
ENDROOT
TORSDOF 0
ENDMDL
MODEL 7
REMARK VINA RESULT:      -3.8      1.508      3.307
REMARK  0 active torsions:
REMARK  status: ('A' for Active; 'I' for Inactive)
ROOT
HETATM    1  C1  UNL     1     -33.564   6.889   5.411  1.00 20.00     0.016 C 
HETATM    2  C2  UNL     1     -34.415   6.016   4.496  1.00 20.00     0.016 C 
HETATM    3  C3  UNL     1     -33.299   8.085   4.499  1.00 20.00     0.122 C 
HETATM    4  C4  UNL     1     -33.735   6.223   3.139  1.00 20.00     0.122 C 
HETATM    5  C5  UNL     1     -34.239   7.267   6.722  1.00 20.00     0.013 C 
HETATM    6  C6  UNL     1     -34.561   4.574   4.956  1.00 20.00     0.013 C 
HETATM    7  C7  UNL     1     -32.034   8.851   4.845  1.00 20.00     0.040 C 
HETATM    8  C8  UNL     1     -32.598   5.263   2.808  1.00 20.00     0.040 C 
HETATM    9  O9  UNL     1     -33.181   7.555   3.167  1.00 20.00    -0.381 OA
ENDROOT
TORSDOF 0
ENDMDL
MODEL 8
REMARK VINA RESULT:      -3.8      1.304      3.072
REMARK  0 active torsions:
REMARK  status: ('A' for Active; 'I' for Inactive)
ROOT
HETATM    1  C1  UNL     1     -33.393   5.985   4.146  1.00 20.00     0.016 C 
HETATM    2  C2  UNL     1     -33.313   7.306   3.389  1.00 20.00     0.016 C 
HETATM    3  C3  UNL     1     -34.485   6.305   5.164  1.00 20.00     0.122 C 
HETATM    4  C4  UNL     1     -33.489   8.328   4.518  1.00 20.00     0.122 C 
HETATM    5  C5  UNL     1     -33.714   4.782   3.272  1.00 20.00     0.013 C 
HETATM    6  C6  UNL     1     -32.070   7.468   2.530  1.00 20.00     0.013 C 
HETATM    7  C7  UNL     1     -34.414   5.462   6.425  1.00 20.00     0.040 C 
HETATM    8  C8  UNL     1     -32.210   8.782   5.212  1.00 20.00     0.040 C 
HETATM    9  O9  UNL     1     -34.318   7.691   5.511  1.00 20.00    -0.381 OA
ENDROOT
TORSDOF 0
ENDMDL
MODEL 9
REMARK VINA RESULT:      -3.4      1.171      2.919
REMARK  0 active torsions:
REMARK  status: ('A' for Active; 'I' for Inactive)
ROOT
HETATM    1  C1  UNL     1     -33.053   7.360   4.058  1.00 20.00     0.016 C 
HETATM    2  C2  UNL     1     -33.165   5.841   4.009  1.00 20.00     0.016 C 
HETATM    3  C3  UNL     1     -33.278   7.615   5.547  1.00 20.00     0.122 C 
HETATM    4  C4  UNL     1     -34.300   5.574   5.003  1.00 20.00     0.122 C 
HETATM    5  C5  UNL     1     -31.731   7.909   3.544  1.00 20.00     0.013 C 
HETATM    6  C6  UNL     1     -33.350   5.266   2.614  1.00 20.00     0.013 C 
HETATM    7  C7  UNL     1     -33.815   9.001   5.858  1.00 20.00     0.040 C 
HETATM    8  C8  UNL     1     -35.709   5.581   4.424  1.00 20.00     0.040 C 
HETATM    9  O9  UNL     1     -34.231   6.630   5.984  1.00 20.00    -0.381 OA
ENDROOT
TORSDOF 0
ENDMDL
