MODEL 1
REMARK VINA RESULT:      -3.4      0.000      0.000
REMARK  1 active torsions:
REMARK  status: ('A' for Active; 'I' for Inactive)
REMARK    1  A    between atoms: C7_7  and  N8_8 
ROOT
HETATM    1  C1  UNL     1     -32.334   8.715   4.618  1.00 20.00     0.065 C 
HETATM    2  C2  UNL     1     -33.850   8.556   4.793  1.00 20.00     0.275 C 
HETATM    3  C3  UNL     1     -33.974   6.341   3.810  1.00 20.00     0.306 C 
HETATM    4  C4  UNL     1     -31.748   7.694   3.699  1.00 20.00     0.154 A 
HETATM    5  C5  UNL     1     -32.561   6.482   3.337  1.00 20.00     0.179 A 
HETATM    6  N8  UNL     1     -34.293   7.167   4.984  1.00 20.00     0.090 N 
HETATM    7  O9  UNL     1     -32.370   7.578   2.419  1.00 20.00    -0.374 OA
ENDROOT
BRANCH   6   8
HETATM    8  C7  UNL     1     -33.789   6.579   6.223  1.00 20.00     0.268 C 
HETATM    9  C6  UNL     1     -34.400   5.243   6.473  1.00 20.00     0.037 C 
ENDBRANCH   6   8
TORSDOF 1
ENDMDL
MODEL 2
REMARK VINA RESULT:      -3.4     12.131     13.034
REMARK  1 active torsions:
REMARK  status: ('A' for Active; 'I' for Inactive)
REMARK    1  A    between atoms: C7_7  and  N8_8 
ROOT
HETATM    1  C1  UNL     1     -35.096  13.995  -4.449  1.00 20.00     0.065 C 
HETATM    2  C2  UNL     1     -33.742  14.647  -4.759  1.00 20.00     0.275 C 
HETATM    3  C3  UNL     1     -34.635  16.362  -6.226  1.00 20.00     0.306 C 
HETATM    4  C4  UNL     1     -36.180  14.444  -5.372  1.00 20.00     0.154 A 
HETATM    5  C5  UNL     1     -35.957  15.661  -6.226  1.00 20.00     0.179 A 
HETATM    6  N8  UNL     1     -33.818  16.090  -5.035  1.00 20.00     0.090 N 
HETATM    7  O9  UNL     1     -35.899  14.326  -6.767  1.00 20.00    -0.374 OA
ENDROOT
BRANCH   6   8
HETATM    8  C7  UNL     1     -34.260  16.863  -3.876  1.00 20.00     0.268 C 
HETATM    9  C6  UNL     1     -33.345  16.664  -2.716  1.00 20.00     0.037 C 
ENDBRANCH   6   8
TORSDOF 1
ENDMDL
MODEL 3
REMARK VINA RESULT:      -3.3      2.014      3.716
REMARK  1 active torsions:
REMARK  status: ('A' for Active; 'I' for Inactive)
REMARK    1  A    between atoms: C7_7  and  N8_8 
ROOT
HETATM    1  C1  UNL     1     -34.681   4.978   5.218  1.00 20.00     0.065 C 
HETATM    2  C2  UNL     1     -35.026   6.025   4.151  1.00 20.00     0.275 C 
HETATM    3  C3  UNL     1     -33.709   7.811   5.134  1.00 20.00     0.306 C 
HETATM    4  C4  UNL     1     -34.049   5.576   6.432  1.00 20.00     0.154 A 
HETATM    5  C5  UNL     1     -33.522   6.982   6.366  1.00 20.00     0.179 A 
HETATM    6  N8  UNL     1     -33.970   7.022   3.921  1.00 20.00     0.090 N 
HETATM    7  O9  UNL     1     -34.758   6.659   7.034  1.00 20.00    -0.374 OA
ENDROOT
BRANCH   6   8
HETATM    8  C7  UNL     1     -32.749   6.435   3.374  1.00 20.00     0.268 C 
HETATM    9  C6  UNL     1     -32.091   7.361   2.409  1.00 20.00     0.037 C 
ENDBRANCH   6   8
TORSDOF 1
ENDMDL
MODEL 4
REMARK VINA RESULT:      -3.2     12.600     13.451
REMARK  1 active torsions:
REMARK  status: ('A' for Active; 'I' for Inactive)
REMARK    1  A    between atoms: C7_7  and  N8_8 
ROOT
HETATM    1  C1  UNL     1     -36.578  15.023  -5.382  1.00 20.00     0.065 C 
HETATM    2  C2  UNL     1     -35.307  14.320  -4.885  1.00 20.00     0.275 C 
HETATM    3  C3  UNL     1     -33.865  15.161  -6.646  1.00 20.00     0.306 C 
HETATM    4  C4  UNL     1     -36.440  15.555  -6.770  1.00 20.00     0.154 A 
HETATM    5  C5  UNL     1     -35.070  15.665  -7.379  1.00 20.00     0.179 A 
HETATM    6  N8  UNL     1     -34.062  15.037  -5.195  1.00 20.00     0.090 N 
HETATM    7  O9  UNL     1     -35.992  14.622  -7.753  1.00 20.00    -0.374 OA
ENDROOT
BRANCH   6   8
HETATM    8  C7  UNL     1     -33.971  16.328  -4.515  1.00 20.00     0.268 C 
HETATM    9  C6  UNL     1     -33.382  16.179  -3.153  1.00 20.00     0.037 C 
ENDBRANCH   6   8
TORSDOF 1
ENDMDL
MODEL 5
REMARK VINA RESULT:      -3.2      1.814      3.321
REMARK  1 active torsions:
REMARK  status: ('A' for Active; 'I' for Inactive)
REMARK    1  A    between atoms: C7_7  and  N8_8 
ROOT
HETATM    1  C1  UNL     1     -34.795   6.283   6.253  1.00 20.00     0.065 C 
HETATM    2  C2  UNL     1     -33.322   6.713   6.227  1.00 20.00     0.275 C 
HETATM    3  C3  UNL     1     -32.963   6.197   3.884  1.00 20.00     0.306 C 
HETATM    4  C4  UNL     1     -35.189   5.495   5.047  1.00 20.00     0.154 A 
HETATM    5  C5  UNL     1     -34.286   5.496   3.845  1.00 20.00     0.179 A 
HETATM    6  N8  UNL     1     -32.868   7.228   4.927  1.00 20.00     0.090 N 
HETATM    7  O9  UNL     1     -34.364   4.370   4.742  1.00 20.00    -0.374 OA
ENDROOT
BRANCH   6   8
HETATM    8  C7  UNL     1     -33.544   8.465   4.543  1.00 20.00     0.268 C 
HETATM    9  C6  UNL     1     -32.826   9.147   3.428  1.00 20.00     0.037 C 
ENDBRANCH   6   8
TORSDOF 1
ENDMDL
MODEL 6
REMARK VINA RESULT:      -3.0     12.861     13.664
REMARK  1 active torsions:
REMARK  status: ('A' for Active; 'I' for Inactive)
REMARK    1  A    between atoms: C7_7  and  N8_8 
ROOT
HETATM    1  C1  UNL     1     -35.201  17.361  -6.687  1.00 20.00     0.065 C 
HETATM    2  C2  UNL     1     -35.788  16.886  -5.351  1.00 20.00     0.275 C 
HETATM    3  C3  UNL     1     -34.393  14.909  -5.167  1.00 20.00     0.306 C 
HETATM    4  C4  UNL     1     -34.380  16.313  -7.364  1.00 20.00     0.154 A 
HETATM    5  C5  UNL     1     -33.940  15.108  -6.580  1.00 20.00     0.179 A 
HETATM    6  N8  UNL     1     -34.840  16.144  -4.507  1.00 20.00     0.090 N 
HETATM    7  O9  UNL     1     -35.012  15.045  -7.541  1.00 20.00    -0.374 OA
ENDROOT
BRANCH   6   8
HETATM    8  C7  UNL     1     -33.718  16.967  -4.061  1.00 20.00     0.268 C 
HETATM    9  C6  UNL     1     -33.349  16.655  -2.650  1.00 20.00     0.037 C 
ENDBRANCH   6   8
TORSDOF 1
ENDMDL
MODEL 7
REMARK VINA RESULT:      -3.0     12.086     13.147
REMARK  1 active torsions:
REMARK  status: ('A' for Active; 'I' for Inactive)
REMARK    1  A    between atoms: C7_7  and  N8_8 
ROOT
HETATM    1  C1  UNL     1     -26.933  -0.317  11.446  1.00 20.00     0.065 C 
HETATM    2  C2  UNL     1     -26.604  -1.538  12.316  1.00 20.00     0.275 C 
HETATM    3  C3  UNL     1     -27.429  -3.186  10.737  1.00 20.00     0.306 C 
HETATM    4  C4  UNL     1     -27.837  -0.647  10.305  1.00 20.00     0.154 A 
HETATM    5  C5  UNL     1     -28.044  -2.087   9.926  1.00 20.00     0.179 A 
HETATM    6  N8  UNL     1     -26.285  -2.753  11.552  1.00 20.00     0.090 N 
HETATM    7  O9  UNL     1     -29.042  -1.335  10.643  1.00 20.00    -0.374 OA
ENDROOT
BRANCH   6   8
HETATM    8  C7  UNL     1     -25.065  -2.617  10.760  1.00 20.00     0.268 C 
HETATM    9  C6  UNL     1     -23.884  -2.351  11.630  1.00 20.00     0.037 C 
ENDBRANCH   6   8
TORSDOF 1
ENDMDL
MODEL 8
REMARK VINA RESULT:      -3.0     12.351     13.336
REMARK  1 active torsions:
REMARK  status: ('A' for Active; 'I' for Inactive)
REMARK    1  A    between atoms: C7_7  and  N8_8 
ROOT
HETATM    1  C1  UNL     1     -33.655  14.508  -4.524  1.00 20.00     0.065 C 
HETATM    2  C2  UNL     1     -35.101  14.839  -4.919  1.00 20.00     0.275 C 
HETATM    3  C3  UNL     1     -34.915  17.226  -4.524  1.00 20.00     0.306 C 
HETATM    4  C4  UNL     1     -32.977  15.633  -3.815  1.00 20.00     0.154 A 
HETATM    5  C5  UNL     1     -33.592  17.004  -3.860  1.00 20.00     0.179 A 
HETATM    6  N8  UNL     1     -35.276  16.181  -5.493  1.00 20.00     0.090 N 
HETATM    7  O9  UNL     1     -33.671  16.168  -2.688  1.00 20.00    -0.374 OA
ENDROOT
BRANCH   6   8
HETATM    8  C7  UNL     1     -34.577  16.346  -6.766  1.00 20.00     0.268 C 
HETATM    9  C6  UNL     1     -35.295  15.646  -7.869  1.00 20.00     0.037 C 
ENDBRANCH   6   8
TORSDOF 1
ENDMDL
MODEL 9
REMARK VINA RESULT:      -2.9     12.066     13.100
REMARK  1 active torsions:
REMARK  status: ('A' for Active; 'I' for Inactive)
REMARK    1  A    between atoms: C7_7  and  N8_8 
ROOT
HETATM    1  C1  UNL     1     -34.749  19.073  -3.426  1.00 20.00     0.065 C 
HETATM    2  C2  UNL     1     -34.762  18.580  -1.972  1.00 20.00     0.275 C 
HETATM    3  C3  UNL     1     -33.323  16.664  -2.356  1.00 20.00     0.306 C 
HETATM    4  C4  UNL     1     -34.206  18.056  -4.376  1.00 20.00     0.154 A 
HETATM    5  C5  UNL     1     -33.452  16.875  -3.833  1.00 20.00     0.179 A 
HETATM    6  N8  UNL     1     -33.534  17.883  -1.561  1.00 20.00     0.090 N 
HETATM    7  O9  UNL     1     -34.806  16.762  -4.313  1.00 20.00    -0.374 OA
ENDROOT
BRANCH   6   8
HETATM    8  C7  UNL     1     -32.361  18.754  -1.568  1.00 20.00     0.268 C 
HETATM    9  C6  UNL     1     -31.477  18.475  -0.401  1.00 20.00     0.037 C 
ENDBRANCH   6   8
TORSDOF 1
ENDMDL
