MODEL 1
REMARK VINA RESULT:      -3.9      0.000      0.000
REMARK  2 active torsions:
REMARK  status: ('A' for Active; 'I' for Inactive)
REMARK    1  A    between atoms: C6_6  and  C7_7 
REMARK    2  A    between atoms: C6_6  and  C8_8 
ROOT
HETATM    1  C1  UNL     1     -32.816   4.834   2.495  1.00 20.00     0.012 C 
HETATM    2  C2  UNL     1     -33.506   5.546   3.172  1.00 20.00    -0.117 C 
HETATM    3  C7  UNL     1     -34.357   6.412   3.996  1.00 20.00     0.103 C 
ENDROOT
BRANCH   3   4
HETATM    4  C6  UNL     1     -33.517   7.335   4.871  1.00 20.00    -0.021 C 
HETATM    5  C4  UNL     1     -33.900   8.839   4.756  1.00 20.00     0.011 C 
HETATM    6  C3  UNL     1     -32.395   9.172   4.706  1.00 20.00     0.002 C 
HETATM    7  C5  UNL     1     -32.143   7.722   4.247  1.00 20.00     0.011 C 
BRANCH   4   8
HETATM    8  C8  UNL     1     -33.429   6.819   6.307  1.00 20.00     0.095 C 
HETATM    9 BR9  UNL     1     -34.600   5.288   6.513  1.00 20.00    -0.096 Br
ENDBRANCH   4   8
ENDBRANCH   3   4
TORSDOF 2
ENDMDL
MODEL 2
REMARK VINA RESULT:      -3.9      1.967      2.918
REMARK  2 active torsions:
REMARK  status: ('A' for Active; 'I' for Inactive)
REMARK    1  A    between atoms: C6_6  and  C7_7 
REMARK    2  A    between atoms: C6_6  and  C8_8 
ROOT
HETATM    1  C1  UNL     1     -32.962   4.334   2.268  1.00 20.00     0.012 C 
HETATM    2  C2  UNL     1     -32.963   5.396   2.827  1.00 20.00    -0.117 C 
HETATM    3  C7  UNL     1     -32.959   6.698   3.502  1.00 20.00     0.103 C 
ENDROOT
BRANCH   3   4
HETATM    4  C6  UNL     1     -33.836   6.672   4.749  1.00 20.00    -0.021 C 
HETATM    5  C4  UNL     1     -33.558   5.467   5.694  1.00 20.00     0.011 C 
HETATM    6  C3  UNL     1     -35.082   5.291   5.844  1.00 20.00     0.002 C 
HETATM    7  C5  UNL     1     -35.248   6.057   4.517  1.00 20.00     0.011 C 
BRANCH   4   8
HETATM    8  C8  UNL     1     -33.852   8.029   5.452  1.00 20.00     0.095 C 
HETATM    9 BR9  UNL     1     -32.331   9.077   4.862  1.00 20.00    -0.096 Br
ENDBRANCH   4   8
ENDBRANCH   3   4
TORSDOF 2
ENDMDL
MODEL 3
REMARK VINA RESULT:      -3.8      8.696     10.075
REMARK  2 active torsions:
REMARK  status: ('A' for Active; 'I' for Inactive)
REMARK    1  A    between atoms: C6_6  and  C7_7 
REMARK    2  A    between atoms: C6_6  and  C8_8 
ROOT
HETATM    1  C1  UNL     1     -39.015  11.690   4.021  1.00 20.00     0.012 C 
HETATM    2  C2  UNL     1     -39.340  12.008   5.132  1.00 20.00    -0.117 C 
HETATM    3  C7  UNL     1     -39.729  12.392   6.493  1.00 20.00     0.103 C 
ENDROOT
BRANCH   3   4
HETATM    4  C6  UNL     1     -40.827  13.449   6.472  1.00 20.00    -0.021 C 
HETATM    5  C4  UNL     1     -42.214  12.931   6.954  1.00 20.00     0.011 C 
HETATM    6  C3  UNL     1     -42.855  13.687   5.773  1.00 20.00     0.002 C 
HETATM    7  C5  UNL     1     -41.482  13.654   5.074  1.00 20.00     0.011 C 
BRANCH   4   8
HETATM    8  C8  UNL     1     -40.373  14.743   7.148  1.00 20.00     0.095 C 
HETATM    9 BR9  UNL     1     -40.415  14.513   9.072  1.00 20.00    -0.096 Br
ENDBRANCH   4   8
ENDBRANCH   3   4
TORSDOF 2
ENDMDL
MODEL 4
REMARK VINA RESULT:      -3.7      1.846      2.711
REMARK  2 active torsions:
REMARK  status: ('A' for Active; 'I' for Inactive)
REMARK    1  A    between atoms: C6_6  and  C7_7 
REMARK    2  A    between atoms: C6_6  and  C8_8 
ROOT
HETATM    1  C1  UNL     1     -34.751   5.284   6.675  1.00 20.00     0.012 C 
HETATM    2  C2  UNL     1     -34.682   5.802   5.594  1.00 20.00    -0.117 C 
HETATM    3  C7  UNL     1     -34.605   6.431   4.271  1.00 20.00     0.103 C 
ENDROOT
BRANCH   3   4
HETATM    4  C6  UNL     1     -33.363   7.305   4.150  1.00 20.00    -0.021 C 
HETATM    5  C4  UNL     1     -32.720   7.685   5.515  1.00 20.00     0.011 C 
HETATM    6  C3  UNL     1     -32.554   9.123   4.985  1.00 20.00     0.002 C 
HETATM    7  C5  UNL     1     -33.671   8.821   3.967  1.00 20.00     0.011 C 
BRANCH   4   8
HETATM    8  C8  UNL     1     -32.376   6.739   3.129  1.00 20.00     0.095 C 
HETATM    9 BR9  UNL     1     -32.992   4.999   2.536  1.00 20.00    -0.096 Br
ENDBRANCH   4   8
ENDBRANCH   3   4
TORSDOF 2
ENDMDL
MODEL 5
REMARK VINA RESULT:      -3.6     12.668     13.696
REMARK  2 active torsions:
REMARK  status: ('A' for Active; 'I' for Inactive)
REMARK    1  A    between atoms: C6_6  and  C7_7 
REMARK    2  A    between atoms: C6_6  and  C8_8 
ROOT
HETATM    1  C1  UNL     1     -33.336  16.987  -2.073  1.00 20.00     0.012 C 
HETATM    2  C2  UNL     1     -33.377  16.241  -3.012  1.00 20.00    -0.117 C 
HETATM    3  C7  UNL     1     -33.421  15.323  -4.155  1.00 20.00     0.103 C 
ENDROOT
BRANCH   3   4
HETATM    4  C6  UNL     1     -34.569  15.673  -5.096  1.00 20.00    -0.021 C 
HETATM    5  C4  UNL     1     -35.654  14.563  -5.211  1.00 20.00     0.011 C 
HETATM    6  C3  UNL     1     -35.666  14.796  -6.735  1.00 20.00     0.002 C 
HETATM    7  C5  UNL     1     -34.258  15.410  -6.599  1.00 20.00     0.011 C 
BRANCH   4   8
HETATM    8  C8  UNL     1     -35.127  17.066  -4.806  1.00 20.00     0.095 C 
HETATM    9 BR9  UNL     1     -34.416  18.325  -6.098  1.00 20.00    -0.096 Br
ENDBRANCH   4   8
ENDBRANCH   3   4
TORSDOF 2
ENDMDL
MODEL 6
REMARK VINA RESULT:      -3.6      2.478      3.185
REMARK  2 active torsions:
REMARK  status: ('A' for Active; 'I' for Inactive)
REMARK    1  A    between atoms: C6_6  and  C7_7 
REMARK    2  A    between atoms: C6_6  and  C8_8 
ROOT
HETATM    1  C1  UNL     1     -32.551   8.805   0.130  1.00 20.00     0.012 C 
HETATM    2  C2  UNL     1     -32.722   9.109   1.279  1.00 20.00    -0.117 C 
HETATM    3  C7  UNL     1     -32.933   9.489   2.680  1.00 20.00     0.103 C 
ENDROOT
BRANCH   3   4
HETATM    4  C6  UNL     1     -32.743   8.294   3.607  1.00 20.00    -0.021 C 
HETATM    5  C4  UNL     1     -34.055   7.808   4.290  1.00 20.00     0.011 C 
HETATM    6  C3  UNL     1     -33.266   7.677   5.608  1.00 20.00     0.002 C 
HETATM    7  C5  UNL     1     -32.239   8.671   5.032  1.00 20.00     0.011 C 
BRANCH   4   8
HETATM    8  C8  UNL     1     -31.940   7.182   2.932  1.00 20.00     0.095 C 
HETATM    9 BR9  UNL     1     -33.031   5.585   2.807  1.00 20.00    -0.096 Br
ENDBRANCH   4   8
ENDBRANCH   3   4
TORSDOF 2
ENDMDL
MODEL 7
REMARK VINA RESULT:      -3.6      2.660      3.228
REMARK  2 active torsions:
REMARK  status: ('A' for Active; 'I' for Inactive)
REMARK    1  A    between atoms: C6_6  and  C7_7 
REMARK    2  A    between atoms: C6_6  and  C8_8 
ROOT
HETATM    1  C1  UNL     1     -33.287   4.831   2.940  1.00 20.00     0.012 C 
HETATM    2  C2  UNL     1     -32.737   5.890   2.807  1.00 20.00    -0.117 C 
HETATM    3  C7  UNL     1     -32.061   7.180   2.638  1.00 20.00     0.103 C 
ENDROOT
BRANCH   3   4
HETATM    4  C6  UNL     1     -32.732   8.265   3.472  1.00 20.00    -0.021 C 
HETATM    5  C4  UNL     1     -32.047   8.522   4.846  1.00 20.00     0.011 C 
HETATM    6  C3  UNL     1     -33.450   8.572   5.484  1.00 20.00     0.002 C 
HETATM    7  C5  UNL     1     -33.971   7.771   4.276  1.00 20.00     0.011 C 
BRANCH   4   8
HETATM    8  C8  UNL     1     -32.982   9.530   2.651  1.00 20.00     0.095 C 
HETATM    9 BR9  UNL     1     -32.690   9.146   0.774  1.00 20.00    -0.096 Br
ENDBRANCH   4   8
ENDBRANCH   3   4
TORSDOF 2
ENDMDL
MODEL 8
REMARK VINA RESULT:      -3.6      1.798      3.586
REMARK  2 active torsions:
REMARK  status: ('A' for Active; 'I' for Inactive)
REMARK    1  A    between atoms: C6_6  and  C7_7 
REMARK    2  A    between atoms: C6_6  and  C8_8 
ROOT
HETATM    1  C1  UNL     1     -31.868   9.465   4.913  1.00 20.00     0.012 C 
HETATM    2  C2  UNL     1     -32.902   8.870   4.778  1.00 20.00    -0.117 C 
HETATM    3  C7  UNL     1     -34.169   8.151   4.610  1.00 20.00     0.103 C 
ENDROOT
BRANCH   3   4
HETATM    4  C6  UNL     1     -33.990   6.658   4.857  1.00 20.00    -0.021 C 
HETATM    5  C4  UNL     1     -35.280   5.818   4.627  1.00 20.00     0.011 C 
HETATM    6  C3  UNL     1     -34.955   5.048   5.922  1.00 20.00     0.002 C 
HETATM    7  C5  UNL     1     -34.089   6.247   6.356  1.00 20.00     0.011 C 
BRANCH   4   8
HETATM    8  C8  UNL     1     -32.754   6.115   4.139  1.00 20.00     0.095 C 
HETATM    9 BR9  UNL     1     -33.306   5.125   2.567  1.00 20.00    -0.096 Br
ENDBRANCH   4   8
ENDBRANCH   3   4
TORSDOF 2
ENDMDL
MODEL 9
REMARK VINA RESULT:      -3.5      9.143     10.480
REMARK  2 active torsions:
REMARK  status: ('A' for Active; 'I' for Inactive)
REMARK    1  A    between atoms: C6_6  and  C7_7 
REMARK    2  A    between atoms: C6_6  and  C8_8 
ROOT
HETATM    1  C1  UNL     1     -39.182  11.577   4.368  1.00 20.00     0.012 C 
HETATM    2  C2  UNL     1     -39.580  12.198   5.316  1.00 20.00    -0.117 C 
HETATM    3  C7  UNL     1     -40.058  12.955   6.477  1.00 20.00     0.103 C 
ENDROOT
BRANCH   3   4
HETATM    4  C6  UNL     1     -41.490  13.435   6.268  1.00 20.00    -0.021 C 
HETATM    5  C4  UNL     1     -41.775  13.969   4.834  1.00 20.00     0.011 C 
HETATM    6  C3  UNL     1     -42.542  15.144   5.473  1.00 20.00     0.002 C 
HETATM    7  C5  UNL     1     -41.751  14.886   6.770  1.00 20.00     0.011 C 
BRANCH   4   8
HETATM    8  C8  UNL     1     -42.505  12.407   6.767  1.00 20.00     0.095 C 
HETATM    9 BR9  UNL     1     -43.230  12.993   8.467  1.00 20.00    -0.096 Br
ENDBRANCH   4   8
ENDBRANCH   3   4
TORSDOF 2
ENDMDL
