MODEL 1
REMARK VINA RESULT:      -4.5      0.000      0.000
REMARK  0 active torsions:
REMARK  status: ('A' for Active; 'I' for Inactive)
ROOT
HETATM    1  C1  UNL     1     -32.355   7.172   2.709  1.00 20.00     0.217 C 
HETATM    2  C2  UNL     1     -32.419   7.761   4.101  1.00 20.00     0.108 C 
HETATM    3  C3  UNL     1     -33.406   5.207   3.778  1.00 20.00     0.131 C 
HETATM    4  C4  UNL     1     -33.843   7.588   4.646  1.00 20.00    -0.001 C 
HETATM    5  C5  UNL     1     -34.214   6.070   4.786  1.00 20.00    -0.028 C 
HETATM    6  C6  UNL     1     -34.034   8.418   5.917  1.00 20.00     0.011 C 
HETATM    7  C7  UNL     1     -35.721   5.899   4.499  1.00 20.00     0.016 C 
HETATM    8  C8  UNL     1     -33.936   5.513   6.196  1.00 20.00     0.016 C 
HETATM    9  N9  UNL     1     -32.971   5.940   2.607  1.00 20.00    -0.360 N 
HETATM   10  O10 UNL     1     -31.798   7.743   1.775  1.00 20.00    -0.274 OA
HETATM   11  H25 UNL     1     -33.117   5.551   1.712  1.00 20.00     0.162 HD
ENDROOT
TORSDOF 0
ENDMDL
MODEL 2
REMARK VINA RESULT:      -3.9      1.875      2.847
REMARK  0 active torsions:
REMARK  status: ('A' for Active; 'I' for Inactive)
ROOT
HETATM    1  C1  UNL     1     -32.584   8.482   4.847  1.00 20.00     0.217 C 
HETATM    2  C2  UNL     1     -32.928   7.680   3.612  1.00 20.00     0.108 C 
HETATM    3  C3  UNL     1     -34.565   7.360   5.807  1.00 20.00     0.131 C 
HETATM    4  C4  UNL     1     -33.122   6.212   4.015  1.00 20.00    -0.001 C 
HETATM    5  C5  UNL     1     -34.331   6.052   5.002  1.00 20.00    -0.028 C 
HETATM    6  C6  UNL     1     -33.182   5.320   2.773  1.00 20.00     0.011 C 
HETATM    7  C7  UNL     1     -34.018   4.905   5.987  1.00 20.00     0.016 C 
HETATM    8  C8  UNL     1     -35.651   5.709   4.283  1.00 20.00     0.016 C 
HETATM    9  N9  UNL     1     -33.380   8.181   5.935  1.00 20.00    -0.360 N 
HETATM   10  O10 UNL     1     -31.687   9.322   4.861  1.00 20.00    -0.274 OA
HETATM   11  H25 UNL     1     -33.132   8.536   6.822  1.00 20.00     0.162 HD
ENDROOT
TORSDOF 0
ENDMDL
MODEL 3
REMARK VINA RESULT:      -3.8     12.091     13.304
REMARK  0 active torsions:
REMARK  status: ('A' for Active; 'I' for Inactive)
ROOT
HETATM    1  C1  UNL     1     -33.599  15.292  -4.315  1.00 20.00     0.217 C 
HETATM    2  C2  UNL     1     -33.689  15.875  -2.922  1.00 20.00     0.108 C 
HETATM    3  C3  UNL     1     -34.674  17.412  -4.988  1.00 20.00     0.131 C 
HETATM    4  C4  UNL     1     -33.117  17.298  -2.945  1.00 20.00    -0.001 C 
HETATM    5  C5  UNL     1     -33.964  18.234  -3.877  1.00 20.00    -0.028 C 
HETATM    6  C6  UNL     1     -32.917  17.818  -1.520  1.00 20.00     0.011 C 
HETATM    7  C7  UNL     1     -33.021  19.263  -4.537  1.00 20.00     0.016 C 
HETATM    8  C8  UNL     1     -35.053  19.014  -3.113  1.00 20.00     0.016 C 
HETATM    9  N9  UNL     1     -34.007  16.167  -5.303  1.00 20.00    -0.360 N 
HETATM   10  O10 UNL     1     -33.207  14.147  -4.527  1.00 20.00    -0.274 OA
HETATM   11  H25 UNL     1     -33.838  15.934  -6.247  1.00 20.00     0.162 HD
ENDROOT
TORSDOF 0
ENDMDL
MODEL 4
REMARK VINA RESULT:      -3.6     12.276     13.571
REMARK  0 active torsions:
REMARK  status: ('A' for Active; 'I' for Inactive)
ROOT
HETATM    1  C1  UNL     1     -35.446  14.018  -4.673  1.00 20.00     0.217 C 
HETATM    2  C2  UNL     1     -35.970  14.620  -5.959  1.00 20.00     0.108 C 
HETATM    3  C3  UNL     1     -34.075  16.071  -4.579  1.00 20.00     0.131 C 
HETATM    4  C4  UNL     1     -36.394  16.069  -5.688  1.00 20.00    -0.001 C 
HETATM    5  C5  UNL     1     -35.169  16.946  -5.251  1.00 20.00    -0.028 C 
HETATM    6  C6  UNL     1     -37.194  16.622  -6.870  1.00 20.00     0.011 C 
HETATM    7  C7  UNL     1     -35.654  18.009  -4.242  1.00 20.00     0.016 C 
HETATM    8  C8  UNL     1     -34.508  17.684  -6.433  1.00 20.00     0.016 C 
HETATM    9  N9  UNL     1     -34.589  14.855  -3.986  1.00 20.00    -0.360 N 
HETATM   10  O10 UNL     1     -35.757  12.890  -4.298  1.00 20.00    -0.274 OA
HETATM   11  H25 UNL     1     -34.322  14.615  -3.066  1.00 20.00     0.162 HD
ENDROOT
TORSDOF 0
ENDMDL
MODEL 5
REMARK VINA RESULT:      -3.6     12.175     13.251
REMARK  0 active torsions:
REMARK  status: ('A' for Active; 'I' for Inactive)
ROOT
HETATM    1  C1  UNL     1     -34.562  17.628  -3.106  1.00 20.00     0.217 C 
HETATM    2  C2  UNL     1     -33.398  16.808  -3.618  1.00 20.00     0.108 C 
HETATM    3  C3  UNL     1     -35.574  17.071  -5.291  1.00 20.00     0.131 C 
HETATM    4  C4  UNL     1     -33.930  15.466  -4.137  1.00 20.00    -0.001 C 
HETATM    5  C5  UNL     1     -34.900  15.674  -5.353  1.00 20.00    -0.028 C 
HETATM    6  C6  UNL     1     -32.775  14.495  -4.391  1.00 20.00     0.011 C 
HETATM    7  C7  UNL     1     -35.993  14.585  -5.307  1.00 20.00     0.016 C 
HETATM    8  C8  UNL     1     -34.184  15.566  -6.714  1.00 20.00     0.016 C 
HETATM    9  N9  UNL     1     -35.654  17.617  -3.952  1.00 20.00    -0.360 N 
HETATM   10  O10 UNL     1     -34.519  18.245  -2.044  1.00 20.00    -0.274 OA
HETATM   11  H25 UNL     1     -36.510  17.991  -3.633  1.00 20.00     0.162 HD
ENDROOT
TORSDOF 0
ENDMDL
MODEL 6
REMARK VINA RESULT:      -3.5     12.335     13.558
REMARK  0 active torsions:
REMARK  status: ('A' for Active; 'I' for Inactive)
ROOT
HETATM    1  C1  UNL     1     -33.444  17.268  -3.607  1.00 20.00     0.217 C 
HETATM    2  C2  UNL     1     -34.845  17.485  -4.135  1.00 20.00     0.108 C 
HETATM    3  C3  UNL     1     -33.718  15.004  -4.558  1.00 20.00     0.131 C 
HETATM    4  C4  UNL     1     -34.893  17.039  -5.603  1.00 20.00    -0.001 C 
HETATM    5  C5  UNL     1     -34.597  15.504  -5.737  1.00 20.00    -0.028 C 
HETATM    6  C6  UNL     1     -36.193  17.505  -6.261  1.00 20.00     0.011 C 
HETATM    7  C7  UNL     1     -33.846  15.258  -7.064  1.00 20.00     0.016 C 
HETATM    8  C8  UNL     1     -35.878  14.646  -5.755  1.00 20.00     0.016 C 
HETATM    9  N9  UNL     1     -32.909  16.043  -3.957  1.00 20.00    -0.360 N 
HETATM   10  O10 UNL     1     -32.858  18.106  -2.926  1.00 20.00    -0.274 OA
HETATM   11  H25 UNL     1     -31.951  15.875  -3.793  1.00 20.00     0.162 HD
ENDROOT
TORSDOF 0
ENDMDL
MODEL 7
REMARK VINA RESULT:      -3.5     12.190     13.362
REMARK  0 active torsions:
REMARK  status: ('A' for Active; 'I' for Inactive)
ROOT
HETATM    1  C1  UNL     1     -33.494  15.042  -4.491  1.00 20.00     0.217 C 
HETATM    2  C2  UNL     1     -34.123  16.416  -4.432  1.00 20.00     0.108 C 
HETATM    3  C3  UNL     1     -35.732  14.338  -5.267  1.00 20.00     0.131 C 
HETATM    4  C4  UNL     1     -34.829  16.693  -5.766  1.00 20.00    -0.001 C 
HETATM    5  C5  UNL     1     -35.998  15.676  -6.010  1.00 20.00    -0.028 C 
HETATM    6  C6  UNL     1     -35.226  18.168  -5.865  1.00 20.00     0.011 C 
HETATM    7  C7  UNL     1     -36.106  15.397  -7.524  1.00 20.00     0.016 C 
HETATM    8  C8  UNL     1     -37.364  16.207  -5.529  1.00 20.00     0.016 C 
HETATM    9  N9  UNL     1     -34.328  14.079  -5.025  1.00 20.00    -0.360 N 
HETATM   10  O10 UNL     1     -32.354  14.820  -4.089  1.00 20.00    -0.274 OA
HETATM   11  H25 UNL     1     -33.955  13.193  -5.248  1.00 20.00     0.162 HD
ENDROOT
TORSDOF 0
ENDMDL
MODEL 8
REMARK VINA RESULT:      -3.5     12.819     14.131
REMARK  0 active torsions:
REMARK  status: ('A' for Active; 'I' for Inactive)
ROOT
HETATM    1  C1  UNL     1     -33.912  14.663  -5.093  1.00 20.00     0.217 C 
HETATM    2  C2  UNL     1     -35.323  15.191  -4.948  1.00 20.00     0.108 C 
HETATM    3  C3  UNL     1     -34.133  15.459  -7.421  1.00 20.00     0.131 C 
HETATM    4  C4  UNL     1     -35.371  16.625  -5.493  1.00 20.00    -0.001 C 
HETATM    5  C5  UNL     1     -35.035  16.660  -7.025  1.00 20.00    -0.028 C 
HETATM    6  C6  UNL     1     -36.689  17.300  -5.106  1.00 20.00     0.011 C 
HETATM    7  C7  UNL     1     -34.289  17.974  -7.339  1.00 20.00     0.016 C 
HETATM    8  C8  UNL     1     -36.293  16.607  -7.916  1.00 20.00     0.016 C 
HETATM    9  N9  UNL     1     -33.348  14.937  -6.323  1.00 20.00    -0.360 N 
HETATM   10  O10 UNL     1     -33.343  14.046  -4.195  1.00 20.00    -0.274 OA
HETATM   11  H25 UNL     1     -32.384  14.772  -6.455  1.00 20.00     0.162 HD
ENDROOT
TORSDOF 0
ENDMDL
MODEL 9
REMARK VINA RESULT:      -3.4     12.538     13.585
REMARK  0 active torsions:
REMARK  status: ('A' for Active; 'I' for Inactive)
ROOT
HETATM    1  C1  UNL     1     -33.931  17.202  -2.405  1.00 20.00     0.217 C 
HETATM    2  C2  UNL     1     -33.270  16.446  -3.536  1.00 20.00     0.108 C 
HETATM    3  C3  UNL     1     -35.144  18.345  -4.229  1.00 20.00     0.131 C 
HETATM    4  C4  UNL     1     -34.359  15.909  -4.474  1.00 20.00    -0.001 C 
HETATM    5  C5  UNL     1     -35.167  17.082  -5.133  1.00 20.00    -0.028 C 
HETATM    6  C6  UNL     1     -33.766  14.901  -5.461  1.00 20.00     0.011 C 
HETATM    7  C7  UNL     1     -36.629  16.628  -5.328  1.00 20.00     0.016 C 
HETATM    8  C8  UNL     1     -34.612  17.491  -6.512  1.00 20.00     0.016 C 
HETATM    9  N9  UNL     1     -34.936  18.051  -2.827  1.00 20.00    -0.360 N 
HETATM   10  O10 UNL     1     -33.589  17.069  -1.233  1.00 20.00    -0.274 OA
HETATM   11  H25 UNL     1     -35.526  18.466  -2.154  1.00 20.00     0.162 HD
ENDROOT
TORSDOF 0
ENDMDL
