MODEL 1
REMARK VINA RESULT:      -4.3      0.000      0.000
REMARK  0 active torsions:
REMARK  status: ('A' for Active; 'I' for Inactive)
ROOT
HETATM    1  C1  UNL     1     -23.147  18.744   9.228  1.00 20.00     0.105 C 
HETATM    2  C2  UNL     1     -24.451  19.016   9.037  1.00 20.00     0.056 C 
HETATM    3  C3  UNL     1     -22.656  18.498  10.608  1.00 20.00     0.196 C 
HETATM    4  C4  UNL     1     -25.060  18.892  11.266  1.00 20.00     0.035 C 
HETATM    5  C5  UNL     1     -23.690  18.447  11.693  1.00 20.00     0.205 C 
HETATM    6  C6  UNL     1     -25.052  19.263   7.674  1.00 20.00     0.072 C 
HETATM    7  C7  UNL     1     -26.120  19.063  12.329  1.00 20.00     0.068 C 
HETATM    8  N8  UNL     1     -25.393  19.129  10.036  1.00 20.00    -0.259 NA
HETATM    9  O9  UNL     1     -21.463  18.315  10.845  1.00 20.00    -0.289 OA
HETATM   10 CL10 UNL     1     -21.971  18.640   7.973  1.00 20.00    -0.078 Cl
HETATM   11 CL11 UNL     1     -23.800  16.755  12.225  1.00 20.00    -0.110 Cl
ENDROOT
TORSDOF 0
ENDMDL
MODEL 2
REMARK VINA RESULT:      -3.8     16.961     18.431
REMARK  0 active torsions:
REMARK  status: ('A' for Active; 'I' for Inactive)
ROOT
HETATM    1  C1  UNL     1     -35.084  15.726  -5.192  1.00 20.00     0.105 C 
HETATM    2  C2  UNL     1     -35.420  17.005  -5.442  1.00 20.00     0.056 C 
HETATM    3  C3  UNL     1     -33.905  15.444  -4.334  1.00 20.00     0.196 C 
HETATM    4  C4  UNL     1     -33.709  17.957  -4.208  1.00 20.00     0.035 C 
HETATM    5  C5  UNL     1     -33.237  16.626  -3.695  1.00 20.00     0.205 C 
HETATM    6  C6  UNL     1     -36.609  17.397  -6.286  1.00 20.00     0.072 C 
HETATM    7  C7  UNL     1     -32.962  19.196  -3.772  1.00 20.00     0.068 C 
HETATM    8  N8  UNL     1     -34.727  18.109  -4.995  1.00 20.00    -0.259 NA
HETATM    9  O9  UNL     1     -33.514  14.296  -4.131  1.00 20.00    -0.289 OA
HETATM   10 CL10 UNL     1     -35.937  14.352  -5.787  1.00 20.00    -0.078 Cl
HETATM   11 CL11 UNL     1     -33.592  16.545  -1.956  1.00 20.00    -0.110 Cl
ENDROOT
TORSDOF 0
ENDMDL
MODEL 3
REMARK VINA RESULT:      -3.8     18.585     20.229
REMARK  0 active torsions:
REMARK  status: ('A' for Active; 'I' for Inactive)
ROOT
HETATM    1  C1  UNL     1     -36.373  16.487  -6.678  1.00 20.00     0.105 C 
HETATM    2  C2  UNL     1     -35.955  17.368  -5.750  1.00 20.00     0.056 C 
HETATM    3  C3  UNL     1     -35.799  15.117  -6.681  1.00 20.00     0.196 C 
HETATM    4  C4  UNL     1     -34.461  15.942  -4.705  1.00 20.00     0.035 C 
HETATM    5  C5  UNL     1     -34.872  14.771  -5.553  1.00 20.00     0.205 C 
HETATM    6  C6  UNL     1     -36.487  18.778  -5.651  1.00 20.00     0.072 C 
HETATM    7  C7  UNL     1     -33.381  15.731  -3.671  1.00 20.00     0.068 C 
HETATM    8  N8  UNL     1     -34.987  17.122  -4.800  1.00 20.00    -0.259 NA
HETATM    9  O9  UNL     1     -36.094  14.296  -7.548  1.00 20.00    -0.289 OA
HETATM   10 CL10 UNL     1     -37.558  16.818  -7.883  1.00 20.00    -0.078 Cl
HETATM   11 CL11 UNL     1     -35.728  13.610  -4.516  1.00 20.00    -0.110 Cl
ENDROOT
TORSDOF 0
ENDMDL
MODEL 4
REMARK VINA RESULT:      -3.8     16.063     16.563
REMARK  0 active torsions:
REMARK  status: ('A' for Active; 'I' for Inactive)
ROOT
HETATM    1  C1  UNL     1     -32.702   7.228   3.420  1.00 20.00     0.105 C 
HETATM    2  C2  UNL     1     -32.760   7.936   4.563  1.00 20.00     0.056 C 
HETATM    3  C3  UNL     1     -33.421   5.931   3.338  1.00 20.00     0.196 C 
HETATM    4  C4  UNL     1     -34.098   6.440   5.716  1.00 20.00     0.035 C 
HETATM    5  C5  UNL     1     -34.278   5.558   4.512  1.00 20.00     0.205 C 
HETATM    6  C6  UNL     1     -32.079   9.272   4.743  1.00 20.00     0.072 C 
HETATM    7  C7  UNL     1     -34.765   6.030   7.007  1.00 20.00     0.068 C 
HETATM    8  N8  UNL     1     -33.411   7.539   5.711  1.00 20.00    -0.259 NA
HETATM    9  O9  UNL     1     -33.344   5.212   2.343  1.00 20.00    -0.289 OA
HETATM   10 CL10 UNL     1     -31.854   7.718   2.003  1.00 20.00    -0.078 Cl
HETATM   11 CL11 UNL     1     -35.969   5.686   3.982  1.00 20.00    -0.110 Cl
ENDROOT
TORSDOF 0
ENDMDL
MODEL 5
REMARK VINA RESULT:      -3.8     17.781     19.265
REMARK  0 active torsions:
REMARK  status: ('A' for Active; 'I' for Inactive)
ROOT
HETATM    1  C1  UNL     1     -34.167  16.410  -4.034  1.00 20.00     0.105 C 
HETATM    2  C2  UNL     1     -34.976  17.396  -4.464  1.00 20.00     0.056 C 
HETATM    3  C3  UNL     1     -34.072  15.158  -4.828  1.00 20.00     0.196 C 
HETATM    4  C4  UNL     1     -35.727  16.296  -6.357  1.00 20.00     0.035 C 
HETATM    5  C5  UNL     1     -34.800  15.133  -6.140  1.00 20.00     0.205 C 
HETATM    6  C6  UNL     1     -35.130  18.712  -3.739  1.00 20.00     0.072 C 
HETATM    7  C7  UNL     1     -36.648  16.262  -7.553  1.00 20.00     0.068 C 
HETATM    8  N8  UNL     1     -35.777  17.335  -5.584  1.00 20.00    -0.259 NA
HETATM    9  O9  UNL     1     -33.403  14.200  -4.445  1.00 20.00    -0.289 OA
HETATM   10 CL10 UNL     1     -33.198  16.483  -2.612  1.00 20.00    -0.078 Cl
HETATM   11 CL11 UNL     1     -33.567  15.163  -7.418  1.00 20.00    -0.110 Cl
ENDROOT
TORSDOF 0
ENDMDL
MODEL 6
REMARK VINA RESULT:      -3.7     17.683     18.547
REMARK  0 active torsions:
REMARK  status: ('A' for Active; 'I' for Inactive)
ROOT
HETATM    1  C1  UNL     1     -39.780  12.722   6.202  1.00 20.00     0.105 C 
HETATM    2  C2  UNL     1     -40.013  12.638   4.879  1.00 20.00     0.056 C 
HETATM    3  C3  UNL     1     -40.670  13.569   7.038  1.00 20.00     0.196 C 
HETATM    4  C4  UNL     1     -41.851  14.044   4.858  1.00 20.00     0.035 C 
HETATM    5  C5  UNL     1     -41.859  14.178   6.355  1.00 20.00     0.205 C 
HETATM    6  C6  UNL     1     -39.178  11.793   3.947  1.00 20.00     0.072 C 
HETATM    7  C7  UNL     1     -42.898  14.792   4.068  1.00 20.00     0.068 C 
HETATM    8  N8  UNL     1     -41.004  13.314   4.202  1.00 20.00    -0.259 NA
HETATM    9  O9  UNL     1     -40.461  13.736   8.238  1.00 20.00    -0.289 OA
HETATM   10 CL10 UNL     1     -38.515  11.900   7.032  1.00 20.00    -0.078 Cl
HETATM   11 CL11 UNL     1     -43.299  13.344   6.977  1.00 20.00    -0.110 Cl
ENDROOT
TORSDOF 0
ENDMDL
MODEL 7
REMARK VINA RESULT:      -3.5     17.237     19.097
REMARK  0 active torsions:
REMARK  status: ('A' for Active; 'I' for Inactive)
ROOT
HETATM    1  C1  UNL     1     -33.876  15.749  -4.657  1.00 20.00     0.105 C 
HETATM    2  C2  UNL     1     -34.048  16.777  -3.806  1.00 20.00     0.056 C 
HETATM    3  C3  UNL     1     -34.520  15.804  -5.994  1.00 20.00     0.196 C 
HETATM    4  C4  UNL     1     -35.390  18.039  -5.208  1.00 20.00     0.035 C 
HETATM    5  C5  UNL     1     -35.226  17.078  -6.352  1.00 20.00     0.205 C 
HETATM    6  C6  UNL     1     -33.422  16.826  -2.433  1.00 20.00     0.072 C 
HETATM    7  C7  UNL     1     -36.255  19.259  -5.418  1.00 20.00     0.068 C 
HETATM    8  N8  UNL     1     -34.822  17.891  -4.052  1.00 20.00    -0.259 NA
HETATM    9  O9  UNL     1     -34.452  14.862  -6.782  1.00 20.00    -0.289 OA
HETATM   10 CL10 UNL     1     -32.934  14.346  -4.324  1.00 20.00    -0.078 Cl
HETATM   11 CL11 UNL     1     -34.253  17.875  -7.608  1.00 20.00    -0.110 Cl
ENDROOT
TORSDOF 0
ENDMDL
MODEL 8
REMARK VINA RESULT:      -3.5     17.515     18.249
REMARK  0 active torsions:
REMARK  status: ('A' for Active; 'I' for Inactive)
ROOT
HETATM    1  C1  UNL     1     -41.448  14.225   5.923  1.00 20.00     0.105 C 
HETATM    2  C2  UNL     1     -40.623  13.394   6.586  1.00 20.00     0.056 C 
HETATM    3  C3  UNL     1     -42.060  15.366   6.650  1.00 20.00     0.196 C 
HETATM    4  C4  UNL     1     -40.775  14.471   8.630  1.00 20.00     0.035 C 
HETATM    5  C5  UNL     1     -41.608  15.586   8.064  1.00 20.00     0.205 C 
HETATM    6  C6  UNL     1     -39.938  12.216   5.935  1.00 20.00     0.072 C 
HETATM    7  C7  UNL     1     -40.438  14.506  10.102  1.00 20.00     0.068 C 
HETATM    8  N8  UNL     1     -40.316  13.483   7.927  1.00 20.00    -0.259 NA
HETATM    9  O9  UNL     1     -42.874  16.113   6.110  1.00 20.00    -0.289 OA
HETATM   10 CL10 UNL     1     -41.853  14.082   4.255  1.00 20.00    -0.078 Cl
HETATM   11 CL11 UNL     1     -40.628  17.068   8.070  1.00 20.00    -0.110 Cl
ENDROOT
TORSDOF 0
ENDMDL
MODEL 9
REMARK VINA RESULT:      -3.4     18.627     19.753
REMARK  0 active torsions:
REMARK  status: ('A' for Active; 'I' for Inactive)
ROOT
HETATM    1  C1  UNL     1     -36.307  17.232  -5.560  1.00 20.00     0.105 C 
HETATM    2  C2  UNL     1     -35.378  17.614  -4.664  1.00 20.00     0.056 C 
HETATM    3  C3  UNL     1     -36.228  15.869  -6.144  1.00 20.00     0.196 C 
HETATM    4  C4  UNL     1     -34.182  15.632  -4.684  1.00 20.00     0.035 C 
HETATM    5  C5  UNL     1     -35.174  14.957  -5.589  1.00 20.00     0.205 C 
HETATM    6  C6  UNL     1     -35.379  18.970  -4.000  1.00 20.00     0.072 C 
HETATM    7  C7  UNL     1     -32.974  14.846  -4.234  1.00 20.00     0.068 C 
HETATM    8  N8  UNL     1     -34.307  16.849  -4.255  1.00 20.00    -0.259 NA
HETATM    9  O9  UNL     1     -37.009  15.495  -7.017  1.00 20.00    -0.289 OA
HETATM   10 CL10 UNL     1     -37.621  18.212  -6.090  1.00 20.00    -0.078 Cl
HETATM   11 CL11 UNL     1     -36.014  13.703  -4.651  1.00 20.00    -0.110 Cl
ENDROOT
TORSDOF 0
ENDMDL
