MODEL 1
REMARK VINA RESULT:      -3.5      0.000      0.000
REMARK  1 active torsions:
REMARK  status: ('A' for Active; 'I' for Inactive)
REMARK    1  A    between atoms: C2_2  and  C3_3 
ROOT
HETATM    1  C1  UNL     1     -34.628   5.507   6.332  1.00 20.00     0.051 C 
HETATM    2  C3  UNL     1     -34.493   5.787   4.836  1.00 20.00     0.122 C 
HETATM    3 CL5  UNL     1     -36.119   6.119   4.148  1.00 20.00    -0.101 Cl
HETATM    4 CL6  UNL     1     -33.504   7.278   4.629  1.00 20.00    -0.101 Cl
ENDROOT
BRANCH   2   5
HETATM    5  C2  UNL     1     -33.804   4.653   4.067  1.00 20.00     0.156 C 
HETATM    6 CL4  UNL     1     -32.906   5.207   2.627  1.00 20.00    -0.127 Cl
ENDBRANCH   2   5
TORSDOF 1
ENDMDL
MODEL 2
REMARK VINA RESULT:      -3.4      1.029      2.359
REMARK  1 active torsions:
REMARK  status: ('A' for Active; 'I' for Inactive)
REMARK    1  A    between atoms: C2_2  and  C3_3 
ROOT
HETATM    1  C1  UNL     1     -34.417   5.046   5.955  1.00 20.00     0.051 C 
HETATM    2  C3  UNL     1     -34.341   5.946   4.724  1.00 20.00     0.122 C 
HETATM    3 CL5  UNL     1     -33.424   5.101   3.430  1.00 20.00    -0.101 Cl
HETATM    4 CL6  UNL     1     -36.016   6.208   4.114  1.00 20.00    -0.101 Cl
ENDROOT
BRANCH   2   5
HETATM    5  C2  UNL     1     -33.723   7.320   5.013  1.00 20.00     0.156 C 
HETATM    6 CL4  UNL     1     -32.482   7.810   3.828  1.00 20.00    -0.127 Cl
ENDBRANCH   2   5
TORSDOF 1
ENDMDL
MODEL 3
REMARK VINA RESULT:      -3.4      1.352      1.958
REMARK  1 active torsions:
REMARK  status: ('A' for Active; 'I' for Inactive)
REMARK    1  A    between atoms: C2_2  and  C3_3 
ROOT
HETATM    1  C1  UNL     1     -33.677   7.196   4.694  1.00 20.00     0.051 C 
HETATM    2  C3  UNL     1     -34.457   5.887   4.802  1.00 20.00     0.122 C 
HETATM    3 CL5  UNL     1     -34.655   5.458   6.535  1.00 20.00    -0.101 Cl
HETATM    4 CL6  UNL     1     -36.103   6.155   4.121  1.00 20.00    -0.101 Cl
ENDROOT
BRANCH   2   5
HETATM    5  C2  UNL     1     -33.809   4.730   4.031  1.00 20.00     0.156 C 
HETATM    6 CL4  UNL     1     -32.894   5.254   2.591  1.00 20.00    -0.127 Cl
ENDBRANCH   2   5
TORSDOF 1
ENDMDL
MODEL 4
REMARK VINA RESULT:      -3.4      1.743      2.469
REMARK  1 active torsions:
REMARK  status: ('A' for Active; 'I' for Inactive)
REMARK    1  A    between atoms: C2_2  and  C3_3 
ROOT
HETATM    1  C1  UNL     1     -35.757   6.141   4.258  1.00 20.00     0.051 C 
HETATM    2  C3  UNL     1     -34.302   6.022   4.708  1.00 20.00     0.122 C 
HETATM    3 CL5  UNL     1     -34.238   5.144   6.274  1.00 20.00    -0.101 Cl
HETATM    4 CL6  UNL     1     -33.417   5.026   3.496  1.00 20.00    -0.101 Cl
ENDROOT
BRANCH   2   5
HETATM    5  C2  UNL     1     -33.589   7.375   4.820  1.00 20.00     0.156 C 
HETATM    6 CL4  UNL     1     -32.320   7.619   3.588  1.00 20.00    -0.127 Cl
ENDBRANCH   2   5
TORSDOF 1
ENDMDL
MODEL 5
REMARK VINA RESULT:      -3.4      1.516      2.250
REMARK  1 active torsions:
REMARK  status: ('A' for Active; 'I' for Inactive)
REMARK    1  A    between atoms: C2_2  and  C3_3 
ROOT
HETATM    1  C1  UNL     1     -33.607   5.006   3.737  1.00 20.00     0.051 C 
HETATM    2  C3  UNL     1     -34.326   5.980   4.669  1.00 20.00     0.122 C 
HETATM    3 CL5  UNL     1     -36.030   6.162   4.133  1.00 20.00    -0.101 Cl
HETATM    4 CL6  UNL     1     -34.354   5.262   6.321  1.00 20.00    -0.101 Cl
ENDROOT
BRANCH   2   5
HETATM    5  C2  UNL     1     -33.641   7.350   4.761  1.00 20.00     0.156 C 
HETATM    6 CL4  UNL     1     -32.358   7.590   3.544  1.00 20.00    -0.127 Cl
ENDBRANCH   2   5
TORSDOF 1
ENDMDL
MODEL 6
REMARK VINA RESULT:      -3.3      1.403      1.944
REMARK  1 active torsions:
REMARK  status: ('A' for Active; 'I' for Inactive)
REMARK    1  A    between atoms: C2_2  and  C3_3 
ROOT
HETATM    1  C1  UNL     1     -35.807   6.133   4.338  1.00 20.00     0.051 C 
HETATM    2  C3  UNL     1     -34.373   5.834   4.768  1.00 20.00     0.122 C 
HETATM    3 CL5  UNL     1     -33.371   7.309   4.551  1.00 20.00    -0.101 Cl
HETATM    4 CL6  UNL     1     -34.383   5.443   6.527  1.00 20.00    -0.101 Cl
ENDROOT
BRANCH   2   5
HETATM    5  C2  UNL     1     -33.751   4.646   4.024  1.00 20.00     0.156 C 
HETATM    6 CL4  UNL     1     -32.835   5.116   2.566  1.00 20.00    -0.127 Cl
ENDBRANCH   2   5
TORSDOF 1
ENDMDL
MODEL 7
REMARK VINA RESULT:      -2.8      1.658      2.804
REMARK  1 active torsions:
REMARK  status: ('A' for Active; 'I' for Inactive)
REMARK    1  A    between atoms: C2_2  and  C3_3 
ROOT
HETATM    1  C1  UNL     1     -35.814   6.027   4.144  1.00 20.00     0.051 C 
HETATM    2  C3  UNL     1     -34.436   5.756   4.743  1.00 20.00     0.122 C 
HETATM    3 CL5  UNL     1     -33.896   4.111   4.266  1.00 20.00    -0.101 Cl
HETATM    4 CL6  UNL     1     -33.272   6.933   4.033  1.00 20.00    -0.101 Cl
ENDROOT
BRANCH   2   5
HETATM    5  C2  UNL     1     -34.396   5.915   6.269  1.00 20.00     0.156 C 
HETATM    6 CL4  UNL     1     -34.050   7.581   6.805  1.00 20.00    -0.127 Cl
ENDBRANCH   2   5
TORSDOF 1
ENDMDL
MODEL 8
REMARK VINA RESULT:      -2.8     16.866     17.462
REMARK  1 active torsions:
REMARK  status: ('A' for Active; 'I' for Inactive)
REMARK    1  A    between atoms: C2_2  and  C3_3 
ROOT
HETATM    1  C1  UNL     1     -22.743  18.300  12.332  1.00 20.00     0.051 C 
HETATM    2  C3  UNL     1     -24.014  18.024  11.532  1.00 20.00     0.122 C 
HETATM    3 CL5  UNL     1     -24.378  16.266  11.589  1.00 20.00    -0.101 Cl
HETATM    4 CL6  UNL     1     -25.380  18.884  12.331  1.00 20.00    -0.101 Cl
ENDROOT
BRANCH   2   5
HETATM    5  C2  UNL     1     -23.935  18.511  10.079  1.00 20.00     0.156 C 
HETATM    6 CL4  UNL     1     -22.680  17.684   9.116  1.00 20.00    -0.127 Cl
ENDBRANCH   2   5
TORSDOF 1
ENDMDL
MODEL 9
REMARK VINA RESULT:      -2.7      8.919      9.700
REMARK  1 active torsions:
REMARK  status: ('A' for Active; 'I' for Inactive)
REMARK    1  A    between atoms: C2_2  and  C3_3 
ROOT
HETATM    1  C1  UNL     1     -40.438  14.004   7.143  1.00 20.00     0.051 C 
HETATM    2  C3  UNL     1     -40.921  12.907   6.197  1.00 20.00     0.122 C 
HETATM    3 CL5  UNL     1     -42.431  12.186   6.850  1.00 20.00    -0.101 Cl
HETATM    4 CL6  UNL     1     -41.327  13.666   4.615  1.00 20.00    -0.101 Cl
ENDROOT
BRANCH   2   5
HETATM    5  C2  UNL     1     -39.870  11.818   5.943  1.00 20.00     0.156 C 
HETATM    6 CL4  UNL     1     -39.276  11.778   4.260  1.00 20.00    -0.127 Cl
ENDBRANCH   2   5
TORSDOF 1
ENDMDL
