MODEL 1
REMARK VINA RESULT:      -4.4      0.000      0.000
REMARK  2 active torsions:
REMARK  status: ('A' for Active; 'I' for Inactive)
REMARK    1  A    between atoms: C2_2  and  O6_6 
REMARK    2  A    between atoms: C5_5  and  O6_6 
ROOT
HETATM    1  C1  UNL     1     -34.546   5.870   6.498  1.00 20.00     0.099 A 
HETATM    2  C2  UNL     1     -33.585   6.492   5.524  1.00 20.00     0.181 A 
HETATM    3  C3  UNL     1     -34.625   5.519   5.039  1.00 20.00     0.207 A 
HETATM    4  F7  UNL     1     -34.152   4.257   4.697  1.00 20.00    -0.223 F 
HETATM    5 CL8  UNL     1     -36.003   6.084   4.115  1.00 20.00    -0.080 Cl
ENDROOT
BRANCH   2   6
HETATM    6  O6  UNL     1     -33.792   7.885   5.239  1.00 20.00    -0.382 OA
BRANCH   6   7
HETATM    7  C5  UNL     1     -32.619   8.472   4.707  1.00 20.00     0.164 C 
HETATM    8  C4  UNL     1     -32.196   7.702   3.475  1.00 20.00     0.033 C 
ENDBRANCH   6   7
ENDBRANCH   2   6
TORSDOF 2
ENDMDL
MODEL 2
REMARK VINA RESULT:      -4.2      1.656      1.819
REMARK  2 active torsions:
REMARK  status: ('A' for Active; 'I' for Inactive)
REMARK    1  A    between atoms: C2_2  and  O6_6 
REMARK    2  A    between atoms: C5_5  and  O6_6 
ROOT
HETATM    1  C1  UNL     1     -33.757   5.488   3.923  1.00 20.00     0.099 A 
HETATM    2  C2  UNL     1     -33.887   6.931   4.318  1.00 20.00     0.181 A 
HETATM    3  C3  UNL     1     -34.870   5.917   4.837  1.00 20.00     0.207 A 
HETATM    4  F7  UNL     1     -36.136   5.960   4.264  1.00 20.00    -0.223 F 
HETATM    5 CL8  UNL     1     -34.818   5.412   6.514  1.00 20.00    -0.080 Cl
ENDROOT
BRANCH   2   6
HETATM    6  O6  UNL     1     -32.896   7.426   5.233  1.00 20.00    -0.382 OA
BRANCH   6   7
HETATM    7  C5  UNL     1     -32.399   8.682   4.809  1.00 20.00     0.164 C 
HETATM    8  C4  UNL     1     -32.529   8.783   3.305  1.00 20.00     0.033 C 
ENDBRANCH   6   7
ENDBRANCH   2   6
TORSDOF 2
ENDMDL
MODEL 3
REMARK VINA RESULT:      -4.2      1.658      1.925
REMARK  2 active torsions:
REMARK  status: ('A' for Active; 'I' for Inactive)
REMARK    1  A    between atoms: C2_2  and  O6_6 
REMARK    2  A    between atoms: C5_5  and  O6_6 
ROOT
HETATM    1  C1  UNL     1     -35.426   6.174   4.448  1.00 20.00     0.099 A 
HETATM    2  C2  UNL     1     -34.060   6.688   4.803  1.00 20.00     0.181 A 
HETATM    3  C3  UNL     1     -34.495   5.325   5.266  1.00 20.00     0.207 A 
HETATM    4  F7  UNL     1     -34.806   5.220   6.617  1.00 20.00    -0.223 F 
HETATM    5 CL8  UNL     1     -33.816   3.884   4.535  1.00 20.00    -0.080 Cl
ENDROOT
BRANCH   2   6
HETATM    6  O6  UNL     1     -33.112   6.755   3.725  1.00 20.00    -0.382 OA
BRANCH   6   7
HETATM    7  C5  UNL     1     -32.517   8.037   3.653  1.00 20.00     0.164 C 
HETATM    8  C4  UNL     1     -32.566   8.682   5.022  1.00 20.00     0.033 C 
ENDBRANCH   6   7
ENDBRANCH   2   6
TORSDOF 2
ENDMDL
MODEL 4
REMARK VINA RESULT:      -4.1      2.665      3.775
REMARK  2 active torsions:
REMARK  status: ('A' for Active; 'I' for Inactive)
REMARK    1  A    between atoms: C2_2  and  O6_6 
REMARK    2  A    between atoms: C5_5  and  O6_6 
ROOT
HETATM    1  C1  UNL     1     -32.241   8.470   4.848  1.00 20.00     0.099 A 
HETATM    2  C2  UNL     1     -33.688   8.246   4.512  1.00 20.00     0.181 A 
HETATM    3  C3  UNL     1     -32.663   8.318   3.414  1.00 20.00     0.207 A 
HETATM    4  F7  UNL     1     -32.670   9.488   2.661  1.00 20.00    -0.223 F 
HETATM    5 CL8  UNL     1     -32.187   6.869   2.551  1.00 20.00    -0.080 Cl
ENDROOT
BRANCH   2   6
HETATM    6  O6  UNL     1     -34.219   6.952   4.845  1.00 20.00    -0.382 OA
BRANCH   6   7
HETATM    7  C5  UNL     1     -34.165   6.727   6.241  1.00 20.00     0.164 C 
HETATM    8  C4  UNL     1     -34.504   5.279   6.521  1.00 20.00     0.033 C 
ENDBRANCH   6   7
ENDBRANCH   2   6
TORSDOF 2
ENDMDL
MODEL 5
REMARK VINA RESULT:      -4.0      2.621      2.939
REMARK  2 active torsions:
REMARK  status: ('A' for Active; 'I' for Inactive)
REMARK    1  A    between atoms: C2_2  and  O6_6 
REMARK    2  A    between atoms: C5_5  and  O6_6 
ROOT
HETATM    1  C1  UNL     1     -33.826   5.389   6.368  1.00 20.00     0.099 A 
HETATM    2  C2  UNL     1     -34.985   5.846   5.528  1.00 20.00     0.181 A 
HETATM    3  C3  UNL     1     -34.107   6.856   6.213  1.00 20.00     0.207 A 
HETATM    4  F7  UNL     1     -34.664   7.483   7.323  1.00 20.00    -0.223 F 
HETATM    5 CL8  UNL     1     -32.985   7.830   5.282  1.00 20.00    -0.080 Cl
ENDROOT
BRANCH   2   6
HETATM    6  O6  UNL     1     -34.836   5.687   4.108  1.00 20.00    -0.382 OA
BRANCH   6   7
HETATM    7  C5  UNL     1     -33.883   4.684   3.809  1.00 20.00     0.164 C 
HETATM    8  C4  UNL     1     -32.958   5.189   2.723  1.00 20.00     0.033 C 
ENDBRANCH   6   7
ENDBRANCH   2   6
TORSDOF 2
ENDMDL
MODEL 6
REMARK VINA RESULT:      -3.4      2.584      3.608
REMARK  2 active torsions:
REMARK  status: ('A' for Active; 'I' for Inactive)
REMARK    1  A    between atoms: C2_2  and  O6_6 
REMARK    2  A    between atoms: C5_5  and  O6_6 
ROOT
HETATM    1  C1  UNL     1     -34.025   8.130   3.762  1.00 20.00     0.099 A 
HETATM    2  C2  UNL     1     -33.569   7.026   4.673  1.00 20.00     0.181 A 
HETATM    3  C3  UNL     1     -32.578   8.033   4.155  1.00 20.00     0.207 A 
HETATM    4  F7  UNL     1     -31.714   7.573   3.167  1.00 20.00    -0.223 F 
HETATM    5 CL8  UNL     1     -31.918   9.255   5.225  1.00 20.00    -0.080 Cl
ENDROOT
BRANCH   2   6
HETATM    6  O6  UNL     1     -33.974   7.135   6.047  1.00 20.00    -0.382 OA
BRANCH   6   7
HETATM    7  C5  UNL     1     -34.534   5.920   6.507  1.00 20.00     0.164 C 
HETATM    8  C4  UNL     1     -34.654   4.959   5.344  1.00 20.00     0.033 C 
ENDBRANCH   6   7
ENDBRANCH   2   6
TORSDOF 2
ENDMDL
MODEL 7
REMARK VINA RESULT:      -3.3      8.834      9.114
REMARK  2 active torsions:
REMARK  status: ('A' for Active; 'I' for Inactive)
REMARK    1  A    between atoms: C2_2  and  O6_6 
REMARK    2  A    between atoms: C5_5  and  O6_6 
ROOT
HETATM    1  C1  UNL     1     -39.972  11.413   5.914  1.00 20.00     0.099 A 
HETATM    2  C2  UNL     1     -39.965  12.902   5.718  1.00 20.00     0.181 A 
HETATM    3  C3  UNL     1     -38.919  12.050   5.053  1.00 20.00     0.207 A 
HETATM    4  F7  UNL     1     -37.646  12.118   5.610  1.00 20.00    -0.223 F 
HETATM    5 CL8  UNL     1     -38.971  11.773   3.323  1.00 20.00    -0.080 Cl
ENDROOT
BRANCH   2   6
HETATM    6  O6  UNL     1     -41.015  13.433   4.892  1.00 20.00    -0.382 OA
BRANCH   6   7
HETATM    7  C5  UNL     1     -41.870  14.276   5.642  1.00 20.00     0.164 C 
HETATM    8  C4  UNL     1     -41.140  14.744   6.882  1.00 20.00     0.033 C 
ENDBRANCH   6   7
ENDBRANCH   2   6
TORSDOF 2
ENDMDL
MODEL 8
REMARK VINA RESULT:      -3.3      9.512      9.673
REMARK  2 active torsions:
REMARK  status: ('A' for Active; 'I' for Inactive)
REMARK    1  A    between atoms: C2_2  and  O6_6 
REMARK    2  A    between atoms: C5_5  and  O6_6 
ROOT
HETATM    1  C1  UNL     1     -42.017  12.595   6.729  1.00 20.00     0.099 A 
HETATM    2  C2  UNL     1     -40.743  12.714   5.942  1.00 20.00     0.181 A 
HETATM    3  C3  UNL     1     -41.220  13.866   6.783  1.00 20.00     0.207 A 
HETATM    4  F7  UNL     1     -41.753  14.943   6.081  1.00 20.00    -0.223 F 
HETATM    5 CL8  UNL     1     -40.394  14.274   8.275  1.00 20.00    -0.080 Cl
ENDROOT
BRANCH   2   6
HETATM    6  O6  UNL     1     -39.628  11.950   6.429  1.00 20.00    -0.382 OA
BRANCH   6   7
HETATM    7  C5  UNL     1     -38.544  12.001   5.520  1.00 20.00     0.164 C 
HETATM    8  C4  UNL     1     -39.051  11.689   4.128  1.00 20.00     0.033 C 
ENDBRANCH   6   7
ENDBRANCH   2   6
TORSDOF 2
ENDMDL
MODEL 9
REMARK VINA RESULT:      -3.1      8.905      9.208
REMARK  2 active torsions:
REMARK  status: ('A' for Active; 'I' for Inactive)
REMARK    1  A    between atoms: C2_2  and  O6_6 
REMARK    2  A    between atoms: C5_5  and  O6_6 
ROOT
HETATM    1  C1  UNL     1     -40.433  12.934   4.837  1.00 20.00     0.099 A 
HETATM    2  C2  UNL     1     -40.714  12.179   6.104  1.00 20.00     0.181 A 
HETATM    3  C3  UNL     1     -39.550  11.787   5.236  1.00 20.00     0.207 A 
HETATM    4  F7  UNL     1     -39.715  10.616   4.502  1.00 20.00    -0.223 F 
HETATM    5 CL8  UNL     1     -37.909  12.132   5.746  1.00 20.00    -0.080 Cl
ENDROOT
BRANCH   2   6
HETATM    6  O6  UNL     1     -40.427  12.874   7.329  1.00 20.00    -0.382 OA
BRANCH   6   7
HETATM    7  C5  UNL     1     -41.259  14.011   7.471  1.00 20.00     0.164 C 
HETATM    8  C4  UNL     1     -40.417  15.186   7.921  1.00 20.00     0.033 C 
ENDBRANCH   6   7
ENDBRANCH   2   6
TORSDOF 2
ENDMDL
