MODEL 1
REMARK VINA RESULT:      -3.0      0.000      0.000
REMARK  0 active torsions:
REMARK  status: ('A' for Active; 'I' for Inactive)
ROOT
HETATM    1  C1  UNL     1     -34.301   6.047   4.705  1.00 20.00     0.227 C 
HETATM    2 CL2  UNL     1     -34.227   5.012   6.144  1.00 20.00    -0.076 Cl
HETATM    3 CL3  UNL     1     -35.978   6.210   4.150  1.00 20.00    -0.076 Cl
HETATM    4 BR4  UNL     1     -33.620   7.815   5.170  1.00 20.00    -0.037 Br
HETATM    5 BR5  UNL     1     -33.246   5.226   3.286  1.00 20.00    -0.037 Br
ENDROOT
TORSDOF 0
ENDMDL
MODEL 2
REMARK VINA RESULT:      -3.0      0.001      2.748
REMARK  0 active torsions:
REMARK  status: ('A' for Active; 'I' for Inactive)
ROOT
HETATM    1  C1  UNL     1     -34.300   6.048   4.706  1.00 20.00     0.227 C 
HETATM    2 CL2  UNL     1     -35.977   6.211   4.149  1.00 20.00    -0.076 Cl
HETATM    3 CL3  UNL     1     -34.227   5.011   6.143  1.00 20.00    -0.076 Cl
HETATM    4 BR4  UNL     1     -33.246   5.226   3.285  1.00 20.00    -0.037 Br
HETATM    5 BR5  UNL     1     -33.619   7.815   5.170  1.00 20.00    -0.037 Br
ENDROOT
TORSDOF 0
ENDMDL
MODEL 3
REMARK VINA RESULT:      -3.0      1.864      2.372
REMARK  0 active torsions:
REMARK  status: ('A' for Active; 'I' for Inactive)
ROOT
HETATM    1  C1  UNL     1     -34.343   6.118   4.601  1.00 20.00     0.227 C 
HETATM    2 CL2  UNL     1     -36.025   6.277   4.060  1.00 20.00    -0.076 Cl
HETATM    3 CL3  UNL     1     -33.418   5.132   3.452  1.00 20.00    -0.076 Cl
HETATM    4 BR4  UNL     1     -33.543   7.895   4.688  1.00 20.00    -0.037 Br
HETATM    5 BR5  UNL     1     -34.324   5.239   6.341  1.00 20.00    -0.037 Br
ENDROOT
TORSDOF 0
ENDMDL
MODEL 4
REMARK VINA RESULT:      -3.0      1.864      2.264
REMARK  0 active torsions:
REMARK  status: ('A' for Active; 'I' for Inactive)
ROOT
HETATM    1  C1  UNL     1     -34.343   6.119   4.600  1.00 20.00     0.227 C 
HETATM    2 CL2  UNL     1     -33.418   5.132   3.453  1.00 20.00    -0.076 Cl
HETATM    3 CL3  UNL     1     -36.025   6.276   4.060  1.00 20.00    -0.076 Cl
HETATM    4 BR4  UNL     1     -34.323   5.239   6.342  1.00 20.00    -0.037 Br
HETATM    5 BR5  UNL     1     -33.543   7.895   4.688  1.00 20.00    -0.037 Br
ENDROOT
TORSDOF 0
ENDMDL
MODEL 5
REMARK VINA RESULT:      -2.9      1.841      2.233
REMARK  0 active torsions:
REMARK  status: ('A' for Active; 'I' for Inactive)
ROOT
HETATM    1  C1  UNL     1     -34.355   6.223   4.596  1.00 20.00     0.227 C 
HETATM    2 CL2  UNL     1     -36.041   6.189   4.044  1.00 20.00    -0.076 Cl
HETATM    3 CL3  UNL     1     -33.792   7.898   4.751  1.00 20.00    -0.076 Cl
HETATM    4 BR4  UNL     1     -34.252   5.362   6.344  1.00 20.00    -0.037 Br
HETATM    5 BR5  UNL     1     -33.245   5.306   3.281  1.00 20.00    -0.037 Br
ENDROOT
TORSDOF 0
ENDMDL
MODEL 6
REMARK VINA RESULT:      -2.9      1.841      2.487
REMARK  0 active torsions:
REMARK  status: ('A' for Active; 'I' for Inactive)
ROOT
HETATM    1  C1  UNL     1     -34.357   6.220   4.597  1.00 20.00     0.227 C 
HETATM    2 CL2  UNL     1     -33.790   7.895   4.748  1.00 20.00    -0.076 Cl
HETATM    3 CL3  UNL     1     -36.042   6.189   4.045  1.00 20.00    -0.076 Cl
HETATM    4 BR4  UNL     1     -33.248   5.300   3.281  1.00 20.00    -0.037 Br
HETATM    5 BR5  UNL     1     -34.252   5.362   6.345  1.00 20.00    -0.037 Br
ENDROOT
TORSDOF 0
ENDMDL
MODEL 7
REMARK VINA RESULT:      -2.7     16.674     17.152
REMARK  0 active torsions:
REMARK  status: ('A' for Active; 'I' for Inactive)
ROOT
HETATM    1  C1  UNL     1     -24.256  18.019  11.471  1.00 20.00     0.227 C 
HETATM    2 CL2  UNL     1     -24.479  16.263  11.585  1.00 20.00    -0.076 Cl
HETATM    3 CL3  UNL     1     -24.191  18.522   9.772  1.00 20.00    -0.076 Cl
HETATM    4 BR4  UNL     1     -25.771  18.900  12.329  1.00 20.00    -0.037 Br
HETATM    5 BR5  UNL     1     -22.572  18.494  12.332  1.00 20.00    -0.037 Br
ENDROOT
TORSDOF 0
ENDMDL
MODEL 8
REMARK VINA RESULT:      -2.6     16.954     17.364
REMARK  0 active torsions:
REMARK  status: ('A' for Active; 'I' for Inactive)
ROOT
HETATM    1  C1  UNL     1     -24.079  18.168  11.600  1.00 20.00     0.227 C 
HETATM    2 CL2  UNL     1     -22.515  18.574  12.332  1.00 20.00    -0.076 Cl
HETATM    3 CL3  UNL     1     -25.371  19.139  12.331  1.00 20.00    -0.076 Cl
HETATM    4 BR4  UNL     1     -23.999  18.566   9.691  1.00 20.00    -0.037 Br
HETATM    5 BR5  UNL     1     -24.452  16.281  11.922  1.00 20.00    -0.037 Br
ENDROOT
TORSDOF 0
ENDMDL
MODEL 9
REMARK VINA RESULT:      -2.6     16.594     17.333
REMARK  0 active torsions:
REMARK  status: ('A' for Active; 'I' for Inactive)
ROOT
HETATM    1  C1  UNL     1     -24.166  18.121  11.449  1.00 20.00     0.227 C 
HETATM    2 CL2  UNL     1     -24.401  16.362  11.461  1.00 20.00    -0.076 Cl
HETATM    3 CL3  UNL     1     -22.688  18.550  12.330  1.00 20.00    -0.076 Cl
HETATM    4 BR4  UNL     1     -23.990  18.717   9.600  1.00 20.00    -0.037 Br
HETATM    5 BR5  UNL     1     -25.689  18.963  12.329  1.00 20.00    -0.037 Br
ENDROOT
TORSDOF 0
ENDMDL
