MODEL 1
REMARK VINA RESULT:      -4.8      0.000      0.000
REMARK  2 active torsions:
REMARK  status: ('A' for Active; 'I' for Inactive)
REMARK    1  A    between atoms: C3_3  and  C4_4 
REMARK    2  A    between atoms: C5_5  and  C9_9 
ROOT
HETATM    1  C1  UNL     1     -30.897  18.574   0.996  1.00 20.00    -0.024 C 
HETATM    2  C2  UNL     1     -31.839  18.909   1.894  1.00 20.00    -0.087 C 
HETATM    3  C6  UNL     1     -31.193  18.251  -0.440  1.00 20.00     0.036 C 
HETATM    4  C7  UNL     1     -33.302  18.955   1.535  1.00 20.00     0.034 C 
HETATM    5  C8  UNL     1     -33.628  18.283   0.197  1.00 20.00     0.013 C 
HETATM    6  C9  UNL     1     -32.607  18.664  -0.880  1.00 20.00     0.018 C 
HETATM    7  C10 UNL     1     -31.495  19.263   3.311  1.00 20.00     0.043 C 
ENDROOT
BRANCH   6   8
HETATM    8  C5  UNL     1     -32.956  18.051  -2.202  1.00 20.00    -0.076 C 
HETATM    9  C3  UNL     1     -33.244  16.758  -2.434  1.00 20.00     0.044 C 
HETATM   10  C11 UNL     1     -32.970  19.033  -3.345  1.00 20.00     0.044 C 
BRANCH   9  11
HETATM   11  C4  UNL     1     -33.585  16.180  -3.752  1.00 20.00     0.259 C 
HETATM   12  O12 UNL     1     -33.459  14.982  -3.981  1.00 20.00    -0.302 OA
ENDBRANCH   9  11
ENDBRANCH   6   8
TORSDOF 2
ENDMDL
MODEL 2
REMARK VINA RESULT:      -4.7      2.400      5.944
REMARK  2 active torsions:
REMARK  status: ('A' for Active; 'I' for Inactive)
REMARK    1  A    between atoms: C3_3  and  C4_4 
REMARK    2  A    between atoms: C5_5  and  C9_9 
ROOT
HETATM    1  C1  UNL     1     -34.010  15.013  -4.574  1.00 20.00    -0.024 C 
HETATM    2  C2  UNL     1     -35.056  15.470  -5.284  1.00 20.00    -0.087 C 
HETATM    3  C6  UNL     1     -33.267  15.836  -3.562  1.00 20.00     0.036 C 
HETATM    4  C7  UNL     1     -35.557  16.885  -5.144  1.00 20.00     0.034 C 
HETATM    5  C8  UNL     1     -34.588  17.809  -4.399  1.00 20.00     0.013 C 
HETATM    6  C9  UNL     1     -34.008  17.122  -3.158  1.00 20.00     0.018 C 
HETATM    7  C10 UNL     1     -35.795  14.600  -6.258  1.00 20.00     0.043 C 
ENDROOT
BRANCH   6   8
HETATM    8  C5  UNL     1     -33.103  18.045  -2.399  1.00 20.00    -0.076 C 
HETATM    9  C3  UNL     1     -32.662  17.876  -1.140  1.00 20.00     0.044 C 
HETATM   10  C11 UNL     1     -32.681  19.263  -3.179  1.00 20.00     0.044 C 
BRANCH   9  11
HETATM   11  C4  UNL     1     -31.768  18.805  -0.415  1.00 20.00     0.259 C 
HETATM   12  O12 UNL     1     -30.551  18.659  -0.416  1.00 20.00    -0.302 OA
ENDBRANCH   9  11
ENDBRANCH   6   8
TORSDOF 2
ENDMDL
MODEL 3
REMARK VINA RESULT:      -4.7      0.970      1.781
REMARK  2 active torsions:
REMARK  status: ('A' for Active; 'I' for Inactive)
REMARK    1  A    between atoms: C3_3  and  C4_4 
REMARK    2  A    between atoms: C5_5  and  C9_9 
ROOT
HETATM    1  C1  UNL     1     -33.403  18.596   1.157  1.00 20.00    -0.024 C 
HETATM    2  C2  UNL     1     -32.080  18.783   1.298  1.00 20.00    -0.087 C 
HETATM    3  C6  UNL     1     -34.042  18.083  -0.101  1.00 20.00     0.036 C 
HETATM    4  C7  UNL     1     -31.113  18.522   0.172  1.00 20.00     0.034 C 
HETATM    5  C8  UNL     1     -31.789  18.355  -1.192  1.00 20.00     0.013 C 
HETATM    6  C9  UNL     1     -33.036  17.470  -1.090  1.00 20.00     0.018 C 
HETATM    7  C10 UNL     1     -31.480  19.261   2.588  1.00 20.00     0.043 C 
ENDROOT
BRANCH   6   8
HETATM    8  C5  UNL     1     -33.667  17.262  -2.434  1.00 20.00    -0.076 C 
HETATM    9  C3  UNL     1     -33.404  16.263  -3.295  1.00 20.00     0.044 C 
HETATM   10  C11 UNL     1     -34.688  18.308  -2.796  1.00 20.00     0.044 C 
BRANCH   9  11
HETATM   11  C4  UNL     1     -34.043  16.083  -4.617  1.00 20.00     0.259 C 
HETATM   12  O12 UNL     1     -34.028  15.002  -5.196  1.00 20.00    -0.302 OA
ENDBRANCH   9  11
ENDBRANCH   6   8
TORSDOF 2
ENDMDL
MODEL 4
REMARK VINA RESULT:      -4.3      2.186      3.850
REMARK  2 active torsions:
REMARK  status: ('A' for Active; 'I' for Inactive)
REMARK    1  A    between atoms: C3_3  and  C4_4 
REMARK    2  A    between atoms: C5_5  and  C9_9 
ROOT
HETATM    1  C1  UNL     1     -32.655  19.207  -2.853  1.00 20.00    -0.024 C 
HETATM    2  C2  UNL     1     -32.639  18.453  -1.742  1.00 20.00    -0.087 C 
HETATM    3  C6  UNL     1     -33.302  18.782  -4.139  1.00 20.00     0.036 C 
HETATM    4  C7  UNL     1     -33.251  17.076  -1.703  1.00 20.00     0.034 C 
HETATM    5  C8  UNL     1     -33.578  16.511  -3.089  1.00 20.00     0.013 C 
HETATM    6  C9  UNL     1     -34.234  17.569  -3.982  1.00 20.00     0.018 C 
HETATM    7  C10 UNL     1     -32.015  18.935  -0.465  1.00 20.00     0.043 C 
ENDROOT
BRANCH   6   8
HETATM    8  C5  UNL     1     -34.604  17.001  -5.319  1.00 20.00    -0.076 C 
HETATM    9  C3  UNL     1     -34.788  15.703  -5.613  1.00 20.00     0.044 C 
HETATM   10  C11 UNL     1     -34.772  18.040  -6.396  1.00 20.00     0.044 C 
BRANCH   9  11
HETATM   11  C4  UNL     1     -35.152  15.170  -6.944  1.00 20.00     0.259 C 
HETATM   12  O12 UNL     1     -36.032  14.327  -7.081  1.00 20.00    -0.302 OA
ENDBRANCH   9  11
ENDBRANCH   6   8
TORSDOF 2
ENDMDL
MODEL 5
REMARK VINA RESULT:      -4.3      2.498      4.038
REMARK  2 active torsions:
REMARK  status: ('A' for Active; 'I' for Inactive)
REMARK    1  A    between atoms: C3_3  and  C4_4 
REMARK    2  A    between atoms: C5_5  and  C9_9 
ROOT
HETATM    1  C1  UNL     1     -33.351  16.779  -1.949  1.00 20.00    -0.024 C 
HETATM    2  C2  UNL     1     -33.967  17.818  -1.361  1.00 20.00    -0.087 C 
HETATM    3  C6  UNL     1     -33.512  16.428  -3.400  1.00 20.00     0.036 C 
HETATM    4  C7  UNL     1     -34.917  18.714  -2.115  1.00 20.00     0.034 C 
HETATM    5  C8  UNL     1     -35.353  18.144  -3.469  1.00 20.00     0.013 C 
HETATM    6  C9  UNL     1     -34.165  17.546  -4.230  1.00 20.00     0.018 C 
HETATM    7  C10 UNL     1     -33.747  18.157   0.084  1.00 20.00     0.043 C 
ENDROOT
BRANCH   6   8
HETATM    8  C5  UNL     1     -34.581  17.039  -5.578  1.00 20.00    -0.076 C 
HETATM    9  C3  UNL     1     -34.909  15.773  -5.890  1.00 20.00     0.044 C 
HETATM   10  C11 UNL     1     -34.615  18.102  -6.644  1.00 20.00     0.044 C 
BRANCH   9  11
HETATM   11  C4  UNL     1     -35.316  15.301  -7.231  1.00 20.00     0.259 C 
HETATM   12  O12 UNL     1     -36.094  14.364  -7.374  1.00 20.00    -0.302 OA
ENDBRANCH   9  11
ENDBRANCH   6   8
TORSDOF 2
ENDMDL
MODEL 6
REMARK VINA RESULT:      -3.9     11.542     12.058
REMARK  2 active torsions:
REMARK  status: ('A' for Active; 'I' for Inactive)
REMARK    1  A    between atoms: C3_3  and  C4_4 
REMARK    2  A    between atoms: C5_5  and  C9_9 
ROOT
HETATM    1  C1  UNL     1     -34.416   5.239   4.668  1.00 20.00    -0.024 C 
HETATM    2  C2  UNL     1     -34.477   5.676   5.936  1.00 20.00    -0.087 C 
HETATM    3  C6  UNL     1     -33.784   6.014   3.548  1.00 20.00     0.036 C 
HETATM    4  C7  UNL     1     -33.937   7.024   6.342  1.00 20.00     0.034 C 
HETATM    5  C8  UNL     1     -33.632   7.946   5.156  1.00 20.00     0.013 C 
HETATM    6  C9  UNL     1     -32.917   7.188   4.033  1.00 20.00     0.018 C 
HETATM    7  C10 UNL     1     -35.083   4.850   7.033  1.00 20.00     0.043 C 
ENDROOT
BRANCH   6   8
HETATM    8  C5  UNL     1     -32.569   8.101   2.896  1.00 20.00    -0.076 C 
HETATM    9  C3  UNL     1     -32.331   7.740   1.623  1.00 20.00     0.044 C 
HETATM   10  C11 UNL     1     -32.496   9.555   3.283  1.00 20.00     0.044 C 
BRANCH   9  11
HETATM   11  C4  UNL     1     -31.989   8.665   0.521  1.00 20.00     0.259 C 
HETATM   12  O12 UNL     1     -32.841   9.355  -0.027  1.00 20.00    -0.302 OA
ENDBRANCH   9  11
ENDBRANCH   6   8
TORSDOF 2
ENDMDL
MODEL 7
REMARK VINA RESULT:      -3.9     11.126     12.429
REMARK  2 active torsions:
REMARK  status: ('A' for Active; 'I' for Inactive)
REMARK    1  A    between atoms: C3_3  and  C4_4 
REMARK    2  A    between atoms: C5_5  and  C9_9 
ROOT
HETATM    1  C1  UNL     1     -42.534  14.645   9.272  1.00 20.00    -0.024 C 
HETATM    2  C2  UNL     1     -41.795  15.708   9.629  1.00 20.00    -0.087 C 
HETATM    3  C6  UNL     1     -42.186  13.733   8.130  1.00 20.00     0.036 C 
HETATM    4  C7  UNL     1     -40.550  16.102   8.876  1.00 20.00     0.034 C 
HETATM    5  C8  UNL     1     -40.404  15.404   7.520  1.00 20.00     0.013 C 
HETATM    6  C9  UNL     1     -40.746  13.914   7.623  1.00 20.00     0.018 C 
HETATM    7  C10 UNL     1     -42.159  16.570  10.802  1.00 20.00     0.043 C 
ENDROOT
BRANCH   6   8
HETATM    8  C5  UNL     1     -40.551  13.219   6.309  1.00 20.00    -0.076 C 
HETATM    9  C3  UNL     1     -39.672  12.237   6.046  1.00 20.00     0.044 C 
HETATM   10  C11 UNL     1     -41.460  13.717   5.216  1.00 20.00     0.044 C 
BRANCH   9  11
HETATM   11  C4  UNL     1     -39.501  11.569   4.737  1.00 20.00     0.259 C 
HETATM   12  O12 UNL     1     -38.481  11.712   4.071  1.00 20.00    -0.302 OA
ENDBRANCH   9  11
ENDBRANCH   6   8
TORSDOF 2
ENDMDL
MODEL 8
REMARK VINA RESULT:      -3.8      2.840      6.328
REMARK  2 active torsions:
REMARK  status: ('A' for Active; 'I' for Inactive)
REMARK    1  A    between atoms: C3_3  and  C4_4 
REMARK    2  A    between atoms: C5_5  and  C9_9 
ROOT
HETATM    1  C1  UNL     1     -36.278  18.181  -4.991  1.00 20.00    -0.024 C 
HETATM    2  C2  UNL     1     -35.915  17.272  -5.910  1.00 20.00    -0.087 C 
HETATM    3  C6  UNL     1     -35.448  18.529  -3.789  1.00 20.00     0.036 C 
HETATM    4  C7  UNL     1     -34.634  16.486  -5.791  1.00 20.00     0.034 C 
HETATM    5  C8  UNL     1     -33.985  16.576  -4.406  1.00 20.00     0.013 C 
HETATM    6  C9  UNL     1     -34.002  18.013  -3.876  1.00 20.00     0.018 C 
HETATM    7  C10 UNL     1     -36.757  16.984  -7.118  1.00 20.00     0.043 C 
ENDROOT
BRANCH   6   8
HETATM    8  C5  UNL     1     -33.318  18.111  -2.546  1.00 20.00    -0.076 C 
HETATM    9  C3  UNL     1     -32.542  19.122  -2.118  1.00 20.00     0.044 C 
HETATM   10  C11 UNL     1     -33.565  16.929  -1.646  1.00 20.00     0.044 C 
BRANCH   9  11
HETATM   11  C4  UNL     1     -31.878  19.191  -0.798  1.00 20.00     0.259 C 
HETATM   12  O12 UNL     1     -30.769  18.704  -0.610  1.00 20.00    -0.302 OA
ENDBRANCH   9  11
ENDBRANCH   6   8
TORSDOF 2
ENDMDL
MODEL 9
REMARK VINA RESULT:      -3.5     11.504     12.089
REMARK  2 active torsions:
REMARK  status: ('A' for Active; 'I' for Inactive)
REMARK    1  A    between atoms: C3_3  and  C4_4 
REMARK    2  A    between atoms: C5_5  and  C9_9 
ROOT
HETATM    1  C1  UNL     1     -42.290  17.167   6.151  1.00 20.00    -0.024 C 
HETATM    2  C2  UNL     1     -41.649  17.787   7.156  1.00 20.00    -0.087 C 
HETATM    3  C6  UNL     1     -42.211  15.689   5.899  1.00 20.00     0.036 C 
HETATM    4  C7  UNL     1     -40.750  17.041   8.109  1.00 20.00     0.034 C 
HETATM    5  C8  UNL     1     -40.389  15.629   7.636  1.00 20.00     0.013 C 
HETATM    6  C9  UNL     1     -41.616  14.900   7.076  1.00 20.00     0.018 C 
HETATM    7  C10 UNL     1     -41.788  19.262   7.396  1.00 20.00     0.043 C 
ENDROOT
BRANCH   6   8
HETATM    8  C5  UNL     1     -41.275  13.500   6.664  1.00 20.00    -0.076 C 
HETATM    9  C3  UNL     1     -40.102  13.077   6.161  1.00 20.00     0.044 C 
HETATM   10  C11 UNL     1     -42.400  12.517   6.857  1.00 20.00     0.044 C 
BRANCH   9  11
HETATM   11  C4  UNL     1     -39.794  11.687   5.761  1.00 20.00     0.259 C 
HETATM   12  O12 UNL     1     -39.472  11.405   4.612  1.00 20.00    -0.302 OA
ENDBRANCH   9  11
ENDBRANCH   6   8
TORSDOF 2
ENDMDL
