MODEL 1
REMARK VINA RESULT:      -4.1      0.000      0.000
REMARK  1 active torsions:
REMARK  status: ('A' for Active; 'I' for Inactive)
REMARK    1  A    between atoms: C1_1  and  C2_2 
ROOT
HETATM    1  C1  UNL     1     -33.829   6.888   5.954  1.00 20.00     0.314 C 
HETATM    2  F3  UNL     1     -34.542   7.336   7.022  1.00 20.00    -0.228 F 
HETATM    3 CL5  UNL     1     -33.389   8.280   4.941  1.00 20.00    -0.085 Cl
ENDROOT
BRANCH   1   4
HETATM    4  C2  UNL     1     -34.665   5.898   5.169  1.00 20.00     0.314 C 
HETATM    5  F4  UNL     1     -34.881   4.789   5.926  1.00 20.00    -0.228 F 
HETATM    6 CL6  UNL     1     -33.829   5.413   3.677  1.00 20.00    -0.085 Cl
ENDBRANCH   1   4
TORSDOF 1
ENDMDL
MODEL 2
REMARK VINA RESULT:      -4.1      0.048      2.591
REMARK  1 active torsions:
REMARK  status: ('A' for Active; 'I' for Inactive)
REMARK    1  A    between atoms: C1_1  and  C2_2 
ROOT
HETATM    1  C1  UNL     1     -34.659   5.897   5.151  1.00 20.00     0.314 C 
HETATM    2  F3  UNL     1     -34.875   4.808   5.937  1.00 20.00    -0.228 F 
HETATM    3 CL5  UNL     1     -33.814   5.375   3.677  1.00 20.00    -0.085 Cl
ENDROOT
BRANCH   1   4
HETATM    4  C2  UNL     1     -33.828   6.911   5.912  1.00 20.00     0.314 C 
HETATM    5  F4  UNL     1     -34.525   7.340   6.998  1.00 20.00    -0.228 F 
HETATM    6 CL6  UNL     1     -33.454   8.313   4.887  1.00 20.00    -0.085 Cl
ENDBRANCH   1   4
TORSDOF 1
ENDMDL
MODEL 3
REMARK VINA RESULT:      -4.0      1.930      3.054
REMARK  1 active torsions:
REMARK  status: ('A' for Active; 'I' for Inactive)
REMARK    1  A    between atoms: C1_1  and  C2_2 
ROOT
HETATM    1  C1  UNL     1     -34.262   5.316   3.995  1.00 20.00     0.314 C 
HETATM    2  F3  UNL     1     -34.081   4.245   4.812  1.00 20.00    -0.228 F 
HETATM    3 CL5  UNL     1     -32.984   5.310   2.759  1.00 20.00    -0.085 Cl
ENDROOT
BRANCH   1   4
HETATM    4  C2  UNL     1     -34.207   6.590   4.814  1.00 20.00     0.314 C 
HETATM    5  F4  UNL     1     -33.007   7.200   4.620  1.00 20.00    -0.228 F 
HETATM    6 CL6  UNL     1     -34.388   6.231   6.546  1.00 20.00    -0.085 Cl
ENDBRANCH   1   4
TORSDOF 1
ENDMDL
MODEL 4
REMARK VINA RESULT:      -4.0      1.474      2.556
REMARK  1 active torsions:
REMARK  status: ('A' for Active; 'I' for Inactive)
REMARK    1  A    between atoms: C1_1  and  C2_2 
ROOT
HETATM    1  C1  UNL     1     -34.521   6.444   6.064  1.00 20.00     0.314 C 
HETATM    2  F3  UNL     1     -33.939   5.437   6.768  1.00 20.00    -0.228 F 
HETATM    3 CL5  UNL     1     -35.315   5.752   4.632  1.00 20.00    -0.085 Cl
ENDROOT
BRANCH   1   4
HETATM    4  C2  UNL     1     -33.463   7.450   5.655  1.00 20.00     0.314 C 
HETATM    5  F4  UNL     1     -33.969   8.707   5.764  1.00 20.00    -0.228 F 
HETATM    6 CL6  UNL     1     -32.962   7.183   3.971  1.00 20.00    -0.085 Cl
ENDBRANCH   1   4
TORSDOF 1
ENDMDL
MODEL 5
REMARK VINA RESULT:      -4.0      1.485      1.485
REMARK  1 active torsions:
REMARK  status: ('A' for Active; 'I' for Inactive)
REMARK    1  A    between atoms: C1_1  and  C2_2 
ROOT
HETATM    1  C1  UNL     1     -33.434   7.453   5.614  1.00 20.00     0.314 C 
HETATM    2  F3  UNL     1     -33.954   8.706   5.706  1.00 20.00    -0.228 F 
HETATM    3 CL5  UNL     1     -32.927   7.170   3.934  1.00 20.00    -0.085 Cl
ENDROOT
BRANCH   1   4
HETATM    4  C2  UNL     1     -34.481   6.441   6.034  1.00 20.00     0.314 C 
HETATM    5  F4  UNL     1     -33.887   5.443   6.741  1.00 20.00    -0.228 F 
HETATM    6 CL6  UNL     1     -35.277   5.733   4.611  1.00 20.00    -0.085 Cl
ENDBRANCH   1   4
TORSDOF 1
ENDMDL
MODEL 6
REMARK VINA RESULT:      -4.0      1.857      2.311
REMARK  1 active torsions:
REMARK  status: ('A' for Active; 'I' for Inactive)
REMARK    1  A    between atoms: C1_1  and  C2_2 
ROOT
HETATM    1  C1  UNL     1     -33.747   7.441   4.653  1.00 20.00     0.314 C 
HETATM    2  F3  UNL     1     -33.392   6.399   3.855  1.00 20.00    -0.228 F 
HETATM    3 CL5  UNL     1     -32.372   8.560   4.772  1.00 20.00    -0.085 Cl
ENDROOT
BRANCH   1   4
HETATM    4  C2  UNL     1     -34.131   6.918   6.023  1.00 20.00     0.314 C 
HETATM    5  F4  UNL     1     -33.036   6.918   6.829  1.00 20.00    -0.228 F 
HETATM    6 CL6  UNL     1     -34.752   5.256   5.909  1.00 20.00    -0.085 Cl
ENDBRANCH   1   4
TORSDOF 1
ENDMDL
MODEL 7
REMARK VINA RESULT:      -4.0      1.861      2.603
REMARK  1 active torsions:
REMARK  status: ('A' for Active; 'I' for Inactive)
REMARK    1  A    between atoms: C1_1  and  C2_2 
ROOT
HETATM    1  C1  UNL     1     -34.117   6.920   6.046  1.00 20.00     0.314 C 
HETATM    2  F3  UNL     1     -33.015   6.907   6.844  1.00 20.00    -0.228 F 
HETATM    3 CL5  UNL     1     -34.749   5.264   5.923  1.00 20.00    -0.085 Cl
ENDROOT
BRANCH   1   4
HETATM    4  C2  UNL     1     -33.740   7.452   4.677  1.00 20.00     0.314 C 
HETATM    5  F4  UNL     1     -33.370   6.417   3.877  1.00 20.00    -0.228 F 
HETATM    6 CL6  UNL     1     -32.381   8.591   4.799  1.00 20.00    -0.085 Cl
ENDBRANCH   1   4
TORSDOF 1
ENDMDL
MODEL 8
REMARK VINA RESULT:      -3.9      2.226      2.394
REMARK  1 active torsions:
REMARK  status: ('A' for Active; 'I' for Inactive)
REMARK    1  A    between atoms: C1_1  and  C2_2 
ROOT
HETATM    1  C1  UNL     1     -33.845   6.808   4.200  1.00 20.00     0.314 C 
HETATM    2  F3  UNL     1     -32.821   6.328   3.445  1.00 20.00    -0.228 F 
HETATM    3 CL5  UNL     1     -33.166   7.651   5.609  1.00 20.00    -0.085 Cl
ENDROOT
BRANCH   1   4
HETATM    4  C2  UNL     1     -34.729   5.657   4.640  1.00 20.00     0.314 C 
HETATM    5  F4  UNL     1     -36.019   5.924   4.302  1.00 20.00    -0.228 F 
HETATM    6 CL6  UNL     1     -34.636   5.432   6.400  1.00 20.00    -0.085 Cl
ENDBRANCH   1   4
TORSDOF 1
ENDMDL
MODEL 9
REMARK VINA RESULT:      -3.9      2.231      2.954
REMARK  1 active torsions:
REMARK  status: ('A' for Active; 'I' for Inactive)
REMARK    1  A    between atoms: C1_1  and  C2_2 
ROOT
HETATM    1  C1  UNL     1     -34.714   5.674   4.625  1.00 20.00     0.314 C 
HETATM    2  F3  UNL     1     -36.008   5.949   4.313  1.00 20.00    -0.228 F 
HETATM    3 CL5  UNL     1     -34.606   5.356   6.371  1.00 20.00    -0.085 Cl
ENDROOT
BRANCH   1   4
HETATM    4  C2  UNL     1     -33.841   6.852   4.241  1.00 20.00     0.314 C 
HETATM    5  F4  UNL     1     -32.810   6.416   3.469  1.00 20.00    -0.228 F 
HETATM    6 CL6  UNL     1     -33.175   7.638   5.689  1.00 20.00    -0.085 Cl
ENDBRANCH   1   4
TORSDOF 1
ENDMDL
