MODEL 1
REMARK VINA RESULT:      -4.2      0.000      0.000
REMARK  1 active torsions:
REMARK  status: ('A' for Active; 'I' for Inactive)
REMARK    1  A    between atoms: C1_1  and  C2_2 
ROOT
HETATM    1  C1  UNL     1     -34.461   5.233   4.453  1.00 20.00     0.314 C 
HETATM    2  F3  UNL     1     -33.989   3.959   4.489  1.00 20.00    -0.228 F 
HETATM    3 CL5  UNL     1     -33.296   6.245   3.573  1.00 20.00    -0.085 Cl
ENDROOT
BRANCH   1   4
HETATM    4  C2  UNL     1     -34.649   5.740   5.869  1.00 20.00     0.314 C 
HETATM    5  F4  UNL     1     -34.055   4.880   6.739  1.00 20.00    -0.228 F 
HETATM    6 CL6  UNL     1     -33.911   7.344   6.066  1.00 20.00    -0.085 Cl
ENDBRANCH   1   4
TORSDOF 1
ENDMDL
MODEL 2
REMARK VINA RESULT:      -4.1      1.946      2.817
REMARK  1 active torsions:
REMARK  status: ('A' for Active; 'I' for Inactive)
REMARK    1  A    between atoms: C1_1  and  C2_2 
ROOT
HETATM    1  C1  UNL     1     -34.012   6.664   5.830  1.00 20.00     0.314 C 
HETATM    2  F3  UNL     1     -34.567   7.196   6.951  1.00 20.00    -0.228 F 
HETATM    3 CL5  UNL     1     -33.771   7.963   4.643  1.00 20.00    -0.085 Cl
ENDROOT
BRANCH   1   4
HETATM    4  C2  UNL     1     -34.930   5.593   5.274  1.00 20.00     0.314 C 
HETATM    5  F4  UNL     1     -35.828   6.164   4.428  1.00 20.00    -0.228 F 
HETATM    6 CL6  UNL     1     -34.001   4.373   4.376  1.00 20.00    -0.085 Cl
ENDBRANCH   1   4
TORSDOF 1
ENDMDL
MODEL 3
REMARK VINA RESULT:      -4.1      2.432      2.453
REMARK  1 active torsions:
REMARK  status: ('A' for Active; 'I' for Inactive)
REMARK    1  A    between atoms: C1_1  and  C2_2 
ROOT
HETATM    1  C1  UNL     1     -33.651   7.446   4.771  1.00 20.00     0.314 C 
HETATM    2  F3  UNL     1     -33.278   6.559   3.810  1.00 20.00    -0.228 F 
HETATM    3 CL5  UNL     1     -32.411   8.713   4.887  1.00 20.00    -0.085 Cl
ENDROOT
BRANCH   1   4
HETATM    4  C2  UNL     1     -33.802   6.721   6.094  1.00 20.00     0.314 C 
HETATM    5  F4  UNL     1     -34.505   7.500   6.957  1.00 20.00    -0.228 F 
HETATM    6 CL6  UNL     1     -34.673   5.188   5.875  1.00 20.00    -0.085 Cl
ENDBRANCH   1   4
TORSDOF 1
ENDMDL
MODEL 4
REMARK VINA RESULT:      -4.1      2.413      2.887
REMARK  1 active torsions:
REMARK  status: ('A' for Active; 'I' for Inactive)
REMARK    1  A    between atoms: C1_1  and  C2_2 
ROOT
HETATM    1  C1  UNL     1     -33.300   7.565   5.240  1.00 20.00     0.314 C 
HETATM    2  F3  UNL     1     -33.947   8.709   5.584  1.00 20.00    -0.228 F 
HETATM    3 CL5  UNL     1     -32.217   7.912   3.875  1.00 20.00    -0.085 Cl
ENDROOT
BRANCH   1   4
HETATM    4  C2  UNL     1     -34.316   6.505   4.862  1.00 20.00     0.314 C 
HETATM    5  F4  UNL     1     -33.803   5.719   3.878  1.00 20.00    -0.228 F 
HETATM    6 CL6  UNL     1     -34.708   5.482   6.260  1.00 20.00    -0.085 Cl
ENDBRANCH   1   4
TORSDOF 1
ENDMDL
MODEL 5
REMARK VINA RESULT:      -4.0      2.133      2.557
REMARK  1 active torsions:
REMARK  status: ('A' for Active; 'I' for Inactive)
REMARK    1  A    between atoms: C1_1  and  C2_2 
ROOT
HETATM    1  C1  UNL     1     -34.466   5.914   4.735  1.00 20.00     0.314 C 
HETATM    2  F3  UNL     1     -35.750   6.057   4.312  1.00 20.00    -0.228 F 
HETATM    3 CL5  UNL     1     -34.481   5.206   6.364  1.00 20.00    -0.085 Cl
ENDROOT
BRANCH   1   4
HETATM    4  C2  UNL     1     -33.786   7.269   4.745  1.00 20.00     0.314 C 
HETATM    5  F4  UNL     1     -33.237   7.489   5.970  1.00 20.00    -0.228 F 
HETATM    6 CL6  UNL     1     -32.496   7.334   3.526  1.00 20.00    -0.085 Cl
ENDBRANCH   1   4
TORSDOF 1
ENDMDL
MODEL 6
REMARK VINA RESULT:      -4.0      2.421      2.751
REMARK  1 active torsions:
REMARK  status: ('A' for Active; 'I' for Inactive)
REMARK    1  A    between atoms: C1_1  and  C2_2 
ROOT
HETATM    1  C1  UNL     1     -33.174   7.649   5.384  1.00 20.00     0.314 C 
HETATM    2  F3  UNL     1     -33.898   8.798   5.440  1.00 20.00    -0.228 F 
HETATM    3 CL5  UNL     1     -32.706   7.354   3.696  1.00 20.00    -0.085 Cl
ENDROOT
BRANCH   1   4
HETATM    4  C2  UNL     1     -34.011   6.502   5.917  1.00 20.00     0.314 C 
HETATM    5  F4  UNL     1     -34.717   6.924   6.999  1.00 20.00    -0.228 F 
HETATM    6 CL6  UNL     1     -35.153   5.930   4.683  1.00 20.00    -0.085 Cl
ENDBRANCH   1   4
TORSDOF 1
ENDMDL
MODEL 7
REMARK VINA RESULT:      -4.0      1.827      1.827
REMARK  1 active torsions:
REMARK  status: ('A' for Active; 'I' for Inactive)
REMARK    1  A    between atoms: C1_1  and  C2_2 
ROOT
HETATM    1  C1  UNL     1     -34.170   5.513   4.033  1.00 20.00     0.314 C 
HETATM    2  F3  UNL     1     -34.232   4.352   4.737  1.00 20.00    -0.228 F 
HETATM    3 CL5  UNL     1     -32.986   5.322   2.723  1.00 20.00    -0.085 Cl
ENDROOT
BRANCH   1   4
HETATM    4  C2  UNL     1     -33.766   6.643   4.960  1.00 20.00     0.314 C 
HETATM    5  F4  UNL     1     -34.222   7.822   4.460  1.00 20.00    -0.228 F 
HETATM    6 CL6  UNL     1     -34.462   6.407   6.578  1.00 20.00    -0.085 Cl
ENDBRANCH   1   4
TORSDOF 1
ENDMDL
MODEL 8
REMARK VINA RESULT:      -3.9      1.552      2.090
REMARK  1 active torsions:
REMARK  status: ('A' for Active; 'I' for Inactive)
REMARK    1  A    between atoms: C1_1  and  C2_2 
ROOT
HETATM    1  C1  UNL     1     -33.964   6.501   4.162  1.00 20.00     0.314 C 
HETATM    2  F3  UNL     1     -32.945   6.080   3.367  1.00 20.00    -0.228 F 
HETATM    3 CL5  UNL     1     -33.296   7.530   5.446  1.00 20.00    -0.085 Cl
ENDROOT
BRANCH   1   4
HETATM    4  C2  UNL     1     -34.671   5.297   4.753  1.00 20.00     0.314 C 
HETATM    5  F4  UNL     1     -34.029   4.163   4.366  1.00 20.00    -0.228 F 
HETATM    6 CL6  UNL     1     -34.665   5.374   6.528  1.00 20.00    -0.085 Cl
ENDBRANCH   1   4
TORSDOF 1
ENDMDL
MODEL 9
REMARK VINA RESULT:      -3.8      2.623      3.182
REMARK  1 active torsions:
REMARK  status: ('A' for Active; 'I' for Inactive)
REMARK    1  A    between atoms: C1_1  and  C2_2 
ROOT
HETATM    1  C1  UNL     1     -33.992   7.150   5.525  1.00 20.00     0.314 C 
HETATM    2  F3  UNL     1     -33.204   6.865   6.595  1.00 20.00    -0.228 F 
HETATM    3 CL5  UNL     1     -34.416   5.630   4.709  1.00 20.00    -0.085 Cl
ENDROOT
BRANCH   1   4
HETATM    4  C2  UNL     1     -33.245   8.074   4.583  1.00 20.00     0.314 C 
HETATM    5  F4  UNL     1     -32.328   8.790   5.287  1.00 20.00    -0.228 F 
HETATM    6 CL6  UNL     1     -32.396   7.142   3.331  1.00 20.00    -0.085 Cl
ENDBRANCH   1   4
TORSDOF 1
ENDMDL
