MODEL 1
REMARK VINA RESULT:      -5.4      0.000      0.000
REMARK  2 active torsions:
REMARK  status: ('A' for Active; 'I' for Inactive)
REMARK    1  A    between atoms: C3_3  and  C9_9 
REMARK    2  A    between atoms: C3_3  and  C10_10 
ROOT
HETATM    1  C3  UNL     1     -33.362   6.279   3.725  1.00 20.00     0.135 C 
HETATM    2  O11 UNL     1     -33.372   5.197   3.141  1.00 20.00    -0.297 OA
ENDROOT
BRANCH   1   3
HETATM    3  C9  UNL     1     -32.266   7.328   3.462  1.00 20.00     0.063 C 
HETATM    4  C4  UNL     1     -31.903   7.606   1.981  1.00 20.00     0.045 C 
HETATM    5  C1  UNL     1     -32.626   8.915   2.178  1.00 20.00    -0.088 C 
HETATM    6  C2  UNL     1     -33.082   9.836   1.326  1.00 20.00     0.014 C 
HETATM    7  C5  UNL     1     -32.642   8.816   3.683  1.00 20.00     0.045 C 
ENDBRANCH   1   3
BRANCH   1   8
HETATM    8  C10 UNL     1     -34.405   6.640   4.711  1.00 20.00     0.056 C 
HETATM    9  C7  UNL     1     -35.274   5.462   5.221  1.00 20.00     0.012 C 
HETATM   10  C6  UNL     1     -34.321   5.342   6.426  1.00 20.00     0.002 C 
HETATM   11  C8  UNL     1     -33.911   6.805   6.170  1.00 20.00     0.012 C 
ENDBRANCH   1   8
TORSDOF 2
ENDMDL
MODEL 2
REMARK VINA RESULT:      -4.5      1.470      1.812
REMARK  2 active torsions:
REMARK  status: ('A' for Active; 'I' for Inactive)
REMARK    1  A    between atoms: C3_3  and  C9_9 
REMARK    2  A    between atoms: C3_3  and  C10_10 
ROOT
HETATM    1  C3  UNL     1     -33.663   7.304   5.111  1.00 20.00     0.135 C 
HETATM    2  O11 UNL     1     -33.948   7.595   6.271  1.00 20.00    -0.297 OA
ENDROOT
BRANCH   1   3
HETATM    3  C9  UNL     1     -32.405   7.867   4.424  1.00 20.00     0.063 C 
HETATM    4  C4  UNL     1     -32.188   7.485   2.937  1.00 20.00     0.045 C 
HETATM    5  C1  UNL     1     -32.569   8.914   2.642  1.00 20.00    -0.088 C 
HETATM    6  C2  UNL     1     -32.918   9.545   1.519  1.00 20.00     0.014 C 
HETATM    7  C5  UNL     1     -32.408   9.377   4.069  1.00 20.00     0.045 C 
ENDBRANCH   1   3
BRANCH   1   8
HETATM    8  C10 UNL     1     -34.509   6.394   4.308  1.00 20.00     0.056 C 
HETATM    9  C7  UNL     1     -33.758   5.234   3.607  1.00 20.00     0.012 C 
HETATM   10  C6  UNL     1     -34.116   4.339   4.809  1.00 20.00     0.002 C 
HETATM   11  C8  UNL     1     -35.271   5.312   5.113  1.00 20.00     0.012 C 
ENDBRANCH   1   8
TORSDOF 2
ENDMDL
MODEL 3
REMARK VINA RESULT:      -4.5      0.745      4.436
REMARK  2 active torsions:
REMARK  status: ('A' for Active; 'I' for Inactive)
REMARK    1  A    between atoms: C3_3  and  C9_9 
REMARK    2  A    between atoms: C3_3  and  C10_10 
ROOT
HETATM    1  C3  UNL     1     -32.968   6.748   3.280  1.00 20.00     0.135 C 
HETATM    2  O11 UNL     1     -32.867   5.607   2.833  1.00 20.00    -0.297 OA
ENDROOT
BRANCH   1   3
HETATM    3  C9  UNL     1     -34.090   7.133   4.262  1.00 20.00     0.063 C 
HETATM    4  C4  UNL     1     -35.185   6.068   4.529  1.00 20.00     0.045 C 
HETATM    5  C1  UNL     1     -34.528   5.908   5.877  1.00 20.00    -0.088 C 
HETATM    6  C2  UNL     1     -34.628   4.978   6.829  1.00 20.00     0.014 C 
HETATM    7  C5  UNL     1     -33.725   7.180   5.769  1.00 20.00     0.045 C 
ENDBRANCH   1   3
BRANCH   1   8
HETATM    8  C10 UNL     1     -32.017   7.817   2.903  1.00 20.00     0.056 C 
HETATM    9  C7  UNL     1     -31.941   8.136   1.389  1.00 20.00     0.012 C 
HETATM   10  C6  UNL     1     -32.960   9.267   1.623  1.00 20.00     0.002 C 
HETATM   11  C8  UNL     1     -32.531   9.265   3.104  1.00 20.00     0.012 C 
ENDBRANCH   1   8
TORSDOF 2
ENDMDL
MODEL 4
REMARK VINA RESULT:      -4.2     11.564     12.395
REMARK  2 active torsions:
REMARK  status: ('A' for Active; 'I' for Inactive)
REMARK    1  A    between atoms: C3_3  and  C9_9 
REMARK    2  A    between atoms: C3_3  and  C10_10 
ROOT
HETATM    1  C3  UNL     1     -33.097  18.272  -0.122  1.00 20.00     0.135 C 
HETATM    2  O11 UNL     1     -34.126  17.843   0.396  1.00 20.00    -0.297 OA
ENDROOT
BRANCH   1   3
HETATM    3  C9  UNL     1     -32.641  17.808  -1.518  1.00 20.00     0.063 C 
HETATM    4  C4  UNL     1     -33.504  16.722  -2.211  1.00 20.00     0.045 C 
HETATM    5  C1  UNL     1     -33.967  17.840  -3.112  1.00 20.00    -0.088 C 
HETATM    6  C2  UNL     1     -34.981  17.948  -3.973  1.00 20.00     0.014 C 
HETATM    7  C5  UNL     1     -32.869  18.787  -2.699  1.00 20.00     0.045 C 
ENDBRANCH   1   3
BRANCH   1   8
HETATM    8  C10 UNL     1     -32.236  19.262   0.562  1.00 20.00     0.056 C 
HETATM    9  C7  UNL     1     -32.119  19.092   2.098  1.00 20.00     0.012 C 
HETATM   10  C6  UNL     1     -30.827  18.286   1.862  1.00 20.00     0.002 C 
HETATM   11  C8  UNL     1     -30.714  18.982   0.492  1.00 20.00     0.012 C 
ENDBRANCH   1   8
TORSDOF 2
ENDMDL
MODEL 5
REMARK VINA RESULT:      -4.1     11.803     12.480
REMARK  2 active torsions:
REMARK  status: ('A' for Active; 'I' for Inactive)
REMARK    1  A    between atoms: C3_3  and  C9_9 
REMARK    2  A    between atoms: C3_3  and  C10_10 
ROOT
HETATM    1  C3  UNL     1     -34.163  17.797  -2.387  1.00 20.00     0.135 C 
HETATM    2  O11 UNL     1     -35.197  18.461  -2.410  1.00 20.00    -0.297 OA
ENDROOT
BRANCH   1   3
HETATM    3  C9  UNL     1     -33.516  17.265  -3.679  1.00 20.00     0.063 C 
HETATM    4  C4  UNL     1     -33.210  15.746  -3.735  1.00 20.00     0.045 C 
HETATM    5  C1  UNL     1     -34.372  15.673  -4.695  1.00 20.00    -0.088 C 
HETATM    6  C2  UNL     1     -35.092  14.655  -5.169  1.00 20.00     0.014 C 
HETATM    7  C5  UNL     1     -34.422  17.161  -4.933  1.00 20.00     0.045 C 
ENDBRANCH   1   3
BRANCH   1   8
HETATM    8  C10 UNL     1     -33.476  17.473  -1.117  1.00 20.00     0.056 C 
HETATM    9  C7  UNL     1     -32.090  18.139  -0.922  1.00 20.00     0.012 C 
HETATM   10  C6  UNL     1     -32.792  19.263  -0.136  1.00 20.00     0.002 C 
HETATM   11  C8  UNL     1     -33.950  18.278   0.120  1.00 20.00     0.012 C 
ENDBRANCH   1   8
TORSDOF 2
ENDMDL
MODEL 6
REMARK VINA RESULT:      -4.0     11.595     12.732
REMARK  2 active torsions:
REMARK  status: ('A' for Active; 'I' for Inactive)
REMARK    1  A    between atoms: C3_3  and  C9_9 
REMARK    2  A    between atoms: C3_3  and  C10_10 
ROOT
HETATM    1  C3  UNL     1     -33.643  16.494  -3.917  1.00 20.00     0.135 C 
HETATM    2  O11 UNL     1     -32.851  15.589  -3.659  1.00 20.00    -0.297 OA
ENDROOT
BRANCH   1   3
HETATM    3  C9  UNL     1     -33.994  17.579  -2.881  1.00 20.00     0.063 C 
HETATM    4  C4  UNL     1     -33.740  17.234  -1.391  1.00 20.00     0.045 C 
HETATM    5  C1  UNL     1     -32.581  18.193  -1.494  1.00 20.00    -0.088 C 
HETATM    6  C2  UNL     1     -31.525  18.424  -0.713  1.00 20.00     0.014 C 
HETATM    7  C5  UNL     1     -33.048  18.804  -2.792  1.00 20.00     0.045 C 
ENDBRANCH   1   3
BRANCH   1   8
HETATM    8  C10 UNL     1     -34.303  16.596  -5.237  1.00 20.00     0.056 C 
HETATM    9  C7  UNL     1     -34.280  15.304  -6.093  1.00 20.00     0.012 C 
HETATM   10  C6  UNL     1     -35.677  14.966  -5.536  1.00 20.00     0.002 C 
HETATM   11  C8  UNL     1     -35.847  16.465  -5.220  1.00 20.00     0.012 C 
ENDBRANCH   1   8
TORSDOF 2
ENDMDL
MODEL 7
REMARK VINA RESULT:      -4.0     11.689     13.072
REMARK  2 active torsions:
REMARK  status: ('A' for Active; 'I' for Inactive)
REMARK    1  A    between atoms: C3_3  and  C9_9 
REMARK    2  A    between atoms: C3_3  and  C10_10 
ROOT
HETATM    1  C3  UNL     1     -34.836  17.250  -4.679  1.00 20.00     0.135 C 
HETATM    2  O11 UNL     1     -35.800  17.867  -4.229  1.00 20.00    -0.297 OA
ENDROOT
BRANCH   1   3
HETATM    3  C9  UNL     1     -33.510  17.145  -3.901  1.00 20.00     0.063 C 
HETATM    4  C4  UNL     1     -33.099  18.373  -3.048  1.00 20.00     0.045 C 
HETATM    5  C1  UNL     1     -33.465  17.517  -1.862  1.00 20.00    -0.088 C 
HETATM    6  C2  UNL     1     -33.678  17.796  -0.575  1.00 20.00     0.014 C 
HETATM    7  C5  UNL     1     -33.495  16.230  -2.649  1.00 20.00     0.045 C 
ENDBRANCH   1   3
BRANCH   1   8
HETATM    8  C10 UNL     1     -34.892  16.570  -5.992  1.00 20.00     0.056 C 
HETATM    9  C7  UNL     1     -34.298  15.139  -6.026  1.00 20.00     0.012 C 
HETATM   10  C6  UNL     1     -35.721  14.594  -5.797  1.00 20.00     0.002 C 
HETATM   11  C8  UNL     1     -36.257  15.929  -6.350  1.00 20.00     0.012 C 
ENDBRANCH   1   8
TORSDOF 2
ENDMDL
MODEL 8
REMARK VINA RESULT:      -4.0      1.436      4.112
REMARK  2 active torsions:
REMARK  status: ('A' for Active; 'I' for Inactive)
REMARK    1  A    between atoms: C3_3  and  C9_9 
REMARK    2  A    between atoms: C3_3  and  C10_10 
ROOT
HETATM    1  C3  UNL     1     -33.173   6.598   3.293  1.00 20.00     0.135 C 
HETATM    2  O11 UNL     1     -32.137   6.388   2.665  1.00 20.00    -0.297 OA
ENDROOT
BRANCH   1   3
HETATM    3  C9  UNL     1     -34.149   5.460   3.644  1.00 20.00     0.063 C 
HETATM    4  C4  UNL     1     -33.689   4.451   4.728  1.00 20.00     0.045 C 
HETATM    5  C1  UNL     1     -34.702   5.130   5.615  1.00 20.00    -0.088 C 
HETATM    6  C2  UNL     1     -34.910   5.109   6.933  1.00 20.00     0.014 C 
HETATM    7  C5  UNL     1     -35.402   5.834   4.479  1.00 20.00     0.045 C 
ENDBRANCH   1   3
BRANCH   1   8
HETATM    8  C10 UNL     1     -33.542   7.956   3.752  1.00 20.00     0.056 C 
HETATM    9  C7  UNL     1     -33.291   8.241   5.255  1.00 20.00     0.012 C 
HETATM   10  C6  UNL     1     -31.933   8.854   4.863  1.00 20.00     0.002 C 
HETATM   11  C8  UNL     1     -32.504   9.065   3.447  1.00 20.00     0.012 C 
ENDBRANCH   1   8
TORSDOF 2
ENDMDL
MODEL 9
REMARK VINA RESULT:      -3.9      1.858      4.395
REMARK  2 active torsions:
REMARK  status: ('A' for Active; 'I' for Inactive)
REMARK    1  A    between atoms: C3_3  and  C9_9 
REMARK    2  A    between atoms: C3_3  and  C10_10 
ROOT
HETATM    1  C3  UNL     1     -33.934   7.846   5.662  1.00 20.00     0.135 C 
HETATM    2  O11 UNL     1     -34.355   8.951   6.001  1.00 20.00    -0.297 OA
ENDROOT
BRANCH   1   3
HETATM    3  C9  UNL     1     -34.744   6.561   5.918  1.00 20.00     0.063 C 
HETATM    4  C4  UNL     1     -35.345   5.853   4.676  1.00 20.00     0.045 C 
HETATM    5  C1  UNL     1     -34.275   4.814   4.904  1.00 20.00    -0.088 C 
HETATM    6  C2  UNL     1     -33.796   3.826   4.146  1.00 20.00     0.014 C 
HETATM    7  C5  UNL     1     -33.946   5.287   6.298  1.00 20.00     0.045 C 
ENDBRANCH   1   3
BRANCH   1   8
HETATM    8  C10 UNL     1     -32.629   7.686   4.984  1.00 20.00     0.056 C 
HETATM    9  C7  UNL     1     -32.700   7.384   3.466  1.00 20.00     0.012 C 
HETATM   10  C6  UNL     1     -32.534   8.893   3.205  1.00 20.00     0.002 C 
HETATM   11  C8  UNL     1     -31.908   9.006   4.609  1.00 20.00     0.012 C 
ENDBRANCH   1   8
TORSDOF 2
ENDMDL
