MODEL 1
REMARK VINA RESULT:      -3.3      0.000      0.000
REMARK  1 active torsions:
REMARK  status: ('A' for Active; 'I' for Inactive)
REMARK    1  A    between atoms: C1_1  and  S3_3 
ROOT
HETATM    1  C1  UNL     1     -33.938   5.421   4.090  1.00 20.00     0.295 C 
HETATM    2  O2  UNL     1     -34.625   4.579   4.655  1.00 20.00    -0.266 OA
HETATM    3 CL4  UNL     1     -33.018   5.166   2.635  1.00 20.00    -0.031 Cl
ENDROOT
BRANCH   1   4
HETATM    4  S3  UNL     1     -33.785   7.077   4.707  1.00 20.00     0.036 SA
HETATM    5 CL5  UNL     1     -34.340   6.819   6.647  1.00 20.00    -0.034 Cl
ENDBRANCH   1   4
TORSDOF 1
ENDMDL
MODEL 2
REMARK VINA RESULT:      -3.2      1.628      1.628
REMARK  1 active torsions:
REMARK  status: ('A' for Active; 'I' for Inactive)
REMARK    1  A    between atoms: C1_1  and  S3_3 
ROOT
HETATM    1  C1  UNL     1     -34.034   5.490   4.216  1.00 20.00     0.295 C 
HETATM    2  O2  UNL     1     -34.754   4.641   4.726  1.00 20.00    -0.266 OA
HETATM    3 CL4  UNL     1     -33.095   5.281   2.766  1.00 20.00    -0.031 Cl
ENDROOT
BRANCH   1   4
HETATM    4  S3  UNL     1     -33.847   7.108   4.918  1.00 20.00     0.036 SA
HETATM    5 CL5  UNL     1     -32.264   7.811   3.852  1.00 20.00    -0.034 Cl
ENDBRANCH   1   4
TORSDOF 1
ENDMDL
MODEL 3
REMARK VINA RESULT:      -3.2      1.494      2.775
REMARK  1 active torsions:
REMARK  status: ('A' for Active; 'I' for Inactive)
REMARK    1  A    between atoms: C1_1  and  S3_3 
ROOT
HETATM    1  C1  UNL     1     -34.159   6.168   4.899  1.00 20.00     0.295 C 
HETATM    2  O2  UNL     1     -34.270   5.441   3.920  1.00 20.00    -0.266 OA
HETATM    3 CL4  UNL     1     -34.674   5.776   6.514  1.00 20.00    -0.031 Cl
ENDROOT
BRANCH   1   4
HETATM    4  S3  UNL     1     -33.429   7.782   4.794  1.00 20.00     0.036 SA
HETATM    5 CL5  UNL     1     -32.187   7.539   3.201  1.00 20.00    -0.034 Cl
ENDBRANCH   1   4
TORSDOF 1
ENDMDL
MODEL 4
REMARK VINA RESULT:      -3.2      2.495      2.796
REMARK  1 active torsions:
REMARK  status: ('A' for Active; 'I' for Inactive)
REMARK    1  A    between atoms: C1_1  and  S3_3 
ROOT
HETATM    1  C1  UNL     1     -33.158   7.427   4.743  1.00 20.00     0.295 C 
HETATM    2  O2  UNL     1     -33.148   6.726   3.738  1.00 20.00    -0.266 OA
HETATM    3 CL4  UNL     1     -32.367   8.968   4.908  1.00 20.00    -0.031 Cl
ENDROOT
BRANCH   1   4
HETATM    4  S3  UNL     1     -34.015   6.943   6.218  1.00 20.00     0.036 SA
HETATM    5 CL5  UNL     1     -34.654   5.082   5.701  1.00 20.00    -0.034 Cl
ENDBRANCH   1   4
TORSDOF 1
ENDMDL
MODEL 5
REMARK VINA RESULT:      -3.1      2.317      2.717
REMARK  1 active torsions:
REMARK  status: ('A' for Active; 'I' for Inactive)
REMARK    1  A    between atoms: C1_1  and  S3_3 
ROOT
HETATM    1  C1  UNL     1     -34.019   6.858   5.488  1.00 20.00     0.295 C 
HETATM    2  O2  UNL     1     -34.360   6.863   6.664  1.00 20.00    -0.266 OA
HETATM    3 CL4  UNL     1     -34.458   5.651   4.314  1.00 20.00    -0.031 Cl
ENDROOT
BRANCH   1   4
HETATM    4  S3  UNL     1     -32.993   8.131   4.801  1.00 20.00     0.036 SA
HETATM    5 CL5  UNL     1     -32.277   7.197   3.142  1.00 20.00    -0.034 Cl
ENDBRANCH   1   4
TORSDOF 1
ENDMDL
MODEL 6
REMARK VINA RESULT:      -3.1      2.411      2.411
REMARK  1 active torsions:
REMARK  status: ('A' for Active; 'I' for Inactive)
REMARK    1  A    between atoms: C1_1  and  S3_3 
ROOT
HETATM    1  C1  UNL     1     -33.459   7.384   4.539  1.00 20.00     0.295 C 
HETATM    2  O2  UNL     1     -33.629   8.282   5.354  1.00 20.00    -0.266 OA
HETATM    3 CL4  UNL     1     -32.256   7.373   3.282  1.00 20.00    -0.031 Cl
ENDROOT
BRANCH   1   4
HETATM    4  S3  UNL     1     -34.459   5.919   4.533  1.00 20.00     0.036 SA
HETATM    5 CL5  UNL     1     -34.474   5.454   6.513  1.00 20.00    -0.034 Cl
ENDBRANCH   1   4
TORSDOF 1
ENDMDL
MODEL 7
REMARK VINA RESULT:      -3.1      2.254      2.990
REMARK  1 active torsions:
REMARK  status: ('A' for Active; 'I' for Inactive)
REMARK    1  A    between atoms: C1_1  and  S3_3 
ROOT
HETATM    1  C1  UNL     1     -34.035   6.852   5.476  1.00 20.00     0.295 C 
HETATM    2  O2  UNL     1     -34.294   7.042   6.658  1.00 20.00    -0.266 OA
HETATM    3 CL4  UNL     1     -33.116   7.923   4.458  1.00 20.00    -0.031 Cl
ENDROOT
BRANCH   1   4
HETATM    4  S3  UNL     1     -34.584   5.402   4.615  1.00 20.00     0.036 SA
HETATM    5 CL5  UNL     1     -33.274   5.356   3.061  1.00 20.00    -0.034 Cl
ENDBRANCH   1   4
TORSDOF 1
ENDMDL
MODEL 8
REMARK VINA RESULT:      -3.1      1.749      1.749
REMARK  1 active torsions:
REMARK  status: ('A' for Active; 'I' for Inactive)
REMARK    1  A    between atoms: C1_1  and  S3_3 
ROOT
HETATM    1  C1  UNL     1     -33.439   6.231   3.807  1.00 20.00     0.295 C 
HETATM    2  O2  UNL     1     -32.964   7.330   4.066  1.00 20.00    -0.266 OA
HETATM    3 CL4  UNL     1     -32.877   5.154   2.561  1.00 20.00    -0.031 Cl
ENDROOT
BRANCH   1   4
HETATM    4  S3  UNL     1     -34.818   5.569   4.705  1.00 20.00     0.036 SA
HETATM    5 CL5  UNL     1     -34.460   6.311   6.565  1.00 20.00    -0.034 Cl
ENDBRANCH   1   4
TORSDOF 1
ENDMDL
MODEL 9
REMARK VINA RESULT:      -3.1      2.933      2.933
REMARK  1 active torsions:
REMARK  status: ('A' for Active; 'I' for Inactive)
REMARK    1  A    between atoms: C1_1  and  S3_3 
ROOT
HETATM    1  C1  UNL     1     -32.876   7.896   4.831  1.00 20.00     0.295 C 
HETATM    2  O2  UNL     1     -32.374   8.988   5.069  1.00 20.00    -0.266 OA
HETATM    3 CL4  UNL     1     -32.670   6.986   3.362  1.00 20.00    -0.031 Cl
ENDROOT
BRANCH   1   4
HETATM    4  S3  UNL     1     -33.921   7.068   6.001  1.00 20.00     0.036 SA
HETATM    5 CL5  UNL     1     -34.986   5.847   4.771  1.00 20.00    -0.034 Cl
ENDBRANCH   1   4
TORSDOF 1
ENDMDL
