MODEL 1
REMARK VINA RESULT:      -5.1      0.000      0.000
REMARK  2 active torsions:
REMARK  status: ('A' for Active; 'I' for Inactive)
REMARK    1  A    between atoms: C1_1  and  C2_2 
REMARK    2  A    between atoms: C1_1  and  C3_3 
ROOT
HETATM    1  C1  UNL     1     -33.682   6.728   4.225  1.00 20.00     0.168 C 
ENDROOT
BRANCH   1   2
HETATM    2  C2  UNL     1     -33.098   7.679   5.251  1.00 20.00     0.360 C 
HETATM    3  F4  UNL     1     -31.996   8.276   4.726  1.00 20.00    -0.214 F 
HETATM    4  F5  UNL     1     -33.983   8.671   5.518  1.00 20.00    -0.214 F 
ENDBRANCH   1   2
BRANCH   1   5
HETATM    5  C3  UNL     1     -34.643   5.699   4.800  1.00 20.00     0.325 C 
HETATM    6  F6  UNL     1     -35.901   5.947   4.355  1.00 20.00    -0.188 F 
HETATM    7  F7  UNL     1     -34.304   4.471   4.328  1.00 20.00    -0.188 F 
HETATM    8 CL8  UNL     1     -34.634   5.659   6.571  1.00 20.00    -0.048 Cl
ENDBRANCH   1   5
TORSDOF 2
ENDMDL
MODEL 2
REMARK VINA RESULT:      -5.0      1.421      2.038
REMARK  2 active torsions:
REMARK  status: ('A' for Active; 'I' for Inactive)
REMARK    1  A    between atoms: C1_1  and  C2_2 
REMARK    2  A    between atoms: C1_1  and  C3_3 
ROOT
HETATM    1  C1  UNL     1     -34.041   6.747   5.676  1.00 20.00     0.168 C 
ENDROOT
BRANCH   1   2
HETATM    2  C2  UNL     1     -33.558   7.994   4.961  1.00 20.00     0.360 C 
HETATM    3  F4  UNL     1     -33.920   9.087   5.683  1.00 20.00    -0.214 F 
HETATM    4  F5  UNL     1     -32.204   8.000   4.905  1.00 20.00    -0.214 F 
ENDBRANCH   1   2
BRANCH   1   5
HETATM    5  C3  UNL     1     -34.529   5.644   4.750  1.00 20.00     0.325 C 
HETATM    6  F6  UNL     1     -34.593   4.469   5.427  1.00 20.00    -0.188 F 
HETATM    7  F7  UNL     1     -35.799   5.931   4.359  1.00 20.00    -0.188 F 
HETATM    8 CL8  UNL     1     -33.513   5.449   3.312  1.00 20.00    -0.048 Cl
ENDBRANCH   1   5
TORSDOF 2
ENDMDL
MODEL 3
REMARK VINA RESULT:      -4.9      1.775      3.466
REMARK  2 active torsions:
REMARK  status: ('A' for Active; 'I' for Inactive)
REMARK    1  A    between atoms: C1_1  and  C2_2 
REMARK    2  A    between atoms: C1_1  and  C3_3 
ROOT
HETATM    1  C1  UNL     1     -33.871   6.990   5.824  1.00 20.00     0.168 C 
ENDROOT
BRANCH   1   2
HETATM    2  C2  UNL     1     -34.551   5.719   5.353  1.00 20.00     0.360 C 
HETATM    3  F4  UNL     1     -34.991   5.025   6.434  1.00 20.00    -0.214 F 
HETATM    4  F5  UNL     1     -35.649   6.027   4.619  1.00 20.00    -0.214 F 
ENDBRANCH   1   2
BRANCH   1   5
HETATM    5  C3  UNL     1     -33.254   7.821   4.709  1.00 20.00     0.325 C 
HETATM    6  F6  UNL     1     -34.179   8.681   4.210  1.00 20.00    -0.188 F 
HETATM    7  F7  UNL     1     -32.261   8.586   5.232  1.00 20.00    -0.188 F 
HETATM    8 CL8  UNL     1     -32.591   6.832   3.398  1.00 20.00    -0.048 Cl
ENDBRANCH   1   5
TORSDOF 2
ENDMDL
MODEL 4
REMARK VINA RESULT:      -4.8      2.180      3.316
REMARK  2 active torsions:
REMARK  status: ('A' for Active; 'I' for Inactive)
REMARK    1  A    between atoms: C1_1  and  C2_2 
REMARK    2  A    between atoms: C1_1  and  C3_3 
ROOT
HETATM    1  C1  UNL     1     -34.164   6.464   4.810  1.00 20.00     0.168 C 
ENDROOT
BRANCH   1   2
HETATM    2  C2  UNL     1     -34.176   6.129   6.289  1.00 20.00     0.360 C 
HETATM    3  F4  UNL     1     -34.627   7.207   6.983  1.00 20.00    -0.214 F 
HETATM    4  F5  UNL     1     -35.052   5.123   6.528  1.00 20.00    -0.214 F 
ENDBRANCH   1   2
BRANCH   1   5
HETATM    5  C3  UNL     1     -33.236   7.608   4.434  1.00 20.00     0.325 C 
HETATM    6  F6  UNL     1     -33.958   8.739   4.232  1.00 20.00    -0.188 F 
HETATM    7  F7  UNL     1     -32.409   7.863   5.481  1.00 20.00    -0.188 F 
HETATM    8 CL8  UNL     1     -32.258   7.261   2.998  1.00 20.00    -0.048 Cl
ENDBRANCH   1   5
TORSDOF 2
ENDMDL
MODEL 5
REMARK VINA RESULT:      -4.8      1.915      3.573
REMARK  2 active torsions:
REMARK  status: ('A' for Active; 'I' for Inactive)
REMARK    1  A    between atoms: C1_1  and  C2_2 
REMARK    2  A    between atoms: C1_1  and  C3_3 
ROOT
HETATM    1  C1  UNL     1     -34.453   6.665   4.827  1.00 20.00     0.168 C 
ENDROOT
BRANCH   1   2
HETATM    2  C2  UNL     1     -34.333   5.288   5.451  1.00 20.00     0.360 C 
HETATM    3  F4  UNL     1     -35.227   5.184   6.469  1.00 20.00    -0.214 F 
HETATM    4  F5  UNL     1     -34.670   4.339   4.544  1.00 20.00    -0.214 F 
ENDBRANCH   1   2
BRANCH   1   5
HETATM    5  C3  UNL     1     -33.439   7.676   5.342  1.00 20.00     0.325 C 
HETATM    6  F6  UNL     1     -34.071   8.828   5.683  1.00 20.00    -0.188 F 
HETATM    7  F7  UNL     1     -32.879   7.193   6.482  1.00 20.00    -0.188 F 
HETATM    8 CL8  UNL     1     -32.156   8.024   4.171  1.00 20.00    -0.048 Cl
ENDBRANCH   1   5
TORSDOF 2
ENDMDL
MODEL 6
REMARK VINA RESULT:      -4.8      1.223      1.445
REMARK  2 active torsions:
REMARK  status: ('A' for Active; 'I' for Inactive)
REMARK    1  A    between atoms: C1_1  and  C2_2 
REMARK    2  A    between atoms: C1_1  and  C3_3 
ROOT
HETATM    1  C1  UNL     1     -33.800   6.948   4.395  1.00 20.00     0.168 C 
ENDROOT
BRANCH   1   2
HETATM    2  C2  UNL     1     -33.209   7.828   5.480  1.00 20.00     0.360 C 
HETATM    3  F4  UNL     1     -32.091   8.434   4.999  1.00 20.00    -0.214 F 
HETATM    4  F5  UNL     1     -34.078   8.819   5.796  1.00 20.00    -0.214 F 
ENDBRANCH   1   2
BRANCH   1   5
HETATM    5  C3  UNL     1     -34.694   5.832   4.913  1.00 20.00     0.325 C 
HETATM    6  F6  UNL     1     -34.841   5.946   6.257  1.00 20.00    -0.188 F 
HETATM    7  F7  UNL     1     -35.933   5.980   4.376  1.00 20.00    -0.188 F 
HETATM    8 CL8  UNL     1     -34.082   4.218   4.515  1.00 20.00    -0.048 Cl
ENDBRANCH   1   5
TORSDOF 2
ENDMDL
MODEL 7
REMARK VINA RESULT:      -4.7      2.145      2.415
REMARK  2 active torsions:
REMARK  status: ('A' for Active; 'I' for Inactive)
REMARK    1  A    between atoms: C1_1  and  C2_2 
REMARK    2  A    between atoms: C1_1  and  C3_3 
ROOT
HETATM    1  C1  UNL     1     -33.893   7.768   4.965  1.00 20.00     0.168 C 
ENDROOT
BRANCH   1   2
HETATM    2  C2  UNL     1     -32.483   8.186   4.597  1.00 20.00     0.360 C 
HETATM    3  F4  UNL     1     -32.399   8.324   3.248  1.00 20.00    -0.214 F 
HETATM    4  F5  UNL     1     -32.209   9.404   5.127  1.00 20.00    -0.214 F 
ENDBRANCH   1   2
BRANCH   1   5
HETATM    5  C3  UNL     1     -33.981   6.868   6.189  1.00 20.00     0.325 C 
HETATM    6  F6  UNL     1     -32.750   6.725   6.743  1.00 20.00    -0.188 F 
HETATM    7  F7  UNL     1     -34.755   7.477   7.125  1.00 20.00    -0.188 F 
HETATM    8 CL8  UNL     1     -34.661   5.274   5.826  1.00 20.00    -0.048 Cl
ENDBRANCH   1   5
TORSDOF 2
ENDMDL
MODEL 8
REMARK VINA RESULT:      -4.7      1.767      2.266
REMARK  2 active torsions:
REMARK  status: ('A' for Active; 'I' for Inactive)
REMARK    1  A    between atoms: C1_1  and  C2_2 
REMARK    2  A    between atoms: C1_1  and  C3_3 
ROOT
HETATM    1  C1  UNL     1     -33.294   7.060   6.056  1.00 20.00     0.168 C 
ENDROOT
BRANCH   1   2
HETATM    2  C2  UNL     1     -33.271   7.856   4.765  1.00 20.00     0.360 C 
HETATM    3  F4  UNL     1     -32.728   9.077   5.007  1.00 20.00    -0.214 F 
HETATM    4  F5  UNL     1     -32.464   7.247   3.861  1.00 20.00    -0.214 F 
ENDBRANCH   1   2
BRANCH   1   5
HETATM    5  C3  UNL     1     -34.426   6.048   6.148  1.00 20.00     0.325 C 
HETATM    6  F6  UNL     1     -33.940   4.852   6.568  1.00 20.00    -0.188 F 
HETATM    7  F7  UNL     1     -35.306   6.460   7.098  1.00 20.00    -0.188 F 
HETATM    8 CL8  UNL     1     -35.288   5.836   4.616  1.00 20.00    -0.048 Cl
ENDBRANCH   1   5
TORSDOF 2
ENDMDL
MODEL 9
REMARK VINA RESULT:      -4.7      2.114      2.682
REMARK  2 active torsions:
REMARK  status: ('A' for Active; 'I' for Inactive)
REMARK    1  A    between atoms: C1_1  and  C2_2 
REMARK    2  A    between atoms: C1_1  and  C3_3 
ROOT
HETATM    1  C1  UNL     1     -33.806   4.855   4.278  1.00 20.00     0.168 C 
ENDROOT
BRANCH   1   2
HETATM    2  C2  UNL     1     -33.377   5.490   2.969  1.00 20.00     0.360 C 
HETATM    3  F4  UNL     1     -32.406   6.406   3.218  1.00 20.00    -0.214 F 
HETATM    4  F5  UNL     1     -32.825   4.553   2.160  1.00 20.00    -0.214 F 
ENDBRANCH   1   2
BRANCH   1   5
HETATM    5  C3  UNL     1     -34.731   5.719   5.120  1.00 20.00     0.325 C 
HETATM    6  F6  UNL     1     -35.867   5.988   4.427  1.00 20.00    -0.188 F 
HETATM    7  F7  UNL     1     -35.110   5.013   6.218  1.00 20.00    -0.188 F 
HETATM    8 CL8  UNL     1     -33.977   7.235   5.640  1.00 20.00    -0.048 Cl
ENDBRANCH   1   5
TORSDOF 2
ENDMDL
