MODEL 1
REMARK VINA RESULT:      -3.9      0.000      0.000
REMARK  0 active torsions:
REMARK  status: ('A' for Active; 'I' for Inactive)
ROOT
HETATM    1  C1  UNL     1     -34.401  16.519  -4.477  1.00 20.00    -0.071 C 
HETATM    2  C2  UNL     1     -34.061  17.302  -3.446  1.00 20.00    -0.027 C 
HETATM    3  C3  UNL     1     -35.082  14.146  -4.463  1.00 20.00     0.009 C 
HETATM    4  C4  UNL     1     -35.971  14.384  -5.699  1.00 20.00     0.006 C 
HETATM    5  C5  UNL     1     -33.782  15.085  -6.222  1.00 20.00     0.014 C 
HETATM    6  C6  UNL     1     -33.902  15.104  -4.699  1.00 20.00     0.015 C 
HETATM    7  C7  UNL     1     -35.238  15.526  -6.439  1.00 20.00    -0.002 C 
HETATM    8  C8  UNL     1     -35.304  16.878  -5.652  1.00 20.00    -0.021 C 
HETATM    9  C9  UNL     1     -33.132  16.889  -2.356  1.00 20.00     0.036 C 
HETATM   10  C10 UNL     1     -34.723  18.031  -6.492  1.00 20.00     0.020 C 
HETATM   11  C11 UNL     1     -36.724  17.261  -5.214  1.00 20.00     0.020 C 
ENDROOT
TORSDOF 0
ENDMDL
MODEL 2
REMARK VINA RESULT:      -3.9     13.022     14.339
REMARK  0 active torsions:
REMARK  status: ('A' for Active; 'I' for Inactive)
ROOT
HETATM    1  C1  UNL     1     -41.075  13.229   6.709  1.00 20.00    -0.071 C 
HETATM    2  C2  UNL     1     -40.440  12.363   5.910  1.00 20.00    -0.027 C 
HETATM    3  C3  UNL     1     -40.404  15.513   7.365  1.00 20.00     0.009 C 
HETATM    4  C4  UNL     1     -41.884  15.924   7.480  1.00 20.00     0.006 C 
HETATM    5  C5  UNL     1     -41.536  14.042   8.856  1.00 20.00     0.014 C 
HETATM    6  C6  UNL     1     -40.421  14.041   7.811  1.00 20.00     0.015 C 
HETATM    7  C7  UNL     1     -42.582  14.604   7.881  1.00 20.00    -0.002 C 
HETATM    8  C8  UNL     1     -42.565  13.552   6.722  1.00 20.00    -0.021 C 
HETATM    9  C9  UNL     1     -38.980  12.070   5.992  1.00 20.00     0.036 C 
HETATM   10  C10 UNL     1     -43.417  12.321   7.085  1.00 20.00     0.020 C 
HETATM   11  C11 UNL     1     -43.063  14.112   5.382  1.00 20.00     0.020 C 
ENDROOT
TORSDOF 0
ENDMDL
MODEL 3
REMARK VINA RESULT:      -3.8     13.254     14.498
REMARK  0 active torsions:
REMARK  status: ('A' for Active; 'I' for Inactive)
ROOT
HETATM    1  C1  UNL     1     -40.928  13.417   6.854  1.00 20.00    -0.071 C 
HETATM    2  C2  UNL     1     -39.782  12.867   6.438  1.00 20.00    -0.027 C 
HETATM    3  C3  UNL     1     -43.048  12.310   7.468  1.00 20.00     0.009 C 
HETATM    4  C4  UNL     1     -43.353  13.433   8.478  1.00 20.00     0.006 C 
HETATM    5  C5  UNL     1     -42.987  14.421   6.369  1.00 20.00     0.014 C 
HETATM    6  C6  UNL     1     -42.308  13.053   6.342  1.00 20.00     0.015 C 
HETATM    7  C7  UNL     1     -42.658  14.663   7.851  1.00 20.00    -0.002 C 
HETATM    8  C8  UNL     1     -41.098  14.537   7.876  1.00 20.00    -0.021 C 
HETATM    9  C9  UNL     1     -39.698  11.802   5.397  1.00 20.00     0.036 C 
HETATM   10  C10 UNL     1     -40.434  15.846   7.410  1.00 20.00     0.020 C 
HETATM   11  C11 UNL     1     -40.538  14.171   9.257  1.00 20.00     0.020 C 
ENDROOT
TORSDOF 0
ENDMDL
MODEL 4
REMARK VINA RESULT:      -3.8      0.844      2.942
REMARK  0 active torsions:
REMARK  status: ('A' for Active; 'I' for Inactive)
ROOT
HETATM    1  C1  UNL     1     -34.504  16.399  -4.554  1.00 20.00    -0.071 C 
HETATM    2  C2  UNL     1     -33.660  15.948  -3.619  1.00 20.00    -0.027 C 
HETATM    3  C3  UNL     1     -34.516  18.582  -5.708  1.00 20.00     0.009 C 
HETATM    4  C4  UNL     1     -35.122  17.925  -6.963  1.00 20.00     0.006 C 
HETATM    5  C5  UNL     1     -36.522  17.437  -5.131  1.00 20.00     0.014 C 
HETATM    6  C6  UNL     1     -35.146  17.773  -4.561  1.00 20.00     0.015 C 
HETATM    7  C7  UNL     1     -35.945  16.753  -6.381  1.00 20.00    -0.002 C 
HETATM    8  C8  UNL     1     -35.033  15.639  -5.766  1.00 20.00    -0.021 C 
HETATM    9  C9  UNL     1     -33.225  16.742  -2.435  1.00 20.00     0.036 C 
HETATM   10  C10 UNL     1     -35.866  14.411  -5.357  1.00 20.00     0.020 C 
HETATM   11  C11 UNL     1     -33.915  15.177  -6.711  1.00 20.00     0.020 C 
ENDROOT
TORSDOF 0
ENDMDL
MODEL 5
REMARK VINA RESULT:      -3.6     11.991     13.856
REMARK  0 active torsions:
REMARK  status: ('A' for Active; 'I' for Inactive)
ROOT
HETATM    1  C1  UNL     1     -33.458   6.215   3.768  1.00 20.00    -0.071 C 
HETATM    2  C2  UNL     1     -32.650   5.868   2.759  1.00 20.00    -0.027 C 
HETATM    3  C3  UNL     1     -33.999   4.958   5.823  1.00 20.00     0.009 C 
HETATM    4  C4  UNL     1     -34.193   6.279   6.591  1.00 20.00     0.006 C 
HETATM    5  C5  UNL     1     -35.602   6.315   4.702  1.00 20.00     0.014 C 
HETATM    6  C6  UNL     1     -34.492   5.308   4.408  1.00 20.00     0.015 C 
HETATM    7  C7  UNL     1     -34.677   7.253   5.492  1.00 20.00    -0.002 C 
HETATM    8  C8  UNL     1     -33.553   7.575   4.451  1.00 20.00    -0.021 C 
HETATM    9  C9  UNL     1     -32.650   4.525   2.114  1.00 20.00     0.036 C 
HETATM   10  C10 UNL     1     -34.006   8.678   3.477  1.00 20.00     0.020 C 
HETATM   11  C11 UNL     1     -32.229   8.008   5.097  1.00 20.00     0.020 C 
ENDROOT
TORSDOF 0
ENDMDL
MODEL 6
REMARK VINA RESULT:      -3.5     12.812     14.163
REMARK  0 active torsions:
REMARK  status: ('A' for Active; 'I' for Inactive)
ROOT
HETATM    1  C1  UNL     1     -41.938  14.443   5.859  1.00 20.00    -0.071 C 
HETATM    2  C2  UNL     1     -42.382  14.408   4.597  1.00 20.00    -0.027 C 
HETATM    3  C3  UNL     1     -42.782  15.771   7.762  1.00 20.00     0.009 C 
HETATM    4  C4  UNL     1     -42.345  14.665   8.741  1.00 20.00     0.006 C 
HETATM    5  C5  UNL     1     -40.467  15.301   7.466  1.00 20.00     0.014 C 
HETATM    6  C6  UNL     1     -41.704  15.706   6.666  1.00 20.00     0.015 C 
HETATM    7  C7  UNL     1     -41.126  14.033   8.029  1.00 20.00    -0.002 C 
HETATM    8  C8  UNL     1     -41.535  13.259   6.732  1.00 20.00    -0.021 C 
HETATM    9  C9  UNL     1     -42.713  15.620   3.795  1.00 20.00     0.036 C 
HETATM   10  C10 UNL     1     -40.333  12.495   6.145  1.00 20.00     0.020 C 
HETATM   11  C11 UNL     1     -42.685  12.265   6.951  1.00 20.00     0.020 C 
ENDROOT
TORSDOF 0
ENDMDL
MODEL 7
REMARK VINA RESULT:      -3.3      1.580      3.319
REMARK  0 active torsions:
REMARK  status: ('A' for Active; 'I' for Inactive)
ROOT
HETATM    1  C1  UNL     1     -34.007  17.166  -3.970  1.00 20.00    -0.071 C 
HETATM    2  C2  UNL     1     -33.371  16.096  -3.480  1.00 20.00    -0.027 C 
HETATM    3  C3  UNL     1     -36.220  17.290  -5.059  1.00 20.00     0.009 C 
HETATM    4  C4  UNL     1     -36.417  18.718  -4.518  1.00 20.00     0.006 C 
HETATM    5  C5  UNL     1     -34.395  18.664  -5.728  1.00 20.00     0.014 C 
HETATM    6  C6  UNL     1     -34.704  17.226  -5.316  1.00 20.00     0.015 C 
HETATM    7  C7  UNL     1     -34.972  19.262  -4.435  1.00 20.00    -0.002 C 
HETATM    8  C8  UNL     1     -34.133  18.543  -3.325  1.00 20.00    -0.021 C 
HETATM    9  C9  UNL     1     -33.254  14.794  -4.197  1.00 20.00     0.036 C 
HETATM   10  C10 UNL     1     -32.763  19.221  -3.146  1.00 20.00     0.020 C 
HETATM   11  C11 UNL     1     -34.837  18.497  -1.962  1.00 20.00     0.020 C 
ENDROOT
TORSDOF 0
ENDMDL
MODEL 8
REMARK VINA RESULT:      -3.2     23.897     25.703
REMARK  0 active torsions:
REMARK  status: ('A' for Active; 'I' for Inactive)
ROOT
HETATM    1  C1  UNL     1     -27.683  -2.929  10.729  1.00 20.00    -0.071 C 
HETATM    2  C2  UNL     1     -28.124  -4.180  10.553  1.00 20.00    -0.027 C 
HETATM    3  C3  UNL     1     -28.696  -1.097  12.037  1.00 20.00     0.009 C 
HETATM    4  C4  UNL     1     -27.298  -0.521  12.332  1.00 20.00     0.006 C 
HETATM    5  C5  UNL     1     -27.537  -0.710   9.995  1.00 20.00     0.014 C 
HETATM    6  C6  UNL     1     -28.536  -1.679  10.623  1.00 20.00     0.015 C 
HETATM    7  C7  UNL     1     -26.481  -0.938  11.088  1.00 20.00    -0.002 C 
HETATM    8  C8  UNL     1     -26.253  -2.486  11.022  1.00 20.00    -0.021 C 
HETATM    9  C9  UNL     1     -29.536  -4.527  10.223  1.00 20.00     0.036 C 
HETATM   10  C10 UNL     1     -25.291  -2.851   9.876  1.00 20.00     0.020 C 
HETATM   11  C11 UNL     1     -25.704  -3.078  12.327  1.00 20.00     0.020 C 
ENDROOT
TORSDOF 0
ENDMDL
MODEL 9
REMARK VINA RESULT:      -3.2     13.103     14.296
REMARK  0 active torsions:
REMARK  status: ('A' for Active; 'I' for Inactive)
ROOT
HETATM    1  C1  UNL     1     -42.092  15.244   6.794  1.00 20.00    -0.071 C 
HETATM    2  C2  UNL     1     -41.983  16.577   6.785  1.00 20.00    -0.027 C 
HETATM    3  C3  UNL     1     -41.334  13.614   5.101  1.00 20.00     0.009 C 
HETATM    4  C4  UNL     1     -41.106  12.562   6.203  1.00 20.00     0.006 C 
HETATM    5  C5  UNL     1     -43.336  13.309   6.353  1.00 20.00     0.014 C 
HETATM    6  C6  UNL     1     -42.551  14.397   5.622  1.00 20.00     0.015 C 
HETATM    7  C7  UNL     1     -42.159  12.940   7.269  1.00 20.00    -0.002 C 
HETATM    8  C8  UNL     1     -41.831  14.303   7.966  1.00 20.00    -0.021 C 
HETATM    9  C9  UNL     1     -42.302  17.431   5.605  1.00 20.00     0.036 C 
HETATM   10  C10 UNL     1     -42.793  14.565   9.139  1.00 20.00     0.020 C 
HETATM   11  C11 UNL     1     -40.390  14.390   8.488  1.00 20.00     0.020 C 
ENDROOT
TORSDOF 0
ENDMDL
