MODEL 1
REMARK VINA RESULT:      -3.7      0.000      0.000
REMARK  1 active torsions:
REMARK  status: ('A' for Active; 'I' for Inactive)
REMARK    1  A    between atoms: C2_2  and  C6_6 
ROOT
HETATM    1  C3  UNL     1     -34.050  15.256  -6.755  1.00 20.00     0.006 C 
HETATM    2  C4  UNL     1     -34.414  16.581  -7.438  1.00 20.00     0.006 C 
HETATM    3  C5  UNL     1     -36.330  15.762  -6.345  1.00 20.00     0.010 C 
HETATM    4  C6  UNL     1     -34.903  16.104  -4.488  1.00 20.00     0.025 C 
HETATM    5  C7  UNL     1     -35.123  15.117  -5.657  1.00 20.00    -0.005 C 
HETATM    6  C8  UNL     1     -35.592  17.089  -6.589  1.00 20.00    -0.006 C 
HETATM    7  C9  UNL     1     -35.132  17.499  -5.148  1.00 20.00    -0.036 C 
HETATM    8  C11 UNL     1     -36.272  18.250  -4.425  1.00 20.00     0.016 C 
HETATM    9  C12 UNL     1     -33.912  18.435  -5.155  1.00 20.00     0.016 C 
ENDROOT
BRANCH   4  10
HETATM   10  C2  UNL     1     -33.623  15.885  -3.745  1.00 20.00    -0.088 C 
HETATM   11  C1  UNL     1     -32.665  15.068  -4.209  1.00 20.00     0.014 C 
HETATM   12  C10 UNL     1     -33.474  16.630  -2.453  1.00 20.00     0.043 C 
ENDBRANCH   4  10
TORSDOF 1
ENDMDL
MODEL 2
REMARK VINA RESULT:      -3.7     12.660     14.428
REMARK  1 active torsions:
REMARK  status: ('A' for Active; 'I' for Inactive)
REMARK    1  A    between atoms: C2_2  and  C6_6 
ROOT
HETATM    1  C3  UNL     1     -40.322  14.294   8.711  1.00 20.00     0.006 C 
HETATM    2  C4  UNL     1     -41.812  14.184   9.059  1.00 20.00     0.006 C 
HETATM    3  C5  UNL     1     -41.558  15.851   7.419  1.00 20.00     0.010 C 
HETATM    4  C6  UNL     1     -40.804  13.959   6.213  1.00 20.00     0.025 C 
HETATM    5  C7  UNL     1     -40.332  14.939   7.312  1.00 20.00    -0.005 C 
HETATM    6  C8  UNL     1     -42.499  14.690   7.779  1.00 20.00    -0.006 C 
HETATM    7  C9  UNL     1     -42.297  13.697   6.583  1.00 20.00    -0.036 C 
HETATM    8  C11 UNL     1     -43.215  14.095   5.407  1.00 20.00     0.016 C 
HETATM    9  C12 UNL     1     -42.641  12.244   6.950  1.00 20.00     0.016 C 
ENDROOT
BRANCH   4  10
HETATM   10  C2  UNL     1     -39.910  12.773   6.037  1.00 20.00    -0.088 C 
HETATM   11  C1  UNL     1     -39.169  12.288   7.045  1.00 20.00     0.014 C 
HETATM   12  C10 UNL     1     -39.889  12.159   4.669  1.00 20.00     0.043 C 
ENDBRANCH   4  10
TORSDOF 1
ENDMDL
MODEL 3
REMARK VINA RESULT:      -3.4     13.087     14.688
REMARK  1 active torsions:
REMARK  status: ('A' for Active; 'I' for Inactive)
REMARK    1  A    between atoms: C2_2  and  C6_6 
ROOT
HETATM    1  C3  UNL     1     -43.411  13.822   6.099  1.00 20.00     0.006 C 
HETATM    2  C4  UNL     1     -43.402  15.130   6.901  1.00 20.00     0.006 C 
HETATM    3  C5  UNL     1     -43.341  13.333   8.418  1.00 20.00     0.010 C 
HETATM    4  C6  UNL     1     -41.291  12.994   7.285  1.00 20.00     0.025 C 
HETATM    5  C7  UNL     1     -42.812  12.799   7.084  1.00 20.00    -0.005 C 
HETATM    6  C8  UNL     1     -42.712  14.720   8.213  1.00 20.00    -0.006 C 
HETATM    7  C9  UNL     1     -41.197  14.383   7.989  1.00 20.00    -0.036 C 
HETATM    8  C11 UNL     1     -40.481  14.244   9.350  1.00 20.00     0.016 C 
HETATM    9  C12 UNL     1     -40.454  15.474   7.200  1.00 20.00     0.016 C 
ENDROOT
BRANCH   4  10
HETATM   10  C2  UNL     1     -40.486  12.785   6.042  1.00 20.00    -0.088 C 
HETATM   11  C1  UNL     1     -40.904  13.221   4.844  1.00 20.00     0.014 C 
HETATM   12  C10 UNL     1     -39.184  12.059   6.212  1.00 20.00     0.043 C 
ENDBRANCH   4  10
TORSDOF 1
ENDMDL
MODEL 4
REMARK VINA RESULT:      -3.3      0.958      2.974
REMARK  1 active torsions:
REMARK  status: ('A' for Active; 'I' for Inactive)
REMARK    1  A    between atoms: C2_2  and  C6_6 
ROOT
HETATM    1  C3  UNL     1     -35.924  18.148  -4.001  1.00 20.00     0.006 C 
HETATM    2  C4  UNL     1     -37.103  17.634  -4.839  1.00 20.00     0.006 C 
HETATM    3  C5  UNL     1     -35.460  18.464  -6.305  1.00 20.00     0.010 C 
HETATM    4  C6  UNL     1     -34.265  16.684  -5.301  1.00 20.00     0.025 C 
HETATM    5  C7  UNL     1     -34.746  18.121  -4.994  1.00 20.00    -0.005 C 
HETATM    6  C8  UNL     1     -36.438  17.285  -6.182  1.00 20.00    -0.006 C 
HETATM    7  C9  UNL     1     -35.479  16.052  -6.049  1.00 20.00    -0.036 C 
HETATM    8  C11 UNL     1     -35.048  15.567  -7.451  1.00 20.00     0.016 C 
HETATM    9  C12 UNL     1     -36.140  14.856  -5.344  1.00 20.00     0.016 C 
ENDROOT
BRANCH   4  10
HETATM   10  C2  UNL     1     -33.725  15.960  -4.109  1.00 20.00    -0.088 C 
HETATM   11  C1  UNL     1     -33.646  16.541  -2.902  1.00 20.00     0.014 C 
HETATM   12  C10 UNL     1     -33.277  14.548  -4.341  1.00 20.00     0.043 C 
ENDBRANCH   4  10
TORSDOF 1
ENDMDL
MODEL 5
REMARK VINA RESULT:      -3.2     23.865     26.078
REMARK  1 active torsions:
REMARK  status: ('A' for Active; 'I' for Inactive)
REMARK    1  A    between atoms: C2_2  and  C6_6 
ROOT
HETATM    1  C3  UNL     1     -26.670  -0.286  11.937  1.00 20.00     0.006 C 
HETATM    2  C4  UNL     1     -28.126  -0.573  12.329  1.00 20.00     0.006 C 
HETATM    3  C5  UNL     1     -27.979  -0.575   9.980  1.00 20.00     0.010 C 
HETATM    4  C6  UNL     1     -26.564  -2.403  10.489  1.00 20.00     0.025 C 
HETATM    5  C7  UNL     1     -26.569  -0.857  10.509  1.00 20.00    -0.005 C 
HETATM    6  C8  UNL     1     -28.656  -1.358  11.117  1.00 20.00    -0.006 C 
HETATM    7  C9  UNL     1     -27.988  -2.773  11.007  1.00 20.00    -0.036 C 
HETATM    8  C11 UNL     1     -28.732  -3.626   9.956  1.00 20.00     0.016 C 
HETATM    9  C12 UNL     1     -28.028  -3.555  12.331  1.00 20.00     0.016 C 
ENDROOT
BRANCH   4  10
HETATM   10  C2  UNL     1     -25.388  -3.011  11.186  1.00 20.00    -0.088 C 
HETATM   11  C1  UNL     1     -24.568  -2.285  11.960  1.00 20.00     0.014 C 
HETATM   12  C10 UNL     1     -25.179  -4.480  10.968  1.00 20.00     0.043 C 
ENDBRANCH   4  10
TORSDOF 1
ENDMDL
MODEL 6
REMARK VINA RESULT:      -3.2     13.558     15.114
REMARK  1 active torsions:
REMARK  status: ('A' for Active; 'I' for Inactive)
REMARK    1  A    between atoms: C2_2  and  C6_6 
ROOT
HETATM    1  C3  UNL     1     -42.263  12.325   6.706  1.00 20.00     0.006 C 
HETATM    2  C4  UNL     1     -40.776  12.615   6.460  1.00 20.00     0.006 C 
HETATM    3  C5  UNL     1     -42.039  14.325   5.451  1.00 20.00     0.010 C 
HETATM    4  C6  UNL     1     -42.626  14.655   7.720  1.00 20.00     0.025 C 
HETATM    5  C7  UNL     1     -42.926  13.706   6.536  1.00 20.00    -0.005 C 
HETATM    6  C8  UNL     1     -40.753  14.142   6.274  1.00 20.00    -0.006 C 
HETATM    7  C9  UNL     1     -41.088  14.892   7.609  1.00 20.00    -0.036 C 
HETATM    8  C11 UNL     1     -40.792  16.400   7.455  1.00 20.00     0.016 C 
HETATM    9  C12 UNL     1     -40.255  14.390   8.800  1.00 20.00     0.016 C 
ENDROOT
BRANCH   4  10
HETATM   10  C2  UNL     1     -43.166  14.174   9.029  1.00 20.00    -0.088 C 
HETATM   11  C1  UNL     1     -43.412  12.876   9.262  1.00 20.00     0.014 C 
HETATM   12  C10 UNL     1     -43.416  15.228  10.067  1.00 20.00     0.043 C 
ENDBRANCH   4  10
TORSDOF 1
ENDMDL
MODEL 7
REMARK VINA RESULT:      -3.2      1.420      3.659
REMARK  1 active torsions:
REMARK  status: ('A' for Active; 'I' for Inactive)
REMARK    1  A    between atoms: C2_2  and  C6_6 
ROOT
HETATM    1  C3  UNL     1     -33.691  17.173  -2.003  1.00 20.00     0.006 C 
HETATM    2  C4  UNL     1     -34.703  18.321  -1.887  1.00 20.00     0.006 C 
HETATM    3  C5  UNL     1     -32.918  19.041  -3.241  1.00 20.00     0.010 C 
HETATM    4  C6  UNL     1     -33.760  17.270  -4.566  1.00 20.00     0.025 C 
HETATM    5  C7  UNL     1     -32.918  17.510  -3.292  1.00 20.00    -0.005 C 
HETATM    6  C8  UNL     1     -34.451  19.126  -3.174  1.00 20.00    -0.006 C 
HETATM    7  C9  UNL     1     -34.898  18.331  -4.449  1.00 20.00    -0.036 C 
HETATM    8  C11 UNL     1     -34.886  19.263  -5.681  1.00 20.00     0.016 C 
HETATM    9  C12 UNL     1     -36.322  17.763  -4.329  1.00 20.00     0.016 C 
ENDROOT
BRANCH   4  10
HETATM   10  C2  UNL     1     -34.156  15.842  -4.768  1.00 20.00    -0.088 C 
HETATM   11  C1  UNL     1     -34.039  14.928  -3.792  1.00 20.00     0.014 C 
HETATM   12  C10 UNL     1     -34.692  15.490  -6.124  1.00 20.00     0.043 C 
ENDBRANCH   4  10
TORSDOF 1
ENDMDL
MODEL 8
REMARK VINA RESULT:      -3.0     12.878     14.695
REMARK  1 active torsions:
REMARK  status: ('A' for Active; 'I' for Inactive)
REMARK    1  A    between atoms: C2_2  and  C6_6 
ROOT
HETATM    1  C3  UNL     1     -41.280  16.422   7.631  1.00 20.00     0.006 C 
HETATM    2  C4  UNL     1     -40.358  15.263   8.032  1.00 20.00     0.006 C 
HETATM    3  C5  UNL     1     -42.512  14.816   8.866  1.00 20.00     0.010 C 
HETATM    4  C6  UNL     1     -42.954  14.811   6.541  1.00 20.00     0.025 C 
HETATM    5  C7  UNL     1     -42.687  15.796   7.702  1.00 20.00    -0.005 C 
HETATM    6  C8  UNL     1     -41.338  14.088   8.192  1.00 20.00    -0.006 C 
HETATM    7  C9  UNL     1     -41.947  13.652   6.814  1.00 20.00    -0.036 C 
HETATM    8  C11 UNL     1     -42.703  12.314   6.972  1.00 20.00     0.016 C 
HETATM    9  C12 UNL     1     -40.877  13.437   5.731  1.00 20.00     0.016 C 
ENDROOT
BRANCH   4  10
HETATM   10  C2  UNL     1     -42.932  15.451   5.189  1.00 20.00    -0.088 C 
HETATM   11  C1  UNL     1     -42.503  16.709   5.007  1.00 20.00     0.014 C 
HETATM   12  C10 UNL     1     -43.417  14.605   4.050  1.00 20.00     0.043 C 
ENDBRANCH   4  10
TORSDOF 1
ENDMDL
MODEL 9
REMARK VINA RESULT:      -2.9      1.090      1.211
REMARK  1 active torsions:
REMARK  status: ('A' for Active; 'I' for Inactive)
REMARK    1  A    between atoms: C2_2  and  C6_6 
ROOT
HETATM    1  C3  UNL     1     -35.754  15.432  -7.208  1.00 20.00     0.006 C 
HETATM    2  C4  UNL     1     -35.925  16.811  -7.859  1.00 20.00     0.006 C 
HETATM    3  C5  UNL     1     -37.524  16.599  -6.146  1.00 20.00     0.010 C 
HETATM    4  C6  UNL     1     -35.531  16.478  -4.875  1.00 20.00     0.025 C 
HETATM    5  C7  UNL     1     -36.398  15.613  -5.820  1.00 20.00    -0.005 C 
HETATM    6  C8  UNL     1     -36.559  17.643  -6.732  1.00 20.00    -0.006 C 
HETATM    7  C9  UNL     1     -35.553  17.883  -5.554  1.00 20.00    -0.036 C 
HETATM    8  C11 UNL     1     -36.123  18.936  -4.579  1.00 20.00     0.016 C 
HETATM    9  C12 UNL     1     -34.188  18.407  -6.033  1.00 20.00     0.016 C 
ENDROOT
BRANCH   4  10
HETATM   10  C2  UNL     1     -34.198  15.876  -4.559  1.00 20.00    -0.088 C 
HETATM   11  C1  UNL     1     -33.656  14.914  -5.321  1.00 20.00     0.014 C 
HETATM   12  C10 UNL     1     -33.504  16.410  -3.343  1.00 20.00     0.043 C 
ENDBRANCH   4  10
TORSDOF 1
ENDMDL
