MODEL 1
REMARK VINA RESULT:      -4.5      0.000      0.000
REMARK  2 active torsions:
REMARK  status: ('A' for Active; 'I' for Inactive)
REMARK    1  A    between atoms: C2_2  and  O6_6 
REMARK    2  A    between atoms: C5_5  and  O6_6 
ROOT
HETATM    1  C1  UNL     1     -34.527   6.170   6.455  1.00 20.00     0.099 A 
HETATM    2  C2  UNL     1     -33.572   6.766   5.460  1.00 20.00     0.181 A 
HETATM    3  C3  UNL     1     -34.624   5.794   5.004  1.00 20.00     0.207 A 
HETATM    4  F7  UNL     1     -35.703   6.330   4.310  1.00 20.00    -0.223 F 
HETATM    5 CL8  UNL     1     -34.130   4.185   4.516  1.00 20.00    -0.080 Cl
ENDROOT
BRANCH   2   6
HETATM    6  O6  UNL     1     -33.793   8.145   5.123  1.00 20.00    -0.382 OA
BRANCH   6   7
HETATM    7  C5  UNL     1     -32.631   8.723   4.561  1.00 20.00     0.164 C 
HETATM    8  C4  UNL     1     -32.122   7.827   3.452  1.00 20.00     0.033 C 
ENDBRANCH   6   7
ENDBRANCH   2   6
TORSDOF 2
ENDMDL
MODEL 2
REMARK VINA RESULT:      -4.4      1.814      2.044
REMARK  2 active torsions:
REMARK  status: ('A' for Active; 'I' for Inactive)
REMARK    1  A    between atoms: C2_2  and  O6_6 
REMARK    2  A    between atoms: C5_5  and  O6_6 
ROOT
HETATM    1  C1  UNL     1     -35.337   6.073   4.235  1.00 20.00     0.099 A 
HETATM    2  C2  UNL     1     -33.916   6.504   4.467  1.00 20.00     0.181 A 
HETATM    3  C3  UNL     1     -34.420   5.218   5.064  1.00 20.00     0.207 A 
HETATM    4  F7  UNL     1     -33.980   4.043   4.463  1.00 20.00    -0.223 F 
HETATM    5 CL8  UNL     1     -34.678   5.138   6.795  1.00 20.00    -0.080 Cl
ENDROOT
BRANCH   2   6
HETATM    6  O6  UNL     1     -33.030   6.376   3.344  1.00 20.00    -0.382 OA
BRANCH   6   7
HETATM    7  C5  UNL     1     -32.252   7.547   3.176  1.00 20.00     0.164 C 
HETATM    8  C4  UNL     1     -32.308   8.362   4.451  1.00 20.00     0.033 C 
ENDBRANCH   6   7
ENDBRANCH   2   6
TORSDOF 2
ENDMDL
MODEL 3
REMARK VINA RESULT:      -4.1      2.758      3.858
REMARK  2 active torsions:
REMARK  status: ('A' for Active; 'I' for Inactive)
REMARK    1  A    between atoms: C2_2  and  O6_6 
REMARK    2  A    between atoms: C5_5  and  O6_6 
ROOT
HETATM    1  C1  UNL     1     -32.272   8.813   4.705  1.00 20.00     0.099 A 
HETATM    2  C2  UNL     1     -33.561   8.113   4.377  1.00 20.00     0.181 A 
HETATM    3  C3  UNL     1     -32.538   8.353   3.300  1.00 20.00     0.207 A 
HETATM    4  F7  UNL     1     -31.812   7.244   2.879  1.00 20.00    -0.223 F 
HETATM    5 CL8  UNL     1     -32.876   9.554   2.070  1.00 20.00    -0.080 Cl
ENDROOT
BRANCH   2   6
HETATM    6  O6  UNL     1     -33.680   6.762   4.849  1.00 20.00    -0.382 OA
BRANCH   6   7
HETATM    7  C5  UNL     1     -34.125   6.731   6.191  1.00 20.00     0.164 C 
HETATM    8  C4  UNL     1     -34.661   5.349   6.501  1.00 20.00     0.033 C 
ENDBRANCH   6   7
ENDBRANCH   2   6
TORSDOF 2
ENDMDL
MODEL 4
REMARK VINA RESULT:      -3.8      1.385      1.613
REMARK  2 active torsions:
REMARK  status: ('A' for Active; 'I' for Inactive)
REMARK    1  A    between atoms: C2_2  and  O6_6 
REMARK    2  A    between atoms: C5_5  and  O6_6 
ROOT
HETATM    1  C1  UNL     1     -34.112   7.744   6.135  1.00 20.00     0.099 A 
HETATM    2  C2  UNL     1     -33.171   7.158   5.121  1.00 20.00     0.181 A 
HETATM    3  C3  UNL     1     -34.437   6.431   5.482  1.00 20.00     0.207 A 
HETATM    4  F7  UNL     1     -35.457   6.460   4.537  1.00 20.00    -0.223 F 
HETATM    5 CL8  UNL     1     -34.323   4.964   6.435  1.00 20.00    -0.080 Cl
ENDROOT
BRANCH   2   6
HETATM    6  O6  UNL     1     -33.152   7.800   3.836  1.00 20.00    -0.382 OA
BRANCH   6   7
HETATM    7  C5  UNL     1     -32.228   7.171   2.969  1.00 20.00     0.164 C 
HETATM    8  C4  UNL     1     -32.737   5.786   2.627  1.00 20.00     0.033 C 
ENDBRANCH   6   7
ENDBRANCH   2   6
TORSDOF 2
ENDMDL
MODEL 5
REMARK VINA RESULT:      -3.6      2.417      3.659
REMARK  2 active torsions:
REMARK  status: ('A' for Active; 'I' for Inactive)
REMARK    1  A    between atoms: C2_2  and  O6_6 
REMARK    2  A    between atoms: C5_5  and  O6_6 
ROOT
HETATM    1  C1  UNL     1     -32.396   7.244   3.135  1.00 20.00     0.099 A 
HETATM    2  C2  UNL     1     -33.096   6.627   4.312  1.00 20.00     0.181 A 
HETATM    3  C3  UNL     1     -33.107   8.119   4.127  1.00 20.00     0.207 A 
HETATM    4  F7  UNL     1     -34.302   8.681   3.692  1.00 20.00    -0.223 F 
HETATM    5 CL8  UNL     1     -32.152   9.109   5.213  1.00 20.00    -0.080 Cl
ENDROOT
BRANCH   2   6
HETATM    6  O6  UNL     1     -34.327   5.944   4.024  1.00 20.00    -0.382 OA
BRANCH   6   7
HETATM    7  C5  UNL     1     -34.605   4.965   5.007  1.00 20.00     0.164 C 
HETATM    8  C4  UNL     1     -34.525   5.605   6.377  1.00 20.00     0.033 C 
ENDBRANCH   6   7
ENDBRANCH   2   6
TORSDOF 2
ENDMDL
MODEL 6
REMARK VINA RESULT:      -3.3     12.600     13.536
REMARK  2 active torsions:
REMARK  status: ('A' for Active; 'I' for Inactive)
REMARK    1  A    between atoms: C2_2  and  O6_6 
REMARK    2  A    between atoms: C5_5  and  O6_6 
ROOT
HETATM    1  C1  UNL     1     -34.393  14.292  -4.137  1.00 20.00     0.099 A 
HETATM    2  C2  UNL     1     -34.231  15.403  -5.136  1.00 20.00     0.181 A 
HETATM    3  C3  UNL     1     -33.291  15.299  -3.966  1.00 20.00     0.207 A 
HETATM    4  F7  UNL     1     -32.007  14.844  -4.243  1.00 20.00    -0.223 F 
HETATM    5 CL8  UNL     1     -33.419  16.478  -2.676  1.00 20.00    -0.080 Cl
ENDROOT
BRANCH   2   6
HETATM    6  O6  UNL     1     -33.696  15.025  -6.414  1.00 20.00    -0.382 OA
BRANCH   6   7
HETATM    7  C5  UNL     1     -34.366  15.697  -7.463  1.00 20.00     0.164 C 
HETATM    8  C4  UNL     1     -35.832  15.320  -7.433  1.00 20.00     0.033 C 
ENDBRANCH   6   7
ENDBRANCH   2   6
TORSDOF 2
ENDMDL
MODEL 7
REMARK VINA RESULT:      -3.3      1.576      1.811
REMARK  2 active torsions:
REMARK  status: ('A' for Active; 'I' for Inactive)
REMARK    1  A    between atoms: C2_2  and  O6_6 
REMARK    2  A    between atoms: C5_5  and  O6_6 
ROOT
HETATM    1  C1  UNL     1     -34.048   7.807   5.197  1.00 20.00     0.099 A 
HETATM    2  C2  UNL     1     -33.074   6.783   4.686  1.00 20.00     0.181 A 
HETATM    3  C3  UNL     1     -34.454   6.363   5.111  1.00 20.00     0.207 A 
HETATM    4  F7  UNL     1     -35.345   6.045   4.092  1.00 20.00    -0.223 F 
HETATM    5 CL8  UNL     1     -34.637   5.450   6.596  1.00 20.00    -0.080 Cl
ENDROOT
BRANCH   2   6
HETATM    6  O6  UNL     1     -32.825   6.803   3.272  1.00 20.00    -0.382 OA
BRANCH   6   7
HETATM    7  C5  UNL     1     -32.134   7.979   2.895  1.00 20.00     0.164 C 
HETATM    8  C4  UNL     1     -32.154   8.100   1.386  1.00 20.00     0.033 C 
ENDBRANCH   6   7
ENDBRANCH   2   6
TORSDOF 2
ENDMDL
MODEL 8
REMARK VINA RESULT:      -3.3      9.415      9.592
REMARK  2 active torsions:
REMARK  status: ('A' for Active; 'I' for Inactive)
REMARK    1  A    between atoms: C2_2  and  O6_6 
REMARK    2  A    between atoms: C5_5  and  O6_6 
ROOT
HETATM    1  C1  UNL     1     -41.540  13.605   5.639  1.00 20.00     0.099 A 
HETATM    2  C2  UNL     1     -40.542  13.080   6.632  1.00 20.00     0.181 A 
HETATM    3  C3  UNL     1     -42.014  13.003   6.930  1.00 20.00     0.207 A 
HETATM    4  F7  UNL     1     -42.601  11.746   6.833  1.00 20.00    -0.223 F 
HETATM    5 CL8  UNL     1     -42.681  14.060   8.159  1.00 20.00    -0.080 Cl
ENDROOT
BRANCH   2   6
HETATM    6  O6  UNL     1     -39.900  11.843   6.283  1.00 20.00    -0.382 OA
BRANCH   6   7
HETATM    7  C5  UNL     1     -38.735  12.075   5.516  1.00 20.00     0.164 C 
HETATM    8  C4  UNL     1     -38.982  11.617   4.094  1.00 20.00     0.033 C 
ENDBRANCH   6   7
ENDBRANCH   2   6
TORSDOF 2
ENDMDL
MODEL 9
REMARK VINA RESULT:      -3.2      9.549      9.751
REMARK  2 active torsions:
REMARK  status: ('A' for Active; 'I' for Inactive)
REMARK    1  A    between atoms: C2_2  and  O6_6 
REMARK    2  A    between atoms: C5_5  and  O6_6 
ROOT
HETATM    1  C1  UNL     1     -41.641  13.415   7.088  1.00 20.00     0.099 A 
HETATM    2  C2  UNL     1     -40.287  13.405   6.437  1.00 20.00     0.181 A 
HETATM    3  C3  UNL     1     -40.546  14.293   7.622  1.00 20.00     0.207 A 
HETATM    4  F7  UNL     1     -39.983  13.893   8.830  1.00 20.00    -0.223 F 
HETATM    5 CL8  UNL     1     -40.654  16.024   7.370  1.00 20.00    -0.080 Cl
ENDROOT
BRANCH   2   6
HETATM    6  O6  UNL     1     -39.481  12.241   6.681  1.00 20.00    -0.382 OA
BRANCH   6   7
HETATM    7  C5  UNL     1     -38.539  12.050   5.643  1.00 20.00     0.164 C 
HETATM    8  C4  UNL     1     -39.277  11.744   4.356  1.00 20.00     0.033 C 
ENDBRANCH   6   7
ENDBRANCH   2   6
TORSDOF 2
ENDMDL
