MODEL 1
REMARK VINA RESULT:      -3.9      0.000      0.000
REMARK  0 active torsions:
REMARK  status: ('A' for Active; 'I' for Inactive)
ROOT
HETATM    1  C1  UNL     1     -41.117  13.289   6.610  1.00 20.00    -0.071 C 
HETATM    2  C2  UNL     1     -40.585  12.289   5.898  1.00 20.00    -0.027 C 
HETATM    3  C3  UNL     1     -40.350  14.250   8.751  1.00 20.00     0.009 C 
HETATM    4  C4  UNL     1     -41.803  14.596   9.127  1.00 20.00     0.006 C 
HETATM    5  C5  UNL     1     -41.330  15.581   7.039  1.00 20.00     0.014 C 
HETATM    6  C6  UNL     1     -40.337  14.436   7.224  1.00 20.00     0.015 C 
HETATM    7  C7  UNL     1     -42.470  14.837   7.754  1.00 20.00    -0.002 C 
HETATM    8  C8  UNL     1     -42.594  13.521   6.917  1.00 20.00    -0.021 C 
HETATM    9  C9  UNL     1     -39.128  12.159   5.603  1.00 20.00     0.036 C 
HETATM   10  C10 UNL     1     -43.227  12.360   7.696  1.00 20.00     0.020 C 
HETATM   11  C11 UNL     1     -43.417  13.758   5.637  1.00 20.00     0.020 C 
ENDROOT
TORSDOF 0
ENDMDL
MODEL 2
REMARK VINA RESULT:      -3.7      0.831      2.863
REMARK  0 active torsions:
REMARK  status: ('A' for Active; 'I' for Inactive)
ROOT
HETATM    1  C1  UNL     1     -40.935  13.398   6.960  1.00 20.00    -0.071 C 
HETATM    2  C2  UNL     1     -39.800  12.908   6.447  1.00 20.00    -0.027 C 
HETATM    3  C3  UNL     1     -43.078  13.860   5.825  1.00 20.00     0.009 C 
HETATM    4  C4  UNL     1     -43.360  15.013   6.806  1.00 20.00     0.006 C 
HETATM    5  C5  UNL     1     -42.972  13.058   8.063  1.00 20.00     0.014 C 
HETATM    6  C6  UNL     1     -42.323  12.843   6.698  1.00 20.00     0.015 C 
HETATM    7  C7  UNL     1     -42.638  14.559   8.095  1.00 20.00    -0.002 C 
HETATM    8  C8  UNL     1     -41.082  14.563   7.934  1.00 20.00    -0.021 C 
HETATM    9  C9  UNL     1     -39.738  11.731   5.532  1.00 20.00     0.036 C 
HETATM   10  C10 UNL     1     -40.531  15.881   7.370  1.00 20.00     0.020 C 
HETATM   11  C11 UNL     1     -40.389  14.279   9.280  1.00 20.00     0.020 C 
ENDROOT
TORSDOF 0
ENDMDL
MODEL 3
REMARK VINA RESULT:      -3.7     13.163     14.380
REMARK  0 active torsions:
REMARK  status: ('A' for Active; 'I' for Inactive)
ROOT
HETATM    1  C1  UNL     1     -34.482  16.437  -4.631  1.00 20.00    -0.071 C 
HETATM    2  C2  UNL     1     -33.723  15.941  -3.646  1.00 20.00    -0.027 C 
HETATM    3  C3  UNL     1     -36.442  17.931  -4.478  1.00 20.00     0.009 C 
HETATM    4  C4  UNL     1     -37.035  17.297  -5.750  1.00 20.00     0.006 C 
HETATM    5  C5  UNL     1     -34.870  18.075  -6.258  1.00 20.00     0.014 C 
HETATM    6  C6  UNL     1     -34.928  17.883  -4.745  1.00 20.00     0.015 C 
HETATM    7  C7  UNL     1     -35.780  16.870  -6.545  1.00 20.00    -0.002 C 
HETATM    8  C8  UNL     1     -35.014  15.694  -5.852  1.00 20.00    -0.021 C 
HETATM    9  C9  UNL     1     -33.203  16.749  -2.505  1.00 20.00     0.036 C 
HETATM   10  C10 UNL     1     -35.920  14.512  -5.479  1.00 20.00     0.020 C 
HETATM   11  C11 UNL     1     -33.877  15.175  -6.751  1.00 20.00     0.020 C 
ENDROOT
TORSDOF 0
ENDMDL
MODEL 4
REMARK VINA RESULT:      -3.7     12.013     13.411
REMARK  0 active torsions:
REMARK  status: ('A' for Active; 'I' for Inactive)
ROOT
HETATM    1  C1  UNL     1     -33.952  17.166  -3.658  1.00 20.00    -0.071 C 
HETATM    2  C2  UNL     1     -34.069  16.080  -4.432  1.00 20.00    -0.027 C 
HETATM    3  C3  UNL     1     -33.810  17.310  -1.198  1.00 20.00     0.009 C 
HETATM    4  C4  UNL     1     -34.501  18.686  -1.229  1.00 20.00     0.006 C 
HETATM    5  C5  UNL     1     -32.607  18.783  -2.629  1.00 20.00     0.014 C 
HETATM    6  C6  UNL     1     -32.986  17.310  -2.496  1.00 20.00     0.015 C 
HETATM    7  C7  UNL     1     -34.067  19.262  -2.597  1.00 20.00    -0.002 C 
HETATM    8  C8  UNL     1     -34.706  18.484  -3.795  1.00 20.00    -0.021 C 
HETATM    9  C9  UNL     1     -33.258  14.840  -4.258  1.00 20.00     0.036 C 
HETATM   10  C10 UNL     1     -36.227  18.313  -3.670  1.00 20.00     0.020 C 
HETATM   11  C11 UNL     1     -34.401  19.186  -5.131  1.00 20.00     0.020 C 
ENDROOT
TORSDOF 0
ENDMDL
MODEL 5
REMARK VINA RESULT:      -3.6     13.276     14.656
REMARK  0 active torsions:
REMARK  status: ('A' for Active; 'I' for Inactive)
ROOT
HETATM    1  C1  UNL     1     -34.856  16.568  -4.773  1.00 20.00    -0.071 C 
HETATM    2  C2  UNL     1     -34.233  17.186  -3.763  1.00 20.00    -0.027 C 
HETATM    3  C3  UNL     1     -33.904  15.120  -6.531  1.00 20.00     0.009 C 
HETATM    4  C4  UNL     1     -34.993  15.584  -7.516  1.00 20.00     0.006 C 
HETATM    5  C5  UNL     1     -36.056  14.733  -5.593  1.00 20.00     0.014 C 
HETATM    6  C6  UNL     1     -34.639  15.123  -5.180  1.00 20.00     0.015 C 
HETATM    7  C7  UNL     1     -36.191  15.895  -6.590  1.00 20.00    -0.002 C 
HETATM    8  C8  UNL     1     -35.931  17.147  -5.688  1.00 20.00    -0.021 C 
HETATM    9  C9  UNL     1     -33.221  16.532  -2.882  1.00 20.00     0.036 C 
HETATM   10  C10 UNL     1     -35.445  18.374  -6.473  1.00 20.00     0.020 C 
HETATM   11  C11 UNL     1     -37.202  17.536  -4.909  1.00 20.00     0.020 C 
ENDROOT
TORSDOF 0
ENDMDL
MODEL 6
REMARK VINA RESULT:      -3.4      1.286      2.650
REMARK  0 active torsions:
REMARK  status: ('A' for Active; 'I' for Inactive)
ROOT
HETATM    1  C1  UNL     1     -42.021  14.565   6.013  1.00 20.00    -0.071 C 
HETATM    2  C2  UNL     1     -42.278  14.549   4.699  1.00 20.00    -0.027 C 
HETATM    3  C3  UNL     1     -40.783  16.245   7.331  1.00 20.00     0.009 C 
HETATM    4  C4  UNL     1     -40.323  15.150   8.312  1.00 20.00     0.006 C 
HETATM    5  C5  UNL     1     -42.676  15.093   8.198  1.00 20.00     0.014 C 
HETATM    6  C6  UNL     1     -42.187  15.770   6.920  1.00 20.00     0.015 C 
HETATM    7  C7  UNL     1     -41.481  14.128   8.261  1.00 20.00    -0.002 C 
HETATM    8  C8  UNL     1     -41.564  13.396   6.880  1.00 20.00    -0.021 C 
HETATM    9  C9  UNL     1     -42.768  15.729   3.930  1.00 20.00     0.036 C 
HETATM   10  C10 UNL     1     -40.222  12.807   6.420  1.00 20.00     0.020 C 
HETATM   11  C11 UNL     1     -42.608  12.265   6.918  1.00 20.00     0.020 C 
ENDROOT
TORSDOF 0
ENDMDL
MODEL 7
REMARK VINA RESULT:      -3.3     12.409     14.248
REMARK  0 active torsions:
REMARK  status: ('A' for Active; 'I' for Inactive)
ROOT
HETATM    1  C1  UNL     1     -34.123  17.030  -3.991  1.00 20.00    -0.071 C 
HETATM    2  C2  UNL     1     -33.355  16.007  -3.596  1.00 20.00    -0.027 C 
HETATM    3  C3  UNL     1     -34.596  17.822  -6.281  1.00 20.00     0.009 C 
HETATM    4  C4  UNL     1     -34.753  19.262  -5.760  1.00 20.00     0.006 C 
HETATM    5  C5  UNL     1     -36.231  17.880  -4.553  1.00 20.00     0.014 C 
HETATM    6  C6  UNL     1     -35.139  16.975  -5.117  1.00 20.00     0.015 C 
HETATM    7  C7  UNL     1     -35.271  19.057  -4.318  1.00 20.00    -0.002 C 
HETATM    8  C8  UNL     1     -34.185  18.428  -3.384  1.00 20.00    -0.021 C 
HETATM    9  C9  UNL     1     -33.388  14.651  -4.217  1.00 20.00     0.036 C 
HETATM   10  C10 UNL     1     -32.836  19.158  -3.439  1.00 20.00     0.020 C 
HETATM   11  C11 UNL     1     -34.667  18.400  -1.922  1.00 20.00     0.020 C 
ENDROOT
TORSDOF 0
ENDMDL
MODEL 8
REMARK VINA RESULT:      -3.2     20.269     21.751
REMARK  0 active torsions:
REMARK  status: ('A' for Active; 'I' for Inactive)
ROOT
HETATM    1  C1  UNL     1     -26.809  -2.790  10.909  1.00 20.00    -0.071 C 
HETATM    2  C2  UNL     1     -25.934  -3.800  10.843  1.00 20.00    -0.027 C 
HETATM    3  C3  UNL     1     -26.659  -0.688  12.195  1.00 20.00     0.009 C 
HETATM    4  C4  UNL     1     -28.193  -0.651  12.332  1.00 20.00     0.006 C 
HETATM    5  C5  UNL     1     -27.663  -0.790  10.040  1.00 20.00     0.014 C 
HETATM    6  C6  UNL     1     -26.453  -1.318  10.808  1.00 20.00     0.015 C 
HETATM    7  C7  UNL     1     -28.674  -1.362  11.046  1.00 20.00    -0.002 C 
HETATM    8  C8  UNL     1     -28.325  -2.887  11.048  1.00 20.00    -0.021 C 
HETATM    9  C9  UNL     1     -24.465  -3.620  10.659  1.00 20.00     0.036 C 
HETATM   10  C10 UNL     1     -28.757  -3.610  12.332  1.00 20.00     0.020 C 
HETATM   11  C11 UNL     1     -28.969  -3.599   9.844  1.00 20.00     0.020 C 
ENDROOT
TORSDOF 0
ENDMDL
MODEL 9
REMARK VINA RESULT:      -3.2     19.988     21.955
REMARK  0 active torsions:
REMARK  status: ('A' for Active; 'I' for Inactive)
ROOT
HETATM    1  C1  UNL     1     -26.577  -2.471  10.695  1.00 20.00    -0.071 C 
HETATM    2  C2  UNL     1     -25.371  -2.478  10.116  1.00 20.00    -0.027 C 
HETATM    3  C3  UNL     1     -28.611  -3.720  10.063  1.00 20.00     0.009 C 
HETATM    4  C4  UNL     1     -29.492  -2.582  10.611  1.00 20.00     0.006 C 
HETATM    5  C5  UNL     1     -28.042  -3.282  12.332  1.00 20.00     0.014 C 
HETATM    6  C6  UNL     1     -27.401  -3.706  11.013  1.00 20.00     0.015 C 
HETATM    7  C7  UNL     1     -28.626  -1.987  11.746  1.00 20.00    -0.002 C 
HETATM    8  C8  UNL     1     -27.354  -1.259  11.199  1.00 20.00    -0.021 C 
HETATM    9  C9  UNL     1     -24.657  -3.717   9.692  1.00 20.00     0.036 C 
HETATM   10  C10 UNL     1     -27.662  -0.247  10.085  1.00 20.00     0.020 C 
HETATM   11  C11 UNL     1     -26.610  -0.528  12.332  1.00 20.00     0.020 C 
ENDROOT
TORSDOF 0
ENDMDL
