MODEL 1
REMARK VINA RESULT:      -3.7      0.000      0.000
REMARK  0 active torsions:
REMARK  status: ('A' for Active; 'I' for Inactive)
ROOT
HETATM    1  C1  UNL     1     -41.100  13.325   5.456  1.00 20.00     0.023 C 
HETATM    2  C2  UNL     1     -40.059  12.875   6.164  1.00 20.00     0.047 C 
HETATM    3  C3  UNL     1     -42.131  14.123   6.236  1.00 20.00     0.040 C 
HETATM    4  C4  UNL     1     -38.927  12.046   5.681  1.00 20.00     0.076 C 
HETATM    5  C5  UNL     1     -43.416  13.293   6.343  1.00 20.00     0.029 C 
HETATM    6  C6  UNL     1     -42.438  15.453   5.549  1.00 20.00     0.029 C 
HETATM    7  O7  UNL     1     -40.056  13.227   7.507  1.00 20.00    -0.305 OA
HETATM    8  P8  UNL     1     -41.259  14.279   7.855  1.00 20.00     0.165 P 
HETATM    9  S9  UNL     1     -42.179  14.038   9.540  1.00 20.00    -0.049 SA
HETATM   10 CL10 UNL     1     -40.250  16.020   7.833  1.00 20.00    -0.054 Cl
ENDROOT
TORSDOF 0
ENDMDL
MODEL 2
REMARK VINA RESULT:      -3.5     13.439     13.962
REMARK  0 active torsions:
REMARK  status: ('A' for Active; 'I' for Inactive)
ROOT
HETATM    1  C1  UNL     1     -33.812  15.534  -4.310  1.00 20.00     0.023 C 
HETATM    2  C2  UNL     1     -33.924  16.617  -3.532  1.00 20.00     0.047 C 
HETATM    3  C3  UNL     1     -34.726  15.497  -5.523  1.00 20.00     0.040 C 
HETATM    4  C4  UNL     1     -33.191  16.907  -2.275  1.00 20.00     0.076 C 
HETATM    5  C5  UNL     1     -35.787  14.411  -5.305  1.00 20.00     0.029 C 
HETATM    6  C6  UNL     1     -33.941  15.197  -6.799  1.00 20.00     0.029 C 
HETATM    7  O7  UNL     1     -34.841  17.566  -3.963  1.00 20.00    -0.305 OA
HETATM    8  P8  UNL     1     -35.437  17.199  -5.442  1.00 20.00     0.165 P 
HETATM    9  S9  UNL     1     -37.317  17.537  -5.741  1.00 20.00    -0.049 SA
HETATM   10 CL10 UNL     1     -34.302  18.385  -6.606  1.00 20.00    -0.054 Cl
ENDROOT
TORSDOF 0
ENDMDL
MODEL 3
REMARK VINA RESULT:      -3.2      2.740      3.047
REMARK  0 active torsions:
REMARK  status: ('A' for Active; 'I' for Inactive)
ROOT
HETATM    1  C1  UNL     1     -39.833  13.443   7.114  1.00 20.00     0.023 C 
HETATM    2  C2  UNL     1     -39.952  12.887   5.903  1.00 20.00     0.047 C 
HETATM    3  C3  UNL     1     -40.959  14.377   7.523  1.00 20.00     0.040 C 
HETATM    4  C4  UNL     1     -38.998  11.971   5.231  1.00 20.00     0.076 C 
HETATM    5  C5  UNL     1     -40.421  15.813   7.546  1.00 20.00     0.029 C 
HETATM    6  C6  UNL     1     -41.506  14.014   8.903  1.00 20.00     0.029 C 
HETATM    7  O7  UNL     1     -41.103  13.224   5.205  1.00 20.00    -0.305 OA
HETATM    8  P8  UNL     1     -42.136  14.090   6.131  1.00 20.00     0.165 P 
HETATM    9  S9  UNL     1     -43.079  15.545   5.273  1.00 20.00    -0.049 SA
HETATM   10 CL10 UNL     1     -43.417  12.649   6.708  1.00 20.00    -0.054 Cl
ENDROOT
TORSDOF 0
ENDMDL
MODEL 4
REMARK VINA RESULT:      -3.1     13.734     14.102
REMARK  0 active torsions:
REMARK  status: ('A' for Active; 'I' for Inactive)
ROOT
HETATM    1  C1  UNL     1     -35.007  17.691  -4.017  1.00 20.00     0.023 C 
HETATM    2  C2  UNL     1     -34.055  16.829  -3.639  1.00 20.00     0.047 C 
HETATM    3  C3  UNL     1     -35.588  17.464  -5.403  1.00 20.00     0.040 C 
HETATM    4  C4  UNL     1     -33.291  16.826  -2.367  1.00 20.00     0.076 C 
HETATM    5  C5  UNL     1     -35.127  18.603  -6.320  1.00 20.00     0.029 C 
HETATM    6  C6  UNL     1     -37.114  17.425  -5.363  1.00 20.00     0.029 C 
HETATM    7  O7  UNL     1     -33.755  15.834  -4.559  1.00 20.00    -0.305 OA
HETATM    8  P8  UNL     1     -34.789  15.854  -5.826  1.00 20.00     0.165 P 
HETATM    9  S9  UNL     1     -34.042  15.513  -7.578  1.00 20.00    -0.049 SA
HETATM   10 CL10 UNL     1     -36.061  14.389  -5.293  1.00 20.00    -0.054 Cl
ENDROOT
TORSDOF 0
ENDMDL
MODEL 5
REMARK VINA RESULT:      -3.1     13.307     13.813
REMARK  0 active torsions:
REMARK  status: ('A' for Active; 'I' for Inactive)
ROOT
HETATM    1  C1  UNL     1     -33.604  16.720  -3.127  1.00 20.00     0.023 C 
HETATM    2  C2  UNL     1     -33.754  15.887  -4.164  1.00 20.00     0.047 C 
HETATM    3  C3  UNL     1     -34.070  18.148  -3.359  1.00 20.00     0.040 C 
HETATM    4  C4  UNL     1     -33.361  14.458  -4.240  1.00 20.00     0.076 C 
HETATM    5  C5  UNL     1     -32.839  19.062  -3.412  1.00 20.00     0.029 C 
HETATM    6  C6  UNL     1     -35.004  18.613  -2.242  1.00 20.00     0.029 C 
HETATM    7  O7  UNL     1     -34.338  16.443  -5.293  1.00 20.00    -0.305 OA
HETATM    8  P8  UNL     1     -34.877  17.961  -5.007  1.00 20.00     0.165 P 
HETATM    9  S9  UNL     1     -34.634  19.261  -6.419  1.00 20.00    -0.049 SA
HETATM   10 CL10 UNL     1     -36.833  17.608  -4.687  1.00 20.00    -0.054 Cl
ENDROOT
TORSDOF 0
ENDMDL
MODEL 6
REMARK VINA RESULT:      -2.9      1.328      1.443
REMARK  0 active torsions:
REMARK  status: ('A' for Active; 'I' for Inactive)
ROOT
HETATM    1  C1  UNL     1     -41.184  14.409   5.903  1.00 20.00     0.023 C 
HETATM    2  C2  UNL     1     -40.790  13.208   6.341  1.00 20.00     0.047 C 
HETATM    3  C3  UNL     1     -41.958  15.252   6.903  1.00 20.00     0.040 C 
HETATM    4  C4  UNL     1     -40.055  12.165   5.583  1.00 20.00     0.076 C 
HETATM    5  C5  UNL     1     -43.417  15.345   6.441  1.00 20.00     0.029 C 
HETATM    6  C6  UNL     1     -41.367  16.657   7.015  1.00 20.00     0.029 C 
HETATM    7  O7  UNL     1     -41.120  12.917   7.657  1.00 20.00    -0.305 OA
HETATM    8  P8  UNL     1     -41.764  14.215   8.417  1.00 20.00     0.165 P 
HETATM    9  S9  UNL     1     -43.237  13.886   9.627  1.00 20.00    -0.049 SA
HETATM   10 CL10 UNL     1     -40.156  14.898   9.417  1.00 20.00    -0.054 Cl
ENDROOT
TORSDOF 0
ENDMDL
MODEL 7
REMARK VINA RESULT:      -2.8     13.097     13.645
REMARK  0 active torsions:
REMARK  status: ('A' for Active; 'I' for Inactive)
ROOT
HETATM    1  C1  UNL     1     -35.229  18.613  -2.815  1.00 20.00     0.023 C 
HETATM    2  C2  UNL     1     -36.361  18.347  -3.478  1.00 20.00     0.047 C 
HETATM    3  C3  UNL     1     -33.983  17.914  -3.334  1.00 20.00     0.040 C 
HETATM    4  C4  UNL     1     -37.723  18.853  -3.180  1.00 20.00     0.076 C 
HETATM    5  C5  UNL     1     -33.550  16.859  -2.309  1.00 20.00     0.029 C 
HETATM    6  C6  UNL     1     -32.844  18.908  -3.557  1.00 20.00     0.029 C 
HETATM    7  O7  UNL     1     -36.227  17.492  -4.563  1.00 20.00    -0.305 OA
HETATM    8  P8  UNL     1     -34.657  17.159  -4.877  1.00 20.00     0.165 P 
HETATM    9  S9  UNL     1     -34.229  15.347  -5.400  1.00 20.00    -0.049 SA
HETATM   10 CL10 UNL     1     -34.298  18.443  -6.385  1.00 20.00    -0.054 Cl
ENDROOT
TORSDOF 0
ENDMDL
MODEL 8
REMARK VINA RESULT:      -2.8     13.110     13.497
REMARK  0 active torsions:
REMARK  status: ('A' for Active; 'I' for Inactive)
ROOT
HETATM    1  C1  UNL     1     -34.528  16.363  -5.312  1.00 20.00     0.023 C 
HETATM    2  C2  UNL     1     -33.818  15.889  -4.281  1.00 20.00     0.047 C 
HETATM    3  C3  UNL     1     -35.156  17.732  -5.105  1.00 20.00     0.040 C 
HETATM    4  C4  UNL     1     -33.128  14.580  -4.185  1.00 20.00     0.076 C 
HETATM    5  C5  UNL     1     -36.676  17.563  -4.998  1.00 20.00     0.029 C 
HETATM    6  C6  UNL     1     -34.826  18.672  -6.263  1.00 20.00     0.029 C 
HETATM    7  O7  UNL     1     -33.734  16.731  -3.181  1.00 20.00    -0.305 OA
HETATM    8  P8  UNL     1     -34.385  18.198  -3.494  1.00 20.00     0.165 P 
HETATM    9  S9  UNL     1     -35.405  19.030  -2.076  1.00 20.00    -0.049 SA
HETATM   10 CL10 UNL     1     -32.727  19.263  -3.902  1.00 20.00    -0.054 Cl
ENDROOT
TORSDOF 0
ENDMDL
MODEL 9
REMARK VINA RESULT:      -2.7     13.547     14.174
REMARK  0 active torsions:
REMARK  status: ('A' for Active; 'I' for Inactive)
ROOT
HETATM    1  C1  UNL     1     -36.053  15.233  -5.499  1.00 20.00     0.023 C 
HETATM    2  C2  UNL     1     -36.975  16.180  -5.294  1.00 20.00     0.047 C 
HETATM    3  C3  UNL     1     -34.628  15.730  -5.680  1.00 20.00     0.040 C 
HETATM    4  C4  UNL     1     -38.437  15.995  -5.120  1.00 20.00     0.076 C 
HETATM    5  C5  UNL     1     -34.214  15.511  -7.141  1.00 20.00     0.029 C 
HETATM    6  C6  UNL     1     -33.662  14.988  -4.758  1.00 20.00     0.029 C 
HETATM    7  O7  UNL     1     -36.492  17.480  -5.248  1.00 20.00    -0.305 OA
HETATM    8  P8  UNL     1     -34.857  17.516  -5.275  1.00 20.00     0.165 P 
HETATM    9  S9  UNL     1     -34.025  18.916  -6.319  1.00 20.00    -0.049 SA
HETATM   10 CL10 UNL     1     -34.456  17.749  -3.316  1.00 20.00    -0.054 Cl
ENDROOT
TORSDOF 0
ENDMDL
