MODEL 1
REMARK VINA RESULT:      -5.0      0.000      0.000
REMARK  2 active torsions:
REMARK  status: ('A' for Active; 'I' for Inactive)
REMARK    1  A    between atoms: C1_1  and  P9_9 
REMARK    2  A    between atoms: C2_2  and  P9_9 
ROOT
HETATM    1  P9  UNL     1     -34.412   6.503   4.646  1.00 20.00     0.209 P 
HETATM    2 CL10 UNL     1     -33.744   4.693   3.823  1.00 20.00    -0.077 Cl
ENDROOT
BRANCH   1   3
HETATM    3  C1  UNL     1     -34.340   6.177   6.376  1.00 20.00     0.429 C 
HETATM    4  F3  UNL     1     -34.570   7.344   6.981  1.00 20.00    -0.165 F 
HETATM    5  F4  UNL     1     -35.306   5.290   6.619  1.00 20.00    -0.165 F 
HETATM    6  F5  UNL     1     -33.129   5.692   6.652  1.00 20.00    -0.165 F 
ENDBRANCH   1   3
BRANCH   1   7
HETATM    7  C2  UNL     1     -33.047   7.576   4.350  1.00 20.00     0.429 C 
HETATM    8  F6  UNL     1     -33.554   8.661   3.761  1.00 20.00    -0.165 F 
HETATM    9  F7  UNL     1     -32.226   6.906   3.539  1.00 20.00    -0.165 F 
HETATM   10  F8  UNL     1     -32.480   7.855   5.524  1.00 20.00    -0.165 F 
ENDBRANCH   1   7
TORSDOF 2
ENDMDL
MODEL 2
REMARK VINA RESULT:      -5.0      0.085      1.207
REMARK  2 active torsions:
REMARK  status: ('A' for Active; 'I' for Inactive)
REMARK    1  A    between atoms: C1_1  and  P9_9 
REMARK    2  A    between atoms: C2_2  and  P9_9 
ROOT
HETATM    1  P9  UNL     1     -34.441   6.422   4.654  1.00 20.00     0.209 P 
HETATM    2 CL10 UNL     1     -33.721   4.613   3.873  1.00 20.00    -0.077 Cl
ENDROOT
BRANCH   1   3
HETATM    3  C1  UNL     1     -34.383   6.131   6.390  1.00 20.00     0.429 C 
HETATM    4  F3  UNL     1     -35.356   5.256   6.649  1.00 20.00    -0.165 F 
HETATM    5  F4  UNL     1     -33.175   5.620   6.633  1.00 20.00    -0.165 F 
HETATM    6  F5  UNL     1     -34.571   7.297   7.009  1.00 20.00    -0.165 F 
ENDBRANCH   1   3
BRANCH   1   7
HETATM    7  C2  UNL     1     -33.098   7.521   4.353  1.00 20.00     0.429 C 
HETATM    8  F6  UNL     1     -33.636   8.623   3.826  1.00 20.00    -0.165 F 
HETATM    9  F7  UNL     1     -32.300   6.893   3.488  1.00 20.00    -0.165 F 
HETATM   10  F8  UNL     1     -32.493   7.759   5.517  1.00 20.00    -0.165 F 
ENDBRANCH   1   7
TORSDOF 2
ENDMDL
MODEL 3
REMARK VINA RESULT:      -5.0      0.133      1.245
REMARK  2 active torsions:
REMARK  status: ('A' for Active; 'I' for Inactive)
REMARK    1  A    between atoms: C1_1  and  P9_9 
REMARK    2  A    between atoms: C2_2  and  P9_9 
ROOT
HETATM    1  P9  UNL     1     -34.467   6.381   4.681  1.00 20.00     0.209 P 
HETATM    2 CL10 UNL     1     -33.751   4.570   3.899  1.00 20.00    -0.077 Cl
ENDROOT
BRANCH   1   3
HETATM    3  C1  UNL     1     -34.381   6.099   6.418  1.00 20.00     0.429 C 
HETATM    4  F3  UNL     1     -34.570   7.287   6.994  1.00 20.00    -0.165 F 
HETATM    5  F4  UNL     1     -35.370   5.247   6.697  1.00 20.00    -0.165 F 
HETATM    6  F5  UNL     1     -33.181   5.586   6.692  1.00 20.00    -0.165 F 
ENDBRANCH   1   3
BRANCH   1   7
HETATM    7  C2  UNL     1     -33.133   7.483   4.355  1.00 20.00     0.429 C 
HETATM    8  F6  UNL     1     -32.532   7.691   5.528  1.00 20.00    -0.165 F 
HETATM    9  F7  UNL     1     -33.690   8.597   3.876  1.00 20.00    -0.165 F 
HETATM   10  F8  UNL     1     -32.326   6.901   3.468  1.00 20.00    -0.165 F 
ENDBRANCH   1   7
TORSDOF 2
ENDMDL
MODEL 4
REMARK VINA RESULT:      -5.0      1.604      1.954
REMARK  2 active torsions:
REMARK  status: ('A' for Active; 'I' for Inactive)
REMARK    1  A    between atoms: C1_1  and  P9_9 
REMARK    2  A    between atoms: C2_2  and  P9_9 
ROOT
HETATM    1  P9  UNL     1     -34.060   7.091   4.075  1.00 20.00     0.209 P 
HETATM    2 CL10 UNL     1     -32.608   5.994   3.030  1.00 20.00    -0.077 Cl
ENDROOT
BRANCH   1   3
HETATM    3  C1  UNL     1     -34.946   5.827   4.924  1.00 20.00     0.429 C 
HETATM    4  F3  UNL     1     -36.133   5.742   4.323  1.00 20.00    -0.165 F 
HETATM    5  F4  UNL     1     -34.227   4.713   4.769  1.00 20.00    -0.165 F 
HETATM    6  F5  UNL     1     -35.049   6.186   6.204  1.00 20.00    -0.165 F 
ENDBRANCH   1   3
BRANCH   1   7
HETATM    7  C2  UNL     1     -33.107   7.872   5.333  1.00 20.00     0.429 C 
HETATM    8  F6  UNL     1     -33.832   8.912   5.751  1.00 20.00    -0.165 F 
HETATM    9  F7  UNL     1     -31.974   8.259   4.743  1.00 20.00    -0.165 F 
HETATM   10  F8  UNL     1     -32.894   6.981   6.301  1.00 20.00    -0.165 F 
ENDBRANCH   1   7
TORSDOF 2
ENDMDL
MODEL 5
REMARK VINA RESULT:      -4.9      1.506      3.227
REMARK  2 active torsions:
REMARK  status: ('A' for Active; 'I' for Inactive)
REMARK    1  A    between atoms: C1_1  and  P9_9 
REMARK    2  A    between atoms: C2_2  and  P9_9 
ROOT
HETATM    1  P9  UNL     1     -33.247   6.310   4.947  1.00 20.00     0.209 P 
HETATM    2 CL10 UNL     1     -32.874   6.154   2.888  1.00 20.00    -0.077 Cl
ENDROOT
BRANCH   1   3
HETATM    3  C1  UNL     1     -33.580   8.029   5.139  1.00 20.00     0.429 C 
HETATM    4  F3  UNL     1     -34.298   8.142   6.258  1.00 20.00    -0.165 F 
HETATM    5  F4  UNL     1     -32.389   8.620   5.249  1.00 20.00    -0.165 F 
HETATM    6  F5  UNL     1     -34.250   8.440   4.062  1.00 20.00    -0.165 F 
ENDBRANCH   1   3
BRANCH   1   7
HETATM    7  C2  UNL     1     -34.824   5.542   5.102  1.00 20.00     0.429 C 
HETATM    8  F6  UNL     1     -35.091   5.510   6.409  1.00 20.00    -0.165 F 
HETATM    9  F7  UNL     1     -34.685   4.317   4.591  1.00 20.00    -0.165 F 
HETATM   10  F8  UNL     1     -35.707   6.275   4.422  1.00 20.00    -0.165 F 
ENDBRANCH   1   7
TORSDOF 2
ENDMDL
MODEL 6
REMARK VINA RESULT:      -4.8      1.507      3.171
REMARK  2 active torsions:
REMARK  status: ('A' for Active; 'I' for Inactive)
REMARK    1  A    between atoms: C1_1  and  P9_9 
REMARK    2  A    between atoms: C2_2  and  P9_9 
ROOT
HETATM    1  P9  UNL     1     -33.245   6.310   4.936  1.00 20.00     0.209 P 
HETATM    2 CL10 UNL     1     -32.895   6.170   2.873  1.00 20.00    -0.077 Cl
ENDROOT
BRANCH   1   3
HETATM    3  C1  UNL     1     -33.569   8.029   5.146  1.00 20.00     0.429 C 
HETATM    4  F3  UNL     1     -32.377   8.618   5.255  1.00 20.00    -0.165 F 
HETATM    5  F4  UNL     1     -34.216   8.414   4.044  1.00 20.00    -0.165 F 
HETATM    6  F5  UNL     1     -34.311   8.176   6.244  1.00 20.00    -0.165 F 
ENDBRANCH   1   3
BRANCH   1   7
HETATM    7  C2  UNL     1     -34.824   5.548   5.102  1.00 20.00     0.429 C 
HETATM    8  F6  UNL     1     -35.087   5.527   6.410  1.00 20.00    -0.165 F 
HETATM    9  F7  UNL     1     -34.689   4.318   4.601  1.00 20.00    -0.165 F 
HETATM   10  F8  UNL     1     -35.707   6.277   4.419  1.00 20.00    -0.165 F 
ENDBRANCH   1   7
TORSDOF 2
ENDMDL
MODEL 7
REMARK VINA RESULT:      -4.8      1.506      3.096
REMARK  2 active torsions:
REMARK  status: ('A' for Active; 'I' for Inactive)
REMARK    1  A    between atoms: C1_1  and  P9_9 
REMARK    2  A    between atoms: C2_2  and  P9_9 
ROOT
HETATM    1  P9  UNL     1     -33.235   6.310   4.935  1.00 20.00     0.209 P 
HETATM    2 CL10 UNL     1     -32.907   6.170   2.867  1.00 20.00    -0.077 Cl
ENDROOT
BRANCH   1   3
HETATM    3  C1  UNL     1     -33.563   8.028   5.146  1.00 20.00     0.429 C 
HETATM    4  F3  UNL     1     -34.242   8.409   4.064  1.00 20.00    -0.165 F 
HETATM    5  F4  UNL     1     -34.299   8.123   6.256  1.00 20.00    -0.165 F 
HETATM    6  F5  UNL     1     -32.394   8.658   5.261  1.00 20.00    -0.165 F 
ENDBRANCH   1   3
BRANCH   1   7
HETATM    7  C2  UNL     1     -34.809   5.542   5.118  1.00 20.00     0.429 C 
HETATM    8  F6  UNL     1     -34.680   4.315   4.608  1.00 20.00    -0.165 F 
HETATM    9  F7  UNL     1     -35.662   6.288   4.413  1.00 20.00    -0.165 F 
HETATM   10  F8  UNL     1     -35.109   5.523   6.416  1.00 20.00    -0.165 F 
ENDBRANCH   1   7
TORSDOF 2
ENDMDL
MODEL 8
REMARK VINA RESULT:      -4.7      2.149      2.712
REMARK  2 active torsions:
REMARK  status: ('A' for Active; 'I' for Inactive)
REMARK    1  A    between atoms: C1_1  and  P9_9 
REMARK    2  A    between atoms: C2_2  and  P9_9 
ROOT
HETATM    1  P9  UNL     1     -33.250   6.457   5.283  1.00 20.00     0.209 P 
HETATM    2 CL10 UNL     1     -34.518   7.055   6.844  1.00 20.00    -0.077 Cl
ENDROOT
BRANCH   1   3
HETATM    3  C1  UNL     1     -34.328   5.500   4.271  1.00 20.00     0.429 C 
HETATM    4  F3  UNL     1     -33.811   5.540   3.041  1.00 20.00    -0.165 F 
HETATM    5  F4  UNL     1     -34.305   4.267   4.780  1.00 20.00    -0.165 F 
HETATM    6  F5  UNL     1     -35.542   6.048   4.329  1.00 20.00    -0.165 F 
ENDBRANCH   1   3
BRANCH   1   7
HETATM    7  C2  UNL     1     -33.029   7.956   4.385  1.00 20.00     0.429 C 
HETATM    8  F6  UNL     1     -32.363   8.778   5.199  1.00 20.00    -0.165 F 
HETATM    9  F7  UNL     1     -34.257   8.405   4.118  1.00 20.00    -0.165 F 
HETATM   10  F8  UNL     1     -32.342   7.674   3.277  1.00 20.00    -0.165 F 
ENDBRANCH   1   7
TORSDOF 2
ENDMDL
MODEL 9
REMARK VINA RESULT:      -4.7      2.147      2.695
REMARK  2 active torsions:
REMARK  status: ('A' for Active; 'I' for Inactive)
REMARK    1  A    between atoms: C1_1  and  P9_9 
REMARK    2  A    between atoms: C2_2  and  P9_9 
ROOT
HETATM    1  P9  UNL     1     -33.241   6.466   5.294  1.00 20.00     0.209 P 
HETATM    2 CL10 UNL     1     -34.506   7.056   6.860  1.00 20.00    -0.077 Cl
ENDROOT
BRANCH   1   3
HETATM    3  C1  UNL     1     -34.319   5.510   4.281  1.00 20.00     0.429 C 
HETATM    4  F3  UNL     1     -33.791   5.535   3.056  1.00 20.00    -0.165 F 
HETATM    5  F4  UNL     1     -34.313   4.281   4.801  1.00 20.00    -0.165 F 
HETATM    6  F5  UNL     1     -35.528   6.070   4.324  1.00 20.00    -0.165 F 
ENDBRANCH   1   3
BRANCH   1   7
HETATM    7  C2  UNL     1     -33.024   7.968   4.401  1.00 20.00     0.429 C 
HETATM    8  F6  UNL     1     -32.313   7.651   3.316  1.00 20.00    -0.165 F 
HETATM    9  F7  UNL     1     -32.353   8.783   5.217  1.00 20.00    -0.165 F 
HETATM   10  F8  UNL     1     -34.232   8.442   4.094  1.00 20.00    -0.165 F 
ENDBRANCH   1   7
TORSDOF 2
ENDMDL
