MODEL 1
REMARK VINA RESULT:      -4.4      0.000      0.000
REMARK  1 active torsions:
REMARK  status: ('A' for Active; 'I' for Inactive)
REMARK    1  A    between atoms: C4_4  and  C8_8 
ROOT
HETATM    1  C1  UNL     1     -34.841  17.643  -4.617  1.00 20.00     0.030 A 
HETATM    2  C2  UNL     1     -33.327  16.552  -3.100  1.00 20.00     0.055 A 
HETATM    3  C3  UNL     1     -34.641  18.807  -3.895  1.00 20.00     0.119 A 
HETATM    4  C4  UNL     1     -34.168  16.498  -4.206  1.00 20.00    -0.010 A 
HETATM    5  C5  UNL     1     -33.194  17.766  -2.445  1.00 20.00     0.126 A 
HETATM    6  N9  UNL     1     -33.832  18.899  -2.815  1.00 20.00    -0.249 NA
HETATM    7 CL12 UNL     1     -32.179  17.927  -1.072  1.00 20.00    -0.062 Cl
ENDROOT
BRANCH   4   8
HETATM    8  C8  UNL     1     -34.353  15.166  -4.977  1.00 20.00     0.173 C 
HETATM    9  C6  UNL     1     -35.783  14.780  -5.389  1.00 20.00     0.218 C 
HETATM   10  O10 UNL     1     -35.339  14.469  -6.731  1.00 20.00    -0.384 OA
HETATM   11  C7  UNL     1     -34.104  15.185  -6.493  1.00 20.00     0.218 C 
HETATM   12  F11 UNL     1     -33.678  14.212  -4.300  1.00 20.00    -0.233 F 
ENDBRANCH   4   8
TORSDOF 1
ENDMDL
MODEL 2
REMARK VINA RESULT:      -4.1      3.740      4.849
REMARK  1 active torsions:
REMARK  status: ('A' for Active; 'I' for Inactive)
REMARK    1  A    between atoms: C4_4  and  C8_8 
ROOT
HETATM    1  C1  UNL     1     -33.290  15.720  -3.585  1.00 20.00     0.030 A 
HETATM    2  C2  UNL     1     -34.790  17.136  -4.822  1.00 20.00     0.055 A 
HETATM    3  C3  UNL     1     -33.532  14.733  -4.525  1.00 20.00     0.119 A 
HETATM    4  C4  UNL     1     -33.935  16.942  -3.743  1.00 20.00    -0.010 A 
HETATM    5  C5  UNL     1     -34.964  16.085  -5.708  1.00 20.00     0.126 A 
HETATM    6  N9  UNL     1     -34.356  14.885  -5.587  1.00 20.00    -0.249 NA
HETATM    7 CL12 UNL     1     -35.999  16.234  -7.068  1.00 20.00    -0.062 Cl
ENDROOT
BRANCH   4   8
HETATM    8  C8  UNL     1     -33.701  18.083  -2.720  1.00 20.00     0.173 C 
HETATM    9  C6  UNL     1     -32.604  17.873  -1.664  1.00 20.00     0.218 C 
HETATM   10  O10 UNL     1     -32.069  19.193  -1.922  1.00 20.00    -0.384 OA
HETATM   11  C7  UNL     1     -32.816  19.258  -3.160  1.00 20.00     0.218 C 
HETATM   12  F11 UNL     1     -34.909  18.432  -2.226  1.00 20.00    -0.233 F 
ENDBRANCH   4   8
TORSDOF 1
ENDMDL
MODEL 3
REMARK VINA RESULT:      -3.9     24.634     25.355
REMARK  1 active torsions:
REMARK  status: ('A' for Active; 'I' for Inactive)
REMARK    1  A    between atoms: C4_4  and  C8_8 
ROOT
HETATM    1  C1  UNL     1     -25.477  -1.125  12.019  1.00 20.00     0.030 A 
HETATM    2  C2  UNL     1     -25.778  -2.664  10.195  1.00 20.00     0.055 A 
HETATM    3  C3  UNL     1     -24.170  -1.574  12.111  1.00 20.00     0.119 A 
HETATM    4  C4  UNL     1     -26.290  -1.686  11.040  1.00 20.00    -0.010 A 
HETATM    5  C5  UNL     1     -24.457  -3.044  10.369  1.00 20.00     0.126 A 
HETATM    6  N9  UNL     1     -23.637  -2.523  11.309  1.00 20.00    -0.249 NA
HETATM    7 CL12 UNL     1     -23.740  -4.244   9.374  1.00 20.00    -0.062 Cl
ENDROOT
BRANCH   4   8
HETATM    8  C8  UNL     1     -27.761  -1.221  10.891  1.00 20.00     0.173 C 
HETATM    9  C6  UNL     1     -28.807  -2.288  10.528  1.00 20.00     0.218 C 
HETATM   10  O10 UNL     1     -29.691  -1.810  11.571  1.00 20.00    -0.384 OA
HETATM   11  C7  UNL     1     -28.594  -1.084  12.175  1.00 20.00     0.218 C 
HETATM   12  F11 UNL     1     -27.759  -0.131  10.094  1.00 20.00    -0.233 F 
ENDBRANCH   4   8
TORSDOF 1
ENDMDL
MODEL 4
REMARK VINA RESULT:      -3.9     12.538     13.162
REMARK  1 active torsions:
REMARK  status: ('A' for Active; 'I' for Inactive)
REMARK    1  A    between atoms: C4_4  and  C8_8 
ROOT
HETATM    1  C1  UNL     1     -33.290   8.101   5.267  1.00 20.00     0.030 A 
HETATM    2  C2  UNL     1     -33.296   7.103   3.078  1.00 20.00     0.055 A 
HETATM    3  C3  UNL     1     -32.435   9.067   4.765  1.00 20.00     0.119 A 
HETATM    4  C4  UNL     1     -33.725   7.103   4.401  1.00 20.00    -0.010 A 
HETATM    5  C5  UNL     1     -32.440   8.115   2.674  1.00 20.00     0.126 A 
HETATM    6  N9  UNL     1     -31.996   9.100   3.486  1.00 20.00    -0.249 NA
HETATM    7 CL12 UNL     1     -31.860   8.195   1.062  1.00 20.00    -0.062 Cl
ENDROOT
BRANCH   4   8
HETATM    8  C8  UNL     1     -34.684   5.996   4.908  1.00 20.00     0.173 C 
HETATM    9  C6  UNL     1     -34.198   4.541   4.812  1.00 20.00     0.218 C 
HETATM   10  O10 UNL     1     -34.610   4.287   6.177  1.00 20.00    -0.384 OA
HETATM   11  C7  UNL     1     -34.701   5.712   6.418  1.00 20.00     0.218 C 
HETATM   12  F11 UNL     1     -35.895   6.230   4.358  1.00 20.00    -0.233 F 
ENDBRANCH   4   8
TORSDOF 1
ENDMDL
MODEL 5
REMARK VINA RESULT:      -3.9      1.582      2.058
REMARK  1 active torsions:
REMARK  status: ('A' for Active; 'I' for Inactive)
REMARK    1  A    between atoms: C4_4  and  C8_8 
ROOT
HETATM    1  C1  UNL     1     -33.227  16.248  -3.356  1.00 20.00     0.030 A 
HETATM    2  C2  UNL     1     -35.268  17.142  -4.261  1.00 20.00     0.055 A 
HETATM    3  C3  UNL     1     -33.297  17.224  -2.376  1.00 20.00     0.119 A 
HETATM    4  C4  UNL     1     -34.235  16.212  -4.312  1.00 20.00    -0.010 A 
HETATM    5  C5  UNL     1     -35.247  18.078  -3.239  1.00 20.00     0.126 A 
HETATM    6  N9  UNL     1     -34.285  18.144  -2.293  1.00 20.00    -0.249 NA
HETATM    7 CL12 UNL     1     -36.480  19.263  -3.097  1.00 20.00    -0.062 Cl
ENDROOT
BRANCH   4   8
HETATM    8  C8  UNL     1     -34.207  15.141  -5.432  1.00 20.00     0.173 C 
HETATM    9  C6  UNL     1     -35.558  14.609  -5.936  1.00 20.00     0.218 C 
HETATM   10  O10 UNL     1     -35.141  14.781  -7.312  1.00 20.00    -0.384 OA
HETATM   11  C7  UNL     1     -34.054  15.634  -6.880  1.00 20.00     0.218 C 
HETATM   12  F11 UNL     1     -33.324  14.191  -5.057  1.00 20.00    -0.233 F 
ENDBRANCH   4   8
TORSDOF 1
ENDMDL
MODEL 6
REMARK VINA RESULT:      -3.9      3.251      4.263
REMARK  1 active torsions:
REMARK  status: ('A' for Active; 'I' for Inactive)
REMARK    1  A    between atoms: C4_4  and  C8_8 
ROOT
HETATM    1  C1  UNL     1     -31.730  18.306  -0.662  1.00 20.00     0.030 A 
HETATM    2  C2  UNL     1     -34.103  18.481  -0.313  1.00 20.00     0.055 A 
HETATM    3  C3  UNL     1     -31.561  18.715   0.650  1.00 20.00     0.119 A 
HETATM    4  C4  UNL     1     -33.028  18.189  -1.146  1.00 20.00    -0.010 A 
HETATM    5  C5  UNL     1     -33.828  18.882   0.984  1.00 20.00     0.126 A 
HETATM    6  N9  UNL     1     -32.581  19.008   1.489  1.00 20.00    -0.249 NA
HETATM    7 CL12 UNL     1     -35.091  19.263   2.082  1.00 20.00    -0.062 Cl
ENDROOT
BRANCH   4   8
HETATM    8  C8  UNL     1     -33.277  17.735  -2.607  1.00 20.00     0.173 C 
HETATM    9  C6  UNL     1     -34.681  17.960  -3.189  1.00 20.00     0.218 C 
HETATM   10  O10 UNL     1     -34.117  18.526  -4.396  1.00 20.00    -0.384 OA
HETATM   11  C7  UNL     1     -32.843  18.691  -3.728  1.00 20.00     0.218 C 
HETATM   12  F11 UNL     1     -32.808  16.474  -2.720  1.00 20.00    -0.233 F 
ENDBRANCH   4   8
TORSDOF 1
ENDMDL
MODEL 7
REMARK VINA RESULT:      -3.8      1.736      2.034
REMARK  1 active torsions:
REMARK  status: ('A' for Active; 'I' for Inactive)
REMARK    1  A    between atoms: C4_4  and  C8_8 
ROOT
HETATM    1  C1  UNL     1     -35.113  18.053  -3.560  1.00 20.00     0.030 A 
HETATM    2  C2  UNL     1     -33.507  17.049  -2.077  1.00 20.00     0.055 A 
HETATM    3  C3  UNL     1     -35.338  19.008  -2.583  1.00 20.00     0.119 A 
HETATM    4  C4  UNL     1     -34.178  17.058  -3.294  1.00 20.00    -0.010 A 
HETATM    5  C5  UNL     1     -33.803  18.051  -1.166  1.00 20.00     0.126 A 
HETATM    6  N9  UNL     1     -34.705  19.033  -1.388  1.00 20.00    -0.249 NA
HETATM    7 CL12 UNL     1     -33.024  18.120   0.361  1.00 20.00    -0.062 Cl
ENDROOT
BRANCH   4   8
HETATM    8  C8  UNL     1     -33.886  15.962  -4.351  1.00 20.00     0.173 C 
HETATM    9  C6  UNL     1     -32.597  15.142  -4.183  1.00 20.00     0.218 C 
HETATM   10  O10 UNL     1     -33.325  13.909  -4.400  1.00 20.00    -0.384 OA
HETATM   11  C7  UNL     1     -34.575  14.601  -4.169  1.00 20.00     0.218 C 
HETATM   12  F11 UNL     1     -34.048  16.525  -5.568  1.00 20.00    -0.233 F 
ENDBRANCH   4   8
TORSDOF 1
ENDMDL
MODEL 8
REMARK VINA RESULT:      -3.7      3.468      4.529
REMARK  1 active torsions:
REMARK  status: ('A' for Active; 'I' for Inactive)
REMARK    1  A    between atoms: C4_4  and  C8_8 
ROOT
HETATM    1  C1  UNL     1     -34.741  14.715  -4.781  1.00 20.00     0.030 A 
HETATM    2  C2  UNL     1     -35.485  16.998  -4.924  1.00 20.00     0.055 A 
HETATM    3  C3  UNL     1     -35.832  14.367  -5.560  1.00 20.00     0.119 A 
HETATM    4  C4  UNL     1     -34.571  16.058  -4.462  1.00 20.00    -0.010 A 
HETATM    5  C5  UNL     1     -36.543  16.547  -5.698  1.00 20.00     0.126 A 
HETATM    6  N9  UNL     1     -36.741  15.252  -6.028  1.00 20.00    -0.249 NA
HETATM    7 CL12 UNL     1     -37.719  17.635  -6.312  1.00 20.00    -0.062 Cl
ENDROOT
BRANCH   4   8
HETATM    8  C8  UNL     1     -33.368  16.504  -3.593  1.00 20.00     0.173 C 
HETATM    9  C6  UNL     1     -33.014  18.000  -3.590  1.00 20.00     0.218 C 
HETATM   10  O10 UNL     1     -32.921  18.000  -2.145  1.00 20.00    -0.384 OA
HETATM   11  C7  UNL     1     -33.623  16.735  -2.095  1.00 20.00     0.218 C 
HETATM   12  F11 UNL     1     -32.340  15.676  -3.875  1.00 20.00    -0.233 F 
ENDBRANCH   4   8
TORSDOF 1
ENDMDL
MODEL 9
REMARK VINA RESULT:      -3.7      3.725      4.799
REMARK  1 active torsions:
REMARK  status: ('A' for Active; 'I' for Inactive)
REMARK    1  A    between atoms: C4_4  and  C8_8 
ROOT
HETATM    1  C1  UNL     1     -35.003  18.132  -3.629  1.00 20.00     0.030 A 
HETATM    2  C2  UNL     1     -33.406  16.533  -2.807  1.00 20.00     0.055 A 
HETATM    3  C3  UNL     1     -35.076  17.381  -4.791  1.00 20.00     0.119 A 
HETATM    4  C4  UNL     1     -34.150  17.693  -2.623  1.00 20.00    -0.010 A 
HETATM    5  C5  UNL     1     -33.551  15.853  -4.006  1.00 20.00     0.126 A 
HETATM    6  N9  UNL     1     -34.369  16.249  -5.006  1.00 20.00    -0.249 NA
HETATM    7 CL12 UNL     1     -32.673  14.413  -4.320  1.00 20.00    -0.062 Cl
ENDROOT
BRANCH   4   8
HETATM    8  C8  UNL     1     -34.030  18.494  -1.301  1.00 20.00     0.173 C 
HETATM    9  C6  UNL     1     -33.659  17.712  -0.031  1.00 20.00     0.218 C 
HETATM   10  O10 UNL     1     -32.657  18.699   0.313  1.00 20.00    -0.384 OA
HETATM   11  C7  UNL     1     -32.704  19.224  -1.035  1.00 20.00     0.218 C 
HETATM   12  F11 UNL     1     -35.135  19.262  -1.195  1.00 20.00    -0.233 F 
ENDBRANCH   4   8
TORSDOF 1
ENDMDL
