MODEL 1
REMARK VINA RESULT:      -4.3      0.000      0.000
REMARK  1 active torsions:
REMARK  status: ('A' for Active; 'I' for Inactive)
REMARK    1  A    between atoms: C1_1  and  C4_4 
ROOT
HETATM    1  C2  UNL     1     -33.905   4.515   4.077  1.00 20.00     0.038 C 
HETATM    2  C3  UNL     1     -33.220   5.137   2.875  1.00 20.00     0.169 C 
HETATM    3  C4  UNL     1     -33.219   6.688   4.609  1.00 20.00     0.190 C 
HETATM    4  C5  UNL     1     -34.389   5.731   4.861  1.00 20.00    -0.013 C 
HETATM    5  C6  UNL     1     -34.571   5.421   6.347  1.00 20.00     0.018 C 
HETATM    6  C7  UNL     1     -35.727   6.231   4.282  1.00 20.00     0.018 C 
HETATM    7  O9  UNL     1     -32.744   6.428   3.284  1.00 20.00    -0.378 OA
ENDROOT
BRANCH   3   8
HETATM    8  C1  UNL     1     -33.558   8.141   4.693  1.00 20.00     0.263 C 
HETATM    9  O8  UNL     1     -32.745   9.010   4.988  1.00 20.00    -0.304 OA
ENDBRANCH   3   8
TORSDOF 1
ENDMDL
MODEL 2
REMARK VINA RESULT:      -3.8      1.144      2.276
REMARK  1 active torsions:
REMARK  status: ('A' for Active; 'I' for Inactive)
REMARK    1  A    between atoms: C1_1  and  C4_4 
ROOT
HETATM    1  C2  UNL     1     -34.815   5.172   5.927  1.00 20.00     0.038 C 
HETATM    2  C3  UNL     1     -33.597   5.550   6.749  1.00 20.00     0.169 C 
HETATM    3  C4  UNL     1     -34.071   7.296   5.286  1.00 20.00     0.190 C 
HETATM    4  C5  UNL     1     -34.655   6.021   4.669  1.00 20.00    -0.013 C 
HETATM    5  C6  UNL     1     -35.992   6.277   3.974  1.00 20.00     0.018 C 
HETATM    6  C7  UNL     1     -33.698   5.323   3.683  1.00 20.00     0.018 C 
HETATM    7  O9  UNL     1     -33.240   6.889   6.378  1.00 20.00    -0.378 OA
ENDROOT
BRANCH   3   8
HETATM    8  C1  UNL     1     -33.235   8.123   4.364  1.00 20.00     0.263 C 
HETATM    9  O8  UNL     1     -32.073   8.437   4.601  1.00 20.00    -0.304 OA
ENDBRANCH   3   8
TORSDOF 1
ENDMDL
MODEL 3
REMARK VINA RESULT:      -3.3      1.180      3.034
REMARK  1 active torsions:
REMARK  status: ('A' for Active; 'I' for Inactive)
REMARK    1  A    between atoms: C1_1  and  C4_4 
ROOT
HETATM    1  C2  UNL     1     -34.070   8.034   5.274  1.00 20.00     0.038 C 
HETATM    2  C3  UNL     1     -32.624   8.378   4.973  1.00 20.00     0.169 C 
HETATM    3  C4  UNL     1     -33.279   6.646   3.565  1.00 20.00     0.190 C 
HETATM    4  C5  UNL     1     -34.183   6.588   4.801  1.00 20.00    -0.013 C 
HETATM    5  C6  UNL     1     -35.621   6.210   4.446  1.00 20.00     0.018 C 
HETATM    6  C7  UNL     1     -33.665   5.635   5.896  1.00 20.00     0.018 C 
HETATM    7  O9  UNL     1     -32.220   7.562   3.864  1.00 20.00    -0.378 OA
ENDROOT
BRANCH   3   8
HETATM    8  C1  UNL     1     -32.656   5.346   3.172  1.00 20.00     0.263 C 
HETATM    9  O8  UNL     1     -33.007   4.695   2.194  1.00 20.00    -0.304 OA
ENDBRANCH   3   8
TORSDOF 1
ENDMDL
MODEL 4
REMARK VINA RESULT:      -3.3      9.156     10.547
REMARK  1 active torsions:
REMARK  status: ('A' for Active; 'I' for Inactive)
REMARK    1  A    between atoms: C1_1  and  C4_4 
ROOT
HETATM    1  C2  UNL     1     -41.572  14.716   7.402  1.00 20.00     0.038 C 
HETATM    2  C3  UNL     1     -40.598  14.147   8.417  1.00 20.00     0.169 C 
HETATM    3  C4  UNL     1     -40.164  13.171   6.349  1.00 20.00     0.190 C 
HETATM    4  C5  UNL     1     -41.627  13.627   6.334  1.00 20.00    -0.013 C 
HETATM    5  C6  UNL     1     -42.044  14.181   4.971  1.00 20.00     0.018 C 
HETATM    6  C7  UNL     1     -42.618  12.526   6.757  1.00 20.00     0.018 C 
HETATM    7  O9  UNL     1     -39.707  13.278   7.702  1.00 20.00    -0.378 OA
ENDROOT
BRANCH   3   8
HETATM    8  C1  UNL     1     -39.933  11.764   5.902  1.00 20.00     0.263 C 
HETATM    9  O8  UNL     1     -39.594  11.463   4.763  1.00 20.00    -0.304 OA
ENDBRANCH   3   8
TORSDOF 1
ENDMDL
MODEL 5
REMARK VINA RESULT:      -3.2      8.613     10.118
REMARK  1 active torsions:
REMARK  status: ('A' for Active; 'I' for Inactive)
REMARK    1  A    between atoms: C1_1  and  C4_4 
ROOT
HETATM    1  C2  UNL     1     -41.132   7.830   0.739  1.00 20.00     0.038 C 
HETATM    2  C3  UNL     1     -40.379   6.521   0.592  1.00 20.00     0.169 C 
HETATM    3  C4  UNL     1     -42.348   6.381  -0.640  1.00 20.00     0.190 C 
HETATM    4  C5  UNL     1     -42.577   7.426   0.458  1.00 20.00    -0.013 C 
HETATM    5  C6  UNL     1     -43.417   8.604  -0.034  1.00 20.00     0.018 C 
HETATM    6  C7  UNL     1     -43.217   6.845   1.734  1.00 20.00     0.018 C 
HETATM    7  O9  UNL     1     -41.122   5.709  -0.329  1.00 20.00    -0.378 OA
ENDROOT
BRANCH   3   8
HETATM    8  C1  UNL     1     -43.416   5.343  -0.761  1.00 20.00     0.263 C 
HETATM    9  O8  UNL     1     -43.401   4.452  -1.604  1.00 20.00    -0.304 OA
ENDBRANCH   3   8
TORSDOF 1
ENDMDL
MODEL 6
REMARK VINA RESULT:      -3.2      9.927     11.180
REMARK  1 active torsions:
REMARK  status: ('A' for Active; 'I' for Inactive)
REMARK    1  A    between atoms: C1_1  and  C4_4 
ROOT
HETATM    1  C2  UNL     1     -41.846  13.930   4.862  1.00 20.00     0.038 C 
HETATM    2  C3  UNL     1     -42.413  15.250   5.350  1.00 20.00     0.169 C 
HETATM    3  C4  UNL     1     -40.890  14.474   6.928  1.00 20.00     0.190 C 
HETATM    4  C5  UNL     1     -41.399  13.252   6.155  1.00 20.00    -0.013 C 
HETATM    5  C6  UNL     1     -40.295  12.223   5.912  1.00 20.00     0.018 C 
HETATM    6  C7  UNL     1     -42.599  12.557   6.826  1.00 20.00     0.018 C 
HETATM    7  O9  UNL     1     -41.730  15.576   6.569  1.00 20.00    -0.378 OA
ENDROOT
BRANCH   3   8
HETATM    8  C1  UNL     1     -40.925  14.343   8.416  1.00 20.00     0.263 C 
HETATM    9  O8  UNL     1     -40.072  13.744   9.063  1.00 20.00    -0.304 OA
ENDBRANCH   3   8
TORSDOF 1
ENDMDL
MODEL 7
REMARK VINA RESULT:      -3.1     12.776     13.881
REMARK  1 active torsions:
REMARK  status: ('A' for Active; 'I' for Inactive)
REMARK    1  A    between atoms: C1_1  and  C4_4 
ROOT
HETATM    1  C2  UNL     1     -33.983  14.645  -4.162  1.00 20.00     0.038 C 
HETATM    2  C3  UNL     1     -33.096  15.793  -3.718  1.00 20.00     0.169 C 
HETATM    3  C4  UNL     1     -34.937  16.672  -4.837  1.00 20.00     0.190 C 
HETATM    4  C5  UNL     1     -34.744  15.238  -5.344  1.00 20.00    -0.013 C 
HETATM    5  C6  UNL     1     -36.077  14.528  -5.584  1.00 20.00     0.018 C 
HETATM    6  C7  UNL     1     -33.886  15.148  -6.620  1.00 20.00     0.018 C 
HETATM    7  O9  UNL     1     -33.771  17.007  -4.078  1.00 20.00    -0.378 OA
ENDROOT
BRANCH   3   8
HETATM    8  C1  UNL     1     -35.098  17.706  -5.904  1.00 20.00     0.263 C 
HETATM    9  O8  UNL     1     -34.317  18.638  -6.065  1.00 20.00    -0.304 OA
ENDBRANCH   3   8
TORSDOF 1
ENDMDL
MODEL 8
REMARK VINA RESULT:      -3.1      9.567     10.793
REMARK  1 active torsions:
REMARK  status: ('A' for Active; 'I' for Inactive)
REMARK    1  A    between atoms: C1_1  and  C4_4 
ROOT
HETATM    1  C2  UNL     1     -43.061  14.225   5.392  1.00 20.00     0.038 C 
HETATM    2  C3  UNL     1     -42.226  14.480   4.151  1.00 20.00     0.169 C 
HETATM    3  C4  UNL     1     -41.144  12.883   5.452  1.00 20.00     0.190 C 
HETATM    4  C5  UNL     1     -42.033  13.704   6.393  1.00 20.00    -0.013 C 
HETATM    5  C6  UNL     1     -42.675  12.840   7.478  1.00 20.00     0.018 C 
HETATM    6  C7  UNL     1     -41.300  14.886   7.056  1.00 20.00     0.018 C 
HETATM    7  O9  UNL     1     -41.116  13.572   4.197  1.00 20.00    -0.378 OA
ENDROOT
BRANCH   3   8
HETATM    8  C1  UNL     1     -39.731  12.710   5.906  1.00 20.00     0.263 C 
HETATM    9  O8  UNL     1     -39.362  11.798   6.639  1.00 20.00    -0.304 OA
ENDBRANCH   3   8
TORSDOF 1
ENDMDL
MODEL 9
REMARK VINA RESULT:      -3.1      9.179     10.227
REMARK  1 active torsions:
REMARK  status: ('A' for Active; 'I' for Inactive)
REMARK    1  A    between atoms: C1_1  and  C4_4 
ROOT
HETATM    1  C2  UNL     1     -39.686  12.240   6.395  1.00 20.00     0.038 C 
HETATM    2  C3  UNL     1     -39.738  11.818   4.939  1.00 20.00     0.169 C 
HETATM    3  C4  UNL     1     -40.900  13.821   5.169  1.00 20.00     0.190 C 
HETATM    4  C5  UNL     1     -40.917  13.131   6.537  1.00 20.00    -0.013 C 
HETATM    5  C6  UNL     1     -40.776  14.128   7.687  1.00 20.00     0.018 C 
HETATM    6  C7  UNL     1     -42.169  12.263   6.772  1.00 20.00     0.018 C 
HETATM    7  O9  UNL     1     -40.414  12.862   4.223  1.00 20.00    -0.378 OA
ENDROOT
BRANCH   3   8
HETATM    8  C1  UNL     1     -42.229  14.302   4.684  1.00 20.00     0.263 C 
HETATM    9  O8  UNL     1     -42.548  14.333   3.500  1.00 20.00    -0.304 OA
ENDBRANCH   3   8
TORSDOF 1
ENDMDL
