MODEL 1
REMARK VINA RESULT:      -5.0      0.000      0.000
REMARK  0 active torsions:
REMARK  status: ('A' for Active; 'I' for Inactive)
ROOT
HETATM    1  C1  UNL     1     -32.717   8.135   3.840  1.00 20.00     0.057 A 
HETATM    2  C2  UNL     1     -33.861   7.186   5.925  1.00 20.00     0.008 A 
HETATM    3  C3  UNL     1     -34.162   4.814   4.410  1.00 20.00     0.143 A 
HETATM    4  C4  UNL     1     -33.382   7.207   4.688  1.00 20.00    -0.005 A 
HETATM    5  C5  UNL     1     -32.529   7.461   2.690  1.00 20.00     0.127 A 
HETATM    6  C6  UNL     1     -33.511   6.013   3.867  1.00 20.00     0.085 A 
HETATM    7  C7  UNL     1     -34.528   5.962   6.489  1.00 20.00     0.176 A 
HETATM    8  N8  UNL     1     -34.627   4.786   5.605  1.00 20.00    -0.296 NA
HETATM    9  N9  UNL     1     -33.006   6.152   2.674  1.00 20.00    -0.235 NA
HETATM   10 CL10 UNL     1     -31.763   8.121   1.313  1.00 20.00    -0.062 Cl
ENDROOT
TORSDOF 0
ENDMDL
MODEL 2
REMARK VINA RESULT:      -4.0      1.845      2.501
REMARK  0 active torsions:
REMARK  status: ('A' for Active; 'I' for Inactive)
ROOT
HETATM    1  C1  UNL     1     -32.209   7.765   3.591  1.00 20.00     0.057 A 
HETATM    2  C2  UNL     1     -33.144   5.425   3.134  1.00 20.00     0.008 A 
HETATM    3  C3  UNL     1     -34.600   5.779   5.536  1.00 20.00     0.143 A 
HETATM    4  C4  UNL     1     -32.968   6.575   3.771  1.00 20.00    -0.005 A 
HETATM    5  C5  UNL     1     -32.529   8.529   4.652  1.00 20.00     0.127 A 
HETATM    6  C6  UNL     1     -33.693   6.808   5.011  1.00 20.00     0.085 A 
HETATM    7  C7  UNL     1     -34.071   4.367   3.665  1.00 20.00     0.176 A 
HETATM    8  N8  UNL     1     -34.776   4.665   4.926  1.00 20.00    -0.296 NA
HETATM    9  N9  UNL     1     -33.440   7.969   5.545  1.00 20.00    -0.235 NA
HETATM   10 CL10 UNL     1     -31.887  10.087   4.932  1.00 20.00    -0.062 Cl
ENDROOT
TORSDOF 0
ENDMDL
MODEL 3
REMARK VINA RESULT:      -3.9     12.621     13.412
REMARK  0 active torsions:
REMARK  status: ('A' for Active; 'I' for Inactive)
ROOT
HETATM    1  C1  UNL     1     -33.407  16.755  -2.071  1.00 20.00     0.057 A 
HETATM    2  C2  UNL     1     -33.366  15.161  -4.076  1.00 20.00     0.008 A 
HETATM    3  C3  UNL     1     -34.881  17.149  -5.405  1.00 20.00     0.143 A 
HETATM    4  C4  UNL     1     -33.653  16.254  -3.380  1.00 20.00    -0.005 A 
HETATM    5  C5  UNL     1     -34.012  17.957  -2.056  1.00 20.00     0.127 A 
HETATM    6  C6  UNL     1     -34.430  17.306  -4.017  1.00 20.00     0.085 A 
HETATM    7  C7  UNL     1     -33.824  14.993  -5.498  1.00 20.00     0.176 A 
HETATM    8  N8  UNL     1     -34.608  16.097  -6.085  1.00 20.00    -0.296 NA
HETATM    9  N9  UNL     1     -34.650  18.327  -3.238  1.00 20.00    -0.235 NA
HETATM   10 CL10 UNL     1     -34.024  18.999  -0.702  1.00 20.00    -0.062 Cl
ENDROOT
TORSDOF 0
ENDMDL
MODEL 4
REMARK VINA RESULT:      -3.9     15.972     16.963
REMARK  0 active torsions:
REMARK  status: ('A' for Active; 'I' for Inactive)
ROOT
HETATM    1  C1  UNL     1     -23.422  19.103   8.179  1.00 20.00     0.057 A 
HETATM    2  C2  UNL     1     -21.560  18.805   9.913  1.00 20.00     0.008 A 
HETATM    3  C3  UNL     1     -23.658  18.486  11.786  1.00 20.00     0.143 A 
HETATM    4  C4  UNL     1     -22.796  18.887   9.439  1.00 20.00    -0.005 A 
HETATM    5  C5  UNL     1     -24.739  19.058   8.449  1.00 20.00     0.127 A 
HETATM    6  C6  UNL     1     -23.911  18.730  10.360  1.00 20.00     0.085 A 
HETATM    7  C7  UNL     1     -21.293  18.556  11.371  1.00 20.00     0.176 A 
HETATM    8  N8  UNL     1     -22.467  18.406  12.252  1.00 20.00    -0.296 NA
HETATM    9  N9  UNL     1     -25.075  18.830   9.782  1.00 20.00    -0.235 NA
HETATM   10 CL10 UNL     1     -25.960  19.262   7.271  1.00 20.00    -0.062 Cl
ENDROOT
TORSDOF 0
ENDMDL
MODEL 5
REMARK VINA RESULT:      -3.9     12.765     13.252
REMARK  0 active torsions:
REMARK  status: ('A' for Active; 'I' for Inactive)
ROOT
HETATM    1  C1  UNL     1     -32.122  18.614   1.724  1.00 20.00     0.057 A 
HETATM    2  C2  UNL     1     -34.149  18.519   0.161  1.00 20.00     0.008 A 
HETATM    3  C3  UNL     1     -32.271  18.844  -1.932  1.00 20.00     0.143 A 
HETATM    4  C4  UNL     1     -32.875  18.620   0.517  1.00 20.00    -0.005 A 
HETATM    5  C5  UNL     1     -30.847  18.766   1.323  1.00 20.00     0.127 A 
HETATM    6  C6  UNL     1     -31.869  18.788  -0.521  1.00 20.00     0.085 A 
HETATM    7  C7  UNL     1     -34.569  18.574  -1.281  1.00 20.00     0.176 A 
HETATM    8  N8  UNL     1     -33.500  18.747  -2.284  1.00 20.00    -0.296 NA
HETATM    9  N9  UNL     1     -30.656  18.876  -0.053  1.00 20.00    -0.235 NA
HETATM   10 CL10 UNL     1     -29.513  18.828   2.389  1.00 20.00    -0.062 Cl
ENDROOT
TORSDOF 0
ENDMDL
MODEL 6
REMARK VINA RESULT:      -3.9     12.610     13.205
REMARK  0 active torsions:
REMARK  status: ('A' for Active; 'I' for Inactive)
ROOT
HETATM    1  C1  UNL     1     -33.293  15.674  -3.806  1.00 20.00     0.057 A 
HETATM    2  C2  UNL     1     -33.370  17.068  -1.658  1.00 20.00     0.008 A 
HETATM    3  C3  UNL     1     -35.260  18.669  -3.028  1.00 20.00     0.143 A 
HETATM    4  C4  UNL     1     -33.669  16.703  -2.898  1.00 20.00    -0.005 A 
HETATM    5  C5  UNL     1     -34.012  15.928  -4.915  1.00 20.00     0.127 A 
HETATM    6  C6  UNL     1     -34.635  17.492  -3.646  1.00 20.00     0.085 A 
HETATM    7  C7  UNL     1     -34.005  18.270  -1.018  1.00 20.00     0.176 A 
HETATM    8  N8  UNL     1     -34.977  19.028  -1.830  1.00 20.00    -0.296 NA
HETATM    9  N9  UNL     1     -34.849  17.040  -4.849  1.00 20.00    -0.235 NA
HETATM   10 CL10 UNL     1     -33.939  14.981  -6.335  1.00 20.00    -0.062 Cl
ENDROOT
TORSDOF 0
ENDMDL
MODEL 7
REMARK VINA RESULT:      -3.7      2.535      3.817
REMARK  0 active torsions:
REMARK  status: ('A' for Active; 'I' for Inactive)
ROOT
HETATM    1  C1  UNL     1     -33.958   7.189   6.102  1.00 20.00     0.057 A 
HETATM    2  C2  UNL     1     -32.674   8.659   4.445  1.00 20.00     0.008 A 
HETATM    3  C3  UNL     1     -32.816   6.434   2.701  1.00 20.00     0.143 A 
HETATM    4  C4  UNL     1     -33.297   7.582   4.906  1.00 20.00    -0.005 A 
HETATM    5  C5  UNL     1     -34.357   5.926   5.863  1.00 20.00     0.127 A 
HETATM    6  C6  UNL     1     -33.397   6.411   4.050  1.00 20.00     0.085 A 
HETATM    7  C7  UNL     1     -32.077   8.691   3.065  1.00 20.00     0.176 A 
HETATM    8  N8  UNL     1     -32.213   7.470   2.247  1.00 20.00    -0.296 NA
HETATM    9  N9  UNL     1     -34.028   5.417   4.609  1.00 20.00    -0.235 NA
HETATM   10 CL10 UNL     1     -35.212   4.968   6.990  1.00 20.00    -0.062 Cl
ENDROOT
TORSDOF 0
ENDMDL
MODEL 8
REMARK VINA RESULT:      -3.7     12.920     13.171
REMARK  0 active torsions:
REMARK  status: ('A' for Active; 'I' for Inactive)
ROOT
HETATM    1  C1  UNL     1     -30.334  18.806   1.489  1.00 20.00     0.057 A 
HETATM    2  C2  UNL     1     -31.505  18.478  -0.765  1.00 20.00     0.008 A 
HETATM    3  C3  UNL     1     -33.909  18.879   0.675  1.00 20.00     0.143 A 
HETATM    4  C4  UNL     1     -31.386  18.702   0.537  1.00 20.00    -0.005 A 
HETATM    5  C5  UNL     1     -30.961  19.050   2.654  1.00 20.00     0.127 A 
HETATM    6  C6  UNL     1     -32.591  18.914   1.324  1.00 20.00     0.085 A 
HETATM    7  C7  UNL     1     -32.850  18.441  -1.436  1.00 20.00     0.176 A 
HETATM    8  N8  UNL     1     -34.032  18.664  -0.582  1.00 20.00    -0.296 NA
HETATM    9  N9  UNL     1     -32.351  19.124   2.587  1.00 20.00    -0.235 NA
HETATM   10 CL10 UNL     1     -30.153  19.263   4.144  1.00 20.00    -0.062 Cl
ENDROOT
TORSDOF 0
ENDMDL
MODEL 9
REMARK VINA RESULT:      -3.6     12.783     12.873
REMARK  0 active torsions:
REMARK  status: ('A' for Active; 'I' for Inactive)
ROOT
HETATM    1  C1  UNL     1     -30.714  18.458   0.217  1.00 20.00     0.057 A 
HETATM    2  C2  UNL     1     -29.580  18.681   2.503  1.00 20.00     0.008 A 
HETATM    3  C3  UNL     1     -32.171  19.259   3.485  1.00 20.00     0.143 A 
HETATM    4  C4  UNL     1     -30.566  18.679   1.615  1.00 20.00    -0.005 A 
HETATM    5  C5  UNL     1     -32.030  18.625  -0.009  1.00 20.00     0.127 A 
HETATM    6  C6  UNL     1     -31.917  18.970   2.068  1.00 20.00     0.085 A 
HETATM    7  C7  UNL     1     -29.832  18.975   3.956  1.00 20.00     0.176 A 
HETATM    8  N8  UNL     1     -31.224  19.263   4.350  1.00 20.00    -0.296 NA
HETATM    9  N9  UNL     1     -32.799  18.940   1.109  1.00 20.00    -0.235 NA
HETATM   10 CL10 UNL     1     -32.759  18.471  -1.546  1.00 20.00    -0.062 Cl
ENDROOT
TORSDOF 0
ENDMDL
