MODEL 1
REMARK VINA RESULT:      -5.3      0.000      0.000
REMARK  1 active torsions:
REMARK  status: ('A' for Active; 'I' for Inactive)
REMARK    1  A    between atoms: C4_4  and  C6_6 
ROOT
HETATM    1  C1  UNL     1     -33.417   7.655   5.082  1.00 20.00     0.070 A 
HETATM    2  C2  UNL     1     -33.564   5.669   3.779  1.00 20.00     0.129 A 
HETATM    3  C3  UNL     1     -32.291   7.416   3.001  1.00 20.00     0.170 A 
HETATM    4  C4  UNL     1     -33.920   6.368   4.923  1.00 20.00     0.027 A 
HETATM    5  C5  UNL     1     -32.587   8.196   4.108  1.00 20.00     0.190 A 
HETATM    6  N7  UNL     1     -32.760   6.162   2.811  1.00 20.00    -0.268 NA
HETATM    7  O8  UNL     1     -32.110   9.378   4.229  1.00 20.00    -0.287 OA
ENDROOT
BRANCH   4   8
HETATM    8  C6  UNL     1     -34.811   5.760   5.946  1.00 20.00     0.388 C 
HETATM    9  F9  UNL     1     -34.953   6.582   7.021  1.00 20.00    -0.209 F 
HETATM   10  F10 UNL     1     -34.285   4.598   6.421  1.00 20.00    -0.209 F 
ENDBRANCH   4   8
TORSDOF 1
ENDMDL
MODEL 2
REMARK VINA RESULT:      -5.2      1.624      2.033
REMARK  1 active torsions:
REMARK  status: ('A' for Active; 'I' for Inactive)
REMARK    1  A    between atoms: C4_4  and  C6_6 
ROOT
HETATM    1  C1  UNL     1     -33.250   6.411   3.421  1.00 20.00     0.070 A 
HETATM    2  C2  UNL     1     -33.683   7.392   5.544  1.00 20.00     0.129 A 
HETATM    3  C3  UNL     1     -32.375   8.534   4.040  1.00 20.00     0.170 A 
HETATM    4  C4  UNL     1     -33.860   6.333   4.668  1.00 20.00     0.027 A 
HETATM    5  C5  UNL     1     -32.492   7.529   3.093  1.00 20.00     0.190 A 
HETATM    6  N7  UNL     1     -32.954   8.494   5.261  1.00 20.00    -0.268 NA
HETATM    7  O8  UNL     1     -31.919   7.627   1.952  1.00 20.00    -0.287 OA
ENDROOT
BRANCH   4   8
HETATM    8  C6  UNL     1     -34.679   5.151   5.049  1.00 20.00     0.388 C 
HETATM    9  F9  UNL     1     -34.848   5.089   6.397  1.00 20.00    -0.209 F 
HETATM   10  F10 UNL     1     -34.062   3.994   4.688  1.00 20.00    -0.209 F 
ENDBRANCH   4   8
TORSDOF 1
ENDMDL
MODEL 3
REMARK VINA RESULT:      -5.2      3.290      4.167
REMARK  1 active torsions:
REMARK  status: ('A' for Active; 'I' for Inactive)
REMARK    1  A    between atoms: C4_4  and  C6_6 
ROOT
HETATM    1  C1  UNL     1     -33.600   6.115   4.049  1.00 20.00     0.070 A 
HETATM    2  C2  UNL     1     -33.788   7.706   5.808  1.00 20.00     0.129 A 
HETATM    3  C3  UNL     1     -34.579   5.576   6.148  1.00 20.00     0.170 A 
HETATM    4  C4  UNL     1     -33.382   7.406   4.517  1.00 20.00     0.027 A 
HETATM    5  C5  UNL     1     -34.209   5.177   4.874  1.00 20.00     0.190 A 
HETATM    6  N7  UNL     1     -34.383   6.820   6.638  1.00 20.00    -0.268 NA
HETATM    7  O8  UNL     1     -34.423   3.981   4.468  1.00 20.00    -0.287 OA
ENDROOT
BRANCH   4   8
HETATM    8  C6  UNL     1     -32.732   8.434   3.661  1.00 20.00     0.388 C 
HETATM    9  F9  UNL     1     -31.779   7.875   2.866  1.00 20.00    -0.209 F 
HETATM   10  F10 UNL     1     -32.097   9.369   4.418  1.00 20.00    -0.209 F 
ENDBRANCH   4   8
TORSDOF 1
ENDMDL
MODEL 4
REMARK VINA RESULT:      -5.2      1.816      2.241
REMARK  1 active torsions:
REMARK  status: ('A' for Active; 'I' for Inactive)
REMARK    1  A    between atoms: C4_4  and  C6_6 
ROOT
HETATM    1  C1  UNL     1     -33.752   5.516   4.004  1.00 20.00     0.070 A 
HETATM    2  C2  UNL     1     -33.213   7.690   4.806  1.00 20.00     0.129 A 
HETATM    3  C3  UNL     1     -32.319   6.990   2.808  1.00 20.00     0.170 A 
HETATM    4  C4  UNL     1     -33.889   6.493   4.984  1.00 20.00     0.027 A 
HETATM    5  C5  UNL     1     -32.954   5.762   2.893  1.00 20.00     0.190 A 
HETATM    6  N7  UNL     1     -32.429   7.964   3.739  1.00 20.00    -0.268 NA
HETATM    7  O8  UNL     1     -32.810   4.880   1.975  1.00 20.00    -0.287 OA
ENDROOT
BRANCH   4   8
HETATM    8  C6  UNL     1     -34.735   6.262   6.185  1.00 20.00     0.388 C 
HETATM    9  F9  UNL     1     -34.534   7.232   7.117  1.00 20.00    -0.209 F 
HETATM   10  F10 UNL     1     -34.417   5.084   6.786  1.00 20.00    -0.209 F 
ENDBRANCH   4   8
TORSDOF 1
ENDMDL
MODEL 5
REMARK VINA RESULT:      -5.1      2.873      3.614
REMARK  1 active torsions:
REMARK  status: ('A' for Active; 'I' for Inactive)
REMARK    1  A    between atoms: C4_4  and  C6_6 
ROOT
HETATM    1  C1  UNL     1     -33.734   7.119   5.460  1.00 20.00     0.070 A 
HETATM    2  C2  UNL     1     -33.044   6.311   3.331  1.00 20.00     0.129 A 
HETATM    3  C3  UNL     1     -34.414   4.998   4.627  1.00 20.00     0.170 A 
HETATM    4  C4  UNL     1     -33.014   7.316   4.286  1.00 20.00     0.027 A 
HETATM    5  C5  UNL     1     -34.449   5.942   5.641  1.00 20.00     0.190 A 
HETATM    6  N7  UNL     1     -33.728   5.154   3.472  1.00 20.00    -0.268 NA
HETATM    7  O8  UNL     1     -35.120   5.734   6.712  1.00 20.00    -0.287 OA
ENDROOT
BRANCH   4   8
HETATM    8  C6  UNL     1     -32.239   8.565   4.061  1.00 20.00     0.388 C 
HETATM    9  F9  UNL     1     -32.355   9.409   5.121  1.00 20.00    -0.209 F 
HETATM   10  F10 UNL     1     -32.710   9.242   2.980  1.00 20.00    -0.209 F 
ENDBRANCH   4   8
TORSDOF 1
ENDMDL
MODEL 6
REMARK VINA RESULT:      -5.0      2.691      3.440
REMARK  1 active torsions:
REMARK  status: ('A' for Active; 'I' for Inactive)
REMARK    1  A    between atoms: C4_4  and  C6_6 
ROOT
HETATM    1  C1  UNL     1     -33.926   6.639   4.982  1.00 20.00     0.070 A 
HETATM    2  C2  UNL     1     -32.385   7.040   3.215  1.00 20.00     0.129 A 
HETATM    3  C3  UNL     1     -33.590   5.084   3.214  1.00 20.00     0.170 A 
HETATM    4  C4  UNL     1     -32.980   7.469   4.391  1.00 20.00     0.027 A 
HETATM    5  C5  UNL     1     -34.242   5.423   4.389  1.00 20.00     0.190 A 
HETATM    6  N7  UNL     1     -32.667   5.865   2.610  1.00 20.00    -0.268 NA
HETATM    7  O8  UNL     1     -35.109   4.639   4.912  1.00 20.00    -0.287 OA
ENDROOT
BRANCH   4   8
HETATM    8  C6  UNL     1     -32.619   8.777   5.000  1.00 20.00     0.388 C 
HETATM    9  F9  UNL     1     -33.682   9.323   5.650  1.00 20.00    -0.209 F 
HETATM   10  F10 UNL     1     -32.255   9.675   4.045  1.00 20.00    -0.209 F 
ENDBRANCH   4   8
TORSDOF 1
ENDMDL
MODEL 7
REMARK VINA RESULT:      -4.9      3.034      3.674
REMARK  1 active torsions:
REMARK  status: ('A' for Active; 'I' for Inactive)
REMARK    1  A    between atoms: C4_4  and  C6_6 
ROOT
HETATM    1  C1  UNL     1     -33.475   7.323   5.119  1.00 20.00     0.070 A 
HETATM    2  C2  UNL     1     -33.411   5.659   3.421  1.00 20.00     0.129 A 
HETATM    3  C3  UNL     1     -34.594   5.237   5.344  1.00 20.00     0.170 A 
HETATM    4  C4  UNL     1     -33.032   6.916   3.866  1.00 20.00     0.027 A 
HETATM    5  C5  UNL     1     -34.271   6.474   5.878  1.00 20.00     0.190 A 
HETATM    6  N7  UNL     1     -34.183   4.806   4.130  1.00 20.00    -0.268 NA
HETATM    7  O8  UNL     1     -34.693   6.823   7.036  1.00 20.00    -0.287 OA
ENDROOT
BRANCH   4   8
HETATM    8  C6  UNL     1     -32.179   7.800   3.028  1.00 20.00     0.388 C 
HETATM    9  F9  UNL     1     -32.676   9.066   2.992  1.00 20.00    -0.209 F 
HETATM   10  F10 UNL     1     -32.146   7.367   1.739  1.00 20.00    -0.209 F 
ENDBRANCH   4   8
TORSDOF 1
ENDMDL
MODEL 8
REMARK VINA RESULT:      -4.7      2.122      2.795
REMARK  1 active torsions:
REMARK  status: ('A' for Active; 'I' for Inactive)
REMARK    1  A    between atoms: C4_4  and  C6_6 
ROOT
HETATM    1  C1  UNL     1     -32.990   7.202   4.001  1.00 20.00     0.070 A 
HETATM    2  C2  UNL     1     -34.395   6.086   5.562  1.00 20.00     0.129 A 
HETATM    3  C3  UNL     1     -33.600   8.177   6.083  1.00 20.00     0.170 A 
HETATM    4  C4  UNL     1     -33.743   6.083   4.339  1.00 20.00     0.027 A 
HETATM    5  C5  UNL     1     -32.912   8.273   4.884  1.00 20.00     0.190 A 
HETATM    6  N7  UNL     1     -34.342   7.107   6.446  1.00 20.00    -0.268 NA
HETATM    7  O8  UNL     1     -32.225   9.315   4.598  1.00 20.00    -0.287 OA
ENDROOT
BRANCH   4   8
HETATM    8  C6  UNL     1     -33.848   4.921   3.417  1.00 20.00     0.388 C 
HETATM    9  F9  UNL     1     -33.864   3.750   4.108  1.00 20.00    -0.209 F 
HETATM   10  F10 UNL     1     -32.773   4.860   2.586  1.00 20.00    -0.209 F 
ENDBRANCH   4   8
TORSDOF 1
ENDMDL
MODEL 9
REMARK VINA RESULT:      -4.6      2.664      3.424
REMARK  1 active torsions:
REMARK  status: ('A' for Active; 'I' for Inactive)
REMARK    1  A    between atoms: C4_4  and  C6_6 
ROOT
HETATM    1  C1  UNL     1     -33.093   6.627   3.588  1.00 20.00     0.070 A 
HETATM    2  C2  UNL     1     -34.383   6.458   5.579  1.00 20.00     0.129 A 
HETATM    3  C3  UNL     1     -34.093   4.584   4.283  1.00 20.00     0.170 A 
HETATM    4  C4  UNL     1     -33.629   7.238   4.716  1.00 20.00     0.027 A 
HETATM    5  C5  UNL     1     -33.325   5.276   3.360  1.00 20.00     0.190 A 
HETATM    6  N7  UNL     1     -34.629   5.142   5.391  1.00 20.00    -0.268 NA
HETATM    7  O8  UNL     1     -32.844   4.688   2.329  1.00 20.00    -0.287 OA
ENDROOT
BRANCH   4   8
HETATM    8  C6  UNL     1     -33.400   8.681   4.989  1.00 20.00     0.388 C 
HETATM    9  F9  UNL     1     -32.089   8.925   5.261  1.00 20.00    -0.209 F 
HETATM   10  F10 UNL     1     -34.098   9.087   6.084  1.00 20.00    -0.209 F 
ENDBRANCH   4   8
TORSDOF 1
ENDMDL
