MODEL 1
REMARK VINA RESULT:      -3.9      0.000      0.000
REMARK  1 active torsions:
REMARK  status: ('A' for Active; 'I' for Inactive)
REMARK    1  A    between atoms: C1_1  and  C5_5 
ROOT
HETATM    1  C3  UNL     1     -34.523   4.567   4.944  1.00 20.00     0.009 A 
HETATM    2  C4  UNL     1     -34.648   5.304   6.243  1.00 20.00     0.009 A 
HETATM    3  C5  UNL     1     -34.969   6.005   4.951  1.00 20.00     0.009 A 
ENDROOT
BRANCH   3   4
HETATM    4  C1  UNL     1     -34.061   7.028   4.459  1.00 20.00    -0.015 C 
HETATM    5  C2  UNL     1     -33.307   7.793   5.256  1.00 20.00     0.052 C 
HETATM    6 BR6  UNL     1     -32.143   9.103   4.651  1.00 20.00    -0.064 Br
ENDBRANCH   3   4
TORSDOF 1
ENDMDL
MODEL 2
REMARK VINA RESULT:      -3.8      0.659      1.123
REMARK  1 active torsions:
REMARK  status: ('A' for Active; 'I' for Inactive)
REMARK    1  A    between atoms: C1_1  and  C5_5 
ROOT
HETATM    1  C3  UNL     1     -35.537   5.624   4.654  1.00 20.00     0.009 A 
HETATM    2  C4  UNL     1     -34.360   4.751   4.972  1.00 20.00     0.009 A 
HETATM    3  C5  UNL     1     -34.706   5.901   5.878  1.00 20.00     0.009 A 
ENDROOT
BRANCH   3   4
HETATM    4  C1  UNL     1     -33.842   7.070   5.894  1.00 20.00    -0.015 C 
HETATM    5  C2  UNL     1     -33.259   7.575   4.801  1.00 20.00     0.052 C 
HETATM    6 BR6  UNL     1     -32.154   9.063   4.799  1.00 20.00    -0.064 Br
ENDBRANCH   3   4
TORSDOF 1
ENDMDL
MODEL 3
REMARK VINA RESULT:      -3.4      2.455      3.866
REMARK  1 active torsions:
REMARK  status: ('A' for Active; 'I' for Inactive)
REMARK    1  A    between atoms: C1_1  and  C5_5 
ROOT
HETATM    1  C3  UNL     1     -31.977   9.174   4.795  1.00 20.00     0.009 A 
HETATM    2  C4  UNL     1     -32.484   8.438   3.591  1.00 20.00     0.009 A 
HETATM    3  C5  UNL     1     -33.399   8.682   4.761  1.00 20.00     0.009 A 
ENDROOT
BRANCH   3   4
HETATM    4  C1  UNL     1     -33.778   7.561   5.605  1.00 20.00    -0.015 C 
HETATM    5  C2  UNL     1     -34.246   6.402   5.129  1.00 20.00     0.052 C 
HETATM    6 BR6  UNL     1     -34.735   4.959   6.186  1.00 20.00    -0.064 Br
ENDBRANCH   3   4
TORSDOF 1
ENDMDL
MODEL 4
REMARK VINA RESULT:      -3.3      8.873      9.292
REMARK  1 active torsions:
REMARK  status: ('A' for Active; 'I' for Inactive)
REMARK    1  A    between atoms: C1_1  and  C5_5 
ROOT
HETATM    1  C3  UNL     1     -39.162  11.664   4.271  1.00 20.00     0.009 A 
HETATM    2  C4  UNL     1     -38.394  12.065   5.495  1.00 20.00     0.009 A 
HETATM    3  C5  UNL     1     -39.848  11.691   5.610  1.00 20.00     0.009 A 
ENDROOT
BRANCH   3   4
HETATM    4  C1  UNL     1     -40.824  12.734   5.883  1.00 20.00    -0.015 C 
HETATM    5  C2  UNL     1     -41.924  12.544   6.618  1.00 20.00     0.052 C 
HETATM    6 BR6  UNL     1     -43.181  13.858   6.977  1.00 20.00    -0.064 Br
ENDBRANCH   3   4
TORSDOF 1
ENDMDL
MODEL 5
REMARK VINA RESULT:      -3.3      8.769      9.153
REMARK  1 active torsions:
REMARK  status: ('A' for Active; 'I' for Inactive)
REMARK    1  A    between atoms: C1_1  and  C5_5 
ROOT
HETATM    1  C3  UNL     1     -39.128  11.661   4.191  1.00 20.00     0.009 A 
HETATM    2  C4  UNL     1     -38.405  12.033   5.450  1.00 20.00     0.009 A 
HETATM    3  C5  UNL     1     -39.897  11.844   5.472  1.00 20.00     0.009 A 
ENDROOT
BRANCH   3   4
HETATM    4  C1  UNL     1     -40.754  13.009   5.620  1.00 20.00    -0.015 C 
HETATM    5  C2  UNL     1     -40.706  13.833   6.673  1.00 20.00     0.052 C 
HETATM    6 BR6  UNL     1     -41.787  15.325   6.882  1.00 20.00    -0.064 Br
ENDBRANCH   3   4
TORSDOF 1
ENDMDL
MODEL 6
REMARK VINA RESULT:      -3.3     12.647     13.135
REMARK  1 active torsions:
REMARK  status: ('A' for Active; 'I' for Inactive)
REMARK    1  A    between atoms: C1_1  and  C5_5 
ROOT
HETATM    1  C3  UNL     1     -33.495  18.137  -0.274  1.00 20.00     0.009 A 
HETATM    2  C4  UNL     1     -32.132  18.285  -0.881  1.00 20.00     0.009 A 
HETATM    3  C5  UNL     1     -33.311  17.957  -1.757  1.00 20.00     0.009 A 
ENDROOT
BRANCH   3   4
HETATM    4  C1  UNL     1     -33.417  16.623  -2.325  1.00 20.00    -0.015 C 
HETATM    5  C2  UNL     1     -33.526  16.384  -3.636  1.00 20.00     0.052 C 
HETATM    6 BR6  UNL     1     -33.662  14.692  -4.382  1.00 20.00    -0.064 Br
ENDBRANCH   3   4
TORSDOF 1
ENDMDL
MODEL 7
REMARK VINA RESULT:      -3.1     12.325     12.814
REMARK  1 active torsions:
REMARK  status: ('A' for Active; 'I' for Inactive)
REMARK    1  A    between atoms: C1_1  and  C5_5 
ROOT
HETATM    1  C3  UNL     1     -33.588  14.737  -4.014  1.00 20.00     0.009 A 
HETATM    2  C4  UNL     1     -34.151  15.949  -4.693  1.00 20.00     0.009 A 
HETATM    3  C5  UNL     1     -33.144  16.110  -3.586  1.00 20.00     0.009 A 
ENDROOT
BRANCH   3   4
HETATM    4  C1  UNL     1     -33.587  16.626  -2.301  1.00 20.00    -0.015 C 
HETATM    5  C2  UNL     1     -32.950  17.594  -1.634  1.00 20.00     0.052 C 
HETATM    6 BR6  UNL     1     -33.496  18.267   0.006  1.00 20.00    -0.064 Br
ENDBRANCH   3   4
TORSDOF 1
ENDMDL
MODEL 8
REMARK VINA RESULT:      -3.1      2.688      3.845
REMARK  1 active torsions:
REMARK  status: ('A' for Active; 'I' for Inactive)
REMARK    1  A    between atoms: C1_1  and  C5_5 
ROOT
HETATM    1  C3  UNL     1     -32.091   7.907   2.143  1.00 20.00     0.009 A 
HETATM    2  C4  UNL     1     -32.797   9.059   2.792  1.00 20.00     0.009 A 
HETATM    3  C5  UNL     1     -32.277   7.928   3.636  1.00 20.00     0.009 A 
ENDROOT
BRANCH   3   4
HETATM    4  C1  UNL     1     -33.226   7.007   4.243  1.00 20.00    -0.015 C 
HETATM    5  C2  UNL     1     -33.519   7.000   5.547  1.00 20.00     0.052 C 
HETATM    6 BR6  UNL     1     -34.725   5.836   6.341  1.00 20.00    -0.064 Br
ENDBRANCH   3   4
TORSDOF 1
ENDMDL
MODEL 9
REMARK VINA RESULT:      -3.1      2.325      2.722
REMARK  1 active torsions:
REMARK  status: ('A' for Active; 'I' for Inactive)
REMARK    1  A    between atoms: C1_1  and  C5_5 
ROOT
HETATM    1  C3  UNL     1     -34.487   5.714   6.790  1.00 20.00     0.009 A 
HETATM    2  C4  UNL     1     -34.017   6.987   6.152  1.00 20.00     0.009 A 
HETATM    3  C5  UNL     1     -34.955   6.077   5.407  1.00 20.00     0.009 A 
ENDROOT
BRANCH   3   4
HETATM    4  C1  UNL     1     -34.451   5.322   4.270  1.00 20.00    -0.015 C 
HETATM    5  C2  UNL     1     -33.488   5.767   3.456  1.00 20.00     0.052 C 
HETATM    6 BR6  UNL     1     -32.831   4.822   2.002  1.00 20.00    -0.064 Br
ENDBRANCH   3   4
TORSDOF 1
ENDMDL
