MODEL 1
REMARK VINA RESULT:      -2.7      0.000      0.000
REMARK  2 active torsions:
REMARK  status: ('A' for Active; 'I' for Inactive)
REMARK    1  A    between atoms: C7_7  and  P9_9 
REMARK    2  A    between atoms: C8_8  and  P9_9 
ROOT
HETATM    1  P9  UNL     1     -26.531  -3.097  12.332  1.00 20.00    -0.001 P 
HETATM    2 CL10 UNL     1     -27.333  -4.587  11.099  1.00 20.00    -0.094 Cl
ENDROOT
BRANCH   1   3
HETATM    3  C7  UNL     1     -27.400  -1.602  11.586  1.00 20.00    -0.014 C 
HETATM    4  C1  UNL     1     -27.562  -1.821  10.075  1.00 20.00     0.021 C 
HETATM    5  C2  UNL     1     -28.781  -1.450  12.240  1.00 20.00     0.021 C 
HETATM    6  C3  UNL     1     -26.562  -0.340  11.842  1.00 20.00     0.021 C 
ENDBRANCH   1   3
BRANCH   1   7
HETATM    7  C8  UNL     1     -24.894  -2.857  11.556  1.00 20.00    -0.014 C 
HETATM    8  C4  UNL     1     -23.938  -3.947  12.062  1.00 20.00     0.021 C 
HETATM    9  C5  UNL     1     -25.045  -2.963  10.032  1.00 20.00     0.021 C 
HETATM   10  C6  UNL     1     -24.347  -1.471  11.930  1.00 20.00     0.021 C 
ENDBRANCH   1   7
TORSDOF 2
ENDMDL
MODEL 2
REMARK VINA RESULT:      -2.5      2.043      3.788
REMARK  2 active torsions:
REMARK  status: ('A' for Active; 'I' for Inactive)
REMARK    1  A    between atoms: C7_7  and  P9_9 
REMARK    2  A    between atoms: C8_8  and  P9_9 
ROOT
HETATM    1  P9  UNL     1     -27.438  -1.501  12.061  1.00 20.00    -0.001 P 
HETATM    2 CL10 UNL     1     -27.673  -0.256  10.394  1.00 20.00    -0.094 Cl
ENDROOT
BRANCH   1   3
HETATM    3  C7  UNL     1     -25.798  -2.303  11.598  1.00 20.00    -0.014 C 
HETATM    4  C1  UNL     1     -25.767  -2.534  10.081  1.00 20.00     0.021 C 
HETATM    5  C2  UNL     1     -24.652  -1.365  12.004  1.00 20.00     0.021 C 
HETATM    6  C3  UNL     1     -25.657  -3.644  12.332  1.00 20.00     0.021 C 
ENDBRANCH   1   3
BRANCH   1   7
HETATM    7  C8  UNL     1     -28.540  -2.887  11.609  1.00 20.00    -0.014 C 
HETATM    8  C4  UNL     1     -29.967  -2.560  12.068  1.00 20.00     0.021 C 
HETATM    9  C5  UNL     1     -28.512  -3.068  10.084  1.00 20.00     0.021 C 
HETATM   10  C6  UNL     1     -28.055  -4.173  12.295  1.00 20.00     0.021 C 
ENDBRANCH   1   7
TORSDOF 2
ENDMDL
MODEL 3
REMARK VINA RESULT:      -2.5     26.184     27.533
REMARK  2 active torsions:
REMARK  status: ('A' for Active; 'I' for Inactive)
REMARK    1  A    between atoms: C7_7  and  P9_9 
REMARK    2  A    between atoms: C8_8  and  P9_9 
ROOT
HETATM    1  P9  UNL     1     -35.332  17.145  -5.230  1.00 20.00    -0.001 P 
HETATM    2 CL10 UNL     1     -34.203  18.097  -6.713  1.00 20.00    -0.094 Cl
ENDROOT
BRANCH   1   3
HETATM    3  C7  UNL     1     -34.740  15.378  -5.502  1.00 20.00    -0.014 C 
HETATM    4  C1  UNL     1     -34.089  15.278  -6.889  1.00 20.00     0.021 C 
HETATM    5  C2  UNL     1     -33.712  15.024  -4.418  1.00 20.00     0.021 C 
HETATM    6  C3  UNL     1     -35.935  14.417  -5.419  1.00 20.00     0.021 C 
ENDBRANCH   1   3
BRANCH   1   7
HETATM    7  C8  UNL     1     -36.950  17.006  -6.070  1.00 20.00    -0.014 C 
HETATM    8  C4  UNL     1     -37.890  16.155  -5.204  1.00 20.00     0.021 C 
HETATM    9  C5  UNL     1     -37.539  18.412  -6.251  1.00 20.00     0.021 C 
HETATM   10  C6  UNL     1     -36.761  16.340  -7.441  1.00 20.00     0.021 C 
ENDBRANCH   1   7
TORSDOF 2
ENDMDL
MODEL 4
REMARK VINA RESULT:      -2.5     26.216     27.534
REMARK  2 active torsions:
REMARK  status: ('A' for Active; 'I' for Inactive)
REMARK    1  A    between atoms: C7_7  and  P9_9 
REMARK    2  A    between atoms: C8_8  and  P9_9 
ROOT
HETATM    1  P9  UNL     1     -35.594  17.030  -5.237  1.00 20.00    -0.001 P 
HETATM    2 CL10 UNL     1     -33.887  18.171  -4.828  1.00 20.00    -0.094 Cl
ENDROOT
BRANCH   1   3
HETATM    3  C7  UNL     1     -34.794  15.327  -5.322  1.00 20.00    -0.014 C 
HETATM    4  C1  UNL     1     -33.866  15.151  -4.111  1.00 20.00     0.021 C 
HETATM    5  C2  UNL     1     -35.894  14.257  -5.294  1.00 20.00     0.021 C 
HETATM    6  C3  UNL     1     -33.983  15.205  -6.621  1.00 20.00     0.021 C 
ENDBRANCH   1   3
BRANCH   1   7
HETATM    7  C8  UNL     1     -35.776  17.319  -7.032  1.00 20.00    -0.014 C 
HETATM    8  C4  UNL     1     -36.607  18.591  -7.251  1.00 20.00     0.021 C 
HETATM    9  C5  UNL     1     -34.383  17.495  -7.652  1.00 20.00     0.021 C 
HETATM   10  C6  UNL     1     -36.485  16.118  -7.676  1.00 20.00     0.021 C 
ENDBRANCH   1   7
TORSDOF 2
ENDMDL
MODEL 5
REMARK VINA RESULT:      -2.5     26.175     27.526
REMARK  2 active torsions:
REMARK  status: ('A' for Active; 'I' for Inactive)
REMARK    1  A    between atoms: C7_7  and  P9_9 
REMARK    2  A    between atoms: C8_8  and  P9_9 
ROOT
HETATM    1  P9  UNL     1     -35.328  17.138  -5.212  1.00 20.00    -0.001 P 
HETATM    2 CL10 UNL     1     -34.201  18.103  -6.690  1.00 20.00    -0.094 Cl
ENDROOT
BRANCH   1   3
HETATM    3  C7  UNL     1     -34.734  15.374  -5.498  1.00 20.00    -0.014 C 
HETATM    4  C1  UNL     1     -34.095  15.282  -6.891  1.00 20.00     0.021 C 
HETATM    5  C2  UNL     1     -33.695  15.017  -4.425  1.00 20.00     0.021 C 
HETATM    6  C3  UNL     1     -35.926  14.410  -5.408  1.00 20.00     0.021 C 
ENDBRANCH   1   3
BRANCH   1   7
HETATM    7  C8  UNL     1     -36.946  17.004  -6.051  1.00 20.00    -0.014 C 
HETATM    8  C4  UNL     1     -37.530  18.412  -6.235  1.00 20.00     0.021 C 
HETATM    9  C5  UNL     1     -36.743  16.342  -7.421  1.00 20.00     0.021 C 
HETATM   10  C6  UNL     1     -37.898  16.153  -5.197  1.00 20.00     0.021 C 
ENDBRANCH   1   7
TORSDOF 2
ENDMDL
MODEL 6
REMARK VINA RESULT:      -2.5     21.975     23.584
REMARK  2 active torsions:
REMARK  status: ('A' for Active; 'I' for Inactive)
REMARK    1  A    between atoms: C7_7  and  P9_9 
REMARK    2  A    between atoms: C8_8  and  P9_9 
ROOT
HETATM    1  P9  UNL     1     -40.487  14.834   7.213  1.00 20.00    -0.001 P 
HETATM    2 CL10 UNL     1     -40.544  14.138   9.187  1.00 20.00    -0.094 Cl
ENDROOT
BRANCH   1   3
HETATM    3  C7  UNL     1     -41.882  16.095   7.308  1.00 20.00    -0.014 C 
HETATM    4  C1  UNL     1     -43.008  15.529   8.184  1.00 20.00     0.021 C 
HETATM    5  C2  UNL     1     -41.342  17.391   7.930  1.00 20.00     0.021 C 
HETATM    6  C3  UNL     1     -42.414  16.379   5.896  1.00 20.00     0.021 C 
ENDBRANCH   1   3
BRANCH   1   7
HETATM    7  C8  UNL     1     -41.401  13.503   6.357  1.00 20.00    -0.014 C 
HETATM    8  C4  UNL     1     -40.437  12.345   6.062  1.00 20.00     0.021 C 
HETATM    9  C5  UNL     1     -42.538  13.015   7.266  1.00 20.00     0.021 C 
HETATM   10  C6  UNL     1     -41.982  14.043   5.041  1.00 20.00     0.021 C 
ENDBRANCH   1   7
TORSDOF 2
ENDMDL
MODEL 7
REMARK VINA RESULT:      -2.5     21.990     23.614
REMARK  2 active torsions:
REMARK  status: ('A' for Active; 'I' for Inactive)
REMARK    1  A    between atoms: C7_7  and  P9_9 
REMARK    2  A    between atoms: C8_8  and  P9_9 
ROOT
HETATM    1  P9  UNL     1     -40.497  14.833   7.216  1.00 20.00    -0.001 P 
HETATM    2 CL10 UNL     1     -40.565  14.152   9.194  1.00 20.00    -0.094 Cl
ENDROOT
BRANCH   1   3
HETATM    3  C7  UNL     1     -41.877  16.112   7.299  1.00 20.00    -0.014 C 
HETATM    4  C1  UNL     1     -43.006  15.569   8.187  1.00 20.00     0.021 C 
HETATM    5  C2  UNL     1     -41.320  17.409   7.902  1.00 20.00     0.021 C 
HETATM    6  C3  UNL     1     -42.412  16.383   5.886  1.00 20.00     0.021 C 
ENDBRANCH   1   3
BRANCH   1   7
HETATM    7  C8  UNL     1     -41.425  13.508   6.366  1.00 20.00    -0.014 C 
HETATM    8  C4  UNL     1     -41.991  14.061   5.050  1.00 20.00     0.021 C 
HETATM    9  C5  UNL     1     -40.470  12.342   6.072  1.00 20.00     0.021 C 
HETATM   10  C6  UNL     1     -42.573  13.028   7.265  1.00 20.00     0.021 C 
ENDBRANCH   1   7
TORSDOF 2
ENDMDL
MODEL 8
REMARK VINA RESULT:      -2.5     26.168     27.513
REMARK  2 active torsions:
REMARK  status: ('A' for Active; 'I' for Inactive)
REMARK    1  A    between atoms: C7_7  and  P9_9 
REMARK    2  A    between atoms: C8_8  and  P9_9 
ROOT
HETATM    1  P9  UNL     1     -35.323  17.130  -5.203  1.00 20.00    -0.001 P 
HETATM    2 CL10 UNL     1     -34.188  18.122  -6.656  1.00 20.00    -0.094 Cl
ENDROOT
BRANCH   1   3
HETATM    3  C7  UNL     1     -34.712  15.374  -5.504  1.00 20.00    -0.014 C 
HETATM    4  C1  UNL     1     -33.666  15.020  -4.437  1.00 20.00     0.021 C 
HETATM    5  C2  UNL     1     -35.901  14.408  -5.405  1.00 20.00     0.021 C 
HETATM    6  C3  UNL     1     -34.081  15.282  -6.901  1.00 20.00     0.021 C 
ENDBRANCH   1   3
BRANCH   1   7
HETATM    7  C8  UNL     1     -36.931  16.993  -6.061  1.00 20.00    -0.014 C 
HETATM    8  C4  UNL     1     -37.883  16.148  -5.203  1.00 20.00     0.021 C 
HETATM    9  C5  UNL     1     -37.514  18.400  -6.253  1.00 20.00     0.021 C 
HETATM   10  C6  UNL     1     -36.728  16.322  -7.427  1.00 20.00     0.021 C 
ENDBRANCH   1   7
TORSDOF 2
ENDMDL
MODEL 9
REMARK VINA RESULT:      -2.5     26.166     27.514
REMARK  2 active torsions:
REMARK  status: ('A' for Active; 'I' for Inactive)
REMARK    1  A    between atoms: C7_7  and  P9_9 
REMARK    2  A    between atoms: C8_8  and  P9_9 
ROOT
HETATM    1  P9  UNL     1     -35.354  17.127  -5.168  1.00 20.00    -0.001 P 
HETATM    2 CL10 UNL     1     -34.212  18.133  -6.606  1.00 20.00    -0.094 Cl
ENDROOT
BRANCH   1   3
HETATM    3  C7  UNL     1     -34.744  15.374  -5.484  1.00 20.00    -0.014 C 
HETATM    4  C1  UNL     1     -33.698  15.010  -4.420  1.00 20.00     0.021 C 
HETATM    5  C2  UNL     1     -35.933  14.408  -5.395  1.00 20.00     0.021 C 
HETATM    6  C3  UNL     1     -34.112  15.294  -6.882  1.00 20.00     0.021 C 
ENDBRANCH   1   3
BRANCH   1   7
HETATM    7  C8  UNL     1     -36.958  17.001  -6.034  1.00 20.00    -0.014 C 
HETATM    8  C4  UNL     1     -37.535  18.411  -6.222  1.00 20.00     0.021 C 
HETATM    9  C5  UNL     1     -36.735  16.344  -7.403  1.00 20.00     0.021 C 
HETATM   10  C6  UNL     1     -37.927  16.151  -5.199  1.00 20.00     0.021 C 
ENDBRANCH   1   7
TORSDOF 2
ENDMDL
