MODEL 1
REMARK VINA RESULT:      -4.0      0.000      0.000
REMARK  2 active torsions:
REMARK  status: ('A' for Active; 'I' for Inactive)
REMARK    1  A    between atoms: C7_7  and  O10_10 
REMARK    2  A    between atoms: C8_8  and  O10_10 
ROOT
HETATM    1  C1  UNL     1     -31.776  18.453  -0.320  1.00 20.00     0.155 C 
HETATM    2  C2  UNL     1     -32.668  18.508   0.933  1.00 20.00     0.084 C 
HETATM    3  C3  UNL     1     -33.869  18.233  -0.001  1.00 20.00     0.047 C 
HETATM    4  C7  UNL     1     -32.922  17.886  -1.178  1.00 20.00     0.191 C 
HETATM    5  O9  UNL     1     -30.622  18.749  -0.543  1.00 20.00    -0.295 OA
ENDROOT
BRANCH   4   6
HETATM    6  O10 UNL     1     -33.132  18.593  -2.386  1.00 20.00    -0.373 OA
BRANCH   6   7
HETATM    7  C8  UNL     1     -33.164  17.697  -3.509  1.00 20.00     0.122 C 
HETATM    8  C5  UNL     1     -33.305  16.194  -3.171  1.00 20.00     0.032 C 
HETATM    9  C4  UNL     1     -34.229  16.072  -4.397  1.00 20.00     0.005 C 
HETATM   10  C6  UNL     1     -34.519  17.576  -4.246  1.00 20.00     0.032 C 
ENDBRANCH   6   7
ENDBRANCH   4   6
TORSDOF 2
ENDMDL
MODEL 2
REMARK VINA RESULT:      -3.9     11.507     12.616
REMARK  2 active torsions:
REMARK  status: ('A' for Active; 'I' for Inactive)
REMARK    1  A    between atoms: C7_7  and  O10_10 
REMARK    2  A    between atoms: C8_8  and  O10_10 
ROOT
HETATM    1  C1  UNL     1     -41.714  14.019   8.487  1.00 20.00     0.155 C 
HETATM    2  C2  UNL     1     -41.513  15.543   8.540  1.00 20.00     0.084 C 
HETATM    3  C3  UNL     1     -40.348  15.350   7.543  1.00 20.00     0.047 C 
HETATM    4  C7  UNL     1     -40.766  13.881   7.281  1.00 20.00     0.191 C 
HETATM    5  O9  UNL     1     -42.361  13.234   9.146  1.00 20.00    -0.295 OA
ENDROOT
BRANCH   4   6
HETATM    6  O10 UNL     1     -39.763  12.898   7.456  1.00 20.00    -0.373 OA
BRANCH   6   7
HETATM    7  C8  UNL     1     -39.692  12.026   6.317  1.00 20.00     0.122 C 
HETATM    8  C5  UNL     1     -40.346  12.555   5.018  1.00 20.00     0.032 C 
HETATM    9  C4  UNL     1     -39.174  11.920   4.246  1.00 20.00     0.005 C 
HETATM   10  C6  UNL     1     -38.352  12.022   5.544  1.00 20.00     0.032 C 
ENDBRANCH   6   7
ENDBRANCH   4   6
TORSDOF 2
ENDMDL
MODEL 3
REMARK VINA RESULT:      -3.8     12.034     12.552
REMARK  2 active torsions:
REMARK  status: ('A' for Active; 'I' for Inactive)
REMARK    1  A    between atoms: C7_7  and  O10_10 
REMARK    2  A    between atoms: C8_8  and  O10_10 
ROOT
HETATM    1  C1  UNL     1     -34.483   5.641   5.080  1.00 20.00     0.155 C 
HETATM    2  C2  UNL     1     -34.554   6.198   6.512  1.00 20.00     0.084 C 
HETATM    3  C3  UNL     1     -33.585   7.310   6.048  1.00 20.00     0.047 C 
HETATM    4  C7  UNL     1     -33.774   6.906   4.563  1.00 20.00     0.191 C 
HETATM    5  O9  UNL     1     -34.841   4.604   4.564  1.00 20.00    -0.295 OA
ENDROOT
BRANCH   4   6
HETATM    6  O10 UNL     1     -32.595   6.637   3.828  1.00 20.00    -0.373 OA
BRANCH   6   7
HETATM    7  C8  UNL     1     -32.133   7.815   3.146  1.00 20.00     0.122 C 
HETATM    8  C5  UNL     1     -32.255   7.795   1.604  1.00 20.00     0.032 C 
HETATM    9  C4  UNL     1     -32.649   9.283   1.681  1.00 20.00     0.005 C 
HETATM   10  C6  UNL     1     -33.107   9.017   3.127  1.00 20.00     0.032 C 
ENDBRANCH   6   7
ENDBRANCH   4   6
TORSDOF 2
ENDMDL
MODEL 4
REMARK VINA RESULT:      -3.8     12.090     12.865
REMARK  2 active torsions:
REMARK  status: ('A' for Active; 'I' for Inactive)
REMARK    1  A    between atoms: C7_7  and  O10_10 
REMARK    2  A    between atoms: C8_8  and  O10_10 
ROOT
HETATM    1  C1  UNL     1     -32.430   6.984   2.509  1.00 20.00     0.155 C 
HETATM    2  C2  UNL     1     -32.108   8.115   1.518  1.00 20.00     0.084 C 
HETATM    3  C3  UNL     1     -32.534   9.106   2.624  1.00 20.00     0.047 C 
HETATM    4  C7  UNL     1     -32.557   7.974   3.682  1.00 20.00     0.191 C 
HETATM    5  O9  UNL     1     -32.546   5.782   2.404  1.00 20.00    -0.295 OA
ENDROOT
BRANCH   4   6
HETATM    6  O10 UNL     1     -33.754   7.827   4.423  1.00 20.00    -0.373 OA
BRANCH   6   7
HETATM    7  C8  UNL     1     -33.684   6.685   5.292  1.00 20.00     0.122 C 
HETATM    8  C5  UNL     1     -34.299   6.868   6.700  1.00 20.00     0.032 C 
HETATM    9  C4  UNL     1     -34.821   5.423   6.589  1.00 20.00     0.005 C 
HETATM   10  C6  UNL     1     -34.747   5.585   5.060  1.00 20.00     0.032 C 
ENDBRANCH   6   7
ENDBRANCH   4   6
TORSDOF 2
ENDMDL
MODEL 5
REMARK VINA RESULT:      -3.6      1.210      4.444
REMARK  2 active torsions:
REMARK  status: ('A' for Active; 'I' for Inactive)
REMARK    1  A    between atoms: C7_7  and  O10_10 
REMARK    2  A    between atoms: C8_8  and  O10_10 
ROOT
HETATM    1  C1  UNL     1     -33.116  18.391  -3.545  1.00 20.00     0.155 C 
HETATM    2  C2  UNL     1     -33.740  16.992  -3.687  1.00 20.00     0.084 C 
HETATM    3  C3  UNL     1     -33.354  16.751  -2.210  1.00 20.00     0.047 C 
HETATM    4  C7  UNL     1     -33.014  18.251  -2.014  1.00 20.00     0.191 C 
HETATM    5  O9  UNL     1     -32.815  19.261  -4.334  1.00 20.00    -0.295 OA
ENDROOT
BRANCH   4   6
HETATM    6  O10 UNL     1     -31.728  18.544  -1.501  1.00 20.00    -0.373 OA
BRANCH   6   7
HETATM    7  C8  UNL     1     -31.820  19.207  -0.229  1.00 20.00     0.122 C 
HETATM    8  C5  UNL     1     -32.932  18.698   0.719  1.00 20.00     0.032 C 
HETATM    9  C4  UNL     1     -31.941  18.894   1.882  1.00 20.00     0.005 C 
HETATM   10  C6  UNL     1     -30.806  18.756   0.849  1.00 20.00     0.032 C 
ENDBRANCH   6   7
ENDBRANCH   4   6
TORSDOF 2
ENDMDL
MODEL 6
REMARK VINA RESULT:      -3.6      1.703      4.703
REMARK  2 active torsions:
REMARK  status: ('A' for Active; 'I' for Inactive)
REMARK    1  A    between atoms: C7_7  and  O10_10 
REMARK    2  A    between atoms: C8_8  and  O10_10 
ROOT
HETATM    1  C1  UNL     1     -34.554  16.241  -4.870  1.00 20.00     0.155 C 
HETATM    2  C2  UNL     1     -33.942  14.875  -5.222  1.00 20.00     0.084 C 
HETATM    3  C3  UNL     1     -32.872  15.158  -4.143  1.00 20.00     0.047 C 
HETATM    4  C7  UNL     1     -33.678  16.370  -3.609  1.00 20.00     0.191 C 
HETATM    5  O9  UNL     1     -35.394  16.944  -5.389  1.00 20.00    -0.295 OA
ENDROOT
BRANCH   4   6
HETATM    6  O10 UNL     1     -32.984  17.600  -3.523  1.00 20.00    -0.373 OA
BRANCH   6   7
HETATM    7  C8  UNL     1     -33.311  18.292  -2.307  1.00 20.00     0.122 C 
HETATM    8  C5  UNL     1     -33.807  17.407  -1.138  1.00 20.00     0.032 C 
HETATM    9  C4  UNL     1     -33.003  18.319  -0.192  1.00 20.00     0.005 C 
HETATM   10  C6  UNL     1     -32.119  18.680  -1.401  1.00 20.00     0.032 C 
ENDBRANCH   6   7
ENDBRANCH   4   6
TORSDOF 2
ENDMDL
MODEL 7
REMARK VINA RESULT:      -3.6     11.813     12.320
REMARK  2 active torsions:
REMARK  status: ('A' for Active; 'I' for Inactive)
REMARK    1  A    between atoms: C7_7  and  O10_10 
REMARK    2  A    between atoms: C8_8  and  O10_10 
ROOT
HETATM    1  C1  UNL     1     -34.203   6.726   6.087  1.00 20.00     0.155 C 
HETATM    2  C2  UNL     1     -34.883   5.398   5.710  1.00 20.00     0.084 C 
HETATM    3  C3  UNL     1     -34.442   5.671   4.254  1.00 20.00     0.047 C 
HETATM    4  C7  UNL     1     -33.519   6.830   4.711  1.00 20.00     0.191 C 
HETATM    5  O9  UNL     1     -34.211   7.421   7.080  1.00 20.00    -0.295 OA
ENDROOT
BRANCH   4   6
HETATM    6  O10 UNL     1     -33.711   8.079   4.074  1.00 20.00    -0.373 OA
BRANCH   6   7
HETATM    7  C8  UNL     1     -32.597   8.401   3.225  1.00 20.00     0.122 C 
HETATM    8  C5  UNL     1     -32.149   7.290   2.246  1.00 20.00     0.032 C 
HETATM    9  C4  UNL     1     -31.900   8.397   1.205  1.00 20.00     0.005 C 
HETATM   10  C6  UNL     1     -32.916   9.259   1.978  1.00 20.00     0.032 C 
ENDBRANCH   6   7
ENDBRANCH   4   6
TORSDOF 2
ENDMDL
MODEL 8
REMARK VINA RESULT:      -3.6      2.563      5.490
REMARK  2 active torsions:
REMARK  status: ('A' for Active; 'I' for Inactive)
REMARK    1  A    between atoms: C7_7  and  O10_10 
REMARK    2  A    between atoms: C8_8  and  O10_10 
ROOT
HETATM    1  C1  UNL     1     -36.105  15.905  -5.543  1.00 20.00     0.155 C 
HETATM    2  C2  UNL     1     -35.704  14.864  -6.602  1.00 20.00     0.084 C 
HETATM    3  C3  UNL     1     -34.233  15.223  -6.291  1.00 20.00     0.047 C 
HETATM    4  C7  UNL     1     -34.656  16.029  -5.036  1.00 20.00     0.191 C 
HETATM    5  O9  UNL     1     -37.154  16.429  -5.235  1.00 20.00    -0.295 OA
ENDROOT
BRANCH   4   6
HETATM    6  O10 UNL     1     -34.193  17.364  -4.958  1.00 20.00    -0.373 OA
BRANCH   6   7
HETATM    7  C8  UNL     1     -33.533  17.608  -3.706  1.00 20.00     0.122 C 
HETATM    8  C5  UNL     1     -34.427  18.145  -2.563  1.00 20.00     0.032 C 
HETATM    9  C4  UNL     1     -33.625  17.249  -1.601  1.00 20.00     0.005 C 
HETATM   10  C6  UNL     1     -33.281  16.367  -2.816  1.00 20.00     0.032 C 
ENDBRANCH   6   7
ENDBRANCH   4   6
TORSDOF 2
ENDMDL
MODEL 9
REMARK VINA RESULT:      -3.6     11.461     13.009
REMARK  2 active torsions:
REMARK  status: ('A' for Active; 'I' for Inactive)
REMARK    1  A    between atoms: C7_7  and  O10_10 
REMARK    2  A    between atoms: C8_8  and  O10_10 
ROOT
HETATM    1  C1  UNL     1     -39.385  12.289   6.365  1.00 20.00     0.155 C 
HETATM    2  C2  UNL     1     -39.571  12.097   4.850  1.00 20.00     0.084 C 
HETATM    3  C3  UNL     1     -40.831  12.985   4.967  1.00 20.00     0.047 C 
HETATM    4  C7  UNL     1     -40.448  13.403   6.410  1.00 20.00     0.191 C 
HETATM    5  O9  UNL     1     -38.679  11.762   7.198  1.00 20.00    -0.295 OA
ENDROOT
BRANCH   4   6
HETATM    6  O10 UNL     1     -41.434  13.207   7.406  1.00 20.00    -0.373 OA
BRANCH   6   7
HETATM    7  C8  UNL     1     -41.515  14.343   8.281  1.00 20.00     0.122 C 
HETATM    8  C5  UNL     1     -40.490  14.379   9.439  1.00 20.00     0.032 C 
HETATM    9  C4  UNL     1     -40.381  15.899   9.209  1.00 20.00     0.005 C 
HETATM   10  C6  UNL     1     -40.859  15.647   7.767  1.00 20.00     0.032 C 
ENDBRANCH   6   7
ENDBRANCH   4   6
TORSDOF 2
ENDMDL
