MODEL 1
REMARK VINA RESULT:      -6.1      0.000      0.000
REMARK  2 active torsions:
REMARK  status: ('A' for Active; 'I' for Inactive)
REMARK    1  A    between atoms: C4_4  and  C6_6 
REMARK    2  A    between atoms: C6_6  and  O7_7 
ROOT
HETATM    1  C1  UNL     1     -34.059   7.146   6.398  1.00 20.00     0.013 C 
HETATM    2  C2  UNL     1     -34.469   5.677   6.254  1.00 20.00     0.079 C 
HETATM    3  C3  UNL     1     -33.667   6.399   4.120  1.00 20.00     0.085 C 
HETATM    4  C4  UNL     1     -33.789   7.661   4.974  1.00 20.00     0.015 C 
HETATM    5  C5  UNL     1     -34.678   5.480   4.768  1.00 20.00     0.244 C 
HETATM    6  F8  UNL     1     -34.512   4.198   4.399  1.00 20.00    -0.206 F 
HETATM    7  F9  UNL     1     -35.933   5.849   4.422  1.00 20.00    -0.206 F 
ENDROOT
BRANCH   4   8
HETATM    8  C6  UNL     1     -32.566   8.559   4.883  1.00 20.00     0.168 C 
BRANCH   8   9
HETATM    9  O7  UNL     1     -31.668   8.011   3.933  1.00 20.00    -0.400 OA
HETATM   10  H19 UNL     1     -30.865   7.756   4.418  1.00 20.00     0.209 HD
ENDBRANCH   8   9
ENDBRANCH   4   8
TORSDOF 2
ENDMDL
MODEL 2
REMARK VINA RESULT:      -5.2      1.133      1.252
REMARK  2 active torsions:
REMARK  status: ('A' for Active; 'I' for Inactive)
REMARK    1  A    between atoms: C4_4  and  C6_6 
REMARK    2  A    between atoms: C6_6  and  O7_7 
ROOT
HETATM    1  C1  UNL     1     -33.450   7.812   5.384  1.00 20.00     0.013 C 
HETATM    2  C2  UNL     1     -34.160   6.660   6.104  1.00 20.00     0.079 C 
HETATM    3  C3  UNL     1     -33.604   5.886   3.911  1.00 20.00     0.085 C 
HETATM    4  C4  UNL     1     -33.329   7.390   3.910  1.00 20.00     0.015 C 
HETATM    5  C5  UNL     1     -34.652   5.757   4.993  1.00 20.00     0.244 C 
HETATM    6  F8  UNL     1     -34.806   4.486   5.405  1.00 20.00    -0.206 F 
HETATM    7  F9  UNL     1     -35.850   6.191   4.536  1.00 20.00    -0.206 F 
ENDROOT
BRANCH   4   8
HETATM    8  C6  UNL     1     -31.986   7.747   3.292  1.00 20.00     0.168 C 
BRANCH   8   9
HETATM    9  O7  UNL     1     -32.123   7.760   1.881  1.00 20.00    -0.400 OA
HETATM   10  H19 UNL     1     -31.327   7.338   1.516  1.00 20.00     0.209 HD
ENDBRANCH   8   9
ENDBRANCH   4   8
TORSDOF 2
ENDMDL
MODEL 3
REMARK VINA RESULT:      -5.0      2.844      3.826
REMARK  2 active torsions:
REMARK  status: ('A' for Active; 'I' for Inactive)
REMARK    1  A    between atoms: C4_4  and  C6_6 
REMARK    2  A    between atoms: C6_6  and  O7_7 
ROOT
HETATM    1  C1  UNL     1     -33.053   6.165   3.230  1.00 20.00     0.013 C 
HETATM    2  C2  UNL     1     -32.145   7.380   3.447  1.00 20.00     0.079 C 
HETATM    3  C3  UNL     1     -33.607   7.246   5.334  1.00 20.00     0.085 C 
HETATM    4  C4  UNL     1     -34.142   6.241   4.314  1.00 20.00     0.015 C 
HETATM    5  C5  UNL     1     -32.884   8.238   4.452  1.00 20.00     0.244 C 
HETATM    6  F8  UNL     1     -32.051   9.029   5.151  1.00 20.00    -0.206 F 
HETATM    7  F9  UNL     1     -33.775   9.035   3.818  1.00 20.00    -0.206 F 
ENDROOT
BRANCH   4   8
HETATM    8  C6  UNL     1     -34.472   4.890   4.928  1.00 20.00     0.168 C 
BRANCH   8   9
HETATM    9  O7  UNL     1     -35.169   5.101   6.144  1.00 20.00    -0.400 OA
HETATM   10  H19 UNL     1     -34.568   4.843   6.863  1.00 20.00     0.209 HD
ENDBRANCH   8   9
ENDBRANCH   4   8
TORSDOF 2
ENDMDL
MODEL 4
REMARK VINA RESULT:      -4.9      1.357      2.138
REMARK  2 active torsions:
REMARK  status: ('A' for Active; 'I' for Inactive)
REMARK    1  A    between atoms: C4_4  and  C6_6 
REMARK    2  A    between atoms: C6_6  and  O7_7 
ROOT
HETATM    1  C1  UNL     1     -33.760   6.421   4.068  1.00 20.00     0.013 C 
HETATM    2  C2  UNL     1     -34.837   5.633   4.820  1.00 20.00     0.079 C 
HETATM    3  C3  UNL     1     -33.943   7.241   6.347  1.00 20.00     0.085 C 
HETATM    4  C4  UNL     1     -33.028   7.267   5.123  1.00 20.00     0.015 C 
HETATM    5  C5  UNL     1     -34.515   5.842   6.284  1.00 20.00     0.244 C 
HETATM    6  F8  UNL     1     -35.600   5.700   7.066  1.00 20.00    -0.206 F 
HETATM    7  F9  UNL     1     -33.591   4.942   6.692  1.00 20.00    -0.206 F 
ENDROOT
BRANCH   4   8
HETATM    8  C6  UNL     1     -32.712   8.676   4.649  1.00 20.00     0.168 C 
BRANCH   8   9
HETATM    9  O7  UNL     1     -32.619   8.671   3.234  1.00 20.00    -0.400 OA
HETATM   10  H19 UNL     1     -31.834   8.147   3.004  1.00 20.00     0.209 HD
ENDBRANCH   8   9
ENDBRANCH   4   8
TORSDOF 2
ENDMDL
MODEL 5
REMARK VINA RESULT:      -4.7      2.769      3.526
REMARK  2 active torsions:
REMARK  status: ('A' for Active; 'I' for Inactive)
REMARK    1  A    between atoms: C4_4  and  C6_6 
REMARK    2  A    between atoms: C6_6  and  O7_7 
ROOT
HETATM    1  C1  UNL     1     -33.830   7.739   6.406  1.00 20.00     0.013 C 
HETATM    2  C2  UNL     1     -33.491   8.816   5.371  1.00 20.00     0.079 C 
HETATM    3  C3  UNL     1     -33.664   6.741   4.198  1.00 20.00     0.085 C 
HETATM    4  C4  UNL     1     -33.688   6.388   5.685  1.00 20.00     0.015 C 
HETATM    5  C5  UNL     1     -32.916   8.055   4.197  1.00 20.00     0.244 C 
HETATM    6  F8  UNL     1     -33.062   8.723   3.039  1.00 20.00    -0.206 F 
HETATM    7  F9  UNL     1     -31.593   7.838   4.384  1.00 20.00    -0.206 F 
ENDROOT
BRANCH   4   8
HETATM    8  C6  UNL     1     -34.786   5.399   6.042  1.00 20.00     0.168 C 
BRANCH   8   9
HETATM    9  O7  UNL     1     -35.109   4.640   4.889  1.00 20.00    -0.400 OA
HETATM   10  H19 UNL     1     -35.402   3.766   5.198  1.00 20.00     0.209 HD
ENDBRANCH   8   9
ENDBRANCH   4   8
TORSDOF 2
ENDMDL
MODEL 6
REMARK VINA RESULT:      -4.6      1.912      2.547
REMARK  2 active torsions:
REMARK  status: ('A' for Active; 'I' for Inactive)
REMARK    1  A    between atoms: C4_4  and  C6_6 
REMARK    2  A    between atoms: C6_6  and  O7_7 
ROOT
HETATM    1  C1  UNL     1     -33.659   6.259   3.859  1.00 20.00     0.013 C 
HETATM    2  C2  UNL     1     -34.540   5.995   5.084  1.00 20.00     0.079 C 
HETATM    3  C3  UNL     1     -33.438   8.086   5.444  1.00 20.00     0.085 C 
HETATM    4  C4  UNL     1     -32.774   7.466   4.215  1.00 20.00     0.015 C 
HETATM    5  C5  UNL     1     -33.954   6.867   6.174  1.00 20.00     0.244 C 
HETATM    6  F8  UNL     1     -34.863   7.182   7.114  1.00 20.00    -0.206 F 
HETATM    7  F9  UNL     1     -32.933   6.224   6.787  1.00 20.00    -0.206 F 
ENDROOT
BRANCH   4   8
HETATM    8  C6  UNL     1     -32.613   8.450   3.068  1.00 20.00     0.168 C 
BRANCH   8   9
HETATM    9  O7  UNL     1     -32.161   7.746   1.923  1.00 20.00    -0.400 OA
HETATM   10  H19 UNL     1     -32.007   6.827   2.199  1.00 20.00     0.209 HD
ENDBRANCH   8   9
ENDBRANCH   4   8
TORSDOF 2
ENDMDL
MODEL 7
REMARK VINA RESULT:      -4.3      1.201      2.009
REMARK  2 active torsions:
REMARK  status: ('A' for Active; 'I' for Inactive)
REMARK    1  A    between atoms: C4_4  and  C6_6 
REMARK    2  A    between atoms: C6_6  and  O7_7 
ROOT
HETATM    1  C1  UNL     1     -32.643   6.470   3.431  1.00 20.00     0.013 C 
HETATM    2  C2  UNL     1     -33.873   5.557   3.440  1.00 20.00     0.079 C 
HETATM    3  C3  UNL     1     -34.306   7.339   4.973  1.00 20.00     0.085 C 
HETATM    4  C4  UNL     1     -32.830   7.457   4.596  1.00 20.00     0.015 C 
HETATM    5  C5  UNL     1     -34.575   5.869   4.744  1.00 20.00     0.244 C 
HETATM    6  F8  UNL     1     -35.890   5.594   4.690  1.00 20.00    -0.206 F 
HETATM    7  F9  UNL     1     -34.041   5.136   5.749  1.00 20.00    -0.206 F 
ENDROOT
BRANCH   4   8
HETATM    8  C6  UNL     1     -32.418   8.879   4.249  1.00 20.00     0.168 C 
BRANCH   8   9
HETATM    9  O7  UNL     1     -32.608   9.082   2.859  1.00 20.00    -0.400 OA
HETATM   10  H19 UNL     1     -33.107   8.316   2.526  1.00 20.00     0.209 HD
ENDBRANCH   8   9
ENDBRANCH   4   8
TORSDOF 2
ENDMDL
MODEL 8
REMARK VINA RESULT:      -4.1      1.731      2.035
REMARK  2 active torsions:
REMARK  status: ('A' for Active; 'I' for Inactive)
REMARK    1  A    between atoms: C4_4  and  C6_6 
REMARK    2  A    between atoms: C6_6  and  O7_7 
ROOT
HETATM    1  C1  UNL     1     -34.565   6.003   4.920  1.00 20.00     0.013 C 
HETATM    2  C2  UNL     1     -34.019   4.781   4.175  1.00 20.00     0.079 C 
HETATM    3  C3  UNL     1     -32.676   6.653   3.537  1.00 20.00     0.085 C 
HETATM    4  C4  UNL     1     -33.862   7.228   4.312  1.00 20.00     0.015 C 
HETATM    5  C5  UNL     1     -33.243   5.355   3.009  1.00 20.00     0.244 C 
HETATM    6  F8  UNL     1     -32.284   4.518   2.578  1.00 20.00    -0.206 F 
HETATM    7  F9  UNL     1     -34.076   5.598   1.970  1.00 20.00    -0.206 F 
ENDROOT
BRANCH   4   8
HETATM    8  C6  UNL     1     -33.449   8.259   5.350  1.00 20.00     0.168 C 
BRANCH   8   9
HETATM    9  O7  UNL     1     -32.072   8.552   5.178  1.00 20.00    -0.400 OA
HETATM   10  H19 UNL     1     -31.596   8.101   5.895  1.00 20.00     0.209 HD
ENDBRANCH   8   9
ENDBRANCH   4   8
TORSDOF 2
ENDMDL
MODEL 9
REMARK VINA RESULT:      -4.0      7.842      8.457
REMARK  2 active torsions:
REMARK  status: ('A' for Active; 'I' for Inactive)
REMARK    1  A    between atoms: C4_4  and  C6_6 
REMARK    2  A    between atoms: C6_6  and  O7_7 
ROOT
HETATM    1  C1  UNL     1     -38.786  12.104   6.539  1.00 20.00     0.013 C 
HETATM    2  C2  UNL     1     -38.089  11.874   5.194  1.00 20.00     0.079 C 
HETATM    3  C3  UNL     1     -40.310  12.621   4.718  1.00 20.00     0.085 C 
HETATM    4  C4  UNL     1     -40.273  12.335   6.220  1.00 20.00     0.015 C 
HETATM    5  C5  UNL     1     -39.217  11.716   4.197  1.00 20.00     0.244 C 
HETATM    6  F8  UNL     1     -38.839  12.041   2.948  1.00 20.00    -0.206 F 
HETATM    7  F9  UNL     1     -39.645  10.432   4.178  1.00 20.00    -0.206 F 
ENDROOT
BRANCH   4   8
HETATM    8  C6  UNL     1     -40.900  13.443   7.050  1.00 20.00     0.168 C 
BRANCH   8   9
HETATM    9  O7  UNL     1     -40.022  13.766   8.116  1.00 20.00    -0.400 OA
HETATM   10  H19 UNL     1     -39.150  13.404   7.883  1.00 20.00     0.209 HD
ENDBRANCH   8   9
ENDBRANCH   4   8
TORSDOF 2
ENDMDL
