MODEL 1
REMARK VINA RESULT:      -5.0      0.000      0.000
REMARK  2 active torsions:
REMARK  status: ('A' for Active; 'I' for Inactive)
REMARK    1  A    between atoms: C1_1  and  C4_4 
REMARK    2  A    between atoms: C4_4  and  C5_5 
ROOT
HETATM    1  C2  UNL     1     -34.181   5.279   4.074  1.00 20.00     0.027 A 
HETATM    2  C3  UNL     1     -35.485   5.963   4.349  1.00 20.00     0.027 A 
HETATM    3  C4  UNL     1     -34.212   6.499   4.971  1.00 20.00     0.110 A 
ENDROOT
BRANCH   3   4
HETATM    4  C1  UNL     1     -33.670   7.759   4.408  1.00 20.00     0.249 C 
HETATM    5  O6  UNL     1     -32.543   7.859   3.934  1.00 20.00    -0.306 OA
ENDBRANCH   3   4
BRANCH   3   6
HETATM    6  C5  UNL     1     -34.021   6.269   6.448  1.00 20.00     0.401 C 
HETATM    7  F7  UNL     1     -35.020   6.835   7.155  1.00 20.00    -0.170 F 
HETATM    8  F8  UNL     1     -34.003   4.950   6.729  1.00 20.00    -0.170 F 
HETATM    9  F9  UNL     1     -32.857   6.802   6.869  1.00 20.00    -0.170 F 
ENDBRANCH   3   6
TORSDOF 2
ENDMDL
MODEL 2
REMARK VINA RESULT:      -4.9      1.619      2.254
REMARK  2 active torsions:
REMARK  status: ('A' for Active; 'I' for Inactive)
REMARK    1  A    between atoms: C1_1  and  C4_4 
REMARK    2  A    between atoms: C4_4  and  C5_5 
ROOT
HETATM    1  C2  UNL     1     -34.547   5.071   5.497  1.00 20.00     0.027 A 
HETATM    2  C3  UNL     1     -35.486   5.747   4.545  1.00 20.00     0.027 A 
HETATM    3  C4  UNL     1     -34.029   6.161   4.582  1.00 20.00     0.110 A 
ENDROOT
BRANCH   3   4
HETATM    4  C1  UNL     1     -33.182   5.734   3.442  1.00 20.00     0.249 C 
HETATM    5  O6  UNL     1     -32.540   6.514   2.747  1.00 20.00    -0.306 OA
ENDBRANCH   3   4
BRANCH   3   6
HETATM    6  C5  UNL     1     -33.711   7.492   5.213  1.00 20.00     0.401 C 
HETATM    7  F7  UNL     1     -32.378   7.662   5.327  1.00 20.00    -0.170 F 
HETATM    8  F8  UNL     1     -34.201   8.505   4.469  1.00 20.00    -0.170 F 
HETATM    9  F9  UNL     1     -34.250   7.580   6.445  1.00 20.00    -0.170 F 
ENDBRANCH   3   6
TORSDOF 2
ENDMDL
MODEL 3
REMARK VINA RESULT:      -4.7      1.681      2.351
REMARK  2 active torsions:
REMARK  status: ('A' for Active; 'I' for Inactive)
REMARK    1  A    between atoms: C1_1  and  C4_4 
REMARK    2  A    between atoms: C4_4  and  C5_5 
ROOT
HETATM    1  C2  UNL     1     -34.190   8.101   5.131  1.00 20.00     0.027 A 
HETATM    2  C3  UNL     1     -33.265   7.311   6.005  1.00 20.00     0.027 A 
HETATM    3  C4  UNL     1     -33.816   6.686   4.740  1.00 20.00     0.110 A 
ENDROOT
BRANCH   3   4
HETATM    4  C1  UNL     1     -32.875   6.530   3.605  1.00 20.00     0.249 C 
HETATM    5  O6  UNL     1     -32.355   7.476   3.022  1.00 20.00    -0.306 OA
ENDBRANCH   3   4
BRANCH   3   6
HETATM    6  C5  UNL     1     -34.877   5.627   4.902  1.00 20.00     0.401 C 
HETATM    7  F7  UNL     1     -36.013   5.986   4.272  1.00 20.00    -0.170 F 
HETATM    8  F8  UNL     1     -34.463   4.452   4.386  1.00 20.00    -0.170 F 
HETATM    9  F9  UNL     1     -35.164   5.434   6.205  1.00 20.00    -0.170 F 
ENDBRANCH   3   6
TORSDOF 2
ENDMDL
MODEL 4
REMARK VINA RESULT:      -4.7      1.678      2.557
REMARK  2 active torsions:
REMARK  status: ('A' for Active; 'I' for Inactive)
REMARK    1  A    between atoms: C1_1  and  C4_4 
REMARK    2  A    between atoms: C4_4  and  C5_5 
ROOT
HETATM    1  C2  UNL     1     -34.189   8.100   5.116  1.00 20.00     0.027 A 
HETATM    2  C3  UNL     1     -33.255   7.323   5.993  1.00 20.00     0.027 A 
HETATM    3  C4  UNL     1     -33.811   6.684   4.736  1.00 20.00     0.110 A 
ENDROOT
BRANCH   3   4
HETATM    4  C1  UNL     1     -32.877   6.521   3.597  1.00 20.00     0.249 C 
HETATM    5  O6  UNL     1     -32.363   7.463   3.003  1.00 20.00    -0.306 OA
ENDBRANCH   3   4
BRANCH   3   6
HETATM    6  C5  UNL     1     -34.866   5.622   4.916  1.00 20.00     0.401 C 
HETATM    7  F7  UNL     1     -34.449   4.442   4.412  1.00 20.00    -0.170 F 
HETATM    8  F8  UNL     1     -35.148   5.443   6.223  1.00 20.00    -0.170 F 
HETATM    9  F9  UNL     1     -36.006   5.967   4.286  1.00 20.00    -0.170 F 
ENDBRANCH   3   6
TORSDOF 2
ENDMDL
MODEL 5
REMARK VINA RESULT:      -4.6      1.545      2.233
REMARK  2 active torsions:
REMARK  status: ('A' for Active; 'I' for Inactive)
REMARK    1  A    between atoms: C1_1  and  C4_4 
REMARK    2  A    between atoms: C4_4  and  C5_5 
ROOT
HETATM    1  C2  UNL     1     -34.199   7.983   4.446  1.00 20.00     0.027 A 
HETATM    2  C3  UNL     1     -32.790   7.543   4.705  1.00 20.00     0.027 A 
HETATM    3  C4  UNL     1     -33.933   6.578   4.944  1.00 20.00     0.110 A 
ENDROOT
BRANCH   3   4
HETATM    4  C1  UNL     1     -34.096   5.477   3.964  1.00 20.00     0.249 C 
HETATM    5  O6  UNL     1     -34.125   4.291   4.277  1.00 20.00    -0.306 OA
ENDBRANCH   3   4
BRANCH   3   6
HETATM    6  C5  UNL     1     -34.291   6.280   6.377  1.00 20.00     0.401 C 
HETATM    7  F7  UNL     1     -35.415   5.538   6.447  1.00 20.00    -0.170 F 
HETATM    8  F8  UNL     1     -33.300   5.597   6.986  1.00 20.00    -0.170 F 
HETATM    9  F9  UNL     1     -34.498   7.419   7.066  1.00 20.00    -0.170 F 
ENDBRANCH   3   6
TORSDOF 2
ENDMDL
MODEL 6
REMARK VINA RESULT:      -4.6      1.542      2.534
REMARK  2 active torsions:
REMARK  status: ('A' for Active; 'I' for Inactive)
REMARK    1  A    between atoms: C1_1  and  C4_4 
REMARK    2  A    between atoms: C4_4  and  C5_5 
ROOT
HETATM    1  C2  UNL     1     -34.164   7.982   4.422  1.00 20.00     0.027 A 
HETATM    2  C3  UNL     1     -32.764   7.507   4.669  1.00 20.00     0.027 A 
HETATM    3  C4  UNL     1     -33.930   6.576   4.933  1.00 20.00     0.110 A 
ENDROOT
BRANCH   3   4
HETATM    4  C1  UNL     1     -34.135   5.468   3.969  1.00 20.00     0.249 C 
HETATM    5  O6  UNL     1     -34.118   4.283   4.286  1.00 20.00    -0.306 OA
ENDBRANCH   3   4
BRANCH   3   6
HETATM    6  C5  UNL     1     -34.278   6.304   6.375  1.00 20.00     0.401 C 
HETATM    7  F7  UNL     1     -33.275   5.649   6.994  1.00 20.00    -0.170 F 
HETATM    8  F8  UNL     1     -34.499   7.457   7.039  1.00 20.00    -0.170 F 
HETATM    9  F9  UNL     1     -35.390   5.549   6.465  1.00 20.00    -0.170 F 
ENDBRANCH   3   6
TORSDOF 2
ENDMDL
MODEL 7
REMARK VINA RESULT:      -4.4      2.767      3.446
REMARK  2 active torsions:
REMARK  status: ('A' for Active; 'I' for Inactive)
REMARK    1  A    between atoms: C1_1  and  C4_4 
REMARK    2  A    between atoms: C4_4  and  C5_5 
ROOT
HETATM    1  C2  UNL     1     -33.278   7.164   6.188  1.00 20.00     0.027 A 
HETATM    2  C3  UNL     1     -34.253   8.159   5.636  1.00 20.00     0.027 A 
HETATM    3  C4  UNL     1     -33.629   7.131   4.715  1.00 20.00     0.110 A 
ENDROOT
BRANCH   3   4
HETATM    4  C1  UNL     1     -34.503   6.023   4.258  1.00 20.00     0.249 C 
HETATM    5  O6  UNL     1     -34.319   4.848   4.558  1.00 20.00    -0.306 OA
ENDBRANCH   3   4
BRANCH   3   6
HETATM    6  C5  UNL     1     -32.581   7.621   3.749  1.00 20.00     0.401 C 
HETATM    7  F7  UNL     1     -33.028   8.691   3.059  1.00 20.00    -0.170 F 
HETATM    8  F8  UNL     1     -31.459   7.983   4.403  1.00 20.00    -0.170 F 
HETATM    9  F9  UNL     1     -32.257   6.658   2.864  1.00 20.00    -0.170 F 
ENDBRANCH   3   6
TORSDOF 2
ENDMDL
MODEL 8
REMARK VINA RESULT:      -4.4      2.255      2.894
REMARK  2 active torsions:
REMARK  status: ('A' for Active; 'I' for Inactive)
REMARK    1  A    between atoms: C1_1  and  C4_4 
REMARK    2  A    between atoms: C4_4  and  C5_5 
ROOT
HETATM    1  C2  UNL     1     -32.524   7.516   4.121  1.00 20.00     0.027 A 
HETATM    2  C3  UNL     1     -33.852   8.208   4.100  1.00 20.00     0.027 A 
HETATM    3  C4  UNL     1     -33.698   6.905   4.858  1.00 20.00     0.110 A 
ENDROOT
BRANCH   3   4
HETATM    4  C1  UNL     1     -33.678   6.990   6.339  1.00 20.00     0.249 C 
HETATM    5  O6  UNL     1     -34.664   6.792   7.041  1.00 20.00    -0.306 OA
ENDBRANCH   3   4
BRANCH   3   6
HETATM    6  C5  UNL     1     -34.326   5.678   4.249  1.00 20.00     0.401 C 
HETATM    7  F7  UNL     1     -35.650   5.859   4.065  1.00 20.00    -0.170 F 
HETATM    8  F8  UNL     1     -33.770   5.400   3.052  1.00 20.00    -0.170 F 
HETATM    9  F9  UNL     1     -34.157   4.606   5.048  1.00 20.00    -0.170 F 
ENDBRANCH   3   6
TORSDOF 2
ENDMDL
MODEL 9
REMARK VINA RESULT:      -4.3      2.258      2.845
REMARK  2 active torsions:
REMARK  status: ('A' for Active; 'I' for Inactive)
REMARK    1  A    between atoms: C1_1  and  C4_4 
REMARK    2  A    between atoms: C4_4  and  C5_5 
ROOT
HETATM    1  C2  UNL     1     -35.423   5.827   4.369  1.00 20.00     0.027 A 
HETATM    2  C3  UNL     1     -34.254   4.890   4.407  1.00 20.00     0.027 A 
HETATM    3  C4  UNL     1     -34.128   6.272   5.016  1.00 20.00     0.110 A 
ENDROOT
BRANCH   3   4
HETATM    4  C1  UNL     1     -34.111   6.352   6.497  1.00 20.00     0.249 C 
HETATM    5  O6  UNL     1     -34.454   7.349   7.124  1.00 20.00    -0.306 OA
ENDBRANCH   3   4
BRANCH   3   6
HETATM    6  C5  UNL     1     -33.297   7.280   4.264  1.00 20.00     0.401 C 
HETATM    7  F7  UNL     1     -34.048   8.333   3.885  1.00 20.00    -0.170 F 
HETATM    8  F8  UNL     1     -32.288   7.739   5.034  1.00 20.00    -0.170 F 
HETATM    9  F9  UNL     1     -32.760   6.729   3.158  1.00 20.00    -0.170 F 
ENDBRANCH   3   6
TORSDOF 2
ENDMDL
