MODEL 1
REMARK VINA RESULT:      -4.4      0.000      0.000
REMARK  2 active torsions:
REMARK  status: ('A' for Active; 'I' for Inactive)
REMARK    1  A    between atoms: C4_4  and  O9_9 
REMARK    2  A    between atoms: C7_7  and  O9_9 
ROOT
HETATM    1  C1  UNL     1     -34.309   5.324   5.148  1.00 20.00     0.155 C 
HETATM    2  C2  UNL     1     -34.753   5.344   6.620  1.00 20.00     0.084 C 
HETATM    3  C3  UNL     1     -34.360   6.838   6.643  1.00 20.00     0.047 C 
HETATM    4  C4  UNL     1     -33.648   6.711   5.271  1.00 20.00     0.191 C 
HETATM    5  O8  UNL     1     -34.438   4.529   4.242  1.00 20.00    -0.295 OA
ENDROOT
BRANCH   4   6
HETATM    6  O9  UNL     1     -34.054   7.636   4.252  1.00 20.00    -0.374 OA
BRANCH   6   7
HETATM    7  C7  UNL     1     -32.934   8.299   3.694  1.00 20.00     0.114 C 
HETATM    8  C5  UNL     1     -32.144   8.971   4.808  1.00 20.00     0.039 C 
HETATM    9  C6  UNL     1     -32.087   7.296   2.927  1.00 20.00     0.039 C 
ENDBRANCH   6   7
ENDBRANCH   4   6
TORSDOF 2
ENDMDL
MODEL 2
REMARK VINA RESULT:      -4.1      0.547      1.273
REMARK  2 active torsions:
REMARK  status: ('A' for Active; 'I' for Inactive)
REMARK    1  A    between atoms: C4_4  and  O9_9 
REMARK    2  A    between atoms: C7_7  and  O9_9 
ROOT
HETATM    1  C1  UNL     1     -34.221   5.112   5.255  1.00 20.00     0.155 C 
HETATM    2  C2  UNL     1     -34.890   5.399   6.609  1.00 20.00     0.084 C 
HETATM    3  C3  UNL     1     -34.313   6.829   6.508  1.00 20.00     0.047 C 
HETATM    4  C4  UNL     1     -33.412   6.422   5.313  1.00 20.00     0.191 C 
HETATM    5  O8  UNL     1     -34.305   4.208   4.451  1.00 20.00    -0.295 OA
ENDROOT
BRANCH   4   6
HETATM    6  O9  UNL     1     -33.525   7.222   4.127  1.00 20.00    -0.374 OA
BRANCH   6   7
HETATM    7  C7  UNL     1     -32.293   7.850   3.821  1.00 20.00     0.114 C 
HETATM    8  C5  UNL     1     -32.251   8.175   2.335  1.00 20.00     0.039 C 
HETATM    9  C6  UNL     1     -32.141   9.098   4.677  1.00 20.00     0.039 C 
ENDBRANCH   6   7
ENDBRANCH   4   6
TORSDOF 2
ENDMDL
MODEL 3
REMARK VINA RESULT:      -4.1      1.163      3.943
REMARK  2 active torsions:
REMARK  status: ('A' for Active; 'I' for Inactive)
REMARK    1  A    between atoms: C4_4  and  O9_9 
REMARK    2  A    between atoms: C7_7  and  O9_9 
ROOT
HETATM    1  C1  UNL     1     -33.247   8.414   5.025  1.00 20.00     0.155 C 
HETATM    2  C2  UNL     1     -32.174   8.789   3.990  1.00 20.00     0.084 C 
HETATM    3  C3  UNL     1     -32.445   7.421   3.323  1.00 20.00     0.047 C 
HETATM    4  C4  UNL     1     -33.288   6.953   4.538  1.00 20.00     0.191 C 
HETATM    5  O8  UNL     1     -33.837   9.033   5.885  1.00 20.00    -0.295 OA
ENDROOT
BRANCH   4   6
HETATM    6  O9  UNL     1     -34.611   6.477   4.253  1.00 20.00    -0.374 OA
BRANCH   6   7
HETATM    7  C7  UNL     1     -34.857   5.244   4.903  1.00 20.00     0.114 C 
HETATM    8  C5  UNL     1     -33.934   4.180   4.327  1.00 20.00     0.039 C 
HETATM    9  C6  UNL     1     -34.654   5.418   6.401  1.00 20.00     0.039 C 
ENDBRANCH   6   7
ENDBRANCH   4   6
TORSDOF 2
ENDMDL
MODEL 4
REMARK VINA RESULT:      -4.0      1.225      1.819
REMARK  2 active torsions:
REMARK  status: ('A' for Active; 'I' for Inactive)
REMARK    1  A    between atoms: C4_4  and  O9_9 
REMARK    2  A    between atoms: C7_7  and  O9_9 
ROOT
HETATM    1  C1  UNL     1     -34.361   6.488   6.014  1.00 20.00     0.155 C 
HETATM    2  C2  UNL     1     -34.899   5.051   6.105  1.00 20.00     0.084 C 
HETATM    3  C3  UNL     1     -34.408   4.853   4.653  1.00 20.00     0.047 C 
HETATM    4  C4  UNL     1     -34.155   6.375   4.492  1.00 20.00     0.191 C 
HETATM    5  O8  UNL     1     -34.166   7.366   6.829  1.00 20.00    -0.295 OA
ENDROOT
BRANCH   4   6
HETATM    6  O9  UNL     1     -32.843   6.763   4.057  1.00 20.00    -0.374 OA
BRANCH   6   7
HETATM    7  C7  UNL     1     -32.849   8.082   3.543  1.00 20.00     0.114 C 
HETATM    8  C5  UNL     1     -32.192   9.014   4.551  1.00 20.00     0.039 C 
HETATM    9  C6  UNL     1     -32.131   8.102   2.203  1.00 20.00     0.039 C 
ENDBRANCH   6   7
ENDBRANCH   4   6
TORSDOF 2
ENDMDL
MODEL 5
REMARK VINA RESULT:      -4.0      1.013      1.456
REMARK  2 active torsions:
REMARK  status: ('A' for Active; 'I' for Inactive)
REMARK    1  A    between atoms: C4_4  and  O9_9 
REMARK    2  A    between atoms: C7_7  and  O9_9 
ROOT
HETATM    1  C1  UNL     1     -34.949   6.112   4.972  1.00 20.00     0.155 C 
HETATM    2  C2  UNL     1     -34.785   5.803   6.469  1.00 20.00     0.084 C 
HETATM    3  C3  UNL     1     -33.606   6.803   6.471  1.00 20.00     0.047 C 
HETATM    4  C4  UNL     1     -33.604   6.861   4.921  1.00 20.00     0.191 C 
HETATM    5  O8  UNL     1     -35.810   5.867   4.152  1.00 20.00    -0.295 OA
ENDROOT
BRANCH   4   6
HETATM    6  O9  UNL     1     -33.693   8.166   4.331  1.00 20.00    -0.374 OA
BRANCH   6   7
HETATM    7  C7  UNL     1     -32.568   8.429   3.511  1.00 20.00     0.114 C 
HETATM    8  C5  UNL     1     -32.091   7.128   2.883  1.00 20.00     0.039 C 
HETATM    9  C6  UNL     1     -32.945   9.460   2.458  1.00 20.00     0.039 C 
ENDBRANCH   6   7
ENDBRANCH   4   6
TORSDOF 2
ENDMDL
MODEL 6
REMARK VINA RESULT:      -3.9      1.408      3.658
REMARK  2 active torsions:
REMARK  status: ('A' for Active; 'I' for Inactive)
REMARK    1  A    between atoms: C4_4  and  O9_9 
REMARK    2  A    between atoms: C7_7  and  O9_9 
ROOT
HETATM    1  C1  UNL     1     -32.510   7.889   3.412  1.00 20.00     0.155 C 
HETATM    2  C2  UNL     1     -32.183   8.928   4.497  1.00 20.00     0.084 C 
HETATM    3  C3  UNL     1     -33.021   8.067   5.470  1.00 20.00     0.047 C 
HETATM    4  C4  UNL     1     -33.575   7.215   4.298  1.00 20.00     0.191 C 
HETATM    5  O8  UNL     1     -32.087   7.679   2.294  1.00 20.00    -0.295 OA
ENDROOT
BRANCH   4   6
HETATM    6  O9  UNL     1     -33.416   5.794   4.410  1.00 20.00    -0.374 OA
BRANCH   6   7
HETATM    7  C7  UNL     1     -34.619   5.181   4.839  1.00 20.00     0.114 C 
HETATM    8  C5  UNL     1     -34.643   5.136   6.359  1.00 20.00     0.039 C 
HETATM    9  C6  UNL     1     -35.802   5.954   4.277  1.00 20.00     0.039 C 
ENDBRANCH   6   7
ENDBRANCH   4   6
TORSDOF 2
ENDMDL
MODEL 7
REMARK VINA RESULT:      -3.8     12.301     13.021
REMARK  2 active torsions:
REMARK  status: ('A' for Active; 'I' for Inactive)
REMARK    1  A    between atoms: C4_4  and  O9_9 
REMARK    2  A    between atoms: C7_7  and  O9_9 
ROOT
HETATM    1  C1  UNL     1     -31.817  18.551  -0.253  1.00 20.00     0.155 C 
HETATM    2  C2  UNL     1     -32.582  18.795   1.058  1.00 20.00     0.084 C 
HETATM    3  C3  UNL     1     -33.807  18.139   0.380  1.00 20.00     0.047 C 
HETATM    4  C4  UNL     1     -33.111  18.184  -1.006  1.00 20.00     0.191 C 
HETATM    5  O8  UNL     1     -30.648  18.614  -0.568  1.00 20.00    -0.295 OA
ENDROOT
BRANCH   4   6
HETATM    6  O9  UNL     1     -33.030  16.943  -1.721  1.00 20.00    -0.374 OA
BRANCH   6   7
HETATM    7  C7  UNL     1     -33.667  17.042  -2.982  1.00 20.00     0.114 C 
HETATM    8  C5  UNL     1     -33.204  18.313  -3.678  1.00 20.00     0.039 C 
HETATM    9  C6  UNL     1     -33.350  15.801  -3.802  1.00 20.00     0.039 C 
ENDBRANCH   6   7
ENDBRANCH   4   6
TORSDOF 2
ENDMDL
MODEL 8
REMARK VINA RESULT:      -3.6     15.465     16.486
REMARK  2 active torsions:
REMARK  status: ('A' for Active; 'I' for Inactive)
REMARK    1  A    between atoms: C4_4  and  O9_9 
REMARK    2  A    between atoms: C7_7  and  O9_9 
ROOT
HETATM    1  C1  UNL     1     -22.318  17.737   8.901  1.00 20.00     0.155 C 
HETATM    2  C2  UNL     1     -22.829  18.783   7.898  1.00 20.00     0.084 C 
HETATM    3  C3  UNL     1     -23.797  19.263   9.003  1.00 20.00     0.047 C 
HETATM    4  C4  UNL     1     -23.479  18.019   9.874  1.00 20.00     0.191 C 
HETATM    5  O8  UNL     1     -21.365  16.986   8.921  1.00 20.00    -0.295 OA
ENDROOT
BRANCH   4   6
HETATM    6  O9  UNL     1     -23.053  18.274  11.221  1.00 20.00    -0.374 OA
BRANCH   6   7
HETATM    7  C7  UNL     1     -23.934  17.672  12.152  1.00 20.00     0.114 C 
HETATM    8  C5  UNL     1     -25.165  18.551  12.318  1.00 20.00     0.039 C 
HETATM    9  C6  UNL     1     -24.296  16.276  11.670  1.00 20.00     0.039 C 
ENDBRANCH   6   7
ENDBRANCH   4   6
TORSDOF 2
ENDMDL
MODEL 9
REMARK VINA RESULT:      -3.6      9.263     10.252
REMARK  2 active torsions:
REMARK  status: ('A' for Active; 'I' for Inactive)
REMARK    1  A    between atoms: C4_4  and  O9_9 
REMARK    2  A    between atoms: C7_7  and  O9_9 
ROOT
HETATM    1  C1  UNL     1     -40.529  13.013   4.932  1.00 20.00     0.155 C 
HETATM    2  C2  UNL     1     -39.429  11.968   4.687  1.00 20.00     0.084 C 
HETATM    3  C3  UNL     1     -39.372  11.777   6.220  1.00 20.00     0.047 C 
HETATM    4  C4  UNL     1     -40.252  13.034   6.447  1.00 20.00     0.191 C 
HETATM    5  O8  UNL     1     -41.316  13.591   4.211  1.00 20.00    -0.295 OA
ENDROOT
BRANCH   4   6
HETATM    6  O9  UNL     1     -41.427  12.855   7.251  1.00 20.00    -0.374 OA
BRANCH   6   7
HETATM    7  C7  UNL     1     -41.636  13.971   8.098  1.00 20.00     0.114 C 
HETATM    8  C5  UNL     1     -40.292  14.473   8.605  1.00 20.00     0.039 C 
HETATM    9  C6  UNL     1     -42.390  15.047   7.333  1.00 20.00     0.039 C 
ENDBRANCH   6   7
ENDBRANCH   4   6
TORSDOF 2
ENDMDL
