MODEL 1
REMARK VINA RESULT:      -4.5      0.000      0.000
REMARK  1 active torsions:
REMARK  status: ('A' for Active; 'I' for Inactive)
REMARK    1  A    between atoms: C1_1  and  C2_2 
ROOT
HETATM    1  C2  UNL     1     -34.632   5.904   4.771  1.00 20.00     0.285 C 
HETATM    2  F3  UNL     1     -35.927   5.997   4.363  1.00 20.00    -0.204 F 
HETATM    3 CL6  UNL     1     -34.595   5.984   6.558  1.00 20.00    -0.063 Cl
HETATM    4 CL7  UNL     1     -34.003   4.299   4.288  1.00 20.00    -0.063 Cl
ENDROOT
BRANCH   1   5
HETATM    5  C1  UNL     1     -33.816   7.038   4.141  1.00 20.00     0.249 C 
HETATM    6 CL4  UNL     1     -32.605   6.413   2.977  1.00 20.00    -0.102 Cl
HETATM    7 CL5  UNL     1     -32.926   7.979   5.381  1.00 20.00    -0.102 Cl
ENDBRANCH   1   5
TORSDOF 1
ENDMDL
MODEL 2
REMARK VINA RESULT:      -4.2      1.518      3.058
REMARK  1 active torsions:
REMARK  status: ('A' for Active; 'I' for Inactive)
REMARK    1  A    between atoms: C1_1  and  C2_2 
ROOT
HETATM    1  C2  UNL     1     -33.602   7.293   4.624  1.00 20.00     0.285 C 
HETATM    2  F3  UNL     1     -34.485   8.310   4.426  1.00 20.00    -0.204 F 
HETATM    3 CL6  UNL     1     -32.018   7.780   3.947  1.00 20.00    -0.063 Cl
HETATM    4 CL7  UNL     1     -33.389   7.066   6.387  1.00 20.00    -0.063 Cl
ENDROOT
BRANCH   1   5
HETATM    5  C1  UNL     1     -34.131   6.019   3.955  1.00 20.00     0.249 C 
HETATM    6 CL4  UNL     1     -34.467   4.733   5.157  1.00 20.00    -0.102 Cl
HETATM    7 CL5  UNL     1     -32.954   5.354   2.778  1.00 20.00    -0.102 Cl
ENDBRANCH   1   5
TORSDOF 1
ENDMDL
MODEL 3
REMARK VINA RESULT:      -4.0      0.621      1.624
REMARK  1 active torsions:
REMARK  status: ('A' for Active; 'I' for Inactive)
REMARK    1  A    between atoms: C1_1  and  C2_2 
ROOT
HETATM    1  C2  UNL     1     -34.387   5.847   4.899  1.00 20.00     0.285 C 
HETATM    2  F3  UNL     1     -35.512   6.350   4.320  1.00 20.00    -0.204 F 
HETATM    3 CL6  UNL     1     -34.741   5.508   6.620  1.00 20.00    -0.063 Cl
HETATM    4 CL7  UNL     1     -33.997   4.289   4.109  1.00 20.00    -0.063 Cl
ENDROOT
BRANCH   1   5
HETATM    5  C1  UNL     1     -33.241   6.854   4.748  1.00 20.00     0.249 C 
HETATM    6 CL4  UNL     1     -33.777   8.523   5.120  1.00 20.00    -0.102 Cl
HETATM    7 CL5  UNL     1     -32.585   6.864   3.080  1.00 20.00    -0.102 Cl
ENDBRANCH   1   5
TORSDOF 1
ENDMDL
MODEL 4
REMARK VINA RESULT:      -4.0      1.512      2.367
REMARK  1 active torsions:
REMARK  status: ('A' for Active; 'I' for Inactive)
REMARK    1  A    between atoms: C1_1  and  C2_2 
ROOT
HETATM    1  C2  UNL     1     -34.416   5.497   4.819  1.00 20.00     0.285 C 
HETATM    2  F3  UNL     1     -34.180   4.232   4.374  1.00 20.00    -0.204 F 
HETATM    3 CL6  UNL     1     -35.973   6.054   4.134  1.00 20.00    -0.063 Cl
HETATM    4 CL7  UNL     1     -34.597   5.444   6.599  1.00 20.00    -0.063 Cl
ENDROOT
BRANCH   1   5
HETATM    5  C1  UNL     1     -33.259   6.410   4.400  1.00 20.00     0.249 C 
HETATM    6 CL4  UNL     1     -33.707   8.141   4.523  1.00 20.00    -0.102 Cl
HETATM    7 CL5  UNL     1     -32.760   6.108   2.705  1.00 20.00    -0.102 Cl
ENDBRANCH   1   5
TORSDOF 1
ENDMDL
MODEL 5
REMARK VINA RESULT:      -3.9      1.091      1.771
REMARK  1 active torsions:
REMARK  status: ('A' for Active; 'I' for Inactive)
REMARK    1  A    between atoms: C1_1  and  C2_2 
ROOT
HETATM    1  C2  UNL     1     -34.240   6.408   4.917  1.00 20.00     0.285 C 
HETATM    2  F3  UNL     1     -35.314   6.921   4.256  1.00 20.00    -0.204 F 
HETATM    3 CL6  UNL     1     -34.219   7.086   6.573  1.00 20.00    -0.063 Cl
HETATM    4 CL7  UNL     1     -34.460   4.637   5.060  1.00 20.00    -0.063 Cl
ENDROOT
BRANCH   1   5
HETATM    5  C1  UNL     1     -32.957   6.753   4.152  1.00 20.00     0.249 C 
HETATM    6 CL4  UNL     1     -32.898   8.489   3.714  1.00 20.00    -0.102 Cl
HETATM    7 CL5  UNL     1     -32.823   5.814   2.631  1.00 20.00    -0.102 Cl
ENDBRANCH   1   5
TORSDOF 1
ENDMDL
MODEL 6
REMARK VINA RESULT:      -3.9      1.648      2.656
REMARK  1 active torsions:
REMARK  status: ('A' for Active; 'I' for Inactive)
REMARK    1  A    between atoms: C1_1  and  C2_2 
ROOT
HETATM    1  C2  UNL     1     -34.146   5.563   4.459  1.00 20.00     0.285 C 
HETATM    2  F3  UNL     1     -34.133   4.394   5.158  1.00 20.00    -0.204 F 
HETATM    3 CL6  UNL     1     -33.326   5.292   2.891  1.00 20.00    -0.063 Cl
HETATM    4 CL7  UNL     1     -35.849   5.992   4.112  1.00 20.00    -0.063 Cl
ENDROOT
BRANCH   1   5
HETATM    5  C1  UNL     1     -33.448   6.655   5.276  1.00 20.00     0.249 C 
HETATM    6 CL4  UNL     1     -34.365   7.054   6.763  1.00 20.00    -0.102 Cl
HETATM    7 CL5  UNL     1     -33.269   8.171   4.337  1.00 20.00    -0.102 Cl
ENDBRANCH   1   5
TORSDOF 1
ENDMDL
MODEL 7
REMARK VINA RESULT:      -3.8      1.552      3.256
REMARK  1 active torsions:
REMARK  status: ('A' for Active; 'I' for Inactive)
REMARK    1  A    between atoms: C1_1  and  C2_2 
ROOT
HETATM    1  C2  UNL     1     -33.210   7.803   4.293  1.00 20.00     0.285 C 
HETATM    2  F3  UNL     1     -34.364   8.409   3.903  1.00 20.00    -0.204 F 
HETATM    3 CL6  UNL     1     -32.298   7.329   2.828  1.00 20.00    -0.063 Cl
HETATM    4 CL7  UNL     1     -32.218   8.999   5.183  1.00 20.00    -0.063 Cl
ENDROOT
BRANCH   1   5
HETATM    5  C1  UNL     1     -33.540   6.588   5.167  1.00 20.00     0.249 C 
HETATM    6 CL4  UNL     1     -34.656   5.460   4.334  1.00 20.00    -0.102 Cl
HETATM    7 CL5  UNL     1     -34.323   7.073   6.705  1.00 20.00    -0.102 Cl
ENDBRANCH   1   5
TORSDOF 1
ENDMDL
MODEL 8
REMARK VINA RESULT:      -3.7      1.801      2.868
REMARK  1 active torsions:
REMARK  status: ('A' for Active; 'I' for Inactive)
REMARK    1  A    between atoms: C1_1  and  C2_2 
ROOT
HETATM    1  C2  UNL     1     -33.258   7.797   4.657  1.00 20.00     0.285 C 
HETATM    2  F3  UNL     1     -34.409   8.280   4.113  1.00 20.00    -0.204 F 
HETATM    3 CL6  UNL     1     -32.201   9.182   5.064  1.00 20.00    -0.063 Cl
HETATM    4 CL7  UNL     1     -33.666   6.960   6.186  1.00 20.00    -0.063 Cl
ENDROOT
BRANCH   1   5
HETATM    5  C1  UNL     1     -32.582   6.848   3.662  1.00 20.00     0.249 C 
HETATM    6 CL4  UNL     1     -32.257   7.657   2.096  1.00 20.00    -0.102 Cl
HETATM    7 CL5  UNL     1     -33.602   5.414   3.319  1.00 20.00    -0.102 Cl
ENDBRANCH   1   5
TORSDOF 1
ENDMDL
MODEL 9
REMARK VINA RESULT:      -3.7      1.266      1.958
REMARK  1 active torsions:
REMARK  status: ('A' for Active; 'I' for Inactive)
REMARK    1  A    between atoms: C1_1  and  C2_2 
ROOT
HETATM    1  C2  UNL     1     -34.113   5.977   4.451  1.00 20.00     0.285 C 
HETATM    2  F3  UNL     1     -35.320   6.478   4.069  1.00 20.00    -0.204 F 
HETATM    3 CL6  UNL     1     -34.396   4.656   5.625  1.00 20.00    -0.063 Cl
HETATM    4 CL7  UNL     1     -33.319   5.263   3.015  1.00 20.00    -0.063 Cl
ENDROOT
BRANCH   1   5
HETATM    5  C1  UNL     1     -33.265   7.098   5.062  1.00 20.00     0.249 C 
HETATM    6 CL4  UNL     1     -34.053   7.811   6.505  1.00 20.00    -0.102 Cl
HETATM    7 CL5  UNL     1     -32.991   8.430   3.893  1.00 20.00    -0.102 Cl
ENDBRANCH   1   5
TORSDOF 1
ENDMDL
