MODEL 1
REMARK VINA RESULT:      -5.2      0.000      0.000
REMARK  0 active torsions:
REMARK  status: ('A' for Active; 'I' for Inactive)
ROOT
HETATM    1  C1  UNL     1     -34.850   4.931   5.635  1.00 20.00     0.002 C 
HETATM    2  C2  UNL     1     -34.550   5.012   4.329  1.00 20.00     0.028 C 
HETATM    3  C3  UNL     1     -34.353   5.886   6.610  1.00 20.00    -0.003 C 
HETATM    4  C4  UNL     1     -33.838   7.068   6.229  1.00 20.00    -0.011 C 
HETATM    5  C5  UNL     1     -32.128   7.341   3.209  1.00 20.00     0.132 C 
HETATM    6  C6  UNL     1     -32.599   8.082   4.215  1.00 20.00     0.020 C 
HETATM    7  C7  UNL     1     -33.698   6.162   3.964  1.00 20.00     0.046 C 
HETATM    8  C8  UNL     1     -33.819   7.446   4.782  1.00 20.00     0.102 C 
HETATM    9  N9  UNL     1     -32.799   6.161   3.027  1.00 20.00    -0.263 NA
HETATM   10 BR10 UNL     1     -32.013   9.727   4.778  1.00 20.00    -0.053 Br
ENDROOT
TORSDOF 0
ENDMDL
MODEL 2
REMARK VINA RESULT:      -5.1      1.425      1.798
REMARK  0 active torsions:
REMARK  status: ('A' for Active; 'I' for Inactive)
ROOT
HETATM    1  C1  UNL     1     -34.621   6.100   6.586  1.00 20.00     0.002 C 
HETATM    2  C2  UNL     1     -34.824   5.213   5.599  1.00 20.00     0.028 C 
HETATM    3  C3  UNL     1     -33.738   7.244   6.438  1.00 20.00    -0.003 C 
HETATM    4  C4  UNL     1     -33.330   7.656   5.225  1.00 20.00    -0.011 C 
HETATM    5  C5  UNL     1     -32.852   5.351   2.660  1.00 20.00     0.132 C 
HETATM    6  C6  UNL     1     -32.868   6.666   2.896  1.00 20.00     0.020 C 
HETATM    7  C7  UNL     1     -34.099   5.510   4.347  1.00 20.00     0.046 C 
HETATM    8  C8  UNL     1     -33.826   6.971   3.993  1.00 20.00     0.102 C 
HETATM    9  N9  UNL     1     -33.615   4.622   3.532  1.00 20.00    -0.263 NA
HETATM   10 BR10 UNL     1     -32.013   7.992   1.960  1.00 20.00    -0.053 Br
ENDROOT
TORSDOF 0
ENDMDL
MODEL 3
REMARK VINA RESULT:      -5.1      1.748      2.394
REMARK  0 active torsions:
REMARK  status: ('A' for Active; 'I' for Inactive)
ROOT
HETATM    1  C1  UNL     1     -34.715   5.683   6.081  1.00 20.00     0.002 C 
HETATM    2  C2  UNL     1     -33.945   6.703   6.492  1.00 20.00     0.028 C 
HETATM    3  C3  UNL     1     -34.904   5.365   4.676  1.00 20.00    -0.003 C 
HETATM    4  C4  UNL     1     -34.082   5.859   3.733  1.00 20.00    -0.011 C 
HETATM    5  C5  UNL     1     -32.646   9.004   4.134  1.00 20.00     0.132 C 
HETATM    6  C6  UNL     1     -32.614   7.933   3.337  1.00 20.00     0.020 C 
HETATM    7  C7  UNL     1     -33.288   7.455   5.403  1.00 20.00     0.046 C 
HETATM    8  C8  UNL     1     -32.916   6.708   4.125  1.00 20.00     0.102 C 
HETATM    9  N9  UNL     1     -33.045   8.731   5.415  1.00 20.00    -0.263 NA
HETATM   10 BR10 UNL     1     -32.117   7.853   1.572  1.00 20.00    -0.053 Br
ENDROOT
TORSDOF 0
ENDMDL
MODEL 4
REMARK VINA RESULT:      -4.3     15.335     16.115
REMARK  0 active torsions:
REMARK  status: ('A' for Active; 'I' for Inactive)
ROOT
HETATM    1  C1  UNL     1     -22.508  18.125   8.661  1.00 20.00     0.002 C 
HETATM    2  C2  UNL     1     -22.355  17.386   9.772  1.00 20.00     0.028 C 
HETATM    3  C3  UNL     1     -23.690  18.933   8.419  1.00 20.00    -0.003 C 
HETATM    4  C4  UNL     1     -24.541  19.240   9.414  1.00 20.00    -0.011 C 
HETATM    5  C5  UNL     1     -25.056  17.001  12.030  1.00 20.00     0.132 C 
HETATM    6  C6  UNL     1     -25.358  18.243  11.640  1.00 20.00     0.020 C 
HETATM    7  C7  UNL     1     -23.471  17.484  10.735  1.00 20.00     0.046 C 
HETATM    8  C8  UNL     1     -24.252  18.794  10.812  1.00 20.00     0.102 C 
HETATM    9  N9  UNL     1     -23.891  16.520  11.496  1.00 20.00    -0.263 NA
HETATM   10 BR10 UNL     1     -26.800  19.263  12.135  1.00 20.00    -0.053 Br
ENDROOT
TORSDOF 0
ENDMDL
MODEL 5
REMARK VINA RESULT:      -4.1     16.175     16.740
REMARK  0 active torsions:
REMARK  status: ('A' for Active; 'I' for Inactive)
ROOT
HETATM    1  C1  UNL     1     -25.526  18.923  11.723  1.00 20.00     0.002 C 
HETATM    2  C2  UNL     1     -24.418  18.470  12.332  1.00 20.00     0.028 C 
HETATM    3  C3  UNL     1     -25.557  19.262  10.311  1.00 20.00    -0.003 C 
HETATM    4  C4  UNL     1     -24.590  18.847   9.474  1.00 20.00    -0.011 C 
HETATM    5  C5  UNL     1     -21.322  18.483  10.615  1.00 20.00     0.132 C 
HETATM    6  C6  UNL     1     -22.089  18.252   9.546  1.00 20.00     0.020 C 
HETATM    7  C7  UNL     1     -23.247  18.320  11.445  1.00 20.00     0.046 C 
HETATM    8  C8  UNL     1     -23.485  17.975   9.977  1.00 20.00     0.102 C 
HETATM    9  N9  UNL     1     -22.012  18.514  11.797  1.00 20.00    -0.263 NA
HETATM   10 BR10 UNL     1     -21.569  18.106   7.792  1.00 20.00    -0.053 Br
ENDROOT
TORSDOF 0
ENDMDL
MODEL 6
REMARK VINA RESULT:      -4.0      2.345      3.782
REMARK  0 active torsions:
REMARK  status: ('A' for Active; 'I' for Inactive)
ROOT
HETATM    1  C1  UNL     1     -32.231   7.645   2.087  1.00 20.00     0.002 C 
HETATM    2  C2  UNL     1     -32.536   8.597   2.984  1.00 20.00     0.028 C 
HETATM    3  C3  UNL     1     -32.426   6.230   2.354  1.00 20.00    -0.003 C 
HETATM    4  C4  UNL     1     -33.206   5.814   3.366  1.00 20.00    -0.011 C 
HETATM    5  C5  UNL     1     -33.442   7.694   6.286  1.00 20.00     0.132 C 
HETATM    6  C6  UNL     1     -33.970   6.625   5.685  1.00 20.00     0.020 C 
HETATM    7  C7  UNL     1     -33.108   8.090   4.248  1.00 20.00     0.046 C 
HETATM    8  C8  UNL     1     -33.938   6.809   4.209  1.00 20.00     0.102 C 
HETATM    9  N9  UNL     1     -32.918   8.616   5.420  1.00 20.00    -0.263 NA
HETATM   10 BR10 UNL     1     -34.791   5.181   6.464  1.00 20.00    -0.053 Br
ENDROOT
TORSDOF 0
ENDMDL
MODEL 7
REMARK VINA RESULT:      -3.9      2.335      3.565
REMARK  0 active torsions:
REMARK  status: ('A' for Active; 'I' for Inactive)
ROOT
HETATM    1  C1  UNL     1     -33.122   8.761   5.595  1.00 20.00     0.002 C 
HETATM    2  C2  UNL     1     -34.092   7.903   5.952  1.00 20.00     0.028 C 
HETATM    3  C3  UNL     1     -32.168   8.465   4.541  1.00 20.00    -0.003 C 
HETATM    4  C4  UNL     1     -32.391   7.475   3.658  1.00 20.00    -0.011 C 
HETATM    5  C5  UNL     1     -34.127   4.619   4.628  1.00 20.00     0.132 C 
HETATM    6  C6  UNL     1     -33.610   5.213   3.550  1.00 20.00     0.020 C 
HETATM    7  C7  UNL     1     -34.124   6.651   5.169  1.00 20.00     0.046 C 
HETATM    8  C8  UNL     1     -33.662   6.691   3.714  1.00 20.00     0.102 C 
HETATM    9  N9  UNL     1     -34.464   5.486   5.632  1.00 20.00    -0.263 NA
HETATM   10 BR10 UNL     1     -33.055   4.431   1.985  1.00 20.00    -0.053 Br
ENDROOT
TORSDOF 0
ENDMDL
MODEL 8
REMARK VINA RESULT:      -3.8     12.452     13.686
REMARK  0 active torsions:
REMARK  status: ('A' for Active; 'I' for Inactive)
ROOT
HETATM    1  C1  UNL     1     -32.998  18.963  -1.611  1.00 20.00     0.002 C 
HETATM    2  C2  UNL     1     -32.937  19.263  -2.918  1.00 20.00     0.028 C 
HETATM    3  C3  UNL     1     -33.515  17.695  -1.125  1.00 20.00    -0.003 C 
HETATM    4  C4  UNL     1     -33.659  16.641  -1.947  1.00 20.00    -0.011 C 
HETATM    5  C5  UNL     1     -34.460  17.129  -5.299  1.00 20.00     0.132 C 
HETATM    6  C6  UNL     1     -34.113  16.172  -4.434  1.00 20.00     0.020 C 
HETATM    7  C7  UNL     1     -33.411  18.192  -3.818  1.00 20.00     0.046 C 
HETATM    8  C8  UNL     1     -33.236  16.740  -3.377  1.00 20.00     0.102 C 
HETATM    9  N9  UNL     1     -34.026  18.379  -4.947  1.00 20.00    -0.263 NA
HETATM   10 BR10 UNL     1     -34.466  14.374  -4.538  1.00 20.00    -0.053 Br
ENDROOT
TORSDOF 0
ENDMDL
MODEL 9
REMARK VINA RESULT:      -3.8     12.707     13.846
REMARK  0 active torsions:
REMARK  status: ('A' for Active; 'I' for Inactive)
ROOT
HETATM    1  C1  UNL     1     -34.048  18.198  -1.512  1.00 20.00     0.002 C 
HETATM    2  C2  UNL     1     -34.889  18.809  -2.362  1.00 20.00     0.028 C 
HETATM    3  C3  UNL     1     -33.447  16.907  -1.802  1.00 20.00    -0.003 C 
HETATM    4  C4  UNL     1     -33.442  16.406  -3.050  1.00 20.00    -0.011 C 
HETATM    5  C5  UNL     1     -36.072  17.092  -5.225  1.00 20.00     0.132 C 
HETATM    6  C6  UNL     1     -34.867  16.518  -5.188  1.00 20.00     0.020 C 
HETATM    7  C7  UNL     1     -35.132  18.075  -3.621  1.00 20.00     0.046 C 
HETATM    8  C8  UNL     1     -34.012  17.200  -4.180  1.00 20.00     0.102 C 
HETATM    9  N9  UNL     1     -36.252  18.064  -4.278  1.00 20.00    -0.263 NA
HETATM   10 BR10 UNL     1     -34.209  15.202  -6.285  1.00 20.00    -0.053 Br
ENDROOT
TORSDOF 0
ENDMDL
