MODEL 1
REMARK VINA RESULT:      -3.8      0.000      0.000
REMARK  0 active torsions:
REMARK  status: ('A' for Active; 'I' for Inactive)
ROOT
HETATM    1  C1  UNL     1     -34.721  16.843  -4.644  1.00 20.00     0.029 C 
HETATM    2  C2  UNL     1     -33.817  14.969  -4.057  1.00 20.00     0.029 C 
HETATM    3  C3  UNL     1     -34.173  15.244  -6.611  1.00 20.00     0.179 A 
HETATM    4  C4  UNL     1     -35.908  14.727  -5.592  1.00 20.00     0.179 A 
HETATM    5  C5  UNL     1     -33.451  16.464  -3.823  1.00 20.00     0.059 C 
HETATM    6  C6  UNL     1     -34.659  15.449  -5.209  1.00 20.00     0.005 A 
HETATM    7  O7  UNL     1     -35.403  14.538  -6.947  1.00 20.00    -0.389 OA
HETATM    8 BR8  UNL     1     -33.432  17.049  -1.983  1.00 20.00    -0.091 Br
ENDROOT
TORSDOF 0
ENDMDL
MODEL 2
REMARK VINA RESULT:      -3.4      4.011      5.066
REMARK  0 active torsions:
REMARK  status: ('A' for Active; 'I' for Inactive)
ROOT
HETATM    1  C1  UNL     1     -33.622  17.964   0.233  1.00 20.00     0.029 C 
HETATM    2  C2  UNL     1     -31.854  18.450  -0.913  1.00 20.00     0.029 C 
HETATM    3  C3  UNL     1     -34.092  18.794  -2.179  1.00 20.00     0.179 A 
HETATM    4  C4  UNL     1     -33.493  16.806  -2.096  1.00 20.00     0.179 A 
HETATM    5  C5  UNL     1     -32.417  18.925   0.459  1.00 20.00     0.059 C 
HETATM    6  C6  UNL     1     -33.255  17.995  -1.227  1.00 20.00     0.005 A 
HETATM    7  O7  UNL     1     -34.296  17.613  -3.008  1.00 20.00    -0.389 OA
HETATM    8 BR8  UNL     1     -31.314  18.547   1.998  1.00 20.00    -0.091 Br
ENDROOT
TORSDOF 0
ENDMDL
MODEL 3
REMARK VINA RESULT:      -3.3     12.355     13.260
REMARK  0 active torsions:
REMARK  status: ('A' for Active; 'I' for Inactive)
ROOT
HETATM    1  C1  UNL     1     -33.018   6.378   3.756  1.00 20.00     0.029 C 
HETATM    2  C2  UNL     1     -34.027   8.079   4.631  1.00 20.00     0.029 C 
HETATM    3  C3  UNL     1     -33.672   6.083   6.248  1.00 20.00     0.179 A 
HETATM    4  C4  UNL     1     -35.265   5.808   4.943  1.00 20.00     0.179 A 
HETATM    5  C5  UNL     1     -32.664   7.889   3.902  1.00 20.00     0.059 C 
HETATM    6  C6  UNL     1     -33.998   6.594   4.878  1.00 20.00     0.005 A 
HETATM    7  O7  UNL     1     -34.922   5.334   6.279  1.00 20.00    -0.389 OA
HETATM    8 BR8  UNL     1     -32.447   8.867   2.251  1.00 20.00    -0.091 Br
ENDROOT
TORSDOF 0
ENDMDL
MODEL 4
REMARK VINA RESULT:      -3.3     18.720     19.323
REMARK  0 active torsions:
REMARK  status: ('A' for Active; 'I' for Inactive)
ROOT
HETATM    1  C1  UNL     1     -24.314  18.739  10.258  1.00 20.00     0.029 C 
HETATM    2  C2  UNL     1     -23.606  17.267  11.674  1.00 20.00     0.029 C 
HETATM    3  C3  UNL     1     -21.734  18.521  10.390  1.00 20.00     0.179 A 
HETATM    4  C4  UNL     1     -22.628  17.016   9.273  1.00 20.00     0.179 A 
HETATM    5  C5  UNL     1     -24.533  18.513  11.784  1.00 20.00     0.059 C 
HETATM    6  C6  UNL     1     -23.087  17.879  10.400  1.00 20.00     0.005 A 
HETATM    7  O7  UNL     1     -21.318  17.656   9.294  1.00 20.00    -0.389 OA
HETATM    8 BR8  UNL     1     -26.352  18.165  12.332  1.00 20.00    -0.091 Br
ENDROOT
TORSDOF 0
ENDMDL
MODEL 5
REMARK VINA RESULT:      -3.2      4.298      5.424
REMARK  0 active torsions:
REMARK  status: ('A' for Active; 'I' for Inactive)
ROOT
HETATM    1  C1  UNL     1     -33.365  16.761  -2.207  1.00 20.00     0.029 C 
HETATM    2  C2  UNL     1     -33.819  18.858  -2.469  1.00 20.00     0.029 C 
HETATM    3  C3  UNL     1     -31.909  18.367  -0.785  1.00 20.00     0.179 A 
HETATM    4  C4  UNL     1     -33.804  18.056   0.009  1.00 20.00     0.179 A 
HETATM    5  C5  UNL     1     -33.421  17.709  -3.443  1.00 20.00     0.059 C 
HETATM    6  C6  UNL     1     -33.240  18.006  -1.371  1.00 20.00     0.005 A 
HETATM    7  O7  UNL     1     -32.497  18.414   0.548  1.00 20.00    -0.389 OA
HETATM    8 BR8  UNL     1     -34.725  17.259  -4.793  1.00 20.00    -0.091 Br
ENDROOT
TORSDOF 0
ENDMDL
MODEL 6
REMARK VINA RESULT:      -3.1      3.055      4.108
REMARK  0 active torsions:
REMARK  status: ('A' for Active; 'I' for Inactive)
ROOT
HETATM    1  C1  UNL     1     -33.702  17.409  -0.811  1.00 20.00     0.029 C 
HETATM    2  C2  UNL     1     -32.416  18.698  -1.978  1.00 20.00     0.029 C 
HETATM    3  C3  UNL     1     -34.713  18.188  -3.069  1.00 20.00     0.179 A 
HETATM    4  C4  UNL     1     -33.345  16.638  -3.272  1.00 20.00     0.179 A 
HETATM    5  C5  UNL     1     -32.982  18.762  -0.528  1.00 20.00     0.059 C 
HETATM    6  C6  UNL     1     -33.530  17.729  -2.272  1.00 20.00     0.005 A 
HETATM    7  O7  UNL     1     -34.496  17.114  -4.030  1.00 20.00    -0.389 OA
HETATM    8 BR8  UNL     1     -31.672  18.739   0.890  1.00 20.00    -0.091 Br
ENDROOT
TORSDOF 0
ENDMDL
MODEL 7
REMARK VINA RESULT:      -3.0     13.039     13.548
REMARK  0 active torsions:
REMARK  status: ('A' for Active; 'I' for Inactive)
ROOT
HETATM    1  C1  UNL     1     -41.172  13.450   5.215  1.00 20.00     0.029 C 
HETATM    2  C2  UNL     1     -39.800  12.822   6.764  1.00 20.00     0.029 C 
HETATM    3  C3  UNL     1     -42.143  13.534   7.618  1.00 20.00     0.179 A 
HETATM    4  C4  UNL     1     -40.906  15.143   7.176  1.00 20.00     0.179 A 
HETATM    5  C5  UNL     1     -40.342  12.155   5.465  1.00 20.00     0.059 C 
HETATM    6  C6  UNL     1     -40.991  13.738   6.682  1.00 20.00     0.005 A 
HETATM    7  O7  UNL     1     -42.025  14.910   8.082  1.00 20.00    -0.389 OA
HETATM    8 BR8  UNL     1     -39.021  11.729   4.122  1.00 20.00    -0.091 Br
ENDROOT
TORSDOF 0
ENDMDL
MODEL 8
REMARK VINA RESULT:      -3.0      2.843      3.678
REMARK  0 active torsions:
REMARK  status: ('A' for Active; 'I' for Inactive)
ROOT
HETATM    1  C1  UNL     1     -32.546  18.623  -2.287  1.00 20.00     0.029 C 
HETATM    2  C2  UNL     1     -33.792  17.380  -1.032  1.00 20.00     0.029 C 
HETATM    3  C3  UNL     1     -33.311  16.401  -3.385  1.00 20.00     0.179 A 
HETATM    4  C4  UNL     1     -34.781  17.869  -3.391  1.00 20.00     0.179 A 
HETATM    5  C5  UNL     1     -32.375  18.003  -0.867  1.00 20.00     0.059 C 
HETATM    6  C6  UNL     1     -33.610  17.582  -2.512  1.00 20.00     0.005 A 
HETATM    7  O7  UNL     1     -34.468  16.709  -4.216  1.00 20.00    -0.389 OA
HETATM    8 BR8  UNL     1     -32.171  19.262   0.582  1.00 20.00    -0.091 Br
ENDROOT
TORSDOF 0
ENDMDL
MODEL 9
REMARK VINA RESULT:      -2.9      2.506      3.103
REMARK  0 active torsions:
REMARK  status: ('A' for Active; 'I' for Inactive)
ROOT
HETATM    1  C1  UNL     1     -35.115  16.646  -5.373  1.00 20.00     0.029 C 
HETATM    2  C2  UNL     1     -34.184  15.341  -6.823  1.00 20.00     0.029 C 
HETATM    3  C3  UNL     1     -35.767  14.146  -5.153  1.00 20.00     0.179 A 
HETATM    4  C4  UNL     1     -33.903  14.582  -4.347  1.00 20.00     0.179 A 
HETATM    5  C5  UNL     1     -35.064  16.621  -6.930  1.00 20.00     0.059 C 
HETATM    6  C6  UNL     1     -34.731  15.192  -5.428  1.00 20.00     0.005 A 
HETATM    7  O7  UNL     1     -34.928  13.573  -4.109  1.00 20.00    -0.389 OA
HETATM    8 BR8  UNL     1     -34.232  18.148  -7.770  1.00 20.00    -0.091 Br
ENDROOT
TORSDOF 0
ENDMDL
