MODEL 1
REMARK VINA RESULT:      -4.5      0.000      0.000
REMARK  1 active torsions:
REMARK  status: ('A' for Active; 'I' for Inactive)
REMARK    1  A    between atoms: C3_3  and  C6_6 
ROOT
HETATM    1  C1  UNL     1     -33.022   6.276   2.872  1.00 20.00     0.068 A 
HETATM    2  C2  UNL     1     -32.662   8.427   3.820  1.00 20.00     0.126 A 
HETATM    3  C3  UNL     1     -32.524   7.568   2.742  1.00 20.00    -0.023 A 
HETATM    4  C4  UNL     1     -33.634   5.888   4.059  1.00 20.00     0.212 A 
HETATM    5  C5  UNL     1     -33.722   6.822   5.078  1.00 20.00     0.175 A 
HETATM    6  N7  UNL     1     -33.251   8.087   4.989  1.00 20.00    -0.244 NA
HETATM    7  O8  UNL     1     -34.090   4.696   4.173  1.00 20.00    -0.285 OA
HETATM    8 CL9  UNL     1     -34.451   6.505   6.614  1.00 20.00    -0.058 Cl
ENDROOT
BRANCH   3   9
HETATM    9  C6  UNL     1     -31.864   8.014   1.487  1.00 20.00     0.154 C 
HETATM   10 CL10 UNL     1     -32.714   9.412   0.787  1.00 20.00    -0.126 Cl
ENDBRANCH   3   9
TORSDOF 1
ENDMDL
MODEL 2
REMARK VINA RESULT:      -4.3      1.667      2.049
REMARK  1 active torsions:
REMARK  status: ('A' for Active; 'I' for Inactive)
REMARK    1  A    between atoms: C3_3  and  C6_6 
ROOT
HETATM    1  C1  UNL     1     -32.891   8.210   3.843  1.00 20.00     0.068 A 
HETATM    2  C2  UNL     1     -32.965   6.101   2.747  1.00 20.00     0.126 A 
HETATM    3  C3  UNL     1     -32.576   7.430   2.736  1.00 20.00    -0.023 A 
HETATM    4  C4  UNL     1     -33.577   7.645   4.913  1.00 20.00     0.212 A 
HETATM    5  C5  UNL     1     -33.922   6.306   4.827  1.00 20.00     0.175 A 
HETATM    6  N7  UNL     1     -33.632   5.516   3.768  1.00 20.00    -0.244 NA
HETATM    7  O8  UNL     1     -33.865   8.368   5.930  1.00 20.00    -0.285 OA
HETATM    8 CL9  UNL     1     -34.774   5.450   6.065  1.00 20.00    -0.058 Cl
ENDROOT
BRANCH   3   9
HETATM    9  C6  UNL     1     -31.843   8.004   1.576  1.00 20.00     0.154 C 
HETATM   10 CL10 UNL     1     -32.731   9.384   0.887  1.00 20.00    -0.126 Cl
ENDBRANCH   3   9
TORSDOF 1
ENDMDL
MODEL 3
REMARK VINA RESULT:      -4.3      1.299      3.940
REMARK  1 active torsions:
REMARK  status: ('A' for Active; 'I' for Inactive)
REMARK    1  A    between atoms: C3_3  and  C6_6 
ROOT
HETATM    1  C1  UNL     1     -33.491   6.116   4.232  1.00 20.00     0.068 A 
HETATM    2  C2  UNL     1     -33.115   8.412   4.723  1.00 20.00     0.126 A 
HETATM    3  C3  UNL     1     -33.582   7.174   5.130  1.00 20.00    -0.023 A 
HETATM    4  C4  UNL     1     -32.943   6.327   2.971  1.00 20.00     0.212 A 
HETATM    5  C5  UNL     1     -32.504   7.603   2.661  1.00 20.00     0.175 A 
HETATM    6  N7  UNL     1     -32.575   8.656   3.508  1.00 20.00    -0.244 NA
HETATM    7  O8  UNL     1     -32.861   5.349   2.147  1.00 20.00    -0.285 OA
HETATM    8 CL9  UNL     1     -31.799   8.036   1.142  1.00 20.00    -0.058 Cl
ENDROOT
BRANCH   3   9
HETATM    9  C6  UNL     1     -34.163   6.981   6.486  1.00 20.00     0.154 C 
HETATM   10 CL10 UNL     1     -34.792   5.328   6.676  1.00 20.00    -0.126 Cl
ENDBRANCH   3   9
TORSDOF 1
ENDMDL
MODEL 4
REMARK VINA RESULT:      -4.1     12.024     12.176
REMARK  1 active torsions:
REMARK  status: ('A' for Active; 'I' for Inactive)
REMARK    1  A    between atoms: C3_3  and  C6_6 
ROOT
HETATM    1  C1  UNL     1     -33.457  18.547   0.369  1.00 20.00     0.068 A 
HETATM    2  C2  UNL     1     -31.651  18.138  -1.123  1.00 20.00     0.126 A 
HETATM    3  C3  UNL     1     -33.017  18.156  -0.891  1.00 20.00    -0.023 A 
HETATM    4  C4  UNL     1     -32.532  18.903   1.344  1.00 20.00     0.212 A 
HETATM    5  C5  UNL     1     -31.189  18.853   1.011  1.00 20.00     0.175 A 
HETATM    6  N7  UNL     1     -30.722  18.478  -0.202  1.00 20.00    -0.244 NA
HETATM    7  O8  UNL     1     -32.943  19.263   2.503  1.00 20.00    -0.285 OA
HETATM    8 CL9  UNL     1     -29.910  19.262   2.102  1.00 20.00    -0.058 Cl
ENDROOT
BRANCH   3   9
HETATM    9  C6  UNL     1     -33.980  17.768  -1.955  1.00 20.00     0.154 C 
HETATM   10 CL10 UNL     1     -33.397  16.344  -2.849  1.00 20.00    -0.126 Cl
ENDBRANCH   3   9
TORSDOF 1
ENDMDL
MODEL 5
REMARK VINA RESULT:      -4.0     11.575     12.503
REMARK  1 active torsions:
REMARK  status: ('A' for Active; 'I' for Inactive)
REMARK    1  A    between atoms: C3_3  and  C6_6 
ROOT
HETATM    1  C1  UNL     1     -33.344  15.981  -3.188  1.00 20.00     0.068 A 
HETATM    2  C2  UNL     1     -34.002  17.960  -4.330  1.00 20.00     0.126 A 
HETATM    3  C3  UNL     1     -33.423  17.369  -3.219  1.00 20.00    -0.023 A 
HETATM    4  C4  UNL     1     -33.841  15.237  -4.253  1.00 20.00     0.212 A 
HETATM    5  C5  UNL     1     -34.402  15.924  -5.317  1.00 20.00     0.175 A 
HETATM    6  N7  UNL     1     -34.495  17.272  -5.384  1.00 20.00    -0.244 NA
HETATM    7  O8  UNL     1     -33.766  13.959  -4.218  1.00 20.00    -0.285 OA
HETATM    8 CL9  UNL     1     -35.064  15.155  -6.717  1.00 20.00    -0.058 Cl
ENDROOT
BRANCH   3   9
HETATM    9  C6  UNL     1     -32.901  18.193  -2.097  1.00 20.00     0.154 C 
HETATM   10 CL10 UNL     1     -33.700  17.758  -0.568  1.00 20.00    -0.126 Cl
ENDBRANCH   3   9
TORSDOF 1
ENDMDL
MODEL 6
REMARK VINA RESULT:      -3.9     12.029     12.176
REMARK  1 active torsions:
REMARK  status: ('A' for Active; 'I' for Inactive)
REMARK    1  A    between atoms: C3_3  and  C6_6 
ROOT
HETATM    1  C1  UNL     1     -31.777  18.487  -1.100  1.00 20.00     0.068 A 
HETATM    2  C2  UNL     1     -34.057  18.212  -0.483  1.00 20.00     0.126 A 
HETATM    3  C3  UNL     1     -33.081  18.167  -1.464  1.00 20.00    -0.023 A 
HETATM    4  C4  UNL     1     -31.494  18.837   0.216  1.00 20.00     0.212 A 
HETATM    5  C5  UNL     1     -32.541  18.852   1.122  1.00 20.00     0.175 A 
HETATM    6  N7  UNL     1     -33.821  18.547   0.806  1.00 20.00    -0.244 NA
HETATM    7  O8  UNL     1     -30.291  19.130   0.546  1.00 20.00    -0.285 OA
HETATM    8 CL9  UNL     1     -32.363  19.263   2.792  1.00 20.00    -0.058 Cl
ENDROOT
BRANCH   3   9
HETATM    9  C6  UNL     1     -33.417  17.789  -2.862  1.00 20.00     0.154 C 
HETATM   10 CL10 UNL     1     -33.419  16.020  -3.056  1.00 20.00    -0.126 Cl
ENDBRANCH   3   9
TORSDOF 1
ENDMDL
MODEL 7
REMARK VINA RESULT:      -3.8     12.288     12.712
REMARK  1 active torsions:
REMARK  status: ('A' for Active; 'I' for Inactive)
REMARK    1  A    between atoms: C3_3  and  C6_6 
ROOT
HETATM    1  C1  UNL     1     -32.940  18.950   1.448  1.00 20.00     0.068 A 
HETATM    2  C2  UNL     1     -30.666  18.792   0.770  1.00 20.00     0.126 A 
HETATM    3  C3  UNL     1     -31.594  18.884   1.794  1.00 20.00    -0.023 A 
HETATM    4  C4  UNL     1     -33.310  18.922   0.108  1.00 20.00     0.212 A 
HETATM    5  C5  UNL     1     -32.306  18.829  -0.840  1.00 20.00     0.175 A 
HETATM    6  N7  UNL     1     -30.987  18.762  -0.543  1.00 20.00    -0.244 NA
HETATM    7  O8  UNL     1     -34.552  18.983  -0.205  1.00 20.00    -0.285 OA
HETATM    8 CL9  UNL     1     -32.592  18.783  -2.545  1.00 20.00    -0.058 Cl
ENDROOT
BRANCH   3   9
HETATM    9  C6  UNL     1     -31.165  18.911   3.217  1.00 20.00     0.154 C 
HETATM   10 CL10 UNL     1     -29.416  18.617   3.356  1.00 20.00    -0.126 Cl
ENDBRANCH   3   9
TORSDOF 1
ENDMDL
MODEL 8
REMARK VINA RESULT:      -3.8     11.796     12.576
REMARK  1 active torsions:
REMARK  status: ('A' for Active; 'I' for Inactive)
REMARK    1  A    between atoms: C3_3  and  C6_6 
ROOT
HETATM    1  C1  UNL     1     -33.244  16.460  -2.582  1.00 20.00     0.068 A 
HETATM    2  C2  UNL     1     -34.722  18.315  -2.750  1.00 20.00     0.126 A 
HETATM    3  C3  UNL     1     -33.801  17.596  -2.006  1.00 20.00    -0.023 A 
HETATM    4  C4  UNL     1     -33.620  16.082  -3.866  1.00 20.00     0.212 A 
HETATM    5  C5  UNL     1     -34.548  16.869  -4.527  1.00 20.00     0.175 A 
HETATM    6  N7  UNL     1     -35.111  17.980  -4.001  1.00 20.00    -0.244 NA
HETATM    7  O8  UNL     1     -33.103  15.034  -4.392  1.00 20.00    -0.285 OA
HETATM    8 CL9  UNL     1     -35.123  16.542  -6.126  1.00 20.00    -0.058 Cl
ENDROOT
BRANCH   3   9
HETATM    9  C6  UNL     1     -33.421  18.027  -0.635  1.00 20.00     0.154 C 
HETATM   10 CL10 UNL     1     -31.679  18.381  -0.543  1.00 20.00    -0.126 Cl
ENDBRANCH   3   9
TORSDOF 1
ENDMDL
MODEL 9
REMARK VINA RESULT:      -3.8      2.186      4.512
REMARK  1 active torsions:
REMARK  status: ('A' for Active; 'I' for Inactive)
REMARK    1  A    between atoms: C3_3  and  C6_6 
ROOT
HETATM    1  C1  UNL     1     -33.220   8.304   5.021  1.00 20.00     0.068 A 
HETATM    2  C2  UNL     1     -33.537   6.112   4.154  1.00 20.00     0.126 A 
HETATM    3  C3  UNL     1     -33.682   7.005   5.203  1.00 20.00    -0.023 A 
HETATM    4  C4  UNL     1     -32.635   8.665   3.812  1.00 20.00     0.212 A 
HETATM    5  C5  UNL     1     -32.537   7.698   2.825  1.00 20.00     0.175 A 
HETATM    6  N7  UNL     1     -32.975   6.426   2.965  1.00 20.00    -0.244 NA
HETATM    7  O8  UNL     1     -32.210   9.863   3.649  1.00 20.00    -0.285 OA
HETATM    8 CL9  UNL     1     -31.839   7.979   1.267  1.00 20.00    -0.058 Cl
ENDROOT
BRANCH   3   9
HETATM    9  C6  UNL     1     -34.312   6.587   6.483  1.00 20.00     0.154 C 
HETATM   10 CL10 UNL     1     -34.717   4.855   6.453  1.00 20.00    -0.126 Cl
ENDBRANCH   3   9
TORSDOF 1
ENDMDL
