MODEL 1
REMARK VINA RESULT:      -5.7      0.000      0.000
REMARK  0 active torsions:
REMARK  status: ('A' for Active; 'I' for Inactive)
ROOT
HETATM    1  C1  UNL     1     -32.617   8.234   4.553  1.00 20.00     0.124 C 
HETATM    2  C2  UNL     1     -33.723   6.354   4.204  1.00 20.00     0.044 C 
HETATM    3  C3  UNL     1     -34.513   5.186   4.651  1.00 20.00     0.057 C 
HETATM    4  C4  UNL     1     -34.786   5.616   6.103  1.00 20.00     0.007 C 
HETATM    5  C5  UNL     1     -33.866   6.823   6.391  1.00 20.00     0.016 C 
HETATM    6  C6  UNL     1     -33.829   7.548   5.066  1.00 20.00     0.077 C 
HETATM    7  N7  UNL     1     -32.107   7.657   3.510  1.00 20.00    -0.166 NA
HETATM    8  N8  UNL     1     -32.824   6.430   3.279  1.00 20.00    -0.159 NA
ENDROOT
TORSDOF 0
ENDMDL
MODEL 2
REMARK VINA RESULT:      -5.1      1.905      3.320
REMARK  0 active torsions:
REMARK  status: ('A' for Active; 'I' for Inactive)
ROOT
HETATM    1  C1  UNL     1     -34.728   5.274   5.098  1.00 20.00     0.124 C 
HETATM    2  C2  UNL     1     -33.673   7.209   5.252  1.00 20.00     0.044 C 
HETATM    3  C3  UNL     1     -32.691   8.216   4.793  1.00 20.00     0.057 C 
HETATM    4  C4  UNL     1     -32.336   7.606   3.424  1.00 20.00     0.007 C 
HETATM    5  C5  UNL     1     -32.926   6.179   3.406  1.00 20.00     0.016 C 
HETATM    6  C6  UNL     1     -34.208   6.328   4.193  1.00 20.00     0.077 C 
HETATM    7  N7  UNL     1     -34.687   5.610   6.350  1.00 20.00    -0.166 NA
HETATM    8  N8  UNL     1     -33.999   6.870   6.455  1.00 20.00    -0.159 NA
ENDROOT
TORSDOF 0
ENDMDL
MODEL 3
REMARK VINA RESULT:      -4.9      1.383      2.783
REMARK  0 active torsions:
REMARK  status: ('A' for Active; 'I' for Inactive)
ROOT
HETATM    1  C1  UNL     1     -34.774   5.904   5.836  1.00 20.00     0.124 C 
HETATM    2  C2  UNL     1     -33.329   6.409   4.244  1.00 20.00     0.044 C 
HETATM    3  C3  UNL     1     -32.471   7.351   3.490  1.00 20.00     0.057 C 
HETATM    4  C4  UNL     1     -32.585   8.578   4.413  1.00 20.00     0.007 C 
HETATM    5  C5  UNL     1     -33.729   8.282   5.408  1.00 20.00     0.016 C 
HETATM    6  C6  UNL     1     -33.603   6.795   5.643  1.00 20.00     0.077 C 
HETATM    7  N7  UNL     1     -34.952   5.074   4.856  1.00 20.00    -0.166 NA
HETATM    8  N8  UNL     1     -34.011   5.400   3.815  1.00 20.00    -0.159 NA
ENDROOT
TORSDOF 0
ENDMDL
MODEL 4
REMARK VINA RESULT:      -4.7      1.105      1.898
REMARK  0 active torsions:
REMARK  status: ('A' for Active; 'I' for Inactive)
ROOT
HETATM    1  C1  UNL     1     -32.660   7.440   3.252  1.00 20.00     0.124 C 
HETATM    2  C2  UNL     1     -33.345   7.359   5.350  1.00 20.00     0.044 C 
HETATM    3  C3  UNL     1     -34.200   6.839   6.440  1.00 20.00     0.057 C 
HETATM    4  C4  UNL     1     -34.841   5.650   5.701  1.00 20.00     0.007 C 
HETATM    5  C5  UNL     1     -34.507   5.823   4.204  1.00 20.00     0.016 C 
HETATM    6  C6  UNL     1     -33.120   6.423   4.229  1.00 20.00     0.077 C 
HETATM    7  N7  UNL     1     -32.467   8.608   3.781  1.00 20.00    -0.166 NA
HETATM    8  N8  UNL     1     -32.912   8.560   5.150  1.00 20.00    -0.159 NA
ENDROOT
TORSDOF 0
ENDMDL
MODEL 5
REMARK VINA RESULT:      -4.1     12.413     12.948
REMARK  0 active torsions:
REMARK  status: ('A' for Active; 'I' for Inactive)
ROOT
HETATM    1  C1  UNL     1     -31.685  19.243   1.407  1.00 20.00     0.124 C 
HETATM    2  C2  UNL     1     -31.877  18.592  -0.695  1.00 20.00     0.044 C 
HETATM    3  C3  UNL     1     -32.589  17.935  -1.813  1.00 20.00     0.057 C 
HETATM    4  C4  UNL     1     -33.956  17.719  -1.139  1.00 20.00     0.007 C 
HETATM    5  C5  UNL     1     -33.760  18.000   0.367  1.00 20.00     0.016 C 
HETATM    6  C6  UNL     1     -32.746  19.120   0.376  1.00 20.00     0.077 C 
HETATM    7  N7  UNL     1     -30.492  19.043   0.939  1.00 20.00    -0.166 NA
HETATM    8  N8  UNL     1     -30.612  18.618  -0.431  1.00 20.00    -0.159 NA
ENDROOT
TORSDOF 0
ENDMDL
MODEL 6
REMARK VINA RESULT:      -3.8     12.540     12.864
REMARK  0 active torsions:
REMARK  status: ('A' for Active; 'I' for Inactive)
ROOT
HETATM    1  C1  UNL     1     -32.776  18.722  -0.421  1.00 20.00     0.124 C 
HETATM    2  C2  UNL     1     -31.004  18.474   0.875  1.00 20.00     0.044 C 
HETATM    3  C3  UNL     1     -30.291  18.572   2.168  1.00 20.00     0.057 C 
HETATM    4  C4  UNL     1     -31.484  18.911   3.080  1.00 20.00     0.007 C 
HETATM    5  C5  UNL     1     -32.668  19.263   2.153  1.00 20.00     0.016 C 
HETATM    6  C6  UNL     1     -32.471  18.334   0.978  1.00 20.00     0.077 C 
HETATM    7  N7  UNL     1     -31.718  18.829  -1.164  1.00 20.00    -0.166 NA
HETATM    8  N8  UNL     1     -30.561  18.668  -0.323  1.00 20.00    -0.159 NA
ENDROOT
TORSDOF 0
ENDMDL
MODEL 7
REMARK VINA RESULT:      -3.8      1.770      2.518
REMARK  0 active torsions:
REMARK  status: ('A' for Active; 'I' for Inactive)
ROOT
HETATM    1  C1  UNL     1     -32.553   8.667   4.490  1.00 20.00     0.124 C 
HETATM    2  C2  UNL     1     -33.480   6.663   4.526  1.00 20.00     0.044 C 
HETATM    3  C3  UNL     1     -33.839   5.364   3.915  1.00 20.00     0.057 C 
HETATM    4  C4  UNL     1     -33.003   5.459   2.627  1.00 20.00     0.007 C 
HETATM    5  C5  UNL     1     -32.514   6.921   2.520  1.00 20.00     0.016 C 
HETATM    6  C6  UNL     1     -32.278   7.309   3.962  1.00 20.00     0.077 C 
HETATM    7  N7  UNL     1     -33.545   8.700   5.325  1.00 20.00    -0.166 NA
HETATM    8  N8  UNL     1     -34.152   7.395   5.352  1.00 20.00    -0.159 NA
ENDROOT
TORSDOF 0
ENDMDL
MODEL 8
REMARK VINA RESULT:      -3.5     15.238     15.809
REMARK  0 active torsions:
REMARK  status: ('A' for Active; 'I' for Inactive)
ROOT
HETATM    1  C1  UNL     1     -23.620  19.259   9.327  1.00 20.00     0.124 C 
HETATM    2  C2  UNL     1     -23.789  17.296  10.326  1.00 20.00     0.044 C 
HETATM    3  C3  UNL     1     -24.282  16.396  11.391  1.00 20.00     0.057 C 
HETATM    4  C4  UNL     1     -25.306  17.337  12.052  1.00 20.00     0.007 C 
HETATM    5  C5  UNL     1     -25.050  18.747  11.477  1.00 20.00     0.016 C 
HETATM    6  C6  UNL     1     -24.646  18.467  10.049  1.00 20.00     0.077 C 
HETATM    7  N7  UNL     1     -22.538  18.588   9.078  1.00 20.00    -0.166 NA
HETATM    8  N8  UNL     1     -22.644  17.308   9.727  1.00 20.00    -0.159 NA
ENDROOT
TORSDOF 0
ENDMDL
MODEL 9
REMARK VINA RESULT:      -3.5     16.063     16.584
REMARK  0 active torsions:
REMARK  status: ('A' for Active; 'I' for Inactive)
ROOT
HETATM    1  C1  UNL     1     -23.256  17.808  11.914  1.00 20.00     0.124 C 
HETATM    2  C2  UNL     1     -24.362  18.560  10.156  1.00 20.00     0.044 C 
HETATM    3  C3  UNL     1     -24.444  19.114   8.786  1.00 20.00     0.057 C 
HETATM    4  C4  UNL     1     -22.973  18.942   8.364  1.00 20.00     0.007 C 
HETATM    5  C5  UNL     1     -22.180  18.596   9.643  1.00 20.00     0.016 C 
HETATM    6  C6  UNL     1     -23.155  17.755  10.434  1.00 20.00     0.077 C 
HETATM    7  N7  UNL     1     -24.369  18.325  12.332  1.00 20.00    -0.166 NA
HETATM    8  N8  UNL     1     -25.094  18.816  11.189  1.00 20.00    -0.159 NA
ENDROOT
TORSDOF 0
ENDMDL
