MODEL 1
REMARK VINA RESULT:      -5.7      0.000      0.000
REMARK  0 active torsions:
REMARK  status: ('A' for Active; 'I' for Inactive)
ROOT
HETATM    1  C1  UNL     1     -34.509   4.984   4.934  1.00 20.00     0.032 A 
HETATM    2  C2  UNL     1     -33.246   6.332   3.183  1.00 20.00     0.037 A 
HETATM    3  C3  UNL     1     -32.473   8.535   3.908  1.00 20.00     0.003 A 
HETATM    4  C4  UNL     1     -34.783   5.367   6.192  1.00 20.00     0.118 A 
HETATM    5  C5  UNL     1     -33.793   6.077   4.370  1.00 20.00    -0.008 A 
HETATM    6  C6  UNL     1     -32.571   7.593   2.953  1.00 20.00     0.031 A 
HETATM    7  C7  UNL     1     -33.724   7.063   5.465  1.00 20.00     0.048 A 
HETATM    8  C8  UNL     1     -33.041   8.388   5.295  1.00 20.00     0.088 A 
HETATM    9  N9  UNL     1     -34.318   6.629   6.547  1.00 20.00    -0.264 NA
HETATM   10 CL10 UNL     1     -31.883   7.859   1.390  1.00 20.00    -0.085 Cl
ENDROOT
TORSDOF 0
ENDMDL
MODEL 2
REMARK VINA RESULT:      -5.0      1.395      2.160
REMARK  0 active torsions:
REMARK  status: ('A' for Active; 'I' for Inactive)
ROOT
HETATM    1  C1  UNL     1     -34.703   6.159   6.401  1.00 20.00     0.032 A 
HETATM    2  C2  UNL     1     -33.444   7.976   5.139  1.00 20.00     0.037 A 
HETATM    3  C3  UNL     1     -32.525   7.309   2.974  1.00 20.00     0.003 A 
HETATM    4  C4  UNL     1     -34.903   4.895   5.992  1.00 20.00     0.118 A 
HETATM    5  C5  UNL     1     -33.954   6.765   5.353  1.00 20.00    -0.008 A 
HETATM    6  C6  UNL     1     -32.713   8.249   3.919  1.00 20.00     0.031 A 
HETATM    7  C7  UNL     1     -33.787   5.686   4.362  1.00 20.00     0.048 A 
HETATM    8  C8  UNL     1     -33.042   5.899   3.077  1.00 20.00     0.088 A 
HETATM    9  N9  UNL     1     -34.357   4.574   4.753  1.00 20.00    -0.264 NA
HETATM   10 CL10 UNL     1     -32.079   9.842   3.705  1.00 20.00    -0.085 Cl
ENDROOT
TORSDOF 0
ENDMDL
MODEL 3
REMARK VINA RESULT:      -5.0      1.012      2.098
REMARK  0 active torsions:
REMARK  status: ('A' for Active; 'I' for Inactive)
ROOT
HETATM    1  C1  UNL     1     -34.161   7.236   6.286  1.00 20.00     0.032 A 
HETATM    2  C2  UNL     1     -33.025   7.683   4.053  1.00 20.00     0.037 A 
HETATM    3  C3  UNL     1     -32.930   5.778   2.522  1.00 20.00     0.003 A 
HETATM    4  C4  UNL     1     -34.701   6.074   6.689  1.00 20.00     0.118 A 
HETATM    5  C5  UNL     1     -33.660   6.970   4.981  1.00 20.00    -0.008 A 
HETATM    6  C6  UNL     1     -32.653   7.067   2.795  1.00 20.00     0.031 A 
HETATM    7  C7  UNL     1     -33.997   5.553   4.751  1.00 20.00     0.048 A 
HETATM    8  C8  UNL     1     -33.642   4.852   3.472  1.00 20.00     0.088 A 
HETATM    9  N9  UNL     1     -34.618   5.028   5.777  1.00 20.00    -0.264 NA
HETATM   10 CL10 UNL     1     -31.831   8.049   1.636  1.00 20.00    -0.085 Cl
ENDROOT
TORSDOF 0
ENDMDL
MODEL 4
REMARK VINA RESULT:      -4.6      1.555      2.000
REMARK  0 active torsions:
REMARK  status: ('A' for Active; 'I' for Inactive)
ROOT
HETATM    1  C1  UNL     1     -34.675   5.831   6.157  1.00 20.00     0.032 A 
HETATM    2  C2  UNL     1     -33.818   4.983   3.916  1.00 20.00     0.037 A 
HETATM    3  C3  UNL     1     -32.433   6.555   2.656  1.00 20.00     0.003 A 
HETATM    4  C4  UNL     1     -34.439   7.038   6.697  1.00 20.00     0.118 A 
HETATM    5  C5  UNL     1     -33.984   5.849   4.913  1.00 20.00    -0.008 A 
HETATM    6  C6  UNL     1     -33.023   5.350   2.761  1.00 20.00     0.031 A 
HETATM    7  C7  UNL     1     -33.367   7.187   4.866  1.00 20.00     0.048 A 
HETATM    8  C8  UNL     1     -32.531   7.634   3.703  1.00 20.00     0.088 A 
HETATM    9  N9  UNL     1     -33.645   7.888   5.936  1.00 20.00    -0.264 NA
HETATM   10 CL10 UNL     1     -32.849   4.179   1.504  1.00 20.00    -0.085 Cl
ENDROOT
TORSDOF 0
ENDMDL
MODEL 5
REMARK VINA RESULT:      -4.5      2.756      4.192
REMARK  0 active torsions:
REMARK  status: ('A' for Active; 'I' for Inactive)
ROOT
HETATM    1  C1  UNL     1     -32.549   8.842   4.317  1.00 20.00     0.032 A 
HETATM    2  C2  UNL     1     -33.823   7.069   5.626  1.00 20.00     0.037 A 
HETATM    3  C3  UNL     1     -34.146   4.939   4.471  1.00 20.00     0.003 A 
HETATM    4  C4  UNL     1     -32.051   8.714   3.076  1.00 20.00     0.118 A 
HETATM    5  C5  UNL     1     -33.163   7.587   4.593  1.00 20.00    -0.008 A 
HETATM    6  C6  UNL     1     -34.324   5.711   5.558  1.00 20.00     0.031 A 
HETATM    7  C7  UNL     1     -32.929   6.798   3.369  1.00 20.00     0.048 A 
HETATM    8  C8  UNL     1     -33.420   5.387   3.230  1.00 20.00     0.088 A 
HETATM    9  N9  UNL     1     -32.265   7.480   2.470  1.00 20.00    -0.264 NA
HETATM   10 CL10 UNL     1     -35.171   5.102   6.935  1.00 20.00    -0.085 Cl
ENDROOT
TORSDOF 0
ENDMDL
MODEL 6
REMARK VINA RESULT:      -4.4      1.529      2.984
REMARK  0 active torsions:
REMARK  status: ('A' for Active; 'I' for Inactive)
ROOT
HETATM    1  C1  UNL     1     -32.310   8.632   4.219  1.00 20.00     0.032 A 
HETATM    2  C2  UNL     1     -32.530   6.450   2.927  1.00 20.00     0.037 A 
HETATM    3  C3  UNL     1     -34.066   4.808   3.889  1.00 20.00     0.003 A 
HETATM    4  C4  UNL     1     -32.948   8.954   5.356  1.00 20.00     0.118 A 
HETATM    5  C5  UNL     1     -32.769   7.322   3.905  1.00 20.00    -0.008 A 
HETATM    6  C6  UNL     1     -33.197   5.164   2.925  1.00 20.00     0.031 A 
HETATM    7  C7  UNL     1     -33.709   7.001   4.995  1.00 20.00     0.048 A 
HETATM    8  C8  UNL     1     -34.434   5.689   5.055  1.00 20.00     0.088 A 
HETATM    9  N9  UNL     1     -33.808   7.982   5.855  1.00 20.00    -0.264 NA
HETATM   10 CL10 UNL     1     -32.842   4.081   1.627  1.00 20.00    -0.085 Cl
ENDROOT
TORSDOF 0
ENDMDL
MODEL 7
REMARK VINA RESULT:      -4.4      1.798      2.460
REMARK  0 active torsions:
REMARK  status: ('A' for Active; 'I' for Inactive)
ROOT
HETATM    1  C1  UNL     1     -33.160   5.172   2.850  1.00 20.00     0.032 A 
HETATM    2  C2  UNL     1     -32.577   7.459   3.803  1.00 20.00     0.037 A 
HETATM    3  C3  UNL     1     -33.569   7.976   5.977  1.00 20.00     0.003 A 
HETATM    4  C4  UNL     1     -33.946   4.246   3.422  1.00 20.00     0.118 A 
HETATM    5  C5  UNL     1     -33.151   6.258   3.769  1.00 20.00    -0.008 A 
HETATM    6  C6  UNL     1     -32.795   8.335   4.937  1.00 20.00     0.031 A 
HETATM    7  C7  UNL     1     -34.012   5.798   4.875  1.00 20.00     0.048 A 
HETATM    8  C8  UNL     1     -34.280   6.652   6.079  1.00 20.00     0.088 A 
HETATM    9  N9  UNL     1     -34.481   4.595   4.657  1.00 20.00    -0.264 NA
HETATM   10 CL10 UNL     1     -32.020   9.879   4.916  1.00 20.00    -0.085 Cl
ENDROOT
TORSDOF 0
ENDMDL
MODEL 8
REMARK VINA RESULT:      -4.2      2.688      3.705
REMARK  0 active torsions:
REMARK  status: ('A' for Active; 'I' for Inactive)
ROOT
HETATM    1  C1  UNL     1     -32.697   6.413   2.368  1.00 20.00     0.032 A 
HETATM    2  C2  UNL     1     -33.872   5.649   4.493  1.00 20.00     0.037 A 
HETATM    3  C3  UNL     1     -34.062   7.335   6.253  1.00 20.00     0.003 A 
HETATM    4  C4  UNL     1     -32.184   7.632   2.133  1.00 20.00     0.118 A 
HETATM    5  C5  UNL     1     -33.237   6.493   3.682  1.00 20.00    -0.008 A 
HETATM    6  C6  UNL     1     -34.292   6.086   5.809  1.00 20.00     0.031 A 
HETATM    7  C7  UNL     1     -32.951   7.878   4.102  1.00 20.00     0.048 A 
HETATM    8  C8  UNL     1     -33.357   8.397   5.450  1.00 20.00     0.088 A 
HETATM    9  N9  UNL     1     -32.322   8.548   3.170  1.00 20.00    -0.264 NA
HETATM   10 CL10 UNL     1     -35.111   4.940   6.808  1.00 20.00    -0.085 Cl
ENDROOT
TORSDOF 0
ENDMDL
MODEL 9
REMARK VINA RESULT:      -4.1     12.284     13.128
REMARK  0 active torsions:
REMARK  status: ('A' for Active; 'I' for Inactive)
ROOT
HETATM    1  C1  UNL     1     -33.225  14.923  -4.316  1.00 20.00     0.032 A 
HETATM    2  C2  UNL     1     -33.361  16.524  -2.342  1.00 20.00     0.037 A 
HETATM    3  C3  UNL     1     -34.808  18.468  -2.662  1.00 20.00     0.003 A 
HETATM    4  C4  UNL     1     -33.863  15.048  -5.490  1.00 20.00     0.118 A 
HETATM    5  C5  UNL     1     -33.627  16.060  -3.561  1.00 20.00    -0.008 A 
HETATM    6  C6  UNL     1     -33.969  17.758  -1.886  1.00 20.00     0.031 A 
HETATM    7  C7  UNL     1     -34.539  16.786  -4.465  1.00 20.00     0.048 A 
HETATM    8  C8  UNL     1     -35.203  18.068  -4.059  1.00 20.00     0.088 A 
HETATM    9  N9  UNL     1     -34.672  16.173  -5.614  1.00 20.00    -0.264 NA
HETATM   10 CL10 UNL     1     -33.580  18.301  -0.293  1.00 20.00    -0.085 Cl
ENDROOT
TORSDOF 0
ENDMDL
