MODEL 1
REMARK VINA RESULT:      -5.2      0.000      0.000
REMARK  2 active torsions:
REMARK  status: ('A' for Active; 'I' for Inactive)
REMARK    1  A    between atoms: C1_1  and  C3_3 
REMARK    2  A    between atoms: C1_1  and  C5_5 
ROOT
HETATM    1  C2  UNL     1     -35.420   5.820   4.459  1.00 20.00     0.098 A 
HETATM    2  C3  UNL     1     -34.016   6.375   4.598  1.00 20.00     0.134 A 
HETATM    3  C4  UNL     1     -34.415   5.128   5.302  1.00 20.00     0.255 A 
HETATM    4  F7  UNL     1     -34.548   5.110   6.673  1.00 20.00    -0.205 F 
HETATM    5  F8  UNL     1     -33.912   3.903   4.923  1.00 20.00    -0.205 F 
ENDROOT
BRANCH   2   6
HETATM    6  C1  UNL     1     -33.103   6.306   3.454  1.00 20.00     0.146 C 
HETATM    7  O6  UNL     1     -33.102   5.321   2.718  1.00 20.00    -0.297 OA
BRANCH   6   8
HETATM    8  C5  UNL     1     -32.204   7.505   3.267  1.00 20.00     0.164 C 
HETATM    9 BR9  UNL     1     -32.431   8.748   4.736  1.00 20.00    -0.089 Br
ENDBRANCH   6   8
ENDBRANCH   2   6
TORSDOF 2
ENDMDL
MODEL 2
REMARK VINA RESULT:      -4.9      3.309      4.030
REMARK  2 active torsions:
REMARK  status: ('A' for Active; 'I' for Inactive)
REMARK    1  A    between atoms: C1_1  and  C3_3 
REMARK    2  A    between atoms: C1_1  and  C5_5 
ROOT
HETATM    1  C2  UNL     1     -32.185   8.848   4.925  1.00 20.00     0.098 A 
HETATM    2  C3  UNL     1     -33.582   8.286   4.754  1.00 20.00     0.134 A 
HETATM    3  C4  UNL     1     -32.594   8.221   3.644  1.00 20.00     0.255 A 
HETATM    4  F7  UNL     1     -32.761   8.990   2.514  1.00 20.00    -0.205 F 
HETATM    5  F8  UNL     1     -32.045   7.023   3.248  1.00 20.00    -0.205 F 
ENDROOT
BRANCH   2   6
HETATM    6  C1  UNL     1     -33.954   7.063   5.471  1.00 20.00     0.146 C 
HETATM    7  O6  UNL     1     -33.511   6.843   6.596  1.00 20.00    -0.297 OA
BRANCH   6   8
HETATM    8  C5  UNL     1     -34.891   6.137   4.732  1.00 20.00     0.164 C 
HETATM    9 BR9  UNL     1     -34.014   4.451   4.361  1.00 20.00    -0.089 Br
ENDBRANCH   6   8
ENDBRANCH   2   6
TORSDOF 2
ENDMDL
MODEL 3
REMARK VINA RESULT:      -4.8      2.232      2.486
REMARK  2 active torsions:
REMARK  status: ('A' for Active; 'I' for Inactive)
REMARK    1  A    between atoms: C1_1  and  C3_3 
REMARK    2  A    between atoms: C1_1  and  C5_5 
ROOT
HETATM    1  C2  UNL     1     -34.600   5.869   6.488  1.00 20.00     0.098 A 
HETATM    2  C3  UNL     1     -33.537   6.383   5.538  1.00 20.00     0.134 A 
HETATM    3  C4  UNL     1     -34.703   5.612   5.031  1.00 20.00     0.255 A 
HETATM    4  F7  UNL     1     -34.536   4.339   4.534  1.00 20.00    -0.205 F 
HETATM    5  F8  UNL     1     -35.689   6.218   4.285  1.00 20.00    -0.205 F 
ENDROOT
BRANCH   2   6
HETATM    6  C1  UNL     1     -33.447   7.823   5.278  1.00 20.00     0.146 C 
HETATM    7  O6  UNL     1     -34.273   8.595   5.761  1.00 20.00    -0.297 OA
BRANCH   6   8
HETATM    8  C5  UNL     1     -32.296   8.253   4.400  1.00 20.00     0.164 C 
HETATM    9 BR9  UNL     1     -32.253   7.189   2.781  1.00 20.00    -0.089 Br
ENDBRANCH   6   8
ENDBRANCH   2   6
TORSDOF 2
ENDMDL
MODEL 4
REMARK VINA RESULT:      -4.4      3.054      3.804
REMARK  2 active torsions:
REMARK  status: ('A' for Active; 'I' for Inactive)
REMARK    1  A    between atoms: C1_1  and  C3_3 
REMARK    2  A    between atoms: C1_1  and  C5_5 
ROOT
HETATM    1  C2  UNL     1     -32.010   7.978   4.272  1.00 20.00     0.098 A 
HETATM    2  C3  UNL     1     -33.361   7.440   3.849  1.00 20.00     0.134 A 
HETATM    3  C4  UNL     1     -32.521   8.218   2.900  1.00 20.00     0.255 A 
HETATM    4  F7  UNL     1     -32.899   9.482   2.508  1.00 20.00    -0.205 F 
HETATM    5  F8  UNL     1     -31.922   7.614   1.818  1.00 20.00    -0.205 F 
ENDROOT
BRANCH   2   6
HETATM    6  C1  UNL     1     -33.527   5.996   3.659  1.00 20.00     0.146 C 
HETATM    7  O6  UNL     1     -32.844   5.394   2.833  1.00 20.00    -0.297 OA
BRANCH   6   8
HETATM    8  C5  UNL     1     -34.570   5.342   4.535  1.00 20.00     0.164 C 
HETATM    9 BR9  UNL     1     -34.469   6.046   6.337  1.00 20.00    -0.089 Br
ENDBRANCH   6   8
ENDBRANCH   2   6
TORSDOF 2
ENDMDL
MODEL 5
REMARK VINA RESULT:      -4.3      1.650      1.793
REMARK  2 active torsions:
REMARK  status: ('A' for Active; 'I' for Inactive)
REMARK    1  A    between atoms: C1_1  and  C3_3 
REMARK    2  A    between atoms: C1_1  and  C5_5 
ROOT
HETATM    1  C2  UNL     1     -35.597   6.113   5.061  1.00 20.00     0.098 A 
HETATM    2  C3  UNL     1     -34.186   6.190   4.515  1.00 20.00     0.134 A 
HETATM    3  C4  UNL     1     -34.432   6.089   5.979  1.00 20.00     0.255 A 
HETATM    4  F7  UNL     1     -34.174   7.159   6.806  1.00 20.00    -0.205 F 
HETATM    5  F8  UNL     1     -34.118   4.945   6.677  1.00 20.00    -0.205 F 
ENDROOT
BRANCH   2   6
HETATM    6  C1  UNL     1     -33.637   5.042   3.788  1.00 20.00     0.146 C 
HETATM    7  O6  UNL     1     -33.896   3.896   4.148  1.00 20.00    -0.297 OA
BRANCH   6   8
HETATM    8  C5  UNL     1     -32.762   5.382   2.604  1.00 20.00     0.164 C 
HETATM    9 BR9  UNL     1     -32.184   7.228   2.706  1.00 20.00    -0.089 Br
ENDBRANCH   6   8
ENDBRANCH   2   6
TORSDOF 2
ENDMDL
MODEL 6
REMARK VINA RESULT:      -4.3      1.951      2.275
REMARK  2 active torsions:
REMARK  status: ('A' for Active; 'I' for Inactive)
REMARK    1  A    between atoms: C1_1  and  C3_3 
REMARK    2  A    between atoms: C1_1  and  C5_5 
ROOT
HETATM    1  C2  UNL     1     -35.138   5.935   6.442  1.00 20.00     0.098 A 
HETATM    2  C3  UNL     1     -34.715   6.254   5.022  1.00 20.00     0.134 A 
HETATM    3  C4  UNL     1     -34.053   6.912   6.179  1.00 20.00     0.255 A 
HETATM    4  F7  UNL     1     -34.247   8.253   6.426  1.00 20.00    -0.205 F 
HETATM    5  F8  UNL     1     -32.752   6.617   6.519  1.00 20.00    -0.205 F 
ENDROOT
BRANCH   2   6
HETATM    6  C1  UNL     1     -33.991   5.242   4.247  1.00 20.00     0.146 C 
HETATM    7  O6  UNL     1     -33.968   4.071   4.621  1.00 20.00    -0.297 OA
BRANCH   6   8
HETATM    8  C5  UNL     1     -33.306   5.747   3.000  1.00 20.00     0.164 C 
HETATM    9 BR9  UNL     1     -32.411   7.427   3.360  1.00 20.00    -0.089 Br
ENDBRANCH   6   8
ENDBRANCH   2   6
TORSDOF 2
ENDMDL
MODEL 7
REMARK VINA RESULT:      -4.2      2.320      2.439
REMARK  2 active torsions:
REMARK  status: ('A' for Active; 'I' for Inactive)
REMARK    1  A    between atoms: C1_1  and  C3_3 
REMARK    2  A    between atoms: C1_1  and  C5_5 
ROOT
HETATM    1  C2  UNL     1     -34.244   5.965   4.838  1.00 20.00     0.098 A 
HETATM    2  C3  UNL     1     -34.025   7.465   4.840  1.00 20.00     0.134 A 
HETATM    3  C4  UNL     1     -34.019   6.693   6.111  1.00 20.00     0.255 A 
HETATM    4  F7  UNL     1     -35.041   6.837   7.022  1.00 20.00    -0.205 F 
HETATM    5  F8  UNL     1     -32.856   6.504   6.825  1.00 20.00    -0.205 F 
ENDROOT
BRANCH   2   6
HETATM    6  C1  UNL     1     -32.770   8.004   4.309  1.00 20.00     0.146 C 
HETATM    7  O6  UNL     1     -32.219   8.955   4.860  1.00 20.00    -0.297 OA
BRANCH   6   8
HETATM    8  C5  UNL     1     -32.237   7.313   3.076  1.00 20.00     0.164 C 
HETATM    9 BR9  UNL     1     -32.368   8.487   1.541  1.00 20.00    -0.089 Br
ENDBRANCH   6   8
ENDBRANCH   2   6
TORSDOF 2
ENDMDL
MODEL 8
REMARK VINA RESULT:      -3.9      2.832      3.191
REMARK  2 active torsions:
REMARK  status: ('A' for Active; 'I' for Inactive)
REMARK    1  A    between atoms: C1_1  and  C3_3 
REMARK    2  A    between atoms: C1_1  and  C5_5 
ROOT
HETATM    1  C2  UNL     1     -32.318   8.796   4.732  1.00 20.00     0.098 A 
HETATM    2  C3  UNL     1     -32.488   7.320   4.436  1.00 20.00     0.134 A 
HETATM    3  C4  UNL     1     -33.614   8.121   4.987  1.00 20.00     0.255 A 
HETATM    4  F7  UNL     1     -34.052   7.916   6.276  1.00 20.00    -0.205 F 
HETATM    5  F8  UNL     1     -34.718   8.420   4.220  1.00 20.00    -0.205 F 
ENDROOT
BRANCH   2   6
HETATM    6  C1  UNL     1     -32.528   6.871   3.041  1.00 20.00     0.146 C 
HETATM    7  O6  UNL     1     -32.193   7.630   2.133  1.00 20.00    -0.297 OA
BRANCH   6   8
HETATM    8  C5  UNL     1     -32.997   5.451   2.829  1.00 20.00     0.164 C 
HETATM    9 BR9  UNL     1     -34.161   4.907   4.279  1.00 20.00    -0.089 Br
ENDBRANCH   6   8
ENDBRANCH   2   6
TORSDOF 2
ENDMDL
MODEL 9
REMARK VINA RESULT:      -3.8      3.174      3.858
REMARK  2 active torsions:
REMARK  status: ('A' for Active; 'I' for Inactive)
REMARK    1  A    between atoms: C1_1  and  C3_3 
REMARK    2  A    between atoms: C1_1  and  C5_5 
ROOT
HETATM    1  C2  UNL     1     -33.295   8.399   3.721  1.00 20.00     0.098 A 
HETATM    2  C3  UNL     1     -32.961   7.347   4.759  1.00 20.00     0.134 A 
HETATM    3  C4  UNL     1     -33.035   8.786   5.129  1.00 20.00     0.255 A 
HETATM    4  F7  UNL     1     -31.895   9.481   5.462  1.00 20.00    -0.205 F 
HETATM    5  F8  UNL     1     -34.055   9.267   5.919  1.00 20.00    -0.205 F 
ENDROOT
BRANCH   2   6
HETATM    6  C1  UNL     1     -34.010   6.425   5.205  1.00 20.00     0.146 C 
HETATM    7  O6  UNL     1     -34.495   6.532   6.330  1.00 20.00    -0.297 OA
BRANCH   6   8
HETATM    8  C5  UNL     1     -34.424   5.378   4.199  1.00 20.00     0.164 C 
HETATM    9 BR9  UNL     1     -33.044   5.153   2.859  1.00 20.00    -0.089 Br
ENDBRANCH   6   8
ENDBRANCH   2   6
TORSDOF 2
ENDMDL
