MODEL 1
REMARK VINA RESULT:      -4.8      0.000      0.000
REMARK  1 active torsions:
REMARK  status: ('A' for Active; 'I' for Inactive)
REMARK    1  A    between atoms: C1_1  and  C4_4 
ROOT
HETATM    1  C2  UNL     1     -32.808   6.466   3.701  1.00 20.00     0.026 C 
HETATM    2  C3  UNL     1     -32.320   8.600   4.806  1.00 20.00     0.026 C 
HETATM    3  C4  UNL     1     -31.985   7.752   3.575  1.00 20.00     0.088 C 
HETATM    4  C5  UNL     1     -33.997   6.852   4.535  1.00 20.00     0.069 A 
HETATM    5  C6  UNL     1     -33.697   8.161   5.213  1.00 20.00     0.069 A 
HETATM    6  C7  UNL     1     -33.915   6.930   6.017  1.00 20.00     0.252 A 
HETATM    7  F10 UNL     1     -32.881   6.337   6.705  1.00 20.00    -0.205 F 
HETATM    8  F11 UNL     1     -35.050   6.793   6.785  1.00 20.00    -0.205 F 
ENDROOT
BRANCH   3   9
HETATM    9  C1  UNL     1     -32.439   8.500   2.331  1.00 20.00     0.177 C 
HETATM   10  O8  UNL     1     -32.918   9.650   2.538  1.00 20.00    -0.648 OA
HETATM   11  O9  UNL     1     -32.278   7.873   1.247  1.00 20.00    -0.648 OA
ENDBRANCH   3   9
TORSDOF 1
ENDMDL
MODEL 2
REMARK VINA RESULT:      -4.5      3.231      3.879
REMARK  1 active torsions:
REMARK  status: ('A' for Active; 'I' for Inactive)
REMARK    1  A    between atoms: C1_1  and  C4_4 
ROOT
HETATM    1  C2  UNL     1     -33.159   6.266   3.408  1.00 20.00     0.026 C 
HETATM    2  C3  UNL     1     -34.805   7.303   4.901  1.00 20.00     0.026 C 
HETATM    3  C4  UNL     1     -34.509   6.035   4.093  1.00 20.00     0.088 C 
HETATM    4  C5  UNL     1     -32.446   7.254   4.288  1.00 20.00     0.069 A 
HETATM    5  C6  UNL     1     -33.457   7.891   5.203  1.00 20.00     0.069 A 
HETATM    6  C7  UNL     1     -32.724   8.712   4.205  1.00 20.00     0.252 A 
HETATM    7  F10 UNL     1     -33.370   9.252   3.115  1.00 20.00    -0.205 F 
HETATM    8  F11 UNL     1     -31.778   9.625   4.615  1.00 20.00    -0.205 F 
ENDROOT
BRANCH   3   9
HETATM    9  C1  UNL     1     -34.372   4.867   5.057  1.00 20.00     0.177 C 
HETATM   10  O8  UNL     1     -34.696   5.112   6.252  1.00 20.00    -0.648 OA
HETATM   11  O9  UNL     1     -33.951   3.796   4.535  1.00 20.00    -0.648 OA
ENDBRANCH   3   9
TORSDOF 1
ENDMDL
MODEL 3
REMARK VINA RESULT:      -4.4     11.700     12.441
REMARK  1 active torsions:
REMARK  status: ('A' for Active; 'I' for Inactive)
REMARK    1  A    between atoms: C1_1  and  C4_4 
ROOT
HETATM    1  C2  UNL     1     -33.852  17.871  -0.363  1.00 20.00     0.026 C 
HETATM    2  C3  UNL     1     -32.550  19.263  -1.906  1.00 20.00     0.026 C 
HETATM    3  C4  UNL     1     -32.856  19.032  -0.422  1.00 20.00     0.088 C 
HETATM    4  C5  UNL     1     -33.594  17.079  -1.613  1.00 20.00     0.069 A 
HETATM    5  C6  UNL     1     -32.795  17.934  -2.560  1.00 20.00     0.069 A 
HETATM    6  C7  UNL     1     -34.165  17.486  -2.924  1.00 20.00     0.252 A 
HETATM    7  F10 UNL     1     -35.210  18.380  -2.998  1.00 20.00    -0.205 F 
HETATM    8  F11 UNL     1     -34.350  16.555  -3.922  1.00 20.00    -0.205 F 
ENDROOT
BRANCH   3   9
HETATM    9  C1  UNL     1     -31.573  18.609   0.278  1.00 20.00     0.177 C 
HETATM   10  O8  UNL     1     -31.709  18.242   1.478  1.00 20.00    -0.648 OA
HETATM   11  O9  UNL     1     -30.533  18.681  -0.435  1.00 20.00    -0.648 OA
ENDBRANCH   3   9
TORSDOF 1
ENDMDL
MODEL 4
REMARK VINA RESULT:      -4.3      1.814      2.443
REMARK  1 active torsions:
REMARK  status: ('A' for Active; 'I' for Inactive)
REMARK    1  A    between atoms: C1_1  and  C4_4 
ROOT
HETATM    1  C2  UNL     1     -34.260   8.120   5.272  1.00 20.00     0.026 C 
HETATM    2  C3  UNL     1     -33.365   6.543   3.621  1.00 20.00     0.026 C 
HETATM    3  C4  UNL     1     -33.416   8.028   3.996  1.00 20.00     0.088 C 
HETATM    4  C5  UNL     1     -34.108   6.779   5.931  1.00 20.00     0.069 A 
HETATM    5  C6  UNL     1     -33.559   5.811   4.917  1.00 20.00     0.069 A 
HETATM    6  C7  UNL     1     -34.910   5.605   5.500  1.00 20.00     0.252 A 
HETATM    7  F10 UNL     1     -36.046   5.761   4.736  1.00 20.00    -0.205 F 
HETATM    8  F11 UNL     1     -35.141   4.562   6.369  1.00 20.00    -0.205 F 
ENDROOT
BRANCH   3   9
HETATM    9  C1  UNL     1     -32.004   8.498   4.311  1.00 20.00     0.177 C 
HETATM   10  O8  UNL     1     -31.925   9.459   5.127  1.00 20.00    -0.648 OA
HETATM   11  O9  UNL     1     -31.089   7.865   3.714  1.00 20.00    -0.648 OA
ENDBRANCH   3   9
TORSDOF 1
ENDMDL
MODEL 5
REMARK VINA RESULT:      -4.2     11.542     12.489
REMARK  1 active torsions:
REMARK  status: ('A' for Active; 'I' for Inactive)
REMARK    1  A    between atoms: C1_1  and  C4_4 
ROOT
HETATM    1  C2  UNL     1     -34.930  17.271  -4.249  1.00 20.00     0.026 C 
HETATM    2  C3  UNL     1     -33.844  15.084  -4.021  1.00 20.00     0.026 C 
HETATM    3  C4  UNL     1     -34.915  15.845  -4.808  1.00 20.00     0.088 C 
HETATM    4  C5  UNL     1     -33.547  17.483  -3.702  1.00 20.00     0.069 A 
HETATM    5  C6  UNL     1     -32.881  16.141  -3.561  1.00 20.00     0.069 A 
HETATM    6  C7  UNL     1     -33.154  16.974  -2.362  1.00 20.00     0.252 A 
HETATM    7  F10 UNL     1     -34.102  16.600  -1.436  1.00 20.00    -0.205 F 
HETATM    8  F11 UNL     1     -32.116  17.561  -1.671  1.00 20.00    -0.205 F 
ENDROOT
BRANCH   3   9
HETATM    9  C1  UNL     1     -34.497  15.900  -6.270  1.00 20.00     0.177 C 
HETATM   10  O8  UNL     1     -33.909  14.870  -6.701  1.00 20.00    -0.648 OA
HETATM   11  O9  UNL     1     -34.793  16.974  -6.865  1.00 20.00    -0.648 OA
ENDBRANCH   3   9
TORSDOF 1
ENDMDL
MODEL 6
REMARK VINA RESULT:      -4.1      2.674      3.564
REMARK  1 active torsions:
REMARK  status: ('A' for Active; 'I' for Inactive)
REMARK    1  A    between atoms: C1_1  and  C4_4 
ROOT
HETATM    1  C2  UNL     1     -34.354   7.246   3.782  1.00 20.00     0.026 C 
HETATM    2  C3  UNL     1     -34.157   6.454   6.094  1.00 20.00     0.026 C 
HETATM    3  C4  UNL     1     -34.743   6.102   4.724  1.00 20.00     0.088 C 
HETATM    4  C5  UNL     1     -33.099   7.822   4.375  1.00 20.00     0.069 A 
HETATM    5  C6  UNL     1     -32.979   7.336   5.794  1.00 20.00     0.069 A 
HETATM    6  C7  UNL     1     -33.144   8.784   5.506  1.00 20.00     0.252 A 
HETATM    7  F10 UNL     1     -34.307   9.446   5.831  1.00 20.00    -0.205 F 
HETATM    8  F11 UNL     1     -32.102   9.659   5.717  1.00 20.00    -0.205 F 
ENDROOT
BRANCH   3   9
HETATM    9  C1  UNL     1     -34.088   4.821   4.230  1.00 20.00     0.177 C 
HETATM   10  O8  UNL     1     -33.563   4.891   3.084  1.00 20.00    -0.648 OA
HETATM   11  O9  UNL     1     -34.155   3.848   5.033  1.00 20.00    -0.648 OA
ENDBRANCH   3   9
TORSDOF 1
ENDMDL
MODEL 7
REMARK VINA RESULT:      -4.1      9.903     10.757
REMARK  1 active torsions:
REMARK  status: ('A' for Active; 'I' for Inactive)
REMARK    1  A    between atoms: C1_1  and  C4_4 
ROOT
HETATM    1  C2  UNL     1     -42.177   5.600  -0.483  1.00 20.00     0.026 C 
HETATM    2  C3  UNL     1     -43.353   7.099   1.060  1.00 20.00     0.026 C 
HETATM    3  C4  UNL     1     -43.412   5.710   0.417  1.00 20.00     0.088 C 
HETATM    4  C5  UNL     1     -41.172   6.535   0.127  1.00 20.00     0.069 A 
HETATM    5  C6  UNL     1     -41.894   7.456   1.074  1.00 20.00     0.069 A 
HETATM    6  C7  UNL     1     -41.215   7.998  -0.131  1.00 20.00     0.252 A 
HETATM    7  F10 UNL     1     -41.937   8.514  -1.184  1.00 20.00    -0.205 F 
HETATM    8  F11 UNL     1     -40.075   8.761  -0.003  1.00 20.00    -0.205 F 
ENDROOT
BRANCH   3   9
HETATM    9  C1  UNL     1     -43.310   4.662   1.514  1.00 20.00     0.177 C 
HETATM   10  O8  UNL     1     -43.131   3.478   1.114  1.00 20.00    -0.648 OA
HETATM   11  O9  UNL     1     -43.417   5.113   2.689  1.00 20.00    -0.648 OA
ENDBRANCH   3   9
TORSDOF 1
ENDMDL
MODEL 8
REMARK VINA RESULT:      -4.0     11.646     12.477
REMARK  1 active torsions:
REMARK  status: ('A' for Active; 'I' for Inactive)
REMARK    1  A    between atoms: C1_1  and  C4_4 
ROOT
HETATM    1  C2  UNL     1     -33.279  16.653  -2.629  1.00 20.00     0.026 C 
HETATM    2  C3  UNL     1     -32.999  19.060  -2.999  1.00 20.00     0.026 C 
HETATM    3  C4  UNL     1     -33.248  17.730  -3.717  1.00 20.00     0.088 C 
HETATM    4  C5  UNL     1     -33.705  17.377  -1.383  1.00 20.00     0.069 A 
HETATM    5  C6  UNL     1     -33.533  18.854  -1.611  1.00 20.00     0.069 A 
HETATM    6  C7  UNL     1     -32.738  18.156  -0.567  1.00 20.00     0.252 A 
HETATM    7  F10 UNL     1     -31.380  17.976  -0.708  1.00 20.00    -0.205 F 
HETATM    8  F11 UNL     1     -32.984  18.391   0.768  1.00 20.00    -0.205 F 
ENDROOT
BRANCH   3   9
HETATM    9  C1  UNL     1     -34.614  17.787  -4.385  1.00 20.00     0.177 C 
HETATM   10  O8  UNL     1     -35.069  18.947  -4.585  1.00 20.00    -0.648 OA
HETATM   11  O9  UNL     1     -35.118  16.660  -4.654  1.00 20.00    -0.648 OA
ENDBRANCH   3   9
TORSDOF 1
ENDMDL
MODEL 9
REMARK VINA RESULT:      -4.0     11.907     12.780
REMARK  1 active torsions:
REMARK  status: ('A' for Active; 'I' for Inactive)
REMARK    1  A    between atoms: C1_1  and  C4_4 
ROOT
HETATM    1  C2  UNL     1     -34.328  17.465  -4.943  1.00 20.00     0.026 C 
HETATM    2  C3  UNL     1     -33.226  15.575  -3.837  1.00 20.00     0.026 C 
HETATM    3  C4  UNL     1     -33.362  17.100  -3.812  1.00 20.00     0.088 C 
HETATM    4  C5  UNL     1     -35.184  16.244  -5.126  1.00 20.00     0.069 A 
HETATM    5  C6  UNL     1     -34.507  15.084  -4.447  1.00 20.00     0.069 A 
HETATM    6  C7  UNL     1     -34.716  15.077  -5.918  1.00 20.00     0.252 A 
HETATM    7  F10 UNL     1     -33.654  15.188  -6.788  1.00 20.00    -0.205 F 
HETATM    8  F11 UNL     1     -35.624  14.213  -6.489  1.00 20.00    -0.205 F 
ENDROOT
BRANCH   3   9
HETATM    9  C1  UNL     1     -33.987  17.511  -2.487  1.00 20.00     0.177 C 
HETATM   10  O8  UNL     1     -34.795  18.479  -2.549  1.00 20.00    -0.648 OA
HETATM   11  O9  UNL     1     -33.615  16.828  -1.492  1.00 20.00    -0.648 OA
ENDBRANCH   3   9
TORSDOF 1
ENDMDL
