MODEL 1
REMARK VINA RESULT:      -4.4      0.000      0.000
REMARK  1 active torsions:
REMARK  status: ('A' for Active; 'I' for Inactive)
REMARK    1  A    between atoms: C2_2  and  C4_4 
ROOT
HETATM    1  C1  UNL     1     -34.138   6.658   6.272  1.00 20.00     0.026 A 
HETATM    2  C2  UNL     1     -33.823   6.848   4.992  1.00 20.00     0.068 A 
HETATM    3  C3  UNL     1     -34.731   5.304   6.327  1.00 20.00     0.203 A 
HETATM    4  N5  UNL     1     -34.145   5.771   4.206  1.00 20.00    -0.159 NA
HETATM    5  N6  UNL     1     -34.665   4.860   4.912  1.00 20.00    -0.189 NA
ENDROOT
BRANCH   2   6
HETATM    6  C4  UNL     1     -33.197   8.052   4.390  1.00 20.00     0.175 C 
HETATM    7 CL7  UNL     1     -32.180   7.503   3.053  1.00 20.00    -0.124 Cl
ENDBRANCH   2   6
TORSDOF 1
ENDMDL
MODEL 2
REMARK VINA RESULT:      -4.3      2.439      3.232
REMARK  1 active torsions:
REMARK  status: ('A' for Active; 'I' for Inactive)
REMARK    1  A    between atoms: C2_2  and  C4_4 
ROOT
HETATM    1  C1  UNL     1     -33.500   7.964   5.313  1.00 20.00     0.026 A 
HETATM    2  C2  UNL     1     -33.734   6.889   4.562  1.00 20.00     0.068 A 
HETATM    3  C3  UNL     1     -32.345   8.635   4.679  1.00 20.00     0.203 A 
HETATM    4  N5  UNL     1     -32.860   6.783   3.510  1.00 20.00    -0.159 NA
HETATM    5  N6  UNL     1     -32.046   7.751   3.524  1.00 20.00    -0.189 NA
ENDROOT
BRANCH   2   6
HETATM    6  C4  UNL     1     -34.790   5.865   4.762  1.00 20.00     0.175 C 
HETATM    7 CL7  UNL     1     -34.721   5.360   6.453  1.00 20.00    -0.124 Cl
ENDBRANCH   2   6
TORSDOF 1
ENDMDL
MODEL 3
REMARK VINA RESULT:      -4.0      1.358      1.481
REMARK  1 active torsions:
REMARK  status: ('A' for Active; 'I' for Inactive)
REMARK    1  A    between atoms: C2_2  and  C4_4 
ROOT
HETATM    1  C1  UNL     1     -34.121   5.968   4.294  1.00 20.00     0.026 A 
HETATM    2  C2  UNL     1     -33.674   7.025   4.969  1.00 20.00     0.068 A 
HETATM    3  C3  UNL     1     -34.823   5.138   5.297  1.00 20.00     0.203 A 
HETATM    4  N5  UNL     1     -34.005   6.977   6.300  1.00 20.00    -0.159 NA
HETATM    5  N6  UNL     1     -34.661   5.924   6.545  1.00 20.00    -0.189 NA
ENDROOT
BRANCH   2   6
HETATM    6  C4  UNL     1     -32.896   8.171   4.434  1.00 20.00     0.175 C 
HETATM    7 CL7  UNL     1     -32.173   7.650   2.910  1.00 20.00    -0.124 Cl
ENDBRANCH   2   6
TORSDOF 1
ENDMDL
MODEL 4
REMARK VINA RESULT:      -4.0      2.124      3.181
REMARK  1 active torsions:
REMARK  status: ('A' for Active; 'I' for Inactive)
REMARK    1  A    between atoms: C2_2  and  C4_4 
ROOT
HETATM    1  C1  UNL     1     -32.827   8.524   5.074  1.00 20.00     0.026 A 
HETATM    2  C2  UNL     1     -33.455   7.359   5.222  1.00 20.00     0.068 A 
HETATM    3  C3  UNL     1     -32.205   8.461   3.733  1.00 20.00     0.203 A 
HETATM    4  N5  UNL     1     -33.312   6.542   4.129  1.00 20.00    -0.159 NA
HETATM    5  N6  UNL     1     -32.610   7.117   3.248  1.00 20.00    -0.189 NA
ENDROOT
BRANCH   2   6
HETATM    6  C4  UNL     1     -34.241   6.905   6.396  1.00 20.00     0.175 C 
HETATM    7 CL7  UNL     1     -34.661   5.210   6.124  1.00 20.00    -0.124 Cl
ENDBRANCH   2   6
TORSDOF 1
ENDMDL
MODEL 5
REMARK VINA RESULT:      -3.9      2.571      3.488
REMARK  1 active torsions:
REMARK  status: ('A' for Active; 'I' for Inactive)
REMARK    1  A    between atoms: C2_2  and  C4_4 
ROOT
HETATM    1  C1  UNL     1     -32.963   6.447   3.260  1.00 20.00     0.026 A 
HETATM    2  C2  UNL     1     -33.763   6.541   4.321  1.00 20.00     0.068 A 
HETATM    3  C3  UNL     1     -32.088   7.637   3.330  1.00 20.00     0.203 A 
HETATM    4  N5  UNL     1     -33.508   7.659   5.074  1.00 20.00    -0.159 NA
HETATM    5  N6  UNL     1     -32.563   8.322   4.558  1.00 20.00    -0.189 NA
ENDROOT
BRANCH   2   6
HETATM    6  C4  UNL     1     -34.837   5.598   4.724  1.00 20.00     0.175 C 
HETATM    7 CL7  UNL     1     -34.719   5.383   6.473  1.00 20.00    -0.124 Cl
ENDBRANCH   2   6
TORSDOF 1
ENDMDL
MODEL 6
REMARK VINA RESULT:      -3.7      1.144      1.490
REMARK  1 active torsions:
REMARK  status: ('A' for Active; 'I' for Inactive)
REMARK    1  A    between atoms: C2_2  and  C4_4 
ROOT
HETATM    1  C1  UNL     1     -33.745   6.929   5.119  1.00 20.00     0.026 A 
HETATM    2  C2  UNL     1     -33.804   5.851   4.338  1.00 20.00     0.068 A 
HETATM    3  C3  UNL     1     -34.450   6.546   6.361  1.00 20.00     0.203 A 
HETATM    4  N5  UNL     1     -34.469   4.808   4.932  1.00 20.00    -0.159 NA
HETATM    5  N6  UNL     1     -34.860   5.145   6.087  1.00 20.00    -0.189 NA
ENDROOT
BRANCH   2   6
HETATM    6  C4  UNL     1     -33.248   5.699   2.971  1.00 20.00     0.175 C 
HETATM    7 CL7  UNL     1     -32.254   7.123   2.646  1.00 20.00    -0.124 Cl
ENDBRANCH   2   6
TORSDOF 1
ENDMDL
MODEL 7
REMARK VINA RESULT:      -3.6      1.407      1.690
REMARK  1 active torsions:
REMARK  status: ('A' for Active; 'I' for Inactive)
REMARK    1  A    between atoms: C2_2  and  C4_4 
ROOT
HETATM    1  C1  UNL     1     -33.476   6.078   3.858  1.00 20.00     0.026 A 
HETATM    2  C2  UNL     1     -33.934   6.740   4.920  1.00 20.00     0.068 A 
HETATM    3  C3  UNL     1     -34.043   4.718   3.976  1.00 20.00     0.203 A 
HETATM    4  N5  UNL     1     -34.735   5.962   5.718  1.00 20.00    -0.159 NA
HETATM    5  N6  UNL     1     -34.834   4.799   5.229  1.00 20.00    -0.189 NA
ENDROOT
BRANCH   2   6
HETATM    6  C4  UNL     1     -33.663   8.152   5.286  1.00 20.00     0.175 C 
HETATM    7 CL7  UNL     1     -32.208   8.651   4.416  1.00 20.00    -0.124 Cl
ENDBRANCH   2   6
TORSDOF 1
ENDMDL
MODEL 8
REMARK VINA RESULT:      -3.6     13.140     13.363
REMARK  1 active torsions:
REMARK  status: ('A' for Active; 'I' for Inactive)
REMARK    1  A    between atoms: C2_2  and  C4_4 
ROOT
HETATM    1  C1  UNL     1     -32.800  18.516   0.495  1.00 20.00     0.026 A 
HETATM    2  C2  UNL     1     -32.154  18.509  -0.669  1.00 20.00     0.068 A 
HETATM    3  C3  UNL     1     -31.755  18.748   1.516  1.00 20.00     0.203 A 
HETATM    4  N5  UNL     1     -30.804  18.709  -0.523  1.00 20.00    -0.159 NA
HETATM    5  N6  UNL     1     -30.519  18.852   0.701  1.00 20.00    -0.189 NA
ENDROOT
BRANCH   2   6
HETATM    6  C4  UNL     1     -32.736  18.312  -2.020  1.00 20.00     0.175 C 
HETATM    7 CL7  UNL     1     -33.480  16.710  -2.044  1.00 20.00    -0.124 Cl
ENDBRANCH   2   6
TORSDOF 1
ENDMDL
MODEL 9
REMARK VINA RESULT:      -3.6      2.545      3.334
REMARK  1 active torsions:
REMARK  status: ('A' for Active; 'I' for Inactive)
REMARK    1  A    between atoms: C2_2  and  C4_4 
ROOT
HETATM    1  C1  UNL     1     -32.264   7.619   3.398  1.00 20.00     0.026 A 
HETATM    2  C2  UNL     1     -33.152   6.757   3.892  1.00 20.00     0.068 A 
HETATM    3  C3  UNL     1     -32.322   8.791   4.297  1.00 20.00     0.203 A 
HETATM    4  N5  UNL     1     -33.783   7.237   5.012  1.00 20.00    -0.159 NA
HETATM    5  N6  UNL     1     -33.350   8.392   5.291  1.00 20.00    -0.189 NA
ENDROOT
BRANCH   2   6
HETATM    6  C4  UNL     1     -33.492   5.413   3.362  1.00 20.00     0.175 C 
HETATM    7 CL7  UNL     1     -34.374   4.555   4.630  1.00 20.00    -0.124 Cl
ENDBRANCH   2   6
TORSDOF 1
ENDMDL
