MODEL 1
REMARK VINA RESULT:      -4.6      0.000      0.000
REMARK  1 active torsions:
REMARK  status: ('A' for Active; 'I' for Inactive)
REMARK    1  A    between atoms: C4_4  and  C9_9 
ROOT
HETATM    1  C1  UNL     1     -33.130   6.787   3.224  1.00 20.00     0.065 A 
HETATM    2  C2  UNL     1     -33.196   7.702   5.433  1.00 20.00     0.095 A 
HETATM    3  C3  UNL     1     -31.949   8.793   3.771  1.00 20.00     0.142 A 
HETATM    4  C4  UNL     1     -33.584   6.716   4.538  1.00 20.00    -0.031 A 
HETATM    5  C5  UNL     1     -32.303   7.836   2.833  1.00 20.00     0.187 A 
HETATM    6  N10 UNL     1     -32.400   8.700   5.030  1.00 20.00    -0.371 N 
HETATM    7  O11 UNL     1     -31.875   7.917   1.628  1.00 20.00    -0.287 OA
HETATM    8  H24 UNL     1     -32.126   9.414   5.704  1.00 20.00     0.164 HD
ENDROOT
BRANCH   4   9
HETATM    9  C9  UNL     1     -34.498   5.566   4.992  1.00 20.00    -0.023 C 
HETATM   10  C6  UNL     1     -33.922   4.220   4.501  1.00 20.00     0.019 C 
HETATM   11  C7  UNL     1     -35.911   5.760   4.398  1.00 20.00     0.019 C 
HETATM   12  C8  UNL     1     -34.658   5.462   6.525  1.00 20.00     0.019 C 
ENDBRANCH   4   9
TORSDOF 1
ENDMDL
MODEL 2
REMARK VINA RESULT:      -4.5      1.527      1.900
REMARK  1 active torsions:
REMARK  status: ('A' for Active; 'I' for Inactive)
REMARK    1  A    between atoms: C4_4  and  C9_9 
ROOT
HETATM    1  C1  UNL     1     -33.216   7.723   5.103  1.00 20.00     0.065 A 
HETATM    2  C2  UNL     1     -32.953   6.421   3.115  1.00 20.00     0.095 A 
HETATM    3  C3  UNL     1     -31.783   8.445   3.330  1.00 20.00     0.142 A 
HETATM    4  C4  UNL     1     -33.533   6.588   4.364  1.00 20.00    -0.031 A 
HETATM    5  C5  UNL     1     -32.332   8.664   4.584  1.00 20.00     0.187 A 
HETATM    6  N10 UNL     1     -32.105   7.343   2.639  1.00 20.00    -0.371 N 
HETATM    7  O11 UNL     1     -32.030   9.716   5.250  1.00 20.00    -0.287 OA
HETATM    8  H24 UNL     1     -31.692   7.202   1.718  1.00 20.00     0.164 HD
ENDROOT
BRANCH   4   9
HETATM    9  C9  UNL     1     -34.507   5.535   4.918  1.00 20.00    -0.023 C 
HETATM   10  C6  UNL     1     -34.038   4.124   4.504  1.00 20.00     0.019 C 
HETATM   11  C7  UNL     1     -35.921   5.787   4.351  1.00 20.00     0.019 C 
HETATM   12  C8  UNL     1     -34.625   5.543   6.459  1.00 20.00     0.019 C 
ENDBRANCH   4   9
TORSDOF 1
ENDMDL
MODEL 3
REMARK VINA RESULT:      -4.4     12.115     12.955
REMARK  1 active torsions:
REMARK  status: ('A' for Active; 'I' for Inactive)
REMARK    1  A    between atoms: C4_4  and  C9_9 
ROOT
HETATM    1  C1  UNL     1     -31.658  18.718  -0.446  1.00 20.00     0.065 A 
HETATM    2  C2  UNL     1     -33.851  18.374   0.445  1.00 20.00     0.095 A 
HETATM    3  C3  UNL     1     -32.091  18.929   1.896  1.00 20.00     0.142 A 
HETATM    4  C4  UNL     1     -33.000  18.411  -0.650  1.00 20.00    -0.031 A 
HETATM    5  C5  UNL     1     -31.195  18.979   0.839  1.00 20.00     0.187 A 
HETATM    6  N10 UNL     1     -33.378  18.631   1.672  1.00 20.00    -0.371 N 
HETATM    7  O11 UNL     1     -29.963  19.263   1.046  1.00 20.00    -0.287 OA
HETATM    8  H24 UNL     1     -34.020  18.597   2.463  1.00 20.00     0.164 HD
ENDROOT
BRANCH   4   9
HETATM    9  C9  UNL     1     -33.533  18.118  -2.062  1.00 20.00    -0.023 C 
HETATM   10  C6  UNL     1     -35.021  18.520  -2.150  1.00 20.00     0.019 C 
HETATM   11  C7  UNL     1     -33.397  16.609  -2.366  1.00 20.00     0.019 C 
HETATM   12  C8  UNL     1     -32.788  18.878  -3.183  1.00 20.00     0.019 C 
ENDBRANCH   4   9
TORSDOF 1
ENDMDL
MODEL 4
REMARK VINA RESULT:      -4.1     12.122     13.255
REMARK  1 active torsions:
REMARK  status: ('A' for Active; 'I' for Inactive)
REMARK    1  A    between atoms: C4_4  and  C9_9 
ROOT
HETATM    1  C1  UNL     1     -33.555  15.874  -3.359  1.00 20.00     0.065 A 
HETATM    2  C2  UNL     1     -34.291  17.599  -4.844  1.00 20.00     0.095 A 
HETATM    3  C3  UNL     1     -33.975  15.424  -5.670  1.00 20.00     0.142 A 
HETATM    4  C4  UNL     1     -33.910  17.203  -3.571  1.00 20.00    -0.031 A 
HETATM    5  C5  UNL     1     -33.586  14.972  -4.418  1.00 20.00     0.187 A 
HETATM    6  N10 UNL     1     -34.312  16.709  -5.846  1.00 20.00    -0.371 N 
HETATM    7  O11 UNL     1     -33.262  13.745  -4.243  1.00 20.00    -0.287 OA
HETATM    8  H24 UNL     1     -34.593  17.021  -6.775  1.00 20.00     0.164 HD
ENDROOT
BRANCH   4   9
HETATM    9  C9  UNL     1     -33.883  18.217  -2.415  1.00 20.00    -0.023 C 
HETATM   10  C6  UNL     1     -32.757  19.246  -2.653  1.00 20.00     0.019 C 
HETATM   11  C7  UNL     1     -33.622  17.479  -1.083  1.00 20.00     0.019 C 
HETATM   12  C8  UNL     1     -35.198  19.011  -2.247  1.00 20.00     0.019 C 
ENDBRANCH   4   9
TORSDOF 1
ENDMDL
MODEL 5
REMARK VINA RESULT:      -4.0     12.315     13.481
REMARK  1 active torsions:
REMARK  status: ('A' for Active; 'I' for Inactive)
REMARK    1  A    between atoms: C4_4  and  C9_9 
ROOT
HETATM    1  C1  UNL     1     -34.710  17.104  -5.023  1.00 20.00     0.065 A 
HETATM    2  C2  UNL     1     -33.123  15.751  -3.852  1.00 20.00     0.095 A 
HETATM    3  C3  UNL     1     -33.916  15.045  -5.945  1.00 20.00     0.142 A 
HETATM    4  C4  UNL     1     -33.905  16.896  -3.907  1.00 20.00    -0.031 A 
HETATM    5  C5  UNL     1     -34.719  16.170  -6.055  1.00 20.00     0.187 A 
HETATM    6  N10 UNL     1     -33.150  14.869  -4.859  1.00 20.00    -0.371 N 
HETATM    7  O11 UNL     1     -35.455  16.345  -7.089  1.00 20.00    -0.287 OA
HETATM    8  H24 UNL     1     -32.569  14.034  -4.798  1.00 20.00     0.164 HD
ENDROOT
BRANCH   4   9
HETATM    9  C9  UNL     1     -33.880  17.914  -2.755  1.00 20.00    -0.023 C 
HETATM   10  C6  UNL     1     -33.580  17.187  -1.426  1.00 20.00     0.019 C 
HETATM   11  C7  UNL     1     -35.252  18.615  -2.652  1.00 20.00     0.019 C 
HETATM   12  C8  UNL     1     -32.814  19.020  -2.921  1.00 20.00     0.019 C 
ENDBRANCH   4   9
TORSDOF 1
ENDMDL
MODEL 6
REMARK VINA RESULT:      -3.9      8.966      9.698
REMARK  1 active torsions:
REMARK  status: ('A' for Active; 'I' for Inactive)
REMARK    1  A    between atoms: C4_4  and  C9_9 
ROOT
HETATM    1  C1  UNL     1     -40.559  12.649   4.796  1.00 20.00     0.065 A 
HETATM    2  C2  UNL     1     -39.704  12.686   7.030  1.00 20.00     0.095 A 
HETATM    3  C3  UNL     1     -38.330  11.932   5.282  1.00 20.00     0.142 A 
HETATM    4  C4  UNL     1     -40.748  12.923   6.148  1.00 20.00    -0.031 A 
HETATM    5  C5  UNL     1     -39.338  12.148   4.355  1.00 20.00     0.187 A 
HETATM    6  N10 UNL     1     -38.539  12.203   6.578  1.00 20.00    -0.371 N 
HETATM    7  O11 UNL     1     -39.146  11.890   3.115  1.00 20.00    -0.287 OA
HETATM    8  H24 UNL     1     -37.785  12.035   7.243  1.00 20.00     0.164 HD
ENDROOT
BRANCH   4   9
HETATM    9  C9  UNL     1     -42.089  13.476   6.657  1.00 20.00    -0.023 C 
HETATM   10  C6  UNL     1     -43.001  12.309   7.094  1.00 20.00     0.019 C 
HETATM   11  C7  UNL     1     -42.785  14.269   5.529  1.00 20.00     0.019 C 
HETATM   12  C8  UNL     1     -41.953  14.428   7.868  1.00 20.00     0.019 C 
ENDBRANCH   4   9
TORSDOF 1
ENDMDL
MODEL 7
REMARK VINA RESULT:      -3.7     12.461     14.202
REMARK  1 active torsions:
REMARK  status: ('A' for Active; 'I' for Inactive)
REMARK    1  A    between atoms: C4_4  and  C9_9 
ROOT
HETATM    1  C1  UNL     1     -34.468  16.815  -4.534  1.00 20.00     0.065 A 
HETATM    2  C2  UNL     1     -34.108  15.295  -6.346  1.00 20.00     0.095 A 
HETATM    3  C3  UNL     1     -33.054  14.902  -4.285  1.00 20.00     0.142 A 
HETATM    4  C4  UNL     1     -34.712  16.442  -5.853  1.00 20.00    -0.031 A 
HETATM    5  C5  UNL     1     -33.630  16.039  -3.739  1.00 20.00     0.187 A 
HETATM    6  N10 UNL     1     -33.306  14.566  -5.558  1.00 20.00    -0.371 N 
HETATM    7  O11 UNL     1     -33.393  16.367  -2.524  1.00 20.00    -0.287 OA
HETATM    8  H24 UNL     1     -32.871  13.727  -5.940  1.00 20.00     0.164 HD
ENDROOT
BRANCH   4   9
HETATM    9  C9  UNL     1     -35.634  17.285  -6.750  1.00 20.00    -0.023 C 
HETATM   10  C6  UNL     1     -36.565  16.356  -7.557  1.00 20.00     0.019 C 
HETATM   11  C7  UNL     1     -34.782  18.124  -7.728  1.00 20.00     0.019 C 
HETATM   12  C8  UNL     1     -36.535  18.270  -5.970  1.00 20.00     0.019 C 
ENDBRANCH   4   9
TORSDOF 1
ENDMDL
MODEL 8
REMARK VINA RESULT:      -3.7     11.895     13.333
REMARK  1 active torsions:
REMARK  status: ('A' for Active; 'I' for Inactive)
REMARK    1  A    between atoms: C4_4  and  C9_9 
ROOT
HETATM    1  C1  UNL     1     -33.537  16.608  -3.207  1.00 20.00     0.065 A 
HETATM    2  C2  UNL     1     -34.254  17.916  -5.076  1.00 20.00     0.095 A 
HETATM    3  C3  UNL     1     -33.199  18.974  -3.266  1.00 20.00     0.142 A 
HETATM    4  C4  UNL     1     -34.142  16.679  -4.458  1.00 20.00    -0.031 A 
HETATM    5  C5  UNL     1     -33.059  17.765  -2.601  1.00 20.00     0.187 A 
HETATM    6  N10 UNL     1     -33.785  19.015  -4.470  1.00 20.00    -0.371 N 
HETATM    7  O11 UNL     1     -32.500  17.719  -1.449  1.00 20.00    -0.287 OA
HETATM    8  H24 UNL     1     -33.879  19.914  -4.941  1.00 20.00     0.164 HD
ENDROOT
BRANCH   4   9
HETATM    9  C9  UNL     1     -34.677  15.412  -5.146  1.00 20.00    -0.023 C 
HETATM   10  C6  UNL     1     -34.448  14.189  -4.232  1.00 20.00     0.019 C 
HETATM   11  C7  UNL     1     -33.934  15.193  -6.482  1.00 20.00     0.019 C 
HETATM   12  C8  UNL     1     -36.188  15.466  -5.467  1.00 20.00     0.019 C 
ENDBRANCH   4   9
TORSDOF 1
ENDMDL
MODEL 9
REMARK VINA RESULT:      -3.6     11.911     13.374
REMARK  1 active torsions:
REMARK  status: ('A' for Active; 'I' for Inactive)
REMARK    1  A    between atoms: C4_4  and  C9_9 
ROOT
HETATM    1  C1  UNL     1     -33.509  16.636  -3.170  1.00 20.00     0.065 A 
HETATM    2  C2  UNL     1     -34.231  17.970  -5.019  1.00 20.00     0.095 A 
HETATM    3  C3  UNL     1     -33.194  19.007  -3.185  1.00 20.00     0.142 A 
HETATM    4  C4  UNL     1     -34.110  16.724  -4.423  1.00 20.00    -0.031 A 
HETATM    5  C5  UNL     1     -33.046  17.788  -2.541  1.00 20.00     0.187 A 
HETATM    6  N10 UNL     1     -33.776  19.063  -4.391  1.00 20.00    -0.371 N 
HETATM    7  O11 UNL     1     -32.492  17.726  -1.388  1.00 20.00    -0.287 OA
HETATM    8  H24 UNL     1     -33.877  19.969  -4.847  1.00 20.00     0.164 HD
ENDROOT
BRANCH   4   9
HETATM    9  C9  UNL     1     -34.629  15.464  -5.135  1.00 20.00    -0.023 C 
HETATM   10  C6  UNL     1     -36.137  15.619  -5.431  1.00 20.00     0.019 C 
HETATM   11  C7  UNL     1     -34.414  14.230  -4.231  1.00 20.00     0.019 C 
HETATM   12  C8  UNL     1     -33.927  15.171  -6.480  1.00 20.00     0.019 C 
ENDBRANCH   4   9
TORSDOF 1
ENDMDL
