MODEL 1
REMARK VINA RESULT:      -4.6      0.000      0.000
REMARK  2 active torsions:
REMARK  status: ('A' for Active; 'I' for Inactive)
REMARK    1  A    between atoms: C7_7  and  O10_10 
REMARK    2  A    between atoms: C9_9  and  O10_10 
ROOT
HETATM    1  C1  UNL     1     -32.873   8.448   5.030  1.00 20.00     0.000 C 
HETATM    2  C2  UNL     1     -33.911   7.485   5.311  1.00 20.00     0.022 C 
HETATM    3  C3  UNL     1     -32.065   8.308   3.967  1.00 20.00     0.008 C 
HETATM    4  C4  UNL     1     -33.939   6.303   4.678  1.00 20.00     0.048 C 
HETATM    5  C7  UNL     1     -32.175   7.133   3.035  1.00 20.00     0.184 C 
HETATM    6  C8  UNL     1     -32.909   5.922   3.650  1.00 20.00     0.247 C 
HETATM    7  F11 UNL     1     -33.460   5.194   2.636  1.00 20.00    -0.240 F 
HETATM    8 CL12 UNL     1     -35.151   5.131   5.037  1.00 20.00    -0.086 Cl
ENDROOT
BRANCH   5   9
HETATM    9  O10 UNL     1     -32.870   7.585   1.872  1.00 20.00    -0.373 OA
BRANCH   9  10
HETATM   10  C9  UNL     1     -32.129   8.583   1.186  1.00 20.00     0.122 A 
HETATM   11  C5  UNL     1     -32.562   8.879  -0.220  1.00 20.00     0.034 A 
HETATM   12  C6  UNL     1     -32.866   9.855   0.879  1.00 20.00     0.034 A 
ENDBRANCH   9  10
ENDBRANCH   5   9
TORSDOF 2
ENDMDL
MODEL 2
REMARK VINA RESULT:      -4.3     11.367     12.272
REMARK  2 active torsions:
REMARK  status: ('A' for Active; 'I' for Inactive)
REMARK    1  A    between atoms: C7_7  and  O10_10 
REMARK    2  A    between atoms: C9_9  and  O10_10 
ROOT
HETATM    1  C1  UNL     1     -34.009  14.488  -4.289  1.00 20.00     0.000 C 
HETATM    2  C2  UNL     1     -35.211  14.734  -5.050  1.00 20.00     0.022 C 
HETATM    3  C3  UNL     1     -33.268  15.501  -3.814  1.00 20.00     0.008 C 
HETATM    4  C4  UNL     1     -35.486  15.960  -5.519  1.00 20.00     0.048 C 
HETATM    5  C7  UNL     1     -33.628  16.938  -4.073  1.00 20.00     0.184 C 
HETATM    6  C8  UNL     1     -34.574  17.131  -5.278  1.00 20.00     0.247 C 
HETATM    7  F11 UNL     1     -35.279  18.283  -5.089  1.00 20.00    -0.240 F 
HETATM    8 CL12 UNL     1     -36.898  16.253  -6.463  1.00 20.00    -0.086 Cl
ENDROOT
BRANCH   5   9
HETATM    9  O10 UNL     1     -34.244  17.435  -2.885  1.00 20.00    -0.373 OA
BRANCH   9  10
HETATM   10  C9  UNL     1     -33.494  17.086  -1.732  1.00 20.00     0.122 A 
HETATM   11  C5  UNL     1     -32.513  18.113  -1.244  1.00 20.00     0.034 A 
HETATM   12  C6  UNL     1     -33.789  17.877  -0.490  1.00 20.00     0.034 A 
ENDBRANCH   9  10
ENDBRANCH   5   9
TORSDOF 2
ENDMDL
MODEL 3
REMARK VINA RESULT:      -4.1     10.305     11.243
REMARK  2 active torsions:
REMARK  status: ('A' for Active; 'I' for Inactive)
REMARK    1  A    between atoms: C7_7  and  O10_10 
REMARK    2  A    between atoms: C9_9  and  O10_10 
ROOT
HETATM    1  C1  UNL     1     -43.264  12.651   8.080  1.00 20.00     0.000 C 
HETATM    2  C2  UNL     1     -42.897  13.784   8.896  1.00 20.00     0.022 C 
HETATM    3  C3  UNL     1     -42.569  12.336   6.977  1.00 20.00     0.008 C 
HETATM    4  C4  UNL     1     -42.020  14.695   8.449  1.00 20.00     0.048 C 
HETATM    5  C7  UNL     1     -41.396  13.156   6.515  1.00 20.00     0.184 C 
HETATM    6  C8  UNL     1     -41.375  14.587   7.095  1.00 20.00     0.247 C 
HETATM    7  F11 UNL     1     -40.083  15.021   7.120  1.00 20.00    -0.240 F 
HETATM    8 CL12 UNL     1     -41.607  16.072   9.401  1.00 20.00    -0.086 Cl
ENDROOT
BRANCH   5   9
HETATM    9  O10 UNL     1     -40.216  12.455   6.906  1.00 20.00    -0.373 OA
BRANCH   9  10
HETATM   10  C9  UNL     1     -39.742  11.622   5.859  1.00 20.00     0.122 A 
HETATM   11  C5  UNL     1     -39.606  12.267   4.510  1.00 20.00     0.034 A 
HETATM   12  C6  UNL     1     -38.380  11.954   5.319  1.00 20.00     0.034 A 
ENDBRANCH   9  10
ENDBRANCH   5   9
TORSDOF 2
ENDMDL
MODEL 4
REMARK VINA RESULT:      -4.1     11.191     11.768
REMARK  2 active torsions:
REMARK  status: ('A' for Active; 'I' for Inactive)
REMARK    1  A    between atoms: C7_7  and  O10_10 
REMARK    2  A    between atoms: C9_9  and  O10_10 
ROOT
HETATM    1  C1  UNL     1     -34.281  19.154   0.608  1.00 20.00     0.000 C 
HETATM    2  C2  UNL     1     -33.252  18.919   1.592  1.00 20.00     0.022 C 
HETATM    3  C3  UNL     1     -34.027  19.039  -0.705  1.00 20.00     0.008 C 
HETATM    4  C4  UNL     1     -31.964  18.829   1.228  1.00 20.00     0.048 C 
HETATM    5  C7  UNL     1     -32.658  18.691  -1.221  1.00 20.00     0.184 C 
HETATM    6  C8  UNL     1     -31.527  18.960  -0.205  1.00 20.00     0.247 C 
HETATM    7  F11 UNL     1     -30.487  18.124  -0.490  1.00 20.00    -0.240 F 
HETATM    8 CL12 UNL     1     -30.724  18.589   2.401  1.00 20.00    -0.086 Cl
ENDROOT
BRANCH   5   9
HETATM    9  O10 UNL     1     -32.682  17.307  -1.570  1.00 20.00    -0.373 OA
BRANCH   9  10
HETATM   10  C9  UNL     1     -33.737  17.022  -2.475  1.00 20.00     0.122 A 
HETATM   11  C5  UNL     1     -33.467  17.321  -3.921  1.00 20.00     0.034 A 
HETATM   12  C6  UNL     1     -33.490  15.899  -3.441  1.00 20.00     0.034 A 
ENDBRANCH   9  10
ENDBRANCH   5   9
TORSDOF 2
ENDMDL
MODEL 5
REMARK VINA RESULT:      -4.0     10.619     11.482
REMARK  2 active torsions:
REMARK  status: ('A' for Active; 'I' for Inactive)
REMARK    1  A    between atoms: C7_7  and  O10_10 
REMARK    2  A    between atoms: C9_9  and  O10_10 
ROOT
HETATM    1  C1  UNL     1     -40.289  15.321   8.445  1.00 20.00     0.000 C 
HETATM    2  C2  UNL     1     -40.833  16.461   7.745  1.00 20.00     0.022 C 
HETATM    3  C3  UNL     1     -40.498  14.071   8.004  1.00 20.00     0.008 C 
HETATM    4  C4  UNL     1     -41.762  16.300   6.791  1.00 20.00     0.048 C 
HETATM    5  C7  UNL     1     -41.328  13.788   6.783  1.00 20.00     0.184 C 
HETATM    6  C8  UNL     1     -42.278  14.942   6.399  1.00 20.00     0.247 C 
HETATM    7  F11 UNL     1     -42.524  14.869   5.059  1.00 20.00    -0.240 F 
HETATM    8 CL12 UNL     1     -42.446  17.657   5.979  1.00 20.00    -0.086 Cl
ENDROOT
BRANCH   5   9
HETATM    9  O10 UNL     1     -40.422  13.526   5.712  1.00 20.00    -0.373 OA
BRANCH   9  10
HETATM   10  C9  UNL     1     -39.910  12.204   5.782  1.00 20.00     0.122 A 
HETATM   11  C5  UNL     1     -39.400  11.621   4.496  1.00 20.00     0.034 A 
HETATM   12  C6  UNL     1     -38.433  12.056   5.558  1.00 20.00     0.034 A 
ENDBRANCH   9  10
ENDBRANCH   5   9
TORSDOF 2
ENDMDL
MODEL 6
REMARK VINA RESULT:      -3.9     13.965     14.871
REMARK  2 active torsions:
REMARK  status: ('A' for Active; 'I' for Inactive)
REMARK    1  A    between atoms: C7_7  and  O10_10 
REMARK    2  A    between atoms: C9_9  and  O10_10 
ROOT
HETATM    1  C1  UNL     1     -24.402  -1.418  12.245  1.00 20.00     0.000 C 
HETATM    2  C2  UNL     1     -25.707  -0.820  12.094  1.00 20.00     0.022 C 
HETATM    3  C3  UNL     1     -24.082  -2.556  11.611  1.00 20.00     0.008 C 
HETATM    4  C4  UNL     1     -26.712  -1.504  11.529  1.00 20.00     0.048 C 
HETATM    5  C7  UNL     1     -25.068  -3.284  10.739  1.00 20.00     0.184 C 
HETATM    6  C8  UNL     1     -26.538  -2.909  11.021  1.00 20.00     0.247 C 
HETATM    7  F11 UNL     1     -27.262  -3.124   9.885  1.00 20.00    -0.240 F 
HETATM    8 CL12 UNL     1     -28.285  -0.812  11.382  1.00 20.00    -0.086 Cl
ENDROOT
BRANCH   5   9
HETATM    9  O10 UNL     1     -24.737  -2.973   9.385  1.00 20.00    -0.373 OA
BRANCH   9  10
HETATM   10  C9  UNL     1     -23.376  -3.265   9.107  1.00 20.00     0.122 A 
HETATM   11  C5  UNL     1     -23.105  -4.581   8.437  1.00 20.00     0.034 A 
HETATM   12  C6  UNL     1     -22.994  -3.305   7.655  1.00 20.00     0.034 A 
ENDBRANCH   9  10
ENDBRANCH   5   9
TORSDOF 2
ENDMDL
MODEL 7
REMARK VINA RESULT:      -3.7     11.756     12.324
REMARK  2 active torsions:
REMARK  status: ('A' for Active; 'I' for Inactive)
REMARK    1  A    between atoms: C7_7  and  O10_10 
REMARK    2  A    between atoms: C9_9  and  O10_10 
ROOT
HETATM    1  C1  UNL     1     -35.686  19.119  -3.454  1.00 20.00     0.000 C 
HETATM    2  C2  UNL     1     -35.374  18.833  -2.073  1.00 20.00     0.022 C 
HETATM    3  C3  UNL     1     -35.019  18.522  -4.454  1.00 20.00     0.008 C 
HETATM    4  C4  UNL     1     -34.258  18.167  -1.746  1.00 20.00     0.048 C 
HETATM    5  C7  UNL     1     -33.898  17.553  -4.194  1.00 20.00     0.184 C 
HETATM    6  C8  UNL     1     -33.283  17.681  -2.784  1.00 20.00     0.247 C 
HETATM    7  F11 UNL     1     -32.744  16.477  -2.439  1.00 20.00    -0.240 F 
HETATM    8 CL12 UNL     1     -33.858  17.858  -0.098  1.00 20.00    -0.086 Cl
ENDROOT
BRANCH   5   9
HETATM    9  O10 UNL     1     -34.430  16.240  -4.376  1.00 20.00    -0.373 OA
BRANCH   9  10
HETATM   10  C9  UNL     1     -35.024  16.099  -5.657  1.00 20.00     0.122 A 
HETATM   11  C5  UNL     1     -34.315  15.191  -6.619  1.00 20.00     0.034 A 
HETATM   12  C6  UNL     1     -35.593  14.745  -5.972  1.00 20.00     0.034 A 
ENDBRANCH   9  10
ENDBRANCH   5   9
TORSDOF 2
ENDMDL
MODEL 8
REMARK VINA RESULT:      -3.6     11.464     12.543
REMARK  2 active torsions:
REMARK  status: ('A' for Active; 'I' for Inactive)
REMARK    1  A    between atoms: C7_7  and  O10_10 
REMARK    2  A    between atoms: C9_9  and  O10_10 
ROOT
HETATM    1  C1  UNL     1     -35.382  18.592  -4.678  1.00 20.00     0.000 C 
HETATM    2  C2  UNL     1     -34.924  17.486  -5.484  1.00 20.00     0.022 C 
HETATM    3  C3  UNL     1     -34.976  18.740  -3.407  1.00 20.00     0.008 C 
HETATM    4  C4  UNL     1     -34.290  16.446  -4.924  1.00 20.00     0.048 C 
HETATM    5  C7  UNL     1     -34.053  17.753  -2.749  1.00 20.00     0.184 C 
HETATM    6  C8  UNL     1     -34.018  16.376  -3.446  1.00 20.00     0.247 C 
HETATM    7  F11 UNL     1     -32.813  15.793  -3.186  1.00 20.00    -0.240 F 
HETATM    8 CL12 UNL     1     -33.775  15.103  -5.874  1.00 20.00    -0.086 Cl
ENDROOT
BRANCH   5   9
HETATM    9  O10 UNL     1     -32.748  18.333  -2.752  1.00 20.00    -0.373 OA
BRANCH   9  10
HETATM   10  C9  UNL     1     -32.499  19.046  -1.550  1.00 20.00     0.122 A 
HETATM   11  C5  UNL     1     -32.910  18.363  -0.278  1.00 20.00     0.034 A 
HETATM   12  C6  UNL     1     -31.457  18.460  -0.641  1.00 20.00     0.034 A 
ENDBRANCH   9  10
ENDBRANCH   5   9
TORSDOF 2
ENDMDL
MODEL 9
REMARK VINA RESULT:      -3.5     10.812     11.752
REMARK  2 active torsions:
REMARK  status: ('A' for Active; 'I' for Inactive)
REMARK    1  A    between atoms: C7_7  and  O10_10 
REMARK    2  A    between atoms: C9_9  and  O10_10 
ROOT
HETATM    1  C1  UNL     1     -42.794  15.261   7.008  1.00 20.00     0.000 C 
HETATM    2  C2  UNL     1     -43.201  15.017   8.371  1.00 20.00     0.022 C 
HETATM    3  C3  UNL     1     -41.528  15.056   6.614  1.00 20.00     0.008 C 
HETATM    4  C4  UNL     1     -42.288  14.825   9.335  1.00 20.00     0.048 C 
HETATM    5  C7  UNL     1     -40.463  14.594   7.570  1.00 20.00     0.184 C 
HETATM    6  C8  UNL     1     -40.811  14.847   9.053  1.00 20.00     0.247 C 
HETATM    7  F11 UNL     1     -40.143  13.932   9.813  1.00 20.00    -0.240 F 
HETATM    8 CL12 UNL     1     -42.765  14.574  10.972  1.00 20.00    -0.086 Cl
ENDROOT
BRANCH   5   9
HETATM    9  O10 UNL     1     -40.277  13.196   7.345  1.00 20.00    -0.373 OA
BRANCH   9  10
HETATM   10  C9  UNL     1     -39.993  12.928   5.981  1.00 20.00     0.122 A 
HETATM   11  C5  UNL     1     -38.680  12.256   5.698  1.00 20.00     0.034 A 
HETATM   12  C6  UNL     1     -39.959  11.479   5.588  1.00 20.00     0.034 A 
ENDBRANCH   9  10
ENDBRANCH   5   9
TORSDOF 2
ENDMDL
