MODEL 1
REMARK VINA RESULT:      -5.2      0.000      0.000
REMARK  1 active torsions:
REMARK  status: ('A' for Active; 'I' for Inactive)
REMARK    1  A    between atoms: C3_3  and  C6_6 
ROOT
HETATM    1  C1  UNL     1     -33.695   7.208   5.423  1.00 20.00     0.055 A 
HETATM    2  C2  UNL     1     -34.765   5.097   5.659  1.00 20.00     0.160 A 
HETATM    3  C3  UNL     1     -33.201   6.786   4.194  1.00 20.00    -0.001 A 
HETATM    4  C4  UNL     1     -34.493   6.353   6.176  1.00 20.00     0.134 A 
HETATM    5  C5  UNL     1     -33.531   5.509   3.766  1.00 20.00     0.133 A 
HETATM    6  N7  UNL     1     -34.303   4.651   4.470  1.00 20.00    -0.245 NA
HETATM    7  F8  UNL     1     -34.980   6.732   7.363  1.00 20.00    -0.205 F 
HETATM    8 CL9  UNL     1     -32.981   4.873   2.265  1.00 20.00    -0.062 Cl
ENDROOT
BRANCH   3   9
HETATM    9  C6  UNL     1     -32.348   7.707   3.389  1.00 20.00     0.156 C 
HETATM   10 CL10 UNL     1     -32.263   9.311   4.151  1.00 20.00    -0.125 Cl
ENDBRANCH   3   9
TORSDOF 1
ENDMDL
MODEL 2
REMARK VINA RESULT:      -5.2      2.502      3.305
REMARK  1 active torsions:
REMARK  status: ('A' for Active; 'I' for Inactive)
REMARK    1  A    between atoms: C3_3  and  C6_6 
ROOT
HETATM    1  C1  UNL     1     -33.556   7.621   5.164  1.00 20.00     0.055 A 
HETATM    2  C2  UNL     1     -31.861   8.213   3.604  1.00 20.00     0.160 A 
HETATM    3  C3  UNL     1     -33.783   6.461   4.431  1.00 20.00    -0.001 A 
HETATM    4  C4  UNL     1     -32.579   8.520   4.749  1.00 20.00     0.134 A 
HETATM    5  C5  UNL     1     -33.010   6.247   3.300  1.00 20.00     0.133 A 
HETATM    6  N7  UNL     1     -32.052   7.097   2.866  1.00 20.00    -0.245 NA
HETATM    7  F8  UNL     1     -32.342   9.645   5.433  1.00 20.00    -0.205 F 
HETATM    8 CL9  UNL     1     -33.196   4.852   2.312  1.00 20.00    -0.062 Cl
ENDROOT
BRANCH   3   9
HETATM    9  C6  UNL     1     -34.830   5.500   4.882  1.00 20.00     0.156 C 
HETATM   10 CL10 UNL     1     -34.808   5.330   6.652  1.00 20.00    -0.125 Cl
ENDBRANCH   3   9
TORSDOF 1
ENDMDL
MODEL 3
REMARK VINA RESULT:      -4.9      2.894      4.086
REMARK  1 active torsions:
REMARK  status: ('A' for Active; 'I' for Inactive)
REMARK    1  A    between atoms: C3_3  and  C6_6 
ROOT
HETATM    1  C1  UNL     1     -33.704   5.716   4.011  1.00 20.00     0.055 A 
HETATM    2  C2  UNL     1     -32.220   6.682   2.424  1.00 20.00     0.160 A 
HETATM    3  C3  UNL     1     -33.539   6.845   4.807  1.00 20.00    -0.001 A 
HETATM    4  C4  UNL     1     -33.035   5.626   2.796  1.00 20.00     0.134 A 
HETATM    5  C5  UNL     1     -32.701   7.847   4.345  1.00 20.00     0.133 A 
HETATM    6  N7  UNL     1     -32.035   7.794   3.170  1.00 20.00    -0.245 NA
HETATM    7  F8  UNL     1     -33.174   4.550   2.012  1.00 20.00    -0.205 F 
HETATM    8 CL9  UNL     1     -32.416   9.290   5.237  1.00 20.00    -0.062 Cl
ENDROOT
BRANCH   3   9
HETATM    9  C6  UNL     1     -34.261   6.938   6.108  1.00 20.00     0.156 C 
HETATM   10 CL10 UNL     1     -34.812   5.333   6.639  1.00 20.00    -0.125 Cl
ENDBRANCH   3   9
TORSDOF 1
ENDMDL
MODEL 4
REMARK VINA RESULT:      -4.6      2.668      3.144
REMARK  1 active torsions:
REMARK  status: ('A' for Active; 'I' for Inactive)
REMARK    1  A    between atoms: C3_3  and  C6_6 
ROOT
HETATM    1  C1  UNL     1     -32.749   6.416   3.109  1.00 20.00     0.055 A 
HETATM    2  C2  UNL     1     -33.997   4.574   3.952  1.00 20.00     0.160 A 
HETATM    3  C3  UNL     1     -33.082   7.127   4.257  1.00 20.00    -0.001 A 
HETATM    4  C4  UNL     1     -33.212   5.114   2.946  1.00 20.00     0.134 A 
HETATM    5  C5  UNL     1     -33.873   6.496   5.205  1.00 20.00     0.133 A 
HETATM    6  N7  UNL     1     -34.341   5.233   5.081  1.00 20.00    -0.245 NA
HETATM    7  F8  UNL     1     -32.909   4.408   1.851  1.00 20.00    -0.205 F 
HETATM    8 CL9  UNL     1     -34.351   7.270   6.664  1.00 20.00    -0.062 Cl
ENDROOT
BRANCH   3   9
HETATM    9  C6  UNL     1     -32.582   8.521   4.429  1.00 20.00     0.156 C 
HETATM   10 CL10 UNL     1     -32.645   9.406   2.887  1.00 20.00    -0.125 Cl
ENDBRANCH   3   9
TORSDOF 1
ENDMDL
MODEL 5
REMARK VINA RESULT:      -4.5      2.126      2.728
REMARK  1 active torsions:
REMARK  status: ('A' for Active; 'I' for Inactive)
REMARK    1  A    between atoms: C3_3  and  C6_6 
ROOT
HETATM    1  C1  UNL     1     -33.677   5.949   3.712  1.00 20.00     0.055 A 
HETATM    2  C2  UNL     1     -34.421   6.353   5.935  1.00 20.00     0.160 A 
HETATM    3  C3  UNL     1     -32.938   7.125   3.778  1.00 20.00    -0.001 A 
HETATM    4  C4  UNL     1     -34.436   5.549   4.806  1.00 20.00     0.134 A 
HETATM    5  C5  UNL     1     -32.991   7.859   4.953  1.00 20.00     0.133 A 
HETATM    6  N7  UNL     1     -33.716   7.501   6.036  1.00 20.00    -0.245 NA
HETATM    7  F8  UNL     1     -35.158   4.423   4.769  1.00 20.00    -0.205 F 
HETATM    8 CL9  UNL     1     -32.122   9.329   5.157  1.00 20.00    -0.062 Cl
ENDROOT
BRANCH   3   9
HETATM    9  C6  UNL     1     -32.125   7.549   2.603  1.00 20.00     0.156 C 
HETATM   10 CL10 UNL     1     -32.766   9.053   1.904  1.00 20.00    -0.125 Cl
ENDBRANCH   3   9
TORSDOF 1
ENDMDL
MODEL 6
REMARK VINA RESULT:      -4.4      2.969      4.338
REMARK  1 active torsions:
REMARK  status: ('A' for Active; 'I' for Inactive)
REMARK    1  A    between atoms: C3_3  and  C6_6 
ROOT
HETATM    1  C1  UNL     1     -33.148   6.437   3.116  1.00 20.00     0.055 A 
HETATM    2  C2  UNL     1     -32.245   8.523   3.816  1.00 20.00     0.160 A 
HETATM    3  C3  UNL     1     -33.768   6.324   4.355  1.00 20.00    -0.001 A 
HETATM    4  C4  UNL     1     -32.369   7.554   2.834  1.00 20.00     0.134 A 
HETATM    5  C5  UNL     1     -33.581   7.349   5.270  1.00 20.00     0.133 A 
HETATM    6  N7  UNL     1     -32.832   8.449   5.031  1.00 20.00    -0.245 NA
HETATM    7  F8  UNL     1     -31.759   7.688   1.651  1.00 20.00    -0.205 F 
HETATM    8 CL9  UNL     1     -34.295   7.325   6.835  1.00 20.00    -0.062 Cl
ENDROOT
BRANCH   3   9
HETATM    9  C6  UNL     1     -34.604   5.126   4.653  1.00 20.00     0.156 C 
HETATM   10 CL10 UNL     1     -33.690   3.631   4.346  1.00 20.00    -0.125 Cl
ENDBRANCH   3   9
TORSDOF 1
ENDMDL
MODEL 7
REMARK VINA RESULT:      -4.4      2.655      3.624
REMARK  1 active torsions:
REMARK  status: ('A' for Active; 'I' for Inactive)
REMARK    1  A    between atoms: C3_3  and  C6_6 
ROOT
HETATM    1  C1  UNL     1     -32.963   7.269   3.682  1.00 20.00     0.055 A 
HETATM    2  C2  UNL     1     -33.289   8.612   5.617  1.00 20.00     0.160 A 
HETATM    3  C3  UNL     1     -33.642   6.237   4.321  1.00 20.00    -0.001 A 
HETATM    4  C4  UNL     1     -32.778   8.482   4.336  1.00 20.00     0.134 A 
HETATM    5  C5  UNL     1     -34.114   6.468   5.604  1.00 20.00     0.133 A 
HETATM    6  N7  UNL     1     -33.954   7.633   6.271  1.00 20.00    -0.245 NA
HETATM    7  F8  UNL     1     -32.126   9.490   3.746  1.00 20.00    -0.205 F 
HETATM    8 CL9  UNL     1     -34.968   5.272   6.497  1.00 20.00    -0.062 Cl
ENDROOT
BRANCH   3   9
HETATM    9  C6  UNL     1     -33.839   4.939   3.615  1.00 20.00     0.156 C 
HETATM   10 CL10 UNL     1     -32.790   4.836   2.183  1.00 20.00    -0.125 Cl
ENDBRANCH   3   9
TORSDOF 1
ENDMDL
MODEL 8
REMARK VINA RESULT:      -4.1      1.578      1.852
REMARK  1 active torsions:
REMARK  status: ('A' for Active; 'I' for Inactive)
REMARK    1  A    between atoms: C3_3  and  C6_6 
ROOT
HETATM    1  C1  UNL     1     -32.984   8.420   4.141  1.00 20.00     0.055 A 
HETATM    2  C2  UNL     1     -34.165   6.786   5.403  1.00 20.00     0.160 A 
HETATM    3  C3  UNL     1     -32.692   7.439   3.200  1.00 20.00    -0.001 A 
HETATM    4  C4  UNL     1     -33.734   8.096   5.267  1.00 20.00     0.134 A 
HETATM    5  C5  UNL     1     -33.171   6.158   3.429  1.00 20.00     0.133 A 
HETATM    6  N7  UNL     1     -33.902   5.805   4.510  1.00 20.00    -0.245 NA
HETATM    7  F8  UNL     1     -34.027   9.019   6.189  1.00 20.00    -0.205 F 
HETATM    8 CL9  UNL     1     -32.876   4.860   2.340  1.00 20.00    -0.062 Cl
ENDROOT
BRANCH   3   9
HETATM    9  C6  UNL     1     -31.890   7.792   1.994  1.00 20.00     0.156 C 
HETATM   10 CL10 UNL     1     -32.646   9.137   1.108  1.00 20.00    -0.125 Cl
ENDBRANCH   3   9
TORSDOF 1
ENDMDL
MODEL 9
REMARK VINA RESULT:      -4.0      1.966      3.069
REMARK  1 active torsions:
REMARK  status: ('A' for Active; 'I' for Inactive)
REMARK    1  A    between atoms: C3_3  and  C6_6 
ROOT
HETATM    1  C1  UNL     1     -33.858   6.368   5.000  1.00 20.00     0.055 A 
HETATM    2  C2  UNL     1     -33.213   8.631   5.346  1.00 20.00     0.160 A 
HETATM    3  C3  UNL     1     -33.258   6.421   3.746  1.00 20.00    -0.001 A 
HETATM    4  C4  UNL     1     -33.839   7.491   5.821  1.00 20.00     0.134 A 
HETATM    5  C5  UNL     1     -32.657   7.610   3.364  1.00 20.00     0.133 A 
HETATM    6  N7  UNL     1     -32.619   8.721   4.135  1.00 20.00    -0.245 NA
HETATM    7  F8  UNL     1     -34.411   7.469   7.030  1.00 20.00    -0.205 F 
HETATM    8 CL9  UNL     1     -31.884   7.799   1.840  1.00 20.00    -0.062 Cl
ENDROOT
BRANCH   3   9
HETATM    9  C6  UNL     1     -33.279   5.215   2.871  1.00 20.00     0.156 C 
HETATM   10 CL10 UNL     1     -33.722   3.767   3.804  1.00 20.00    -0.125 Cl
ENDBRANCH   3   9
TORSDOF 1
ENDMDL
