MODEL 1
REMARK VINA RESULT:      -5.2      0.000      0.000
REMARK  1 active torsions:
REMARK  status: ('A' for Active; 'I' for Inactive)
REMARK    1  A    between atoms: C1_1  and  C3_3 
ROOT
HETATM    1  C2  UNL     1     -35.469   5.824   4.530  1.00 20.00     0.098 A 
HETATM    2  C3  UNL     1     -34.048   6.349   4.507  1.00 20.00     0.133 A 
HETATM    3  C4  UNL     1     -34.349   4.992   5.034  1.00 20.00     0.255 A 
HETATM    4  F7  UNL     1     -34.240   4.711   6.378  1.00 20.00    -0.205 F 
HETATM    5  F8  UNL     1     -33.949   3.869   4.346  1.00 20.00    -0.205 F 
ENDROOT
BRANCH   2   6
HETATM    6  C1  UNL     1     -33.667   7.422   5.430  1.00 20.00     0.133 C 
HETATM    7  C5  UNL     1     -32.696   8.448   4.911  1.00 20.00     0.091 C 
HETATM    8  O6  UNL     1     -34.122   7.483   6.571  1.00 20.00    -0.298 OA
ENDBRANCH   2   6
TORSDOF 1
ENDMDL
MODEL 2
REMARK VINA RESULT:      -5.2      1.835      2.131
REMARK  1 active torsions:
REMARK  status: ('A' for Active; 'I' for Inactive)
REMARK    1  A    between atoms: C1_1  and  C3_3 
ROOT
HETATM    1  C2  UNL     1     -34.185   6.447   6.053  1.00 20.00     0.098 A 
HETATM    2  C3  UNL     1     -34.158   7.368   4.850  1.00 20.00     0.133 A 
HETATM    3  C4  UNL     1     -34.660   5.973   4.729  1.00 20.00     0.255 A 
HETATM    4  F7  UNL     1     -33.951   5.019   4.035  1.00 20.00    -0.205 F 
HETATM    5  F8  UNL     1     -35.998   5.727   4.516  1.00 20.00    -0.205 F 
ENDROOT
BRANCH   2   6
HETATM    6  C1  UNL     1     -32.868   7.731   4.257  1.00 20.00     0.133 C 
HETATM    7  C5  UNL     1     -32.171   8.931   4.838  1.00 20.00     0.091 C 
HETATM    8  O6  UNL     1     -32.378   7.085   3.332  1.00 20.00    -0.298 OA
ENDBRANCH   2   6
TORSDOF 1
ENDMDL
MODEL 3
REMARK VINA RESULT:      -5.2      1.446      1.700
REMARK  1 active torsions:
REMARK  status: ('A' for Active; 'I' for Inactive)
REMARK    1  A    between atoms: C1_1  and  C3_3 
ROOT
HETATM    1  C2  UNL     1     -35.245   6.000   4.713  1.00 20.00     0.098 A 
HETATM    2  C3  UNL     1     -33.743   6.199   4.707  1.00 20.00     0.133 A 
HETATM    3  C4  UNL     1     -34.476   5.983   5.982  1.00 20.00     0.255 A 
HETATM    4  F7  UNL     1     -34.624   6.999   6.899  1.00 20.00    -0.205 F 
HETATM    5  F8  UNL     1     -34.321   4.811   6.688  1.00 20.00    -0.205 F 
ENDROOT
BRANCH   2   6
HETATM    6  C1  UNL     1     -33.199   7.524   4.395  1.00 20.00     0.133 C 
HETATM    7  C5  UNL     1     -32.268   7.612   3.216  1.00 20.00     0.091 C 
HETATM    8  O6  UNL     1     -33.492   8.515   5.061  1.00 20.00    -0.298 OA
ENDBRANCH   2   6
TORSDOF 1
ENDMDL
MODEL 4
REMARK VINA RESULT:      -5.0      2.017      2.980
REMARK  1 active torsions:
REMARK  status: ('A' for Active; 'I' for Inactive)
REMARK    1  A    between atoms: C1_1  and  C3_3 
ROOT
HETATM    1  C2  UNL     1     -33.145   7.588   5.168  1.00 20.00     0.098 A 
HETATM    2  C3  UNL     1     -34.276   6.656   4.784  1.00 20.00     0.133 A 
HETATM    3  C4  UNL     1     -33.875   6.820   6.207  1.00 20.00     0.255 A 
HETATM    4  F7  UNL     1     -33.247   5.803   6.891  1.00 20.00    -0.205 F 
HETATM    5  F8  UNL     1     -34.703   7.465   7.098  1.00 20.00    -0.205 F 
ENDROOT
BRANCH   2   6
HETATM    6  C1  UNL     1     -33.967   5.409   4.079  1.00 20.00     0.133 C 
HETATM    7  C5  UNL     1     -33.151   5.529   2.821  1.00 20.00     0.091 C 
HETATM    8  O6  UNL     1     -34.353   4.319   4.497  1.00 20.00    -0.298 OA
ENDBRANCH   2   6
TORSDOF 1
ENDMDL
MODEL 5
REMARK VINA RESULT:      -4.6      2.474      3.343
REMARK  1 active torsions:
REMARK  status: ('A' for Active; 'I' for Inactive)
REMARK    1  A    between atoms: C1_1  and  C3_3 
ROOT
HETATM    1  C2  UNL     1     -33.835   8.517   4.435  1.00 20.00     0.098 A 
HETATM    2  C3  UNL     1     -33.559   7.339   5.347  1.00 20.00     0.133 A 
HETATM    3  C4  UNL     1     -32.698   7.603   4.163  1.00 20.00     0.255 A 
HETATM    4  F7  UNL     1     -32.722   6.770   3.067  1.00 20.00    -0.205 F 
HETATM    5  F8  UNL     1     -31.401   8.035   4.323  1.00 20.00    -0.205 F 
ENDROOT
BRANCH   2   6
HETATM    6  C1  UNL     1     -34.479   6.199   5.339  1.00 20.00     0.133 C 
HETATM    7  C5  UNL     1     -34.400   5.258   6.510  1.00 20.00     0.091 C 
HETATM    8  O6  UNL     1     -35.279   6.021   4.422  1.00 20.00    -0.298 OA
ENDBRANCH   2   6
TORSDOF 1
ENDMDL
MODEL 6
REMARK VINA RESULT:      -4.6      2.674      3.350
REMARK  1 active torsions:
REMARK  status: ('A' for Active; 'I' for Inactive)
REMARK    1  A    between atoms: C1_1  and  C3_3 
ROOT
HETATM    1  C2  UNL     1     -32.704   6.615   3.414  1.00 20.00     0.098 A 
HETATM    2  C3  UNL     1     -33.897   7.149   4.180  1.00 20.00     0.133 A 
HETATM    3  C4  UNL     1     -32.697   7.997   3.953  1.00 20.00     0.255 A 
HETATM    4  F7  UNL     1     -31.858   8.336   4.990  1.00 20.00    -0.205 F 
HETATM    5  F8  UNL     1     -32.756   9.078   3.102  1.00 20.00    -0.205 F 
ENDROOT
BRANCH   2   6
HETATM    6  C1  UNL     1     -34.176   6.627   5.521  1.00 20.00     0.133 C 
HETATM    7  C5  UNL     1     -34.621   5.192   5.609  1.00 20.00     0.091 C 
HETATM    8  O6  UNL     1     -34.050   7.326   6.525  1.00 20.00    -0.298 OA
ENDBRANCH   2   6
TORSDOF 1
ENDMDL
MODEL 7
REMARK VINA RESULT:      -4.5      2.019      2.523
REMARK  1 active torsions:
REMARK  status: ('A' for Active; 'I' for Inactive)
REMARK    1  A    between atoms: C1_1  and  C3_3 
ROOT
HETATM    1  C2  UNL     1     -35.574   5.836   4.612  1.00 20.00     0.098 A 
HETATM    2  C3  UNL     1     -34.179   5.269   4.445  1.00 20.00     0.133 A 
HETATM    3  C4  UNL     1     -34.581   5.940   5.709  1.00 20.00     0.255 A 
HETATM    4  F7  UNL     1     -34.060   7.164   6.063  1.00 20.00    -0.205 F 
HETATM    5  F8  UNL     1     -34.742   5.212   6.867  1.00 20.00    -0.205 F 
ENDROOT
BRANCH   2   6
HETATM    6  C1  UNL     1     -33.242   5.933   3.534  1.00 20.00     0.133 C 
HETATM    7  C5  UNL     1     -32.817   5.157   2.317  1.00 20.00     0.091 C 
HETATM    8  O6  UNL     1     -32.827   7.070   3.751  1.00 20.00    -0.298 OA
ENDBRANCH   2   6
TORSDOF 1
ENDMDL
MODEL 8
REMARK VINA RESULT:      -4.2      1.920      2.127
REMARK  1 active torsions:
REMARK  status: ('A' for Active; 'I' for Inactive)
REMARK    1  A    between atoms: C1_1  and  C3_3 
ROOT
HETATM    1  C2  UNL     1     -33.315   5.558   2.745  1.00 20.00     0.098 A 
HETATM    2  C3  UNL     1     -32.869   6.243   4.021  1.00 20.00     0.133 A 
HETATM    3  C4  UNL     1     -34.077   5.376   4.006  1.00 20.00     0.255 A 
HETATM    4  F7  UNL     1     -35.339   5.911   4.140  1.00 20.00    -0.205 F 
HETATM    5  F8  UNL     1     -34.075   4.161   4.653  1.00 20.00    -0.205 F 
ENDROOT
BRANCH   2   6
HETATM    6  C1  UNL     1     -33.017   7.697   4.141  1.00 20.00     0.133 C 
HETATM    7  C5  UNL     1     -33.641   8.210   5.409  1.00 20.00     0.091 C 
HETATM    8  O6  UNL     1     -32.646   8.459   3.250  1.00 20.00    -0.298 OA
ENDBRANCH   2   6
TORSDOF 1
ENDMDL
MODEL 9
REMARK VINA RESULT:      -4.2      1.840      2.044
REMARK  1 active torsions:
REMARK  status: ('A' for Active; 'I' for Inactive)
REMARK    1  A    between atoms: C1_1  and  C3_3 
ROOT
HETATM    1  C2  UNL     1     -33.884   4.462   4.369  1.00 20.00     0.098 A 
HETATM    2  C3  UNL     1     -34.506   5.843   4.346  1.00 20.00     0.133 A 
HETATM    3  C4  UNL     1     -33.474   5.456   3.347  1.00 20.00     0.255 A 
HETATM    4  F7  UNL     1     -32.213   6.006   3.377  1.00 20.00    -0.205 F 
HETATM    5  F8  UNL     1     -33.813   5.279   2.025  1.00 20.00    -0.205 F 
ENDROOT
BRANCH   2   6
HETATM    6  C1  UNL     1     -34.170   6.795   5.409  1.00 20.00     0.133 C 
HETATM    7  C5  UNL     1     -33.583   8.111   4.977  1.00 20.00     0.091 C 
HETATM    8  O6  UNL     1     -34.362   6.532   6.595  1.00 20.00    -0.298 OA
ENDBRANCH   2   6
TORSDOF 1
ENDMDL
