MODEL 1
REMARK VINA RESULT:      -6.7      0.000      0.000
REMARK  0 active torsions:
REMARK  status: ('A' for Active; 'I' for Inactive)
ROOT
HETATM    1  C1  UNL     1     -32.320   6.650   2.596  1.00 20.00     0.047 C 
HETATM    2  C2  UNL     1     -32.218   7.722   3.573  1.00 20.00     0.042 C 
HETATM    3  C3  UNL     1     -34.627   6.351   6.017  1.00 20.00     0.010 C 
HETATM    4  C4  UNL     1     -34.602   5.015   5.967  1.00 20.00     0.114 C 
HETATM    5  C5  UNL     1     -33.088   5.578   2.823  1.00 20.00     0.142 C 
HETATM    6  C6  UNL     1     -33.104   7.832   4.579  1.00 20.00     0.107 C 
HETATM    7  C7  UNL     1     -33.845   5.554   4.084  1.00 20.00     0.087 C 
HETATM    8  C8  UNL     1     -34.259   6.891   4.682  1.00 20.00     0.127 C 
HETATM    9  N9  UNL     1     -34.139   4.500   4.783  1.00 20.00    -0.262 NA
HETATM   10  F10 UNL     1     -33.127   4.493   2.034  1.00 20.00    -0.204 F 
HETATM   11  F11 UNL     1     -32.974   8.839   5.469  1.00 20.00    -0.210 F 
ENDROOT
TORSDOF 0
ENDMDL
MODEL 2
REMARK VINA RESULT:      -6.6      1.670      3.909
REMARK  0 active torsions:
REMARK  status: ('A' for Active; 'I' for Inactive)
ROOT
HETATM    1  C1  UNL     1     -34.618   5.097   5.595  1.00 20.00     0.047 C 
HETATM    2  C2  UNL     1     -34.010   4.508   4.413  1.00 20.00     0.042 C 
HETATM    3  C3  UNL     1     -32.333   7.562   3.183  1.00 20.00     0.010 C 
HETATM    4  C4  UNL     1     -31.998   8.336   4.220  1.00 20.00     0.114 C 
HETATM    5  C5  UNL     1     -34.398   6.377   5.921  1.00 20.00     0.142 C 
HETATM    6  C6  UNL     1     -33.469   5.278   3.453  1.00 20.00     0.107 C 
HETATM    7  C7  UNL     1     -33.546   7.160   5.013  1.00 20.00     0.087 C 
HETATM    8  C8  UNL     1     -33.536   6.767   3.542  1.00 20.00     0.127 C 
HETATM    9  N9  UNL     1     -32.739   8.118   5.353  1.00 20.00    -0.262 NA
HETATM   10  F10 UNL     1     -34.813   6.950   7.061  1.00 20.00    -0.204 F 
HETATM   11  F11 UNL     1     -32.909   4.693   2.372  1.00 20.00    -0.210 F 
ENDROOT
TORSDOF 0
ENDMDL
MODEL 3
REMARK VINA RESULT:      -6.4      1.607      2.035
REMARK  0 active torsions:
REMARK  status: ('A' for Active; 'I' for Inactive)
ROOT
HETATM    1  C1  UNL     1     -32.385   8.447   4.130  1.00 20.00     0.047 C 
HETATM    2  C2  UNL     1     -32.942   8.314   5.466  1.00 20.00     0.042 C 
HETATM    3  C3  UNL     1     -34.644   5.076   4.939  1.00 20.00     0.010 C 
HETATM    4  C4  UNL     1     -33.960   4.354   4.045  1.00 20.00     0.114 C 
HETATM    5  C5  UNL     1     -32.550   7.485   3.213  1.00 20.00     0.142 C 
HETATM    6  C6  UNL     1     -33.883   7.392   5.738  1.00 20.00     0.107 C 
HETATM    7  C7  UNL     1     -33.343   6.313   3.611  1.00 20.00     0.087 C 
HETATM    8  C8  UNL     1     -34.430   6.520   4.657  1.00 20.00     0.127 C 
HETATM    9  N9  UNL     1     -33.164   5.092   3.208  1.00 20.00    -0.262 NA
HETATM   10  F10 UNL     1     -31.955   7.477   2.010  1.00 20.00    -0.204 F 
HETATM   11  F11 UNL     1     -34.373   7.297   6.993  1.00 20.00    -0.210 F 
ENDROOT
TORSDOF 0
ENDMDL
MODEL 4
REMARK VINA RESULT:      -6.3      1.988      3.327
REMARK  0 active torsions:
REMARK  status: ('A' for Active; 'I' for Inactive)
ROOT
HETATM    1  C1  UNL     1     -33.469   8.286   5.736  1.00 20.00     0.047 C 
HETATM    2  C2  UNL     1     -34.011   7.132   6.434  1.00 20.00     0.042 C 
HETATM    3  C3  UNL     1     -33.912   4.778   3.587  1.00 20.00     0.010 C 
HETATM    4  C4  UNL     1     -32.891   5.094   2.783  1.00 20.00     0.114 C 
HETATM    5  C5  UNL     1     -33.074   8.200   4.459  1.00 20.00     0.142 C 
HETATM    6  C6  UNL     1     -34.419   6.041   5.761  1.00 20.00     0.107 C 
HETATM    7  C7  UNL     1     -33.246   6.899   3.795  1.00 20.00     0.087 C 
HETATM    8  C8  UNL     1     -34.388   6.010   4.269  1.00 20.00     0.127 C 
HETATM    9  N9  UNL     1     -32.473   6.396   2.881  1.00 20.00    -0.262 NA
HETATM   10  F10 UNL     1     -32.444   9.179   3.794  1.00 20.00    -0.204 F 
HETATM   11  F11 UNL     1     -34.913   4.987   6.447  1.00 20.00    -0.210 F 
ENDROOT
TORSDOF 0
ENDMDL
MODEL 5
REMARK VINA RESULT:      -6.3      1.691      2.893
REMARK  0 active torsions:
REMARK  status: ('A' for Active; 'I' for Inactive)
ROOT
HETATM    1  C1  UNL     1     -34.344   4.914   4.397  1.00 20.00     0.047 C 
HETATM    2  C2  UNL     1     -34.817   5.663   5.550  1.00 20.00     0.042 C 
HETATM    3  C3  UNL     1     -32.710   8.658   5.054  1.00 20.00     0.010 C 
HETATM    4  C4  UNL     1     -32.488   8.835   3.747  1.00 20.00     0.114 C 
HETATM    5  C5  UNL     1     -33.454   5.442   3.547  1.00 20.00     0.142 C 
HETATM    6  C6  UNL     1     -34.171   6.762   5.977  1.00 20.00     0.107 C 
HETATM    7  C7  UNL     1     -32.958   6.792   3.853  1.00 20.00     0.087 C 
HETATM    8  C8  UNL     1     -32.908   7.208   5.317  1.00 20.00     0.127 C 
HETATM    9  N9  UNL     1     -32.620   7.700   2.990  1.00 20.00    -0.262 NA
HETATM   10  F10 UNL     1     -33.076   4.868   2.395  1.00 20.00    -0.204 F 
HETATM   11  F11 UNL     1     -34.644   7.433   7.050  1.00 20.00    -0.210 F 
ENDROOT
TORSDOF 0
ENDMDL
MODEL 6
REMARK VINA RESULT:      -5.2      1.678      3.043
REMARK  0 active torsions:
REMARK  status: ('A' for Active; 'I' for Inactive)
ROOT
HETATM    1  C1  UNL     1     -33.221   8.667   5.138  1.00 20.00     0.047 C 
HETATM    2  C2  UNL     1     -32.747   8.819   3.772  1.00 20.00     0.042 C 
HETATM    3  C3  UNL     1     -33.074   5.277   2.769  1.00 20.00     0.010 C 
HETATM    4  C4  UNL     1     -34.088   4.717   3.437  1.00 20.00     0.114 C 
HETATM    5  C5  UNL     1     -33.649   7.483   5.593  1.00 20.00     0.142 C 
HETATM    6  C6  UNL     1     -32.432   7.748   3.022  1.00 20.00     0.107 C 
HETATM    7  C7  UNL     1     -33.585   6.347   4.661  1.00 20.00     0.087 C 
HETATM    8  C8  UNL     1     -32.498   6.371   3.595  1.00 20.00     0.127 C 
HETATM    9  N9  UNL     1     -34.411   5.347   4.611  1.00 20.00    -0.262 NA
HETATM   10  F10 UNL     1     -34.224   7.296   6.791  1.00 20.00    -0.204 F 
HETATM   11  F11 UNL     1     -31.998   7.931   1.756  1.00 20.00    -0.210 F 
ENDROOT
TORSDOF 0
ENDMDL
MODEL 7
REMARK VINA RESULT:      -5.1      0.985      3.016
REMARK  0 active torsions:
REMARK  status: ('A' for Active; 'I' for Inactive)
ROOT
HETATM    1  C1  UNL     1     -32.171   8.018   3.298  1.00 20.00     0.047 C 
HETATM    2  C2  UNL     1     -32.381   6.896   2.398  1.00 20.00     0.042 C 
HETATM    3  C3  UNL     1     -34.455   4.855   4.675  1.00 20.00     0.010 C 
HETATM    4  C4  UNL     1     -35.159   5.659   5.479  1.00 20.00     0.114 C 
HETATM    5  C5  UNL     1     -32.745   8.050   4.508  1.00 20.00     0.142 C 
HETATM    6  C6  UNL     1     -32.890   5.733   2.843  1.00 20.00     0.107 C 
HETATM    7  C7  UNL     1     -33.563   6.890   4.890  1.00 20.00     0.087 C 
HETATM    8  C8  UNL     1     -33.193   5.539   4.292  1.00 20.00     0.127 C 
HETATM    9  N9  UNL     1     -34.623   6.911   5.639  1.00 20.00    -0.262 NA
HETATM   10  F10 UNL     1     -32.707   9.106   5.335  1.00 20.00    -0.204 F 
HETATM   11  F11 UNL     1     -33.074   4.716   1.974  1.00 20.00    -0.210 F 
ENDROOT
TORSDOF 0
ENDMDL
MODEL 8
REMARK VINA RESULT:      -5.1      1.362      2.877
REMARK  0 active torsions:
REMARK  status: ('A' for Active; 'I' for Inactive)
ROOT
HETATM    1  C1  UNL     1     -34.661   5.377   5.627  1.00 20.00     0.047 C 
HETATM    2  C2  UNL     1     -34.739   6.775   6.019  1.00 20.00     0.042 C 
HETATM    3  C3  UNL     1     -32.365   8.094   3.513  1.00 20.00     0.010 C 
HETATM    4  C4  UNL     1     -32.420   7.343   2.408  1.00 20.00     0.114 C 
HETATM    5  C5  UNL     1     -33.917   4.993   4.582  1.00 20.00     0.142 C 
HETATM    6  C6  UNL     1     -33.852   7.676   5.561  1.00 20.00     0.107 C 
HETATM    7  C7  UNL     1     -33.163   6.041   3.878  1.00 20.00     0.087 C 
HETATM    8  C8  UNL     1     -32.718   7.252   4.686  1.00 20.00     0.127 C 
HETATM    9  N9  UNL     1     -32.893   6.072   2.609  1.00 20.00    -0.262 NA
HETATM   10  F10 UNL     1     -33.902   3.748   4.081  1.00 20.00    -0.204 F 
HETATM   11  F11 UNL     1     -33.961   8.966   5.946  1.00 20.00    -0.210 F 
ENDROOT
TORSDOF 0
ENDMDL
MODEL 9
REMARK VINA RESULT:      -4.1      9.648     10.703
REMARK  0 active torsions:
REMARK  status: ('A' for Active; 'I' for Inactive)
ROOT
HETATM    1  C1  UNL     1     -42.067  15.061   5.945  1.00 20.00     0.047 C 
HETATM    2  C2  UNL     1     -41.262  14.975   7.153  1.00 20.00     0.042 C 
HETATM    3  C3  UNL     1     -39.336  11.964   6.212  1.00 20.00     0.010 C 
HETATM    4  C4  UNL     1     -39.184  11.929   4.884  1.00 20.00     0.114 C 
HETATM    5  C5  UNL     1     -41.889  14.203   4.932  1.00 20.00     0.142 C 
HETATM    6  C6  UNL     1     -40.541  13.874   7.430  1.00 20.00     0.107 C 
HETATM    7  C7  UNL     1     -40.871  13.157   5.115  1.00 20.00     0.087 C 
HETATM    8  C8  UNL     1     -40.598  12.680   6.534  1.00 20.00     0.127 C 
HETATM    9  N9  UNL     1     -40.124  12.643   4.186  1.00 20.00    -0.262 NA
HETATM   10  F10 UNL     1     -42.496  14.303   3.740  1.00 20.00    -0.204 F 
HETATM   11  F11 UNL     1     -39.803  13.834   8.560  1.00 20.00    -0.210 F 
ENDROOT
TORSDOF 0
ENDMDL
