MODEL 1
REMARK VINA RESULT:      -5.0      0.000      0.000
REMARK  1 active torsions:
REMARK  status: ('A' for Active; 'I' for Inactive)
REMARK    1  A    between atoms: C2_2  and  C7_7 
ROOT
HETATM    1  C1  UNL     1     -32.292   8.592   4.417  1.00 20.00     0.149 A 
HETATM    2  C2  UNL     1     -32.633   7.522   3.539  1.00 20.00    -0.001 A 
HETATM    3  C3  UNL     1     -33.466   6.748   4.295  1.00 20.00     0.039 A 
HETATM    4  C4  UNL     1     -34.279   5.519   4.274  1.00 20.00     0.061 C 
HETATM    5  C5  UNL     1     -34.586   5.317   5.785  1.00 20.00     0.028 C 
HETATM    6  C6  UNL     1     -34.407   6.694   6.456  1.00 20.00     0.151 C 
HETATM    7  N8  UNL     1     -32.869   8.493   5.627  1.00 20.00    -0.184 NA
HETATM    8  N9  UNL     1     -33.560   7.366   5.496  1.00 20.00    -0.274 N 
ENDROOT
BRANCH   2   9
HETATM    9  C7  UNL     1     -32.193   7.310   2.153  1.00 20.00     0.156 C 
HETATM   10 CL10 UNL     1     -32.433   8.777   1.163  1.00 20.00    -0.125 Cl
ENDBRANCH   2   9
TORSDOF 1
ENDMDL
MODEL 2
REMARK VINA RESULT:      -4.8      2.703      3.930
REMARK  1 active torsions:
REMARK  status: ('A' for Active; 'I' for Inactive)
REMARK    1  A    between atoms: C2_2  and  C7_7 
ROOT
HETATM    1  C1  UNL     1     -33.236   5.318   2.986  1.00 20.00     0.149 A 
HETATM    2  C2  UNL     1     -33.930   5.719   4.165  1.00 20.00    -0.001 A 
HETATM    3  C3  UNL     1     -33.474   6.987   4.383  1.00 20.00     0.039 A 
HETATM    4  C4  UNL     1     -33.594   8.146   5.285  1.00 20.00     0.061 C 
HETATM    5  C5  UNL     1     -32.366   9.003   4.864  1.00 20.00     0.028 C 
HETATM    6  C6  UNL     1     -31.988   8.555   3.437  1.00 20.00     0.151 C 
HETATM    7  N8  UNL     1     -32.411   6.265   2.506  1.00 20.00    -0.184 NA
HETATM    8  N9  UNL     1     -32.595   7.243   3.386  1.00 20.00    -0.274 N 
ENDROOT
BRANCH   2   9
HETATM    9  C7  UNL     1     -34.904   4.947   4.951  1.00 20.00     0.156 C 
HETATM   10 CL10 UNL     1     -34.741   5.284   6.698  1.00 20.00    -0.125 Cl
ENDBRANCH   2   9
TORSDOF 1
ENDMDL
MODEL 3
REMARK VINA RESULT:      -4.7      1.484      2.166
REMARK  1 active torsions:
REMARK  status: ('A' for Active; 'I' for Inactive)
REMARK    1  A    between atoms: C2_2  and  C7_7 
ROOT
HETATM    1  C1  UNL     1     -32.737   6.395   2.645  1.00 20.00     0.149 A 
HETATM    2  C2  UNL     1     -32.816   7.453   3.598  1.00 20.00    -0.001 A 
HETATM    3  C3  UNL     1     -33.469   6.878   4.651  1.00 20.00     0.039 A 
HETATM    4  C4  UNL     1     -33.980   7.141   6.008  1.00 20.00     0.061 C 
HETATM    5  C5  UNL     1     -34.899   5.908   6.243  1.00 20.00     0.028 C 
HETATM    6  C6  UNL     1     -34.418   4.811   5.272  1.00 20.00     0.151 C 
HETATM    7  N8  UNL     1     -33.295   5.250   3.072  1.00 20.00    -0.184 NA
HETATM    8  N9  UNL     1     -33.720   5.600   4.281  1.00 20.00    -0.274 N 
ENDROOT
BRANCH   2   9
HETATM    9  C7  UNL     1     -32.313   8.828   3.471  1.00 20.00     0.156 C 
HETATM   10 CL10 UNL     1     -32.816   9.564   1.924  1.00 20.00    -0.125 Cl
ENDBRANCH   2   9
TORSDOF 1
ENDMDL
MODEL 4
REMARK VINA RESULT:      -4.6      1.337      1.337
REMARK  1 active torsions:
REMARK  status: ('A' for Active; 'I' for Inactive)
REMARK    1  A    between atoms: C2_2  and  C7_7 
ROOT
HETATM    1  C1  UNL     1     -32.317   8.362   4.195  1.00 20.00     0.149 A 
HETATM    2  C2  UNL     1     -32.779   7.164   3.576  1.00 20.00    -0.001 A 
HETATM    3  C3  UNL     1     -33.594   6.614   4.524  1.00 20.00     0.039 A 
HETATM    4  C4  UNL     1     -34.470   5.463   4.803  1.00 20.00     0.061 C 
HETATM    5  C5  UNL     1     -34.674   5.588   6.340  1.00 20.00     0.028 C 
HETATM    6  C6  UNL     1     -34.373   7.055   6.705  1.00 20.00     0.151 C 
HETATM    7  N8  UNL     1     -32.806   8.545   5.434  1.00 20.00    -0.184 NA
HETATM    8  N9  UNL     1     -33.565   7.464   5.577  1.00 20.00    -0.274 N 
ENDROOT
BRANCH   2   9
HETATM    9  C7  UNL     1     -32.454   6.651   2.238  1.00 20.00     0.156 C 
HETATM   10 CL10 UNL     1     -32.787   4.900   2.115  1.00 20.00    -0.125 Cl
ENDBRANCH   2   9
TORSDOF 1
ENDMDL
MODEL 5
REMARK VINA RESULT:      -4.2      2.479      3.521
REMARK  1 active torsions:
REMARK  status: ('A' for Active; 'I' for Inactive)
REMARK    1  A    between atoms: C2_2  and  C7_7 
ROOT
HETATM    1  C1  UNL     1     -32.939   8.680   5.250  1.00 20.00     0.149 A 
HETATM    2  C2  UNL     1     -33.562   7.415   5.453  1.00 20.00    -0.001 A 
HETATM    3  C3  UNL     1     -33.256   6.727   4.314  1.00 20.00     0.039 A 
HETATM    4  C4  UNL     1     -33.430   5.431   3.634  1.00 20.00     0.061 C 
HETATM    5  C5  UNL     1     -32.979   5.771   2.185  1.00 20.00     0.028 C 
HETATM    6  C6  UNL     1     -32.090   7.027   2.287  1.00 20.00     0.151 C 
HETATM    7  N8  UNL     1     -32.292   8.774   4.075  1.00 20.00    -0.184 NA
HETATM    8  N9  UNL     1     -32.518   7.572   3.556  1.00 20.00    -0.274 N 
ENDROOT
BRANCH   2   9
HETATM    9  C7  UNL     1     -34.344   6.964   6.613  1.00 20.00     0.156 C 
HETATM   10 CL10 UNL     1     -34.799   5.243   6.461  1.00 20.00    -0.125 Cl
ENDBRANCH   2   9
TORSDOF 1
ENDMDL
MODEL 6
REMARK VINA RESULT:      -4.1      1.585      3.127
REMARK  1 active torsions:
REMARK  status: ('A' for Active; 'I' for Inactive)
REMARK    1  A    between atoms: C2_2  and  C7_7 
ROOT
HETATM    1  C1  UNL     1     -34.544   6.039   5.972  1.00 20.00     0.149 A 
HETATM    2  C2  UNL     1     -33.969   5.785   4.692  1.00 20.00    -0.001 A 
HETATM    3  C3  UNL     1     -33.259   6.923   4.435  1.00 20.00     0.039 A 
HETATM    4  C4  UNL     1     -32.385   7.570   3.441  1.00 20.00     0.061 C 
HETATM    5  C5  UNL     1     -32.376   9.043   3.939  1.00 20.00     0.028 C 
HETATM    6  C6  UNL     1     -32.768   9.003   5.430  1.00 20.00     0.151 C 
HETATM    7  N8  UNL     1     -34.216   7.241   6.475  1.00 20.00    -0.184 NA
HETATM    8  N9  UNL     1     -33.445   7.728   5.508  1.00 20.00    -0.274 N 
ENDROOT
BRANCH   2   9
HETATM    9  C7  UNL     1     -34.110   4.584   3.856  1.00 20.00     0.156 C 
HETATM   10 CL10 UNL     1     -32.943   4.594   2.504  1.00 20.00    -0.125 Cl
ENDBRANCH   2   9
TORSDOF 1
ENDMDL
MODEL 7
REMARK VINA RESULT:      -4.1      2.053      3.150
REMARK  1 active torsions:
REMARK  status: ('A' for Active; 'I' for Inactive)
REMARK    1  A    between atoms: C2_2  and  C7_7 
ROOT
HETATM    1  C1  UNL     1     -34.505   6.381   6.408  1.00 20.00     0.149 A 
HETATM    2  C2  UNL     1     -33.889   7.277   5.486  1.00 20.00    -0.001 A 
HETATM    3  C3  UNL     1     -33.624   6.484   4.407  1.00 20.00     0.039 A 
HETATM    4  C4  UNL     1     -33.047   6.489   3.051  1.00 20.00     0.061 C 
HETATM    5  C5  UNL     1     -32.895   4.968   2.766  1.00 20.00     0.028 C 
HETATM    6  C6  UNL     1     -33.876   4.245   3.711  1.00 20.00     0.151 C 
HETATM    7  N8  UNL     1     -34.617   5.126   5.939  1.00 20.00    -0.184 NA
HETATM    8  N9  UNL     1     -34.069   5.248   4.735  1.00 20.00    -0.274 N 
ENDROOT
BRANCH   2   9
HETATM    9  C7  UNL     1     -33.612   8.709   5.661  1.00 20.00     0.156 C 
HETATM   10 CL10 UNL     1     -32.084   9.177   4.861  1.00 20.00    -0.125 Cl
ENDBRANCH   2   9
TORSDOF 1
ENDMDL
MODEL 8
REMARK VINA RESULT:      -3.7      1.539      2.607
REMARK  1 active torsions:
REMARK  status: ('A' for Active; 'I' for Inactive)
REMARK    1  A    between atoms: C2_2  and  C7_7 
ROOT
HETATM    1  C1  UNL     1     -34.215   4.525   4.273  1.00 20.00     0.149 A 
HETATM    2  C2  UNL     1     -33.464   5.554   3.634  1.00 20.00    -0.001 A 
HETATM    3  C3  UNL     1     -33.491   6.574   4.542  1.00 20.00     0.039 A 
HETATM    4  C4  UNL     1     -33.029   7.952   4.784  1.00 20.00     0.061 C 
HETATM    5  C5  UNL     1     -33.901   8.368   6.003  1.00 20.00     0.028 C 
HETATM    6  C6  UNL     1     -34.362   7.060   6.679  1.00 20.00     0.151 C 
HETATM    7  N8  UNL     1     -34.675   4.875   5.486  1.00 20.00    -0.184 NA
HETATM    8  N9  UNL     1     -34.210   6.116   5.594  1.00 20.00    -0.274 N 
ENDROOT
BRANCH   2   9
HETATM    9  C7  UNL     1     -32.815   5.519   2.315  1.00 20.00     0.156 C 
HETATM   10 CL10 UNL     1     -32.164   7.121   1.869  1.00 20.00    -0.125 Cl
ENDBRANCH   2   9
TORSDOF 1
ENDMDL
MODEL 9
REMARK VINA RESULT:      -3.7     12.175     12.414
REMARK  1 active torsions:
REMARK  status: ('A' for Active; 'I' for Inactive)
REMARK    1  A    between atoms: C2_2  and  C7_7 
ROOT
HETATM    1  C1  UNL     1     -34.710  19.016   0.241  1.00 20.00     0.149 A 
HETATM    2  C2  UNL     1     -33.715  18.630  -0.703  1.00 20.00    -0.001 A 
HETATM    3  C3  UNL     1     -32.561  18.654   0.027  1.00 20.00     0.039 A 
HETATM    4  C4  UNL     1     -31.108  18.423  -0.052  1.00 20.00     0.061 C 
HETATM    5  C5  UNL     1     -30.612  19.074   1.270  1.00 20.00     0.028 C 
HETATM    6  C6  UNL     1     -31.826  19.121   2.219  1.00 20.00     0.151 C 
HETATM    7  N8  UNL     1     -34.215  19.262   1.467  1.00 20.00    -0.184 NA
HETATM    8  N9  UNL     1     -32.921  19.030   1.277  1.00 20.00    -0.274 N 
ENDROOT
BRANCH   2   9
HETATM    9  C7  UNL     1     -33.894  18.287  -2.121  1.00 20.00     0.156 C 
HETATM   10 CL10 UNL     1     -33.447  16.586  -2.439  1.00 20.00    -0.125 Cl
ENDBRANCH   2   9
TORSDOF 1
ENDMDL
