MODEL 1
REMARK VINA RESULT:      -4.1      0.000      0.000
REMARK  2 active torsions:
REMARK  status: ('A' for Active; 'I' for Inactive)
REMARK    1  A    between atoms: C7_7  and  O10_10 
REMARK    2  A    between atoms: C8_8  and  O10_10 
ROOT
HETATM    1  C1  UNL     1     -31.601  18.921  -0.335  1.00 20.00     0.153 C 
HETATM    2  C2  UNL     1     -32.884  18.853  -2.210  1.00 20.00     0.121 C 
HETATM    3  C3  UNL     1     -32.537  18.405   0.470  1.00 20.00     0.114 C 
HETATM    4  C4  UNL     1     -33.914  18.111  -0.028  1.00 20.00     0.109 C 
HETATM    5  C7  UNL     1     -33.935  17.992  -1.547  1.00 20.00     0.168 C 
HETATM    6  N9  UNL     1     -31.787  19.263  -1.649  1.00 20.00    -0.272 NA
HETATM    7  F11 UNL     1     -32.226  18.133   1.756  1.00 20.00    -0.209 F 
ENDROOT
BRANCH   5   8
HETATM    8  O10 UNL     1     -33.636  16.655  -1.925  1.00 20.00    -0.375 OA
BRANCH   8   9
HETATM    9  C8  UNL     1     -33.252  16.573  -3.291  1.00 20.00     0.122 A 
HETATM   10  C5  UNL     1     -33.127  15.189  -3.862  1.00 20.00     0.034 A 
HETATM   11  C6  UNL     1     -34.293  16.054  -4.240  1.00 20.00     0.034 A 
ENDBRANCH   8   9
ENDBRANCH   5   8
TORSDOF 2
ENDMDL
MODEL 2
REMARK VINA RESULT:      -4.0      3.233      5.098
REMARK  2 active torsions:
REMARK  status: ('A' for Active; 'I' for Inactive)
REMARK    1  A    between atoms: C7_7  and  O10_10 
REMARK    2  A    between atoms: C8_8  and  O10_10 
ROOT
HETATM    1  C1  UNL     1     -35.574  15.907  -5.194  1.00 20.00     0.153 C 
HETATM    2  C2  UNL     1     -33.875  17.233  -4.474  1.00 20.00     0.121 C 
HETATM    3  C3  UNL     1     -35.001  14.760  -4.813  1.00 20.00     0.114 C 
HETATM    4  C4  UNL     1     -33.623  14.732  -4.239  1.00 20.00     0.109 C 
HETATM    5  C7  UNL     1     -33.220  16.105  -3.711  1.00 20.00     0.168 C 
HETATM    6  N9  UNL     1     -34.984  17.142  -5.144  1.00 20.00    -0.272 NA
HETATM    7  F11 UNL     1     -35.689  13.604  -4.937  1.00 20.00    -0.209 F 
ENDROOT
BRANCH   5   8
HETATM    8  O10 UNL     1     -33.654  16.244  -2.365  1.00 20.00    -0.375 OA
BRANCH   8   9
HETATM    9  C8  UNL     1     -33.629  17.602  -1.947  1.00 20.00     0.122 A 
HETATM   10  C5  UNL     1     -33.745  17.842  -0.468  1.00 20.00     0.034 A 
HETATM   11  C6  UNL     1     -32.425  18.027  -1.157  1.00 20.00     0.034 A 
ENDBRANCH   8   9
ENDBRANCH   5   8
TORSDOF 2
ENDMDL
MODEL 3
REMARK VINA RESULT:      -3.7     10.794     11.491
REMARK  2 active torsions:
REMARK  status: ('A' for Active; 'I' for Inactive)
REMARK    1  A    between atoms: C7_7  and  O10_10 
REMARK    2  A    between atoms: C8_8  and  O10_10 
ROOT
HETATM    1  C1  UNL     1     -34.325   6.542   4.807  1.00 20.00     0.153 C 
HETATM    2  C2  UNL     1     -33.045   5.537   3.221  1.00 20.00     0.121 C 
HETATM    3  C3  UNL     1     -33.582   7.652   4.877  1.00 20.00     0.114 C 
HETATM    4  C4  UNL     1     -32.313   7.788   4.099  1.00 20.00     0.109 C 
HETATM    5  C7  UNL     1     -32.276   6.806   2.934  1.00 20.00     0.168 C 
HETATM    6  N9  UNL     1     -34.015   5.425   4.077  1.00 20.00    -0.272 NA
HETATM    7  F11 UNL     1     -33.993   8.677   5.655  1.00 20.00    -0.209 F 
ENDROOT
BRANCH   5   8
HETATM    8  O10 UNL     1     -32.900   7.390   1.799  1.00 20.00    -0.375 OA
BRANCH   8   9
HETATM    9  C8  UNL     1     -32.170   8.513   1.324  1.00 20.00     0.122 A 
HETATM   10  C5  UNL     1     -32.596   9.065  -0.007  1.00 20.00     0.034 A 
HETATM   11  C6  UNL     1     -32.924   9.809   1.254  1.00 20.00     0.034 A 
ENDBRANCH   8   9
ENDBRANCH   5   8
TORSDOF 2
ENDMDL
MODEL 4
REMARK VINA RESULT:      -3.7     11.010     11.793
REMARK  2 active torsions:
REMARK  status: ('A' for Active; 'I' for Inactive)
REMARK    1  A    between atoms: C7_7  and  O10_10 
REMARK    2  A    between atoms: C8_8  and  O10_10 
ROOT
HETATM    1  C1  UNL     1     -41.020  16.201   7.371  1.00 20.00     0.153 C 
HETATM    2  C2  UNL     1     -42.312  15.110   5.854  1.00 20.00     0.121 C 
HETATM    3  C3  UNL     1     -40.630  15.095   8.015  1.00 20.00     0.114 C 
HETATM    4  C4  UNL     1     -41.170  13.751   7.649  1.00 20.00     0.109 C 
HETATM    5  C7  UNL     1     -41.755  13.760   6.241  1.00 20.00     0.168 C 
HETATM    6  N9  UNL     1     -41.950  16.246   6.366  1.00 20.00    -0.272 NA
HETATM    7  F11 UNL     1     -39.718  15.194   9.007  1.00 20.00    -0.209 F 
ENDROOT
BRANCH   5   8
HETATM    8  O10 UNL     1     -40.730  13.477   5.298  1.00 20.00    -0.375 OA
BRANCH   8   9
HETATM    9  C8  UNL     1     -40.170  12.188   5.508  1.00 20.00     0.122 A 
HETATM   10  C5  UNL     1     -39.323  11.645   4.393  1.00 20.00     0.034 A 
HETATM   11  C6  UNL     1     -38.677  12.133   5.656  1.00 20.00     0.034 A 
ENDBRANCH   8   9
ENDBRANCH   5   8
TORSDOF 2
ENDMDL
MODEL 5
REMARK VINA RESULT:      -3.7     11.965     12.919
REMARK  2 active torsions:
REMARK  status: ('A' for Active; 'I' for Inactive)
REMARK    1  A    between atoms: C7_7  and  O10_10 
REMARK    2  A    between atoms: C8_8  and  O10_10 
ROOT
HETATM    1  C1  UNL     1     -42.005  14.674   8.525  1.00 20.00     0.153 C 
HETATM    2  C2  UNL     1     -41.729  14.331   6.296  1.00 20.00     0.121 C 
HETATM    3  C3  UNL     1     -42.631  13.513   8.749  1.00 20.00     0.114 C 
HETATM    4  C4  UNL     1     -42.977  12.587   7.629  1.00 20.00     0.109 C 
HETATM    5  C7  UNL     1     -42.128  12.877   6.396  1.00 20.00     0.168 C 
HETATM    6  N9  UNL     1     -41.650  15.158   7.293  1.00 20.00    -0.272 NA
HETATM    7  F11 UNL     1     -42.944  13.164  10.016  1.00 20.00    -0.209 F 
ENDROOT
BRANCH   5   8
HETATM    8  O10 UNL     1     -40.912  12.145   6.473  1.00 20.00    -0.375 OA
BRANCH   8   9
HETATM    9  C8  UNL     1     -39.959  12.617   5.529  1.00 20.00     0.122 A 
HETATM   10  C5  UNL     1     -38.558  12.100   5.687  1.00 20.00     0.034 A 
HETATM   11  C6  UNL     1     -39.421  11.598   4.568  1.00 20.00     0.034 A 
ENDBRANCH   8   9
ENDBRANCH   5   8
TORSDOF 2
ENDMDL
MODEL 6
REMARK VINA RESULT:      -3.6      2.861      5.097
REMARK  2 active torsions:
REMARK  status: ('A' for Active; 'I' for Inactive)
REMARK    1  A    between atoms: C7_7  and  O10_10 
REMARK    2  A    between atoms: C8_8  and  O10_10 
ROOT
HETATM    1  C1  UNL     1     -33.948  17.596  -0.674  1.00 20.00     0.153 C 
HETATM    2  C2  UNL     1     -33.356  19.253   0.763  1.00 20.00     0.121 C 
HETATM    3  C3  UNL     1     -32.824  17.655  -1.397  1.00 20.00     0.114 C 
HETATM    4  C4  UNL     1     -31.781  18.691  -1.129  1.00 20.00     0.109 C 
HETATM    5  C7  UNL     1     -31.925  19.263   0.277  1.00 20.00     0.168 C 
HETATM    6  N9  UNL     1     -34.288  18.459   0.333  1.00 20.00    -0.272 NA
HETATM    7  F11 UNL     1     -32.621  16.752  -2.381  1.00 20.00    -0.209 F 
ENDROOT
BRANCH   5   8
HETATM    8  O10 UNL     1     -31.198  18.458   1.195  1.00 20.00    -0.375 OA
BRANCH   8   9
HETATM    9  C8  UNL     1     -30.507  19.252   2.150  1.00 20.00     0.122 A 
HETATM   10  C5  UNL     1     -30.793  18.950   3.594  1.00 20.00     0.034 A 
HETATM   11  C6  UNL     1     -29.485  18.538   2.987  1.00 20.00     0.034 A 
ENDBRANCH   8   9
ENDBRANCH   5   8
TORSDOF 2
ENDMDL
MODEL 7
REMARK VINA RESULT:      -3.5      4.247      6.027
REMARK  2 active torsions:
REMARK  status: ('A' for Active; 'I' for Inactive)
REMARK    1  A    between atoms: C7_7  and  O10_10 
REMARK    2  A    between atoms: C8_8  and  O10_10 
ROOT
HETATM    1  C1  UNL     1     -35.735  14.912  -6.572  1.00 20.00     0.153 C 
HETATM    2  C2  UNL     1     -36.903  16.640  -5.670  1.00 20.00     0.121 C 
HETATM    3  C3  UNL     1     -34.594  15.596  -6.709  1.00 20.00     0.114 C 
HETATM    4  C4  UNL     1     -34.515  17.051  -6.380  1.00 20.00     0.109 C 
HETATM    5  C7  UNL     1     -35.657  17.467  -5.459  1.00 20.00     0.168 C 
HETATM    6  N9  UNL     1     -36.932  15.441  -6.167  1.00 20.00    -0.272 NA
HETATM    7  F11 UNL     1     -33.486  14.955  -7.141  1.00 20.00    -0.209 F 
ENDROOT
BRANCH   5   8
HETATM    8  O10 UNL     1     -35.276  17.258  -4.105  1.00 20.00    -0.375 OA
BRANCH   8   9
HETATM    9  C8  UNL     1     -33.864  17.291  -3.950  1.00 20.00     0.122 A 
HETATM   10  C5  UNL     1     -33.355  17.444  -2.545  1.00 20.00     0.034 A 
HETATM   11  C6  UNL     1     -33.250  16.119  -3.241  1.00 20.00     0.034 A 
ENDBRANCH   8   9
ENDBRANCH   5   8
TORSDOF 2
ENDMDL
MODEL 8
REMARK VINA RESULT:      -3.5     11.201     12.244
REMARK  2 active torsions:
REMARK  status: ('A' for Active; 'I' for Inactive)
REMARK    1  A    between atoms: C7_7  and  O10_10 
REMARK    2  A    between atoms: C8_8  and  O10_10 
ROOT
HETATM    1  C1  UNL     1     -42.861  15.520   7.128  1.00 20.00     0.153 C 
HETATM    2  C2  UNL     1     -42.311  13.337   7.434  1.00 20.00     0.121 C 
HETATM    3  C3  UNL     1     -41.598  15.961   7.109  1.00 20.00     0.114 C 
HETATM    4  C4  UNL     1     -40.450  15.041   7.363  1.00 20.00     0.109 C 
HETATM    5  C7  UNL     1     -40.851  13.588   7.138  1.00 20.00     0.168 C 
HETATM    6  N9  UNL     1     -43.248  14.236   7.405  1.00 20.00    -0.272 NA
HETATM    7  F11 UNL     1     -41.356  17.263   6.842  1.00 20.00    -0.209 F 
ENDROOT
BRANCH   5   8
HETATM    8  O10 UNL     1     -40.670  13.250   5.769  1.00 20.00    -0.375 OA
BRANCH   8   9
HETATM    9  C8  UNL     1     -40.001  12.005   5.623  1.00 20.00     0.122 A 
HETATM   10  C5  UNL     1     -39.276  11.791   4.325  1.00 20.00     0.034 A 
HETATM   11  C6  UNL     1     -38.501  12.062   5.581  1.00 20.00     0.034 A 
ENDBRANCH   8   9
ENDBRANCH   5   8
TORSDOF 2
ENDMDL
MODEL 9
REMARK VINA RESULT:      -3.5     12.447     13.436
REMARK  2 active torsions:
REMARK  status: ('A' for Active; 'I' for Inactive)
REMARK    1  A    between atoms: C7_7  and  O10_10 
REMARK    2  A    between atoms: C8_8  and  O10_10 
ROOT
HETATM    1  C1  UNL     1     -40.719  14.420  10.545  1.00 20.00     0.153 C 
HETATM    2  C2  UNL     1     -40.473  14.982   8.358  1.00 20.00     0.121 C 
HETATM    3  C3  UNL     1     -41.921  13.853  10.390  1.00 20.00     0.114 C 
HETATM    4  C4  UNL     1     -42.626  13.874   9.074  1.00 20.00     0.109 C 
HETATM    5  C7  UNL     1     -41.649  14.134   7.932  1.00 20.00     0.168 C 
HETATM    6  N9  UNL     1     -40.029  15.093   9.572  1.00 20.00    -0.272 NA
HETATM    7  F11 UNL     1     -42.503  13.237  11.442  1.00 20.00    -0.209 F 
ENDROOT
BRANCH   5   8
HETATM    8  O10 UNL     1     -41.098  12.901   7.487  1.00 20.00    -0.375 OA
BRANCH   8   9
HETATM    9  C8  UNL     1     -40.086  13.106   6.511  1.00 20.00     0.122 A 
HETATM   10  C5  UNL     1     -39.442  11.867   5.955  1.00 20.00     0.034 A 
HETATM   11  C6  UNL     1     -40.410  12.650   5.118  1.00 20.00     0.034 A 
ENDBRANCH   8   9
ENDBRANCH   5   8
TORSDOF 2
ENDMDL
