MODEL 1
REMARK VINA RESULT:      -4.2      0.000      0.000
REMARK  1 active torsions:
REMARK  status: ('A' for Active; 'I' for Inactive)
REMARK    1  A    between atoms: C6_6  and  C8_8 
ROOT
HETATM    1  C1  UNL     1     -30.338  19.058   1.706  1.00 20.00     0.099 C 
HETATM    2  C2  UNL     1     -31.594  18.526  -0.323  1.00 20.00     0.031 A 
HETATM    3  C3  UNL     1     -32.782  19.130   1.691  1.00 20.00     0.046 A 
HETATM    4  C4  UNL     1     -34.009  18.603  -0.322  1.00 20.00     0.032 A 
HETATM    5  C5  UNL     1     -31.581  18.903   1.019  1.00 20.00     0.046 A 
HETATM    6  C6  UNL     1     -32.808  18.376  -0.995  1.00 20.00    -0.041 A 
HETATM    7  C7  UNL     1     -33.996  18.980   1.021  1.00 20.00     0.036 A 
HETATM    8  N9  UNL     1     -29.328  19.184   2.264  1.00 20.00    -0.191 NA
HETATM    9 CL10 UNL     1     -35.478  19.263   1.848  1.00 20.00    -0.084 Cl
ENDROOT
BRANCH   6  10
HETATM   10  C8  UNL     1     -32.821  17.975  -2.431  1.00 20.00     0.153 C 
HETATM   11 CL11 UNL     1     -33.457  16.325  -2.616  1.00 20.00    -0.126 Cl
ENDBRANCH   6  10
TORSDOF 1
ENDMDL
MODEL 2
REMARK VINA RESULT:      -4.2      2.677      3.352
REMARK  1 active torsions:
REMARK  status: ('A' for Active; 'I' for Inactive)
REMARK    1  A    between atoms: C6_6  and  C8_8 
ROOT
HETATM    1  C1  UNL     1     -35.214  19.065   1.758  1.00 20.00     0.099 C 
HETATM    2  C2  UNL     1     -34.070  18.552  -0.340  1.00 20.00     0.031 A 
HETATM    3  C3  UNL     1     -32.775  19.139   1.613  1.00 20.00     0.046 A 
HETATM    4  C4  UNL     1     -31.657  18.628  -0.468  1.00 20.00     0.032 A 
HETATM    5  C5  UNL     1     -34.010  18.918   1.004  1.00 20.00     0.046 A 
HETATM    6  C6  UNL     1     -32.894  18.407  -1.077  1.00 20.00    -0.041 A 
HETATM    7  C7  UNL     1     -31.598  18.994   0.877  1.00 20.00     0.036 A 
HETATM    8  N9  UNL     1     -36.193  19.184   2.371  1.00 20.00    -0.191 NA
HETATM    9 CL10 UNL     1     -30.074  19.263   1.628  1.00 20.00    -0.084 Cl
ENDROOT
BRANCH   6  10
HETATM   10  C8  UNL     1     -32.957  18.014  -2.515  1.00 20.00     0.153 C 
HETATM   11 CL11 UNL     1     -33.387  16.297  -2.678  1.00 20.00    -0.126 Cl
ENDBRANCH   6  10
TORSDOF 1
ENDMDL
MODEL 3
REMARK VINA RESULT:      -4.0      2.868      3.944
REMARK  1 active torsions:
REMARK  status: ('A' for Active; 'I' for Inactive)
REMARK    1  A    between atoms: C6_6  and  C8_8 
ROOT
HETATM    1  C1  UNL     1     -33.367  17.182  -2.069  1.00 20.00     0.099 C 
HETATM    2  C2  UNL     1     -31.888  18.220  -0.422  1.00 20.00     0.031 A 
HETATM    3  C3  UNL     1     -34.272  18.195  -0.036  1.00 20.00     0.046 A 
HETATM    4  C4  UNL     1     -32.798  19.215   1.584  1.00 20.00     0.032 A 
HETATM    5  C5  UNL     1     -33.174  17.871  -0.832  1.00 20.00     0.046 A 
HETATM    6  C6  UNL     1     -31.700  18.892   0.787  1.00 20.00    -0.041 A 
HETATM    7  C7  UNL     1     -34.085  18.867   1.172  1.00 20.00     0.036 A 
HETATM    8  N9  UNL     1     -33.523  16.622  -3.074  1.00 20.00    -0.191 NA
HETATM    9 CL10 UNL     1     -35.438  19.263   2.157  1.00 20.00    -0.084 Cl
ENDROOT
BRANCH   6  10
HETATM   10  C8  UNL     1     -30.323  19.263   1.228  1.00 20.00     0.153 C 
HETATM   11 CL11 UNL     1     -29.958  18.548   2.814  1.00 20.00    -0.126 Cl
ENDBRANCH   6  10
TORSDOF 1
ENDMDL
MODEL 4
REMARK VINA RESULT:      -3.9      3.099      4.192
REMARK  1 active torsions:
REMARK  status: ('A' for Active; 'I' for Inactive)
REMARK    1  A    between atoms: C6_6  and  C8_8 
ROOT
HETATM    1  C1  UNL     1     -33.434  18.163  -0.324  1.00 20.00     0.099 C 
HETATM    2  C2  UNL     1     -33.292  16.672  -2.256  1.00 20.00     0.031 A 
HETATM    3  C3  UNL     1     -34.724  18.614  -2.352  1.00 20.00     0.046 A 
HETATM    4  C4  UNL     1     -34.573  17.132  -4.253  1.00 20.00     0.032 A 
HETATM    5  C5  UNL     1     -33.820  17.813  -1.655  1.00 20.00     0.046 A 
HETATM    6  C6  UNL     1     -33.668  16.330  -3.555  1.00 20.00    -0.041 A 
HETATM    7  C7  UNL     1     -35.101  18.274  -3.651  1.00 20.00     0.036 A 
HETATM    8  N9  UNL     1     -33.120  18.447   0.757  1.00 20.00    -0.191 NA
HETATM    9 CL10 UNL     1     -36.213  19.263  -4.514  1.00 20.00    -0.084 Cl
ENDROOT
BRANCH   6  10
HETATM   10  C8  UNL     1     -33.102  15.110  -4.200  1.00 20.00     0.153 C 
HETATM   11 CL11 UNL     1     -33.910  14.786  -5.750  1.00 20.00    -0.126 Cl
ENDBRANCH   6  10
TORSDOF 1
ENDMDL
MODEL 5
REMARK VINA RESULT:      -3.9      3.791      5.404
REMARK  1 active torsions:
REMARK  status: ('A' for Active; 'I' for Inactive)
REMARK    1  A    between atoms: C6_6  and  C8_8 
ROOT
HETATM    1  C1  UNL     1     -33.297  15.020  -4.095  1.00 20.00     0.099 C 
HETATM    2  C2  UNL     1     -33.293  16.665  -2.287  1.00 20.00     0.031 A 
HETATM    3  C3  UNL     1     -34.630  17.063  -4.258  1.00 20.00     0.046 A 
HETATM    4  C4  UNL     1     -34.617  18.679  -2.462  1.00 20.00     0.032 A 
HETATM    5  C5  UNL     1     -33.743  16.259  -3.542  1.00 20.00     0.046 A 
HETATM    6  C6  UNL     1     -33.729  17.875  -1.746  1.00 20.00    -0.041 A 
HETATM    7  C7  UNL     1     -35.067  18.272  -3.718  1.00 20.00     0.036 A 
HETATM    8  N9  UNL     1     -32.934  14.013  -4.544  1.00 20.00    -0.191 NA
HETATM    9 CL10 UNL     1     -36.165  19.263  -4.598  1.00 20.00    -0.084 Cl
ENDROOT
BRANCH   6  10
HETATM   10  C8  UNL     1     -33.249  18.308  -0.401  1.00 20.00     0.153 C 
HETATM   11 CL11 UNL     1     -31.483  18.510  -0.401  1.00 20.00    -0.126 Cl
ENDBRANCH   6  10
TORSDOF 1
ENDMDL
MODEL 6
REMARK VINA RESULT:      -3.8     11.266     11.437
REMARK  1 active torsions:
REMARK  status: ('A' for Active; 'I' for Inactive)
REMARK    1  A    between atoms: C6_6  and  C8_8 
ROOT
HETATM    1  C1  UNL     1     -40.363  14.980   8.822  1.00 20.00     0.099 C 
HETATM    2  C2  UNL     1     -40.046  13.285   7.089  1.00 20.00     0.031 A 
HETATM    3  C3  UNL     1     -41.601  15.095   6.717  1.00 20.00     0.046 A 
HETATM    4  C4  UNL     1     -41.275  13.414   5.012  1.00 20.00     0.032 A 
HETATM    5  C5  UNL     1     -40.673  14.449   7.532  1.00 20.00     0.046 A 
HETATM    6  C6  UNL     1     -40.347  12.767   5.829  1.00 20.00    -0.041 A 
HETATM    7  C7  UNL     1     -41.902  14.578   5.457  1.00 20.00     0.036 A 
HETATM    8  N9  UNL     1     -40.112  15.411   9.870  1.00 20.00    -0.191 NA
HETATM    9 CL10 UNL     1     -43.044  15.377   4.448  1.00 20.00    -0.084 Cl
ENDROOT
BRANCH   6  10
HETATM   10  C8  UNL     1     -39.675  11.523   5.353  1.00 20.00     0.153 C 
HETATM   11 CL11 UNL     1     -38.990  11.760   3.730  1.00 20.00    -0.126 Cl
ENDBRANCH   6  10
TORSDOF 1
ENDMDL
MODEL 7
REMARK VINA RESULT:      -3.8      4.041      6.144
REMARK  1 active torsions:
REMARK  status: ('A' for Active; 'I' for Inactive)
REMARK    1  A    between atoms: C6_6  and  C8_8 
ROOT
HETATM    1  C1  UNL     1     -36.076  18.684  -4.752  1.00 20.00     0.099 C 
HETATM    2  C2  UNL     1     -34.783  18.425  -2.694  1.00 20.00     0.031 A 
HETATM    3  C3  UNL     1     -34.506  16.829  -4.486  1.00 20.00     0.046 A 
HETATM    4  C4  UNL     1     -33.234  16.587  -2.446  1.00 20.00     0.032 A 
HETATM    5  C5  UNL     1     -35.114  17.974  -3.971  1.00 20.00     0.046 A 
HETATM    6  C6  UNL     1     -33.842  17.732  -1.931  1.00 20.00    -0.041 A 
HETATM    7  C7  UNL     1     -33.566  16.135  -3.724  1.00 20.00     0.036 A 
HETATM    8  N9  UNL     1     -36.858  19.262  -5.387  1.00 20.00    -0.191 NA
HETATM    9 CL10 UNL     1     -32.813  14.725  -4.359  1.00 20.00    -0.084 Cl
ENDROOT
BRANCH   6  10
HETATM   10  C8  UNL     1     -33.486  18.216  -0.566  1.00 20.00     0.153 C 
HETATM   11 CL11 UNL     1     -31.726  18.417  -0.411  1.00 20.00    -0.126 Cl
ENDBRANCH   6  10
TORSDOF 1
ENDMDL
MODEL 8
REMARK VINA RESULT:      -3.8     11.306     11.816
REMARK  1 active torsions:
REMARK  status: ('A' for Active; 'I' for Inactive)
REMARK    1  A    between atoms: C6_6  and  C8_8 
ROOT
HETATM    1  C1  UNL     1     -42.801  14.630   3.780  1.00 20.00     0.099 C 
HETATM    2  C2  UNL     1     -41.080  13.363   4.968  1.00 20.00     0.031 A 
HETATM    3  C3  UNL     1     -42.288  15.107   6.122  1.00 20.00     0.046 A 
HETATM    4  C4  UNL     1     -40.586  13.847   7.284  1.00 20.00     0.032 A 
HETATM    5  C5  UNL     1     -42.050  14.365   4.966  1.00 20.00     0.046 A 
HETATM    6  C6  UNL     1     -40.348  13.104   6.127  1.00 20.00    -0.041 A 
HETATM    7  C7  UNL     1     -41.557  14.849   7.281  1.00 20.00     0.036 A 
HETATM    8  N9  UNL     1     -43.410  14.844   2.816  1.00 20.00    -0.191 NA
HETATM    9 CL10 UNL     1     -41.852  15.762   8.710  1.00 20.00    -0.084 Cl
ENDROOT
BRANCH   6  10
HETATM   10  C8  UNL     1     -39.311  12.031   6.131  1.00 20.00     0.153 C 
HETATM   11 CL11 UNL     1     -38.723  11.721   4.482  1.00 20.00    -0.126 Cl
ENDBRANCH   6  10
TORSDOF 1
ENDMDL
MODEL 9
REMARK VINA RESULT:      -3.7      3.200      4.785
REMARK  1 active torsions:
REMARK  status: ('A' for Active; 'I' for Inactive)
REMARK    1  A    between atoms: C6_6  and  C8_8 
ROOT
HETATM    1  C1  UNL     1     -33.563  18.140  -0.385  1.00 20.00     0.099 C 
HETATM    2  C2  UNL     1     -34.819  18.525  -2.446  1.00 20.00     0.031 A 
HETATM    3  C3  UNL     1     -33.308  16.647  -2.304  1.00 20.00     0.046 A 
HETATM    4  C4  UNL     1     -34.558  17.039  -4.334  1.00 20.00     0.032 A 
HETATM    5  C5  UNL     1     -33.899  17.768  -1.723  1.00 20.00     0.046 A 
HETATM    6  C6  UNL     1     -35.149  18.161  -3.752  1.00 20.00    -0.041 A 
HETATM    7  C7  UNL     1     -33.637  16.282  -3.609  1.00 20.00     0.036 A 
HETATM    8  N9  UNL     1     -33.289  18.443   0.702  1.00 20.00    -0.191 NA
HETATM    9 CL10 UNL     1     -32.912  14.896  -4.326  1.00 20.00    -0.084 Cl
ENDROOT
BRANCH   6  10
HETATM   10  C8  UNL     1     -36.135  18.970  -4.526  1.00 20.00     0.153 C 
HETATM   11 CL11 UNL     1     -37.615  18.033  -4.830  1.00 20.00    -0.126 Cl
ENDBRANCH   6  10
TORSDOF 1
ENDMDL
