MODEL 1
REMARK VINA RESULT:      -4.8      0.000      0.000
REMARK  1 active torsions:
REMARK  status: ('A' for Active; 'I' for Inactive)
REMARK    1  A    between atoms: C5_5  and  C7_7 
ROOT
HETATM    1  C1  UNL     1     -33.065   6.043   2.963  1.00 20.00     0.071 A 
HETATM    2  C2  UNL     1     -33.518   7.745   5.046  1.00 20.00     0.126 A 
HETATM    3  C3  UNL     1     -33.959   6.437   5.160  1.00 20.00    -0.006 A 
HETATM    4  C4  UNL     1     -33.725   5.576   4.094  1.00 20.00     0.125 A 
HETATM    5  C5  UNL     1     -32.664   7.369   2.948  1.00 20.00     0.051 A 
HETATM    6  C6  UNL     1     -34.662   5.971   6.386  1.00 20.00     0.053 C 
HETATM    7  N8  UNL     1     -32.874   8.235   3.964  1.00 20.00    -0.264 NA
HETATM    8  F9  UNL     1     -34.129   4.299   4.148  1.00 20.00    -0.205 F 
ENDROOT
BRANCH   5   9
HETATM    9  C7  UNL     1     -31.955   7.904   1.748  1.00 20.00     0.173 C 
HETATM   10 CL10 UNL     1     -32.771   9.358   1.134  1.00 20.00    -0.124 Cl
ENDBRANCH   5   9
TORSDOF 1
ENDMDL
MODEL 2
REMARK VINA RESULT:      -4.7      1.666      2.070
REMARK  1 active torsions:
REMARK  status: ('A' for Active; 'I' for Inactive)
REMARK    1  A    between atoms: C5_5  and  C7_7 
ROOT
HETATM    1  C1  UNL     1     -32.980   8.082   4.109  1.00 20.00     0.071 A 
HETATM    2  C2  UNL     1     -33.683   5.457   3.864  1.00 20.00     0.126 A 
HETATM    3  C3  UNL     1     -34.049   6.129   5.018  1.00 20.00    -0.006 A 
HETATM    4  C4  UNL     1     -33.687   7.467   5.136  1.00 20.00     0.125 A 
HETATM    5  C5  UNL     1     -32.661   7.322   2.996  1.00 20.00     0.051 A 
HETATM    6  C6  UNL     1     -34.806   5.439   6.097  1.00 20.00     0.053 C 
HETATM    7  N8  UNL     1     -32.996   6.021   2.846  1.00 20.00    -0.264 NA
HETATM    8  F9  UNL     1     -34.015   8.167   6.230  1.00 20.00    -0.205 F 
ENDROOT
BRANCH   5   9
HETATM    9  C7  UNL     1     -31.901   7.951   1.875  1.00 20.00     0.173 C 
HETATM   10 CL10 UNL     1     -32.775   9.361   1.237  1.00 20.00    -0.124 Cl
ENDBRANCH   5   9
TORSDOF 1
ENDMDL
MODEL 3
REMARK VINA RESULT:      -4.5      2.516      3.842
REMARK  1 active torsions:
REMARK  status: ('A' for Active; 'I' for Inactive)
REMARK    1  A    between atoms: C5_5  and  C7_7 
ROOT
HETATM    1  C1  UNL     1     -33.506   6.129   4.192  1.00 20.00     0.071 A 
HETATM    2  C2  UNL     1     -32.564   8.635   3.664  1.00 20.00     0.126 A 
HETATM    3  C3  UNL     1     -32.457   7.671   2.674  1.00 20.00    -0.006 A 
HETATM    4  C4  UNL     1     -32.939   6.397   2.951  1.00 20.00     0.125 A 
HETATM    5  C5  UNL     1     -33.565   7.162   5.114  1.00 20.00     0.051 A 
HETATM    6  C6  UNL     1     -31.845   7.994   1.357  1.00 20.00     0.053 C 
HETATM    7  N8  UNL     1     -33.107   8.412   4.881  1.00 20.00    -0.264 NA
HETATM    8  F9  UNL     1     -32.863   5.425   2.032  1.00 20.00    -0.205 F 
ENDROOT
BRANCH   5   9
HETATM    9  C7  UNL     1     -34.165   6.908   6.457  1.00 20.00     0.173 C 
HETATM   10 CL10 UNL     1     -34.759   5.237   6.573  1.00 20.00    -0.124 Cl
ENDBRANCH   5   9
TORSDOF 1
ENDMDL
MODEL 4
REMARK VINA RESULT:      -4.3      3.113      4.469
REMARK  1 active torsions:
REMARK  status: ('A' for Active; 'I' for Inactive)
REMARK    1  A    between atoms: C5_5  and  C7_7 
ROOT
HETATM    1  C1  UNL     1     -33.174   8.339   4.995  1.00 20.00     0.071 A 
HETATM    2  C2  UNL     1     -32.982   6.476   3.011  1.00 20.00     0.126 A 
HETATM    3  C3  UNL     1     -32.500   7.752   2.763  1.00 20.00    -0.006 A 
HETATM    4  C4  UNL     1     -32.602   8.695   3.779  1.00 20.00     0.125 A 
HETATM    5  C5  UNL     1     -33.624   7.037   5.143  1.00 20.00     0.051 A 
HETATM    6  C6  UNL     1     -31.894   8.098   1.449  1.00 20.00     0.053 C 
HETATM    7  N8  UNL     1     -33.543   6.093   4.179  1.00 20.00    -0.264 NA
HETATM    8  F9  UNL     1     -32.153   9.944   3.596  1.00 20.00    -0.205 F 
ENDROOT
BRANCH   5   9
HETATM    9  C7  UNL     1     -34.245   6.622   6.436  1.00 20.00     0.173 C 
HETATM   10 CL10 UNL     1     -34.726   4.912   6.379  1.00 20.00    -0.124 Cl
ENDBRANCH   5   9
TORSDOF 1
ENDMDL
MODEL 5
REMARK VINA RESULT:      -4.1     12.336     12.611
REMARK  1 active torsions:
REMARK  status: ('A' for Active; 'I' for Inactive)
REMARK    1  A    between atoms: C5_5  and  C7_7 
ROOT
HETATM    1  C1  UNL     1     -32.374  18.875   1.512  1.00 20.00     0.071 A 
HETATM    2  C2  UNL     1     -31.663  18.210  -1.037  1.00 20.00     0.126 A 
HETATM    3  C3  UNL     1     -33.007  18.174  -0.699  1.00 20.00    -0.006 A 
HETATM    4  C4  UNL     1     -33.361  18.514   0.601  1.00 20.00     0.125 A 
HETATM    5  C5  UNL     1     -31.060  18.880   1.075  1.00 20.00     0.051 A 
HETATM    6  C6  UNL     1     -34.036  17.782  -1.700  1.00 20.00     0.053 C 
HETATM    7  N8  UNL     1     -30.677  18.555  -0.180  1.00 20.00    -0.264 NA
HETATM    8  F9  UNL     1     -34.645  18.497   0.984  1.00 20.00    -0.205 F 
ENDROOT
BRANCH   5   9
HETATM    9  C7  UNL     1     -29.975  19.261   2.027  1.00 20.00     0.173 C 
HETATM   10 CL10 UNL     1     -30.461  18.918   3.702  1.00 20.00    -0.124 Cl
ENDBRANCH   5   9
TORSDOF 1
ENDMDL
MODEL 6
REMARK VINA RESULT:      -4.0     12.449     12.498
REMARK  1 active torsions:
REMARK  status: ('A' for Active; 'I' for Inactive)
REMARK    1  A    between atoms: C5_5  and  C7_7 
ROOT
HETATM    1  C1  UNL     1     -33.361  18.757   0.019  1.00 20.00     0.071 A 
HETATM    2  C2  UNL     1     -30.745  18.729   0.791  1.00 20.00     0.126 A 
HETATM    3  C3  UNL     1     -31.709  18.996   1.750  1.00 20.00    -0.006 A 
HETATM    4  C4  UNL     1     -33.040  19.008   1.348  1.00 20.00     0.125 A 
HETATM    5  C5  UNL     1     -32.323  18.500  -0.862  1.00 20.00     0.051 A 
HETATM    6  C6  UNL     1     -31.329  19.261   3.163  1.00 20.00     0.053 C 
HETATM    7  N8  UNL     1     -31.018  18.480  -0.508  1.00 20.00    -0.264 NA
HETATM    8  F9  UNL     1     -34.016  19.260   2.231  1.00 20.00    -0.205 F 
ENDROOT
BRANCH   5   9
HETATM    9  C7  UNL     1     -32.632  18.228  -2.296  1.00 20.00     0.173 C 
HETATM   10 CL10 UNL     1     -33.372  16.623  -2.484  1.00 20.00    -0.124 Cl
ENDBRANCH   5   9
TORSDOF 1
ENDMDL
MODEL 7
REMARK VINA RESULT:      -3.8     11.887     12.673
REMARK  1 active torsions:
REMARK  status: ('A' for Active; 'I' for Inactive)
REMARK    1  A    between atoms: C5_5  and  C7_7 
ROOT
HETATM    1  C1  UNL     1     -33.293  16.263  -2.913  1.00 20.00     0.071 A 
HETATM    2  C2  UNL     1     -34.921  17.152  -4.913  1.00 20.00     0.126 A 
HETATM    3  C3  UNL     1     -34.275  15.938  -5.083  1.00 20.00    -0.006 A 
HETATM    4  C4  UNL     1     -33.447  15.492  -4.059  1.00 20.00     0.125 A 
HETATM    5  C5  UNL     1     -33.983  17.462  -2.840  1.00 20.00     0.051 A 
HETATM    6  C6  UNL     1     -34.464  15.139  -6.324  1.00 20.00     0.053 C 
HETATM    7  N8  UNL     1     -34.796  17.928  -3.814  1.00 20.00    -0.264 NA
HETATM    8  F9  UNL     1     -32.797  14.325  -4.168  1.00 20.00    -0.205 F 
ENDROOT
BRANCH   5   9
HETATM    9  C7  UNL     1     -33.838  18.315  -1.624  1.00 20.00     0.173 C 
HETATM   10 CL10 UNL     1     -32.215  18.138  -0.922  1.00 20.00    -0.124 Cl
ENDBRANCH   5   9
TORSDOF 1
ENDMDL
MODEL 8
REMARK VINA RESULT:      -3.8     12.493     12.682
REMARK  1 active torsions:
REMARK  status: ('A' for Active; 'I' for Inactive)
REMARK    1  A    between atoms: C5_5  and  C7_7 
ROOT
HETATM    1  C1  UNL     1     -30.296  18.585   1.720  1.00 20.00     0.071 A 
HETATM    2  C2  UNL     1     -32.938  19.179   2.061  1.00 20.00     0.126 A 
HETATM    3  C3  UNL     1     -32.505  18.813   0.797  1.00 20.00    -0.006 A 
HETATM    4  C4  UNL     1     -31.158  18.512   0.631  1.00 20.00     0.125 A 
HETATM    5  C5  UNL     1     -30.828  18.961   2.943  1.00 20.00     0.051 A 
HETATM    6  C6  UNL     1     -33.455  18.746  -0.346  1.00 20.00     0.053 C 
HETATM    7  N8  UNL     1     -32.131  19.261   3.142  1.00 20.00    -0.264 NA
HETATM    8  F9  UNL     1     -30.683  18.152  -0.569  1.00 20.00    -0.205 F 
ENDROOT
BRANCH   5   9
HETATM    9  C7  UNL     1     -29.931  19.051   4.132  1.00 20.00     0.173 C 
HETATM   10 CL10 UNL     1     -28.283  18.528   3.717  1.00 20.00    -0.124 Cl
ENDBRANCH   5   9
TORSDOF 1
ENDMDL
MODEL 9
REMARK VINA RESULT:      -3.7      9.731     10.601
REMARK  1 active torsions:
REMARK  status: ('A' for Active; 'I' for Inactive)
REMARK    1  A    between atoms: C5_5  and  C7_7 
ROOT
HETATM    1  C1  UNL     1     -41.335  14.063   6.112  1.00 20.00     0.071 A 
HETATM    2  C2  UNL     1     -39.334  12.257   6.534  1.00 20.00     0.126 A 
HETATM    3  C3  UNL     1     -39.788  12.443   5.238  1.00 20.00    -0.006 A 
HETATM    4  C4  UNL     1     -40.808  13.365   5.032  1.00 20.00     0.125 A 
HETATM    5  C5  UNL     1     -40.812  13.804   7.369  1.00 20.00     0.051 A 
HETATM    6  C6  UNL     1     -39.200  11.679   4.105  1.00 20.00     0.053 C 
HETATM    7  N8  UNL     1     -39.821  12.916   7.608  1.00 20.00    -0.264 NA
HETATM    8  F9  UNL     1     -41.286  13.587   3.800  1.00 20.00    -0.205 F 
ENDROOT
BRANCH   5   9
HETATM    9  C7  UNL     1     -41.356  14.534   8.551  1.00 20.00     0.173 C 
HETATM   10 CL10 UNL     1     -40.036  15.144   9.574  1.00 20.00    -0.124 Cl
ENDBRANCH   5   9
TORSDOF 1
ENDMDL
