MODEL 1
REMARK VINA RESULT:      -6.2      0.000      0.000
REMARK  0 active torsions:
REMARK  status: ('A' for Active; 'I' for Inactive)
ROOT
HETATM    1  C1  UNL     1     -32.701   8.553   5.094  1.00 20.00     0.004 A 
HETATM    2  C2  UNL     1     -33.439   7.462   5.287  1.00 20.00    -0.036 A 
HETATM    3  C3  UNL     1     -33.252   6.722   4.036  1.00 20.00     0.035 A 
HETATM    4  C4  UNL     1     -32.075   8.544   3.742  1.00 20.00     0.177 A 
HETATM    5  C5  UNL     1     -34.260   6.979   6.417  1.00 20.00     0.040 C 
HETATM    6  C6  UNL     1     -33.863   5.359   3.870  1.00 20.00     0.059 C 
HETATM    7  C7  UNL     1     -34.511   5.473   6.317  1.00 20.00     0.005 C 
HETATM    8  C8  UNL     1     -34.950   5.075   4.905  1.00 20.00     0.006 C 
HETATM    9  N9  UNL     1     -32.502   7.269   3.121  1.00 20.00    -0.290 NA
ENDROOT
TORSDOF 0
ENDMDL
MODEL 2
REMARK VINA RESULT:      -6.0      0.953      2.077
REMARK  0 active torsions:
REMARK  status: ('A' for Active; 'I' for Inactive)
ROOT
HETATM    1  C1  UNL     1     -32.482   7.464   3.214  1.00 20.00     0.004 A 
HETATM    2  C2  UNL     1     -33.218   6.688   4.007  1.00 20.00    -0.036 A 
HETATM    3  C3  UNL     1     -33.350   7.501   5.219  1.00 20.00     0.035 A 
HETATM    4  C4  UNL     1     -32.114   8.734   3.899  1.00 20.00     0.177 A 
HETATM    5  C5  UNL     1     -33.829   5.353   3.837  1.00 20.00     0.040 C 
HETATM    6  C6  UNL     1     -34.198   7.015   6.361  1.00 20.00     0.059 C 
HETATM    7  C7  UNL     1     -34.950   5.123   4.854  1.00 20.00     0.005 C 
HETATM    8  C8  UNL     1     -34.511   5.524   6.265  1.00 20.00     0.006 C 
HETATM    9  N9  UNL     1     -32.754   8.660   5.232  1.00 20.00    -0.290 NA
ENDROOT
TORSDOF 0
ENDMDL
MODEL 3
REMARK VINA RESULT:      -5.9      1.422      3.159
REMARK  0 active torsions:
REMARK  status: ('A' for Active; 'I' for Inactive)
ROOT
HETATM    1  C1  UNL     1     -34.398   6.550   6.342  1.00 20.00     0.004 A 
HETATM    2  C2  UNL     1     -33.674   6.997   5.318  1.00 20.00    -0.036 A 
HETATM    3  C3  UNL     1     -33.768   5.897   4.355  1.00 20.00     0.035 A 
HETATM    4  C4  UNL     1     -34.923   5.183   6.072  1.00 20.00     0.177 A 
HETATM    5  C5  UNL     1     -32.937   8.253   5.068  1.00 20.00     0.040 C 
HETATM    6  C6  UNL     1     -33.144   6.033   2.994  1.00 20.00     0.059 C 
HETATM    7  C7  UNL     1     -32.677   8.455   3.573  1.00 20.00     0.005 C 
HETATM    8  C8  UNL     1     -32.135   7.178   2.926  1.00 20.00     0.006 C 
HETATM    9  N9  UNL     1     -34.450   4.844   4.710  1.00 20.00    -0.290 NA
ENDROOT
TORSDOF 0
ENDMDL
MODEL 4
REMARK VINA RESULT:      -5.8      1.041      2.212
REMARK  0 active torsions:
REMARK  status: ('A' for Active; 'I' for Inactive)
ROOT
HETATM    1  C1  UNL     1     -32.843   5.966   2.644  1.00 20.00     0.004 A 
HETATM    2  C2  UNL     1     -33.456   5.886   3.823  1.00 20.00    -0.036 A 
HETATM    3  C3  UNL     1     -33.190   7.200   4.414  1.00 20.00     0.035 A 
HETATM    4  C4  UNL     1     -32.166   7.283   2.480  1.00 20.00     0.177 A 
HETATM    5  C5  UNL     1     -34.251   4.830   4.483  1.00 20.00     0.040 C 
HETATM    6  C6  UNL     1     -33.790   7.563   5.743  1.00 20.00     0.059 C 
HETATM    7  C7  UNL     1     -35.113   5.406   5.610  1.00 20.00     0.005 C 
HETATM    8  C8  UNL     1     -34.299   6.343   6.508  1.00 20.00     0.006 C 
HETATM    9  N9  UNL     1     -32.469   8.035   3.719  1.00 20.00    -0.290 NA
ENDROOT
TORSDOF 0
ENDMDL
MODEL 5
REMARK VINA RESULT:      -5.8      1.500      3.698
REMARK  0 active torsions:
REMARK  status: ('A' for Active; 'I' for Inactive)
ROOT
HETATM    1  C1  UNL     1     -34.441   5.021   4.925  1.00 20.00     0.004 A 
HETATM    2  C2  UNL     1     -33.762   5.980   4.299  1.00 20.00    -0.036 A 
HETATM    3  C3  UNL     1     -33.706   7.043   5.307  1.00 20.00     0.035 A 
HETATM    4  C4  UNL     1     -34.847   5.454   6.290  1.00 20.00     0.177 A 
HETATM    5  C5  UNL     1     -33.147   6.079   2.959  1.00 20.00     0.040 C 
HETATM    6  C6  UNL     1     -32.937   8.303   5.028  1.00 20.00     0.059 C 
HETATM    7  C7  UNL     1     -32.096   7.191   2.912  1.00 20.00     0.005 C 
HETATM    8  C8  UNL     1     -32.625   8.483   3.544  1.00 20.00     0.006 C 
HETATM    9  N9  UNL     1     -34.296   6.820   6.448  1.00 20.00    -0.290 NA
ENDROOT
TORSDOF 0
ENDMDL
MODEL 6
REMARK VINA RESULT:      -5.1      1.071      3.015
REMARK  0 active torsions:
REMARK  status: ('A' for Active; 'I' for Inactive)
ROOT
HETATM    1  C1  UNL     1     -34.563   5.125   5.257  1.00 20.00     0.004 A 
HETATM    2  C2  UNL     1     -34.008   6.335   5.283  1.00 20.00    -0.036 A 
HETATM    3  C3  UNL     1     -33.279   6.381   4.013  1.00 20.00     0.035 A 
HETATM    4  C4  UNL     1     -34.181   4.386   4.022  1.00 20.00     0.177 A 
HETATM    5  C5  UNL     1     -34.049   7.449   6.253  1.00 20.00     0.040 C 
HETATM    6  C6  UNL     1     -32.564   7.638   3.602  1.00 20.00     0.059 C 
HETATM    7  C7  UNL     1     -33.637   8.770   5.598  1.00 20.00     0.005 C 
HETATM    8  C8  UNL     1     -32.362   8.604   4.766  1.00 20.00     0.006 C 
HETATM    9  N9  UNL     1     -33.328   5.322   3.254  1.00 20.00    -0.290 NA
ENDROOT
TORSDOF 0
ENDMDL
MODEL 7
REMARK VINA RESULT:      -5.1      1.217      1.910
REMARK  0 active torsions:
REMARK  status: ('A' for Active; 'I' for Inactive)
ROOT
HETATM    1  C1  UNL     1     -32.523   7.274   3.068  1.00 20.00     0.004 A 
HETATM    2  C2  UNL     1     -33.230   7.076   4.179  1.00 20.00    -0.036 A 
HETATM    3  C3  UNL     1     -33.619   5.668   4.064  1.00 20.00     0.035 A 
HETATM    4  C4  UNL     1     -32.480   6.042   2.233  1.00 20.00     0.177 A 
HETATM    5  C5  UNL     1     -33.587   7.941   5.322  1.00 20.00     0.040 C 
HETATM    6  C6  UNL     1     -34.377   5.004   5.179  1.00 20.00     0.059 C 
HETATM    7  C7  UNL     1     -34.002   7.109   6.538  1.00 20.00     0.005 C 
HETATM    8  C8  UNL     1     -34.995   6.011   6.147  1.00 20.00     0.006 C 
HETATM    9  N9  UNL     1     -33.237   5.024   2.996  1.00 20.00    -0.290 NA
ENDROOT
TORSDOF 0
ENDMDL
MODEL 8
REMARK VINA RESULT:      -5.0      1.533      3.454
REMARK  0 active torsions:
REMARK  status: ('A' for Active; 'I' for Inactive)
ROOT
HETATM    1  C1  UNL     1     -33.193   5.352   3.094  1.00 20.00     0.004 A 
HETATM    2  C2  UNL     1     -33.114   6.517   3.732  1.00 20.00    -0.036 A 
HETATM    3  C3  UNL     1     -33.911   6.277   4.938  1.00 20.00     0.035 A 
HETATM    4  C4  UNL     1     -34.046   4.386   3.843  1.00 20.00     0.177 A 
HETATM    5  C5  UNL     1     -32.424   7.790   3.438  1.00 20.00     0.040 C 
HETATM    6  C6  UNL     1     -34.013   7.340   5.996  1.00 20.00     0.059 C 
HETATM    7  C7  UNL     1     -32.265   8.640   4.702  1.00 20.00     0.005 C 
HETATM    8  C8  UNL     1     -33.576   8.713   5.490  1.00 20.00     0.006 C 
HETATM    9  N9  UNL     1     -34.468   5.105   5.067  1.00 20.00    -0.290 NA
ENDROOT
TORSDOF 0
ENDMDL
MODEL 9
REMARK VINA RESULT:      -3.9     16.046     16.818
REMARK  0 active torsions:
REMARK  status: ('A' for Active; 'I' for Inactive)
ROOT
HETATM    1  C1  UNL     1     -22.834  19.231   8.783  1.00 20.00     0.004 A 
HETATM    2  C2  UNL     1     -23.567  18.900   9.844  1.00 20.00    -0.036 A 
HETATM    3  C3  UNL     1     -22.552  18.504  10.824  1.00 20.00     0.035 A 
HETATM    4  C4  UNL     1     -21.383  19.026   9.048  1.00 20.00     0.177 A 
HETATM    5  C5  UNL     1     -25.019  18.903  10.115  1.00 20.00     0.040 C 
HETATM    6  C6  UNL     1     -22.961  18.129  12.221  1.00 20.00     0.059 C 
HETATM    7  C7  UNL     1     -25.303  18.886  11.619  1.00 20.00     0.005 C 
HETATM    8  C8  UNL     1     -24.454  17.829  12.332  1.00 20.00     0.006 C 
HETATM    9  N9  UNL     1     -21.304  18.546  10.447  1.00 20.00    -0.290 NA
ENDROOT
TORSDOF 0
ENDMDL
