MODEL 1
REMARK VINA RESULT:      -7.0      0.000      0.000
REMARK  0 active torsions:
REMARK  status: ('A' for Active; 'I' for Inactive)
ROOT
HETATM    1  C1  UNL     1     -34.153   4.552   4.399  1.00 20.00     0.047 C 
HETATM    2  C2  UNL     1     -34.455   5.098   5.713  1.00 20.00     0.042 C 
HETATM    3  C3  UNL     1     -33.174   8.511   5.103  1.00 20.00     0.010 C 
HETATM    4  C4  UNL     1     -32.160   8.456   4.232  1.00 20.00     0.114 C 
HETATM    5  C5  UNL     1     -33.527   5.288   3.472  1.00 20.00     0.142 C 
HETATM    6  C6  UNL     1     -34.403   6.421   5.944  1.00 20.00     0.107 C 
HETATM    7  C7  UNL     1     -33.194   6.673   3.832  1.00 20.00     0.087 C 
HETATM    8  C8  UNL     1     -34.097   7.377   4.838  1.00 20.00     0.127 C 
HETATM    9  N9  UNL     1     -32.160   7.345   3.430  1.00 20.00    -0.262 NA
HETATM   10  F10 UNL     1     -33.099   4.813   2.292  1.00 20.00    -0.204 F 
HETATM   11  F11 UNL     1     -34.686   6.888   7.179  1.00 20.00    -0.210 F 
ENDROOT
TORSDOF 0
ENDMDL
MODEL 2
REMARK VINA RESULT:      -6.9      1.656      3.852
REMARK  0 active torsions:
REMARK  status: ('A' for Active; 'I' for Inactive)
ROOT
HETATM    1  C1  UNL     1     -32.325   8.024   3.575  1.00 20.00     0.047 C 
HETATM    2  C2  UNL     1     -32.259   6.745   2.883  1.00 20.00     0.042 C 
HETATM    3  C3  UNL     1     -34.634   4.922   5.050  1.00 20.00     0.010 C 
HETATM    4  C4  UNL     1     -34.567   5.410   6.294  1.00 20.00     0.114 C 
HETATM    5  C5  UNL     1     -33.061   8.172   4.684  1.00 20.00     0.142 C 
HETATM    6  C6  UNL     1     -33.151   5.772   3.137  1.00 20.00     0.107 C 
HETATM    7  C7  UNL     1     -33.820   7.000   5.144  1.00 20.00     0.087 C 
HETATM    8  C8  UNL     1     -34.277   5.999   4.090  1.00 20.00     0.127 C 
HETATM    9  N9  UNL     1     -34.086   6.690   6.375  1.00 20.00    -0.262 NA
HETATM   10  F10 UNL     1     -33.065   9.275   5.447  1.00 20.00    -0.204 F 
HETATM   11  F11 UNL     1     -33.053   4.599   2.476  1.00 20.00    -0.210 F 
ENDROOT
TORSDOF 0
ENDMDL
MODEL 3
REMARK VINA RESULT:      -6.1      1.615      2.848
REMARK  0 active torsions:
REMARK  status: ('A' for Active; 'I' for Inactive)
ROOT
HETATM    1  C1  UNL     1     -32.459   7.164   2.842  1.00 20.00     0.047 C 
HETATM    2  C2  UNL     1     -32.815   8.287   3.695  1.00 20.00     0.042 C 
HETATM    3  C3  UNL     1     -34.545   6.345   6.321  1.00 20.00     0.010 C 
HETATM    4  C4  UNL     1     -35.110   5.263   5.775  1.00 20.00     0.114 C 
HETATM    5  C5  UNL     1     -32.844   5.918   3.143  1.00 20.00     0.142 C 
HETATM    6  C6  UNL     1     -33.264   8.093   4.947  1.00 20.00     0.107 C 
HETATM    7  C7  UNL     1     -33.609   5.737   4.386  1.00 20.00     0.087 C 
HETATM    8  C8  UNL     1     -33.348   6.718   5.522  1.00 20.00     0.127 C 
HETATM    9  N9  UNL     1     -34.542   4.861   4.595  1.00 20.00    -0.262 NA
HETATM   10  F10 UNL     1     -32.669   4.857   2.341  1.00 20.00    -0.204 F 
HETATM   11  F11 UNL     1     -33.588   9.162   5.705  1.00 20.00    -0.210 F 
ENDROOT
TORSDOF 0
ENDMDL
MODEL 4
REMARK VINA RESULT:      -6.0      0.931      3.007
REMARK  0 active torsions:
REMARK  status: ('A' for Active; 'I' for Inactive)
ROOT
HETATM    1  C1  UNL     1     -34.688   5.466   5.632  1.00 20.00     0.047 C 
HETATM    2  C2  UNL     1     -34.441   4.935   4.300  1.00 20.00     0.042 C 
HETATM    3  C3  UNL     1     -32.299   7.693   3.090  1.00 20.00     0.010 C 
HETATM    4  C4  UNL     1     -32.672   8.837   3.676  1.00 20.00     0.114 C 
HETATM    5  C5  UNL     1     -34.208   6.661   5.999  1.00 20.00     0.142 C 
HETATM    6  C6  UNL     1     -33.488   5.459   3.510  1.00 20.00     0.107 C 
HETATM    7  C7  UNL     1     -33.397   7.387   5.011  1.00 20.00     0.087 C 
HETATM    8  C8  UNL     1     -32.610   6.561   4.002  1.00 20.00     0.127 C 
HETATM    9  N9  UNL     1     -33.333   8.675   4.865  1.00 20.00    -0.262 NA
HETATM   10  F10 UNL     1     -34.505   7.272   7.156  1.00 20.00    -0.204 F 
HETATM   11  F11 UNL     1     -33.292   4.940   2.278  1.00 20.00    -0.210 F 
ENDROOT
TORSDOF 0
ENDMDL
MODEL 5
REMARK VINA RESULT:      -5.8      1.892      2.528
REMARK  0 active torsions:
REMARK  status: ('A' for Active; 'I' for Inactive)
ROOT
HETATM    1  C1  UNL     1     -34.468   6.347   6.292  1.00 20.00     0.047 C 
HETATM    2  C2  UNL     1     -33.567   7.482   6.420  1.00 20.00     0.042 C 
HETATM    3  C3  UNL     1     -32.346   7.502   2.932  1.00 20.00     0.010 C 
HETATM    4  C4  UNL     1     -32.347   6.253   2.452  1.00 20.00     0.114 C 
HETATM    5  C5  UNL     1     -34.561   5.665   5.144  1.00 20.00     0.142 C 
HETATM    6  C6  UNL     1     -33.037   8.074   5.335  1.00 20.00     0.107 C 
HETATM    7  C7  UNL     1     -33.741   6.137   4.018  1.00 20.00     0.087 C 
HETATM    8  C8  UNL     1     -33.410   7.623   3.962  1.00 20.00     0.127 C 
HETATM    9  N9  UNL     1     -33.208   5.400   3.093  1.00 20.00    -0.262 NA
HETATM   10  F10 UNL     1     -35.265   4.533   4.991  1.00 20.00    -0.204 F 
HETATM   11  F11 UNL     1     -32.202   9.123   5.497  1.00 20.00    -0.210 F 
ENDROOT
TORSDOF 0
ENDMDL
MODEL 6
REMARK VINA RESULT:      -5.6      1.576      3.967
REMARK  0 active torsions:
REMARK  status: ('A' for Active; 'I' for Inactive)
ROOT
HETATM    1  C1  UNL     1     -33.149   8.363   5.639  1.00 20.00     0.047 C 
HETATM    2  C2  UNL     1     -32.328   8.293   4.440  1.00 20.00     0.042 C 
HETATM    3  C3  UNL     1     -33.588   5.046   3.204  1.00 20.00     0.010 C 
HETATM    4  C4  UNL     1     -33.939   4.279   4.243  1.00 20.00     0.114 C 
HETATM    5  C5  UNL     1     -33.973   7.361   5.972  1.00 20.00     0.142 C 
HETATM    6  C6  UNL     1     -32.581   7.390   3.477  1.00 20.00     0.107 C 
HETATM    7  C7  UNL     1     -34.032   6.213   5.056  1.00 20.00     0.087 C 
HETATM    8  C8  UNL     1     -33.755   6.473   3.581  1.00 20.00     0.127 C 
HETATM    9  N9  UNL     1     -34.232   4.975   5.387  1.00 20.00    -0.262 NA
HETATM   10  F10 UNL     1     -34.657   7.296   7.124  1.00 20.00    -0.204 F 
HETATM   11  F11 UNL     1     -31.793   7.354   2.381  1.00 20.00    -0.210 F 
ENDROOT
TORSDOF 0
ENDMDL
MODEL 7
REMARK VINA RESULT:      -5.1      1.375      2.880
REMARK  0 active torsions:
REMARK  status: ('A' for Active; 'I' for Inactive)
ROOT
HETATM    1  C1  UNL     1     -32.562   8.480   3.987  1.00 20.00     0.047 C 
HETATM    2  C2  UNL     1     -33.275   8.811   5.212  1.00 20.00     0.042 C 
HETATM    3  C3  UNL     1     -34.601   5.431   5.904  1.00 20.00     0.010 C 
HETATM    4  C4  UNL     1     -34.807   4.788   4.749  1.00 20.00     0.114 C 
HETATM    5  C5  UNL     1     -32.615   7.247   3.469  1.00 20.00     0.142 C 
HETATM    6  C6  UNL     1     -33.746   7.847   6.022  1.00 20.00     0.107 C 
HETATM    7  C7  UNL     1     -33.392   6.243   4.210  1.00 20.00     0.087 C 
HETATM    8  C8  UNL     1     -33.495   6.406   5.721  1.00 20.00     0.127 C 
HETATM    9  N9  UNL     1     -34.064   5.259   3.698  1.00 20.00    -0.262 NA
HETATM   10  F10 UNL     1     -32.097   6.904   2.279  1.00 20.00    -0.204 F 
HETATM   11  F11 UNL     1     -34.405   8.195   7.148  1.00 20.00    -0.210 F 
ENDROOT
TORSDOF 0
ENDMDL
MODEL 8
REMARK VINA RESULT:      -4.8      1.764      2.996
REMARK  0 active torsions:
REMARK  status: ('A' for Active; 'I' for Inactive)
ROOT
HETATM    1  C1  UNL     1     -33.881   7.690   6.032  1.00 20.00     0.047 C 
HETATM    2  C2  UNL     1     -34.677   6.505   5.751  1.00 20.00     0.042 C 
HETATM    3  C3  UNL     1     -32.989   5.550   2.604  1.00 20.00     0.010 C 
HETATM    4  C4  UNL     1     -32.547   6.650   1.984  1.00 20.00     0.114 C 
HETATM    5  C5  UNL     1     -32.934   8.105   5.181  1.00 20.00     0.142 C 
HETATM    6  C6  UNL     1     -34.299   5.623   4.809  1.00 20.00     0.107 C 
HETATM    7  C7  UNL     1     -32.717   7.292   3.976  1.00 20.00     0.087 C 
HETATM    8  C8  UNL     1     -33.015   5.801   4.069  1.00 20.00     0.127 C 
HETATM    9  N9  UNL     1     -32.357   7.728   2.809  1.00 20.00    -0.262 NA
HETATM   10  F10 UNL     1     -32.256   9.256   5.307  1.00 20.00    -0.204 F 
HETATM   11  F11 UNL     1     -35.068   4.538   4.575  1.00 20.00    -0.210 F 
ENDROOT
TORSDOF 0
ENDMDL
MODEL 9
REMARK VINA RESULT:      -4.5     16.035     16.892
REMARK  0 active torsions:
REMARK  status: ('A' for Active; 'I' for Inactive)
ROOT
HETATM    1  C1  UNL     1     -23.130  19.001   8.424  1.00 20.00     0.047 C 
HETATM    2  C2  UNL     1     -22.108  18.949   9.459  1.00 20.00     0.042 C 
HETATM    3  C3  UNL     1     -24.382  18.466  12.332  1.00 20.00     0.010 C 
HETATM    4  C4  UNL     1     -25.549  19.072  12.083  1.00 20.00     0.114 C 
HETATM    5  C5  UNL     1     -24.431  18.938   8.734  1.00 20.00     0.142 C 
HETATM    6  C6  UNL     1     -22.401  18.533  10.703  1.00 20.00     0.107 C 
HETATM    7  C7  UNL     1     -24.772  18.779  10.155  1.00 20.00     0.087 C 
HETATM    8  C8  UNL     1     -23.772  18.049  11.042  1.00 20.00     0.127 C 
HETATM    9  N9  UNL     1     -25.818  19.261  10.753  1.00 20.00    -0.262 NA
HETATM   10  F10 UNL     1     -25.427  19.113   7.853  1.00 20.00    -0.204 F 
HETATM   11  F11 UNL     1     -21.426  18.502  11.636  1.00 20.00    -0.210 F 
ENDROOT
TORSDOF 0
ENDMDL
