MODEL 1
REMARK VINA RESULT:      -4.1      0.000      0.000
REMARK  0 active torsions:
REMARK  status: ('A' for Active; 'I' for Inactive)
ROOT
HETATM    1  C1  UNL     1     -26.944  19.259  12.133  1.00 20.00     0.013 C 
HETATM    2  C2  UNL     1     -25.894  18.755  11.841  1.00 20.00    -0.107 C 
HETATM    3  C3  UNL     1     -23.479  18.772  12.332  1.00 20.00     0.048 C 
HETATM    4  C4  UNL     1     -24.308  18.398   9.988  1.00 20.00     0.048 C 
HETATM    5  C5  UNL     1     -22.087  18.417  11.818  1.00 20.00     0.169 C 
HETATM    6  C6  UNL     1     -22.868  18.065   9.610  1.00 20.00     0.169 C 
HETATM    7  C7  UNL     1     -24.598  18.135  11.481  1.00 20.00     0.023 C 
HETATM    8  C8  UNL     1     -24.700  16.625  11.760  1.00 20.00     0.029 C 
HETATM    9  O9  UNL     1     -21.950  18.769  10.443  1.00 20.00    -0.391 OA
ENDROOT
TORSDOF 0
ENDMDL
MODEL 2
REMARK VINA RESULT:      -4.0      1.762      3.645
REMARK  0 active torsions:
REMARK  status: ('A' for Active; 'I' for Inactive)
ROOT
HETATM    1  C1  UNL     1     -22.116  17.480   8.560  1.00 20.00     0.013 C 
HETATM    2  C2  UNL     1     -22.739  17.646   9.573  1.00 20.00    -0.107 C 
HETATM    3  C3  UNL     1     -24.161  16.519  11.239  1.00 20.00     0.048 C 
HETATM    4  C4  UNL     1     -24.613  18.899  10.570  1.00 20.00     0.048 C 
HETATM    5  C5  UNL     1     -25.209  16.704  12.332  1.00 20.00     0.169 C 
HETATM    6  C6  UNL     1     -25.636  18.947  11.701  1.00 20.00     0.169 C 
HETATM    7  C7  UNL     1     -23.507  17.853  10.822  1.00 20.00     0.023 C 
HETATM    8  C8  UNL     1     -22.530  18.342  11.906  1.00 20.00     0.029 C 
HETATM    9  O9  UNL     1     -26.194  17.656  11.933  1.00 20.00    -0.391 OA
ENDROOT
TORSDOF 0
ENDMDL
MODEL 3
REMARK VINA RESULT:      -3.9     17.723     18.884
REMARK  0 active torsions:
REMARK  status: ('A' for Active; 'I' for Inactive)
ROOT
HETATM    1  C1  UNL     1     -39.358  11.780   4.702  1.00 20.00     0.013 C 
HETATM    2  C2  UNL     1     -40.163  12.397   5.344  1.00 20.00    -0.107 C 
HETATM    3  C3  UNL     1     -40.432  13.906   7.273  1.00 20.00     0.048 C 
HETATM    4  C4  UNL     1     -42.176  12.174   6.749  1.00 20.00     0.048 C 
HETATM    5  C5  UNL     1     -41.401  14.462   8.311  1.00 20.00     0.169 C 
HETATM    6  C6  UNL     1     -43.045  12.830   7.818  1.00 20.00     0.169 C 
HETATM    7  C7  UNL     1     -41.157  13.157   6.136  1.00 20.00     0.023 C 
HETATM    8  C8  UNL     1     -41.858  14.151   5.191  1.00 20.00     0.029 C 
HETATM    9  O9  UNL     1     -42.237  13.429   8.829  1.00 20.00    -0.391 OA
ENDROOT
TORSDOF 0
ENDMDL
MODEL 4
REMARK VINA RESULT:      -3.8     14.315     15.428
REMARK  0 active torsions:
REMARK  status: ('A' for Active; 'I' for Inactive)
ROOT
HETATM    1  C1  UNL     1     -33.335  15.919  -3.232  1.00 20.00     0.013 C 
HETATM    2  C2  UNL     1     -33.242  16.850  -2.480  1.00 20.00    -0.107 C 
HETATM    3  C3  UNL     1     -31.658  18.138  -1.100  1.00 20.00     0.048 C 
HETATM    4  C4  UNL     1     -34.013  17.744  -0.316  1.00 20.00     0.048 C 
HETATM    5  C5  UNL     1     -31.503  19.093   0.080  1.00 20.00     0.169 C 
HETATM    6  C6  UNL     1     -33.722  18.720   0.819  1.00 20.00     0.169 C 
HETATM    7  C7  UNL     1     -33.126  17.999  -1.553  1.00 20.00     0.023 C 
HETATM    8  C8  UNL     1     -33.586  19.263  -2.302  1.00 20.00     0.029 C 
HETATM    9  O9  UNL     1     -32.339  18.697   1.165  1.00 20.00    -0.391 OA
ENDROOT
TORSDOF 0
ENDMDL
MODEL 5
REMARK VINA RESULT:      -3.7     17.649     18.783
REMARK  0 active torsions:
REMARK  status: ('A' for Active; 'I' for Inactive)
ROOT
HETATM    1  C1  UNL     1     -39.293  11.763   4.747  1.00 20.00     0.013 C 
HETATM    2  C2  UNL     1     -40.115  12.451   5.287  1.00 20.00    -0.107 C 
HETATM    3  C3  UNL     1     -41.877  14.127   4.887  1.00 20.00     0.048 C 
HETATM    4  C4  UNL     1     -40.421  14.262   6.931  1.00 20.00     0.048 C 
HETATM    5  C5  UNL     1     -42.718  15.241   5.502  1.00 20.00     0.169 C 
HETATM    6  C6  UNL     1     -41.345  15.369   7.428  1.00 20.00     0.169 C 
HETATM    7  C7  UNL     1     -41.129  13.300   5.954  1.00 20.00     0.023 C 
HETATM    8  C8  UNL     1     -42.102  12.376   6.708  1.00 20.00     0.029 C 
HETATM    9  O9  UNL     1     -41.917  16.080   6.332  1.00 20.00    -0.391 OA
ENDROOT
TORSDOF 0
ENDMDL
MODEL 6
REMARK VINA RESULT:      -3.6     15.638     16.759
REMARK  0 active torsions:
REMARK  status: ('A' for Active; 'I' for Inactive)
ROOT
HETATM    1  C1  UNL     1     -32.050   9.151   4.834  1.00 20.00     0.013 C 
HETATM    2  C2  UNL     1     -32.855   8.260   4.846  1.00 20.00    -0.107 C 
HETATM    3  C3  UNL     1     -33.968   6.609   6.297  1.00 20.00     0.048 C 
HETATM    4  C4  UNL     1     -33.367   6.031   3.926  1.00 20.00     0.048 C 
HETATM    5  C5  UNL     1     -34.731   5.288   6.348  1.00 20.00     0.169 C 
HETATM    6  C6  UNL     1     -34.163   4.744   4.114  1.00 20.00     0.169 C 
HETATM    7  C7  UNL     1     -33.847   7.161   4.861  1.00 20.00     0.023 C 
HETATM    8  C8  UNL     1     -35.195   7.730   4.382  1.00 20.00     0.029 C 
HETATM    9  O9  UNL     1     -34.138   4.327   5.477  1.00 20.00    -0.391 OA
ENDROOT
TORSDOF 0
ENDMDL
MODEL 7
REMARK VINA RESULT:      -3.6     15.819     16.902
REMARK  0 active torsions:
REMARK  status: ('A' for Active; 'I' for Inactive)
ROOT
HETATM    1  C1  UNL     1     -34.796   5.039   6.931  1.00 20.00     0.013 C 
HETATM    2  C2  UNL     1     -34.548   5.614   5.907  1.00 20.00    -0.107 C 
HETATM    3  C3  UNL     1     -33.334   5.433   3.770  1.00 20.00     0.048 C 
HETATM    4  C4  UNL     1     -33.498   7.637   4.967  1.00 20.00     0.048 C 
HETATM    5  C5  UNL     1     -32.724   6.197   2.599  1.00 20.00     0.169 C 
HETATM    6  C6  UNL     1     -32.879   8.274   3.727  1.00 20.00     0.169 C 
HETATM    7  C7  UNL     1     -34.241   6.324   4.644  1.00 20.00     0.023 C 
HETATM    8  C8  UNL     1     -35.572   6.613   3.926  1.00 20.00     0.029 C 
HETATM    9  O9  UNL     1     -32.023   7.351   3.057  1.00 20.00    -0.391 OA
ENDROOT
TORSDOF 0
ENDMDL
MODEL 8
REMARK VINA RESULT:      -3.5     15.543     16.623
REMARK  0 active torsions:
REMARK  status: ('A' for Active; 'I' for Inactive)
ROOT
HETATM    1  C1  UNL     1     -31.090  18.514  -0.043  1.00 20.00     0.013 C 
HETATM    2  C2  UNL     1     -31.988  18.414  -0.834  1.00 20.00    -0.107 C 
HETATM    3  C3  UNL     1     -33.131  16.846  -2.353  1.00 20.00     0.048 C 
HETATM    4  C4  UNL     1     -32.848  19.263  -2.982  1.00 20.00     0.048 C 
HETATM    5  C5  UNL     1     -34.032  16.709  -3.576  1.00 20.00     0.169 C 
HETATM    6  C6  UNL     1     -33.766  18.986  -4.169  1.00 20.00     0.169 C 
HETATM    7  C7  UNL     1     -33.094  18.290  -1.811  1.00 20.00     0.023 C 
HETATM    8  C8  UNL     1     -34.409  18.631  -1.085  1.00 20.00     0.029 C 
HETATM    9  O9  UNL     1     -33.648  17.630  -4.595  1.00 20.00    -0.391 OA
ENDROOT
TORSDOF 0
ENDMDL
MODEL 9
REMARK VINA RESULT:      -3.4     16.235     17.456
REMARK  0 active torsions:
REMARK  status: ('A' for Active; 'I' for Inactive)
ROOT
HETATM    1  C1  UNL     1     -32.909   4.699   2.205  1.00 20.00     0.013 C 
HETATM    2  C2  UNL     1     -33.505   5.220   3.108  1.00 20.00    -0.107 C 
HETATM    3  C3  UNL     1     -33.543   7.190   4.588  1.00 20.00     0.048 C 
HETATM    4  C4  UNL     1     -34.217   4.927   5.450  1.00 20.00     0.048 C 
HETATM    5  C5  UNL     1     -34.043   7.761   5.911  1.00 20.00     0.169 C 
HETATM    6  C6  UNL     1     -34.677   5.629   6.723  1.00 20.00     0.169 C 
HETATM    7  C7  UNL     1     -34.239   5.862   4.223  1.00 20.00     0.023 C 
HETATM    8  C8  UNL     1     -35.684   6.116   3.757  1.00 20.00     0.029 C 
HETATM    9  O9  UNL     1     -33.907   6.805   6.960  1.00 20.00    -0.391 OA
ENDROOT
TORSDOF 0
ENDMDL
