MODEL 1
REMARK VINA RESULT:      -4.1      0.000      0.000
REMARK  2 active torsions:
REMARK  status: ('A' for Active; 'I' for Inactive)
REMARK    1  A    between atoms: C8_8  and  O11_11 
REMARK    2  A    between atoms: C9_9  and  O11_11 
ROOT
HETATM    1  C1  UNL     1     -43.143  12.552   8.612  1.00 20.00     0.092 C 
HETATM    2  C2  UNL     1     -41.492  14.144   8.446  1.00 20.00     0.027 C 
HETATM    3  C3  UNL     1     -40.426  14.732   9.012  1.00 20.00     0.040 C 
HETATM    4  C4  UNL     1     -43.300  12.362   7.127  1.00 20.00     0.079 C 
HETATM    5  C5  UNL     1     -41.777  14.330   6.976  1.00 20.00     0.090 C 
HETATM    6  C8  UNL     1     -42.170  13.003   6.344  1.00 20.00     0.132 C 
HETATM    7  N10 UNL     1     -42.331  13.368   9.209  1.00 20.00    -0.270 NA
ENDROOT
BRANCH   6   8
HETATM    8  O11 UNL     1     -41.053  12.116   6.323  1.00 20.00    -0.380 OA
BRANCH   8   9
HETATM    9  C9  UNL     1     -40.015  12.610   5.490  1.00 20.00     0.122 A 
HETATM   10  C6  UNL     1     -38.639  12.071   5.756  1.00 20.00     0.034 A 
HETATM   11  C7  UNL     1     -39.401  11.620   4.543  1.00 20.00     0.034 A 
ENDBRANCH   8   9
ENDBRANCH   6   8
TORSDOF 2
ENDMDL
MODEL 2
REMARK VINA RESULT:      -3.9     12.943     14.319
REMARK  2 active torsions:
REMARK  status: ('A' for Active; 'I' for Inactive)
REMARK    1  A    between atoms: C8_8  and  O11_11 
REMARK    2  A    between atoms: C9_9  and  O11_11 
ROOT
HETATM    1  C1  UNL     1     -35.851  13.892  -4.667  1.00 20.00     0.092 C 
HETATM    2  C2  UNL     1     -35.622  15.257  -6.503  1.00 20.00     0.027 C 
HETATM    3  C3  UNL     1     -36.212  16.092  -7.372  1.00 20.00     0.040 C 
HETATM    4  C4  UNL     1     -34.423  14.033  -4.210  1.00 20.00     0.079 C 
HETATM    5  C5  UNL     1     -34.117  15.209  -6.388  1.00 20.00     0.090 C 
HETATM    6  C8  UNL     1     -33.703  15.160  -4.925  1.00 20.00     0.132 C 
HETATM    7  N10 UNL     1     -36.391  14.438  -5.712  1.00 20.00    -0.270 NA
ENDROOT
BRANCH   6   8
HETATM    8  O11 UNL     1     -34.014  16.396  -4.282  1.00 20.00    -0.380 OA
BRANCH   8   9
HETATM    9  C9  UNL     1     -33.054  16.717  -3.286  1.00 20.00     0.122 A 
HETATM   10  C6  UNL     1     -33.101  18.118  -2.748  1.00 20.00     0.034 A 
HETATM   11  C7  UNL     1     -33.594  16.976  -1.909  1.00 20.00     0.034 A 
ENDBRANCH   8   9
ENDBRANCH   6   8
TORSDOF 2
ENDMDL
MODEL 3
REMARK VINA RESULT:      -3.7     12.114     13.721
REMARK  2 active torsions:
REMARK  status: ('A' for Active; 'I' for Inactive)
REMARK    1  A    between atoms: C8_8  and  O11_11 
REMARK    2  A    between atoms: C9_9  and  O11_11 
ROOT
HETATM    1  C1  UNL     1     -34.381  14.728  -4.767  1.00 20.00     0.092 C 
HETATM    2  C2  UNL     1     -35.236  16.862  -4.829  1.00 20.00     0.027 C 
HETATM    3  C3  UNL     1     -36.327  17.643  -4.849  1.00 20.00     0.040 C 
HETATM    4  C4  UNL     1     -33.088  15.117  -4.101  1.00 20.00     0.079 C 
HETATM    5  C5  UNL     1     -33.882  17.446  -4.504  1.00 20.00     0.090 C 
HETATM    6  C8  UNL     1     -33.129  16.530  -3.551  1.00 20.00     0.132 C 
HETATM    7  N10 UNL     1     -35.350  15.521  -5.107  1.00 20.00    -0.270 NA
ENDROOT
BRANCH   6   8
HETATM    8  O11 UNL     1     -33.765  16.516  -2.274  1.00 20.00    -0.380 OA
BRANCH   8   9
HETATM    9  C9  UNL     1     -33.738  17.801  -1.670  1.00 20.00     0.122 A 
HETATM   10  C6  UNL     1     -33.688  17.826  -0.169  1.00 20.00     0.034 A 
HETATM   11  C7  UNL     1     -32.465  18.174  -0.966  1.00 20.00     0.034 A 
ENDBRANCH   8   9
ENDBRANCH   6   8
TORSDOF 2
ENDMDL
MODEL 4
REMARK VINA RESULT:      -3.7     11.820     12.964
REMARK  2 active torsions:
REMARK  status: ('A' for Active; 'I' for Inactive)
REMARK    1  A    between atoms: C8_8  and  O11_11 
REMARK    2  A    between atoms: C9_9  and  O11_11 
ROOT
HETATM    1  C1  UNL     1     -34.472  18.783  -0.124  1.00 20.00     0.092 C 
HETATM    2  C2  UNL     1     -32.205  18.691  -0.492  1.00 20.00     0.027 C 
HETATM    3  C3  UNL     1     -30.989  18.405   0.000  1.00 20.00     0.040 C 
HETATM    4  C4  UNL     1     -34.855  18.593  -1.568  1.00 20.00     0.079 C 
HETATM    5  C5  UNL     1     -32.409  18.855  -1.979  1.00 20.00     0.090 C 
HETATM    6  C8  UNL     1     -33.680  18.143  -2.416  1.00 20.00     0.132 C 
HETATM    7  N10 UNL     1     -33.271  18.839   0.361  1.00 20.00    -0.270 NA
ENDROOT
BRANCH   6   8
HETATM    8  O11 UNL     1     -33.525  16.730  -2.288  1.00 20.00    -0.380 OA
BRANCH   8   9
HETATM    9  C9  UNL     1     -33.136  16.139  -3.519  1.00 20.00     0.122 A 
HETATM   10  C6  UNL     1     -33.828  14.857  -3.885  1.00 20.00     0.034 A 
HETATM   11  C7  UNL     1     -34.175  16.129  -4.603  1.00 20.00     0.034 A 
ENDBRANCH   8   9
ENDBRANCH   6   8
TORSDOF 2
ENDMDL
MODEL 5
REMARK VINA RESULT:      -3.7      1.765      2.739
REMARK  2 active torsions:
REMARK  status: ('A' for Active; 'I' for Inactive)
REMARK    1  A    between atoms: C8_8  and  O11_11 
REMARK    2  A    between atoms: C9_9  and  O11_11 
ROOT
HETATM    1  C1  UNL     1     -40.434  15.582   7.774  1.00 20.00     0.092 C 
HETATM    2  C2  UNL     1     -42.160  15.723   6.261  1.00 20.00     0.027 C 
HETATM    3  C3  UNL     1     -42.730  16.404   5.255  1.00 20.00     0.040 C 
HETATM    4  C4  UNL     1     -40.482  14.082   7.899  1.00 20.00     0.079 C 
HETATM    5  C5  UNL     1     -42.565  14.297   6.545  1.00 20.00     0.090 C 
HETATM    6  C8  UNL     1     -41.334  13.445   6.819  1.00 20.00     0.132 C 
HETATM    7  N10 UNL     1     -41.202  16.326   7.039  1.00 20.00    -0.270 NA
ENDROOT
BRANCH   6   8
HETATM    8  O11 UNL     1     -40.557  13.305   5.630  1.00 20.00    -0.380 OA
BRANCH   8   9
HETATM    9  C9  UNL     1     -39.933  12.031   5.568  1.00 20.00     0.122 A 
HETATM   10  C6  UNL     1     -39.233  11.699   4.281  1.00 20.00     0.034 A 
HETATM   11  C7  UNL     1     -38.432  12.033   5.505  1.00 20.00     0.034 A 
ENDBRANCH   8   9
ENDBRANCH   6   8
TORSDOF 2
ENDMDL
MODEL 6
REMARK VINA RESULT:      -3.5     13.423     14.770
REMARK  2 active torsions:
REMARK  status: ('A' for Active; 'I' for Inactive)
REMARK    1  A    between atoms: C8_8  and  O11_11 
REMARK    2  A    between atoms: C9_9  and  O11_11 
ROOT
HETATM    1  C1  UNL     1     -34.468  15.897  -7.506  1.00 20.00     0.092 C 
HETATM    2  C2  UNL     1     -35.648  15.041  -5.728  1.00 20.00     0.027 C 
HETATM    3  C3  UNL     1     -35.901  13.982  -4.944  1.00 20.00     0.040 C 
HETATM    4  C4  UNL     1     -34.506  17.323  -7.023  1.00 20.00     0.079 C 
HETATM    5  C5  UNL     1     -36.077  16.425  -5.308  1.00 20.00     0.090 C 
HETATM    6  C8  UNL     1     -34.965  17.427  -5.581  1.00 20.00     0.132 C 
HETATM    7  N10 UNL     1     -34.995  14.865  -6.925  1.00 20.00    -0.270 NA
ENDROOT
BRANCH   6   8
HETATM    8  O11 UNL     1     -33.855  17.181  -4.719  1.00 20.00    -0.380 OA
BRANCH   8   9
HETATM    9  C9  UNL     1     -34.169  17.497  -3.371  1.00 20.00     0.122 A 
HETATM   10  C6  UNL     1     -33.476  16.678  -2.320  1.00 20.00     0.034 A 
HETATM   11  C7  UNL     1     -33.058  18.099  -2.559  1.00 20.00     0.034 A 
ENDBRANCH   8   9
ENDBRANCH   6   8
TORSDOF 2
ENDMDL
MODEL 7
REMARK VINA RESULT:      -3.4      2.103      4.066
REMARK  2 active torsions:
REMARK  status: ('A' for Active; 'I' for Inactive)
REMARK    1  A    between atoms: C8_8  and  O11_11 
REMARK    2  A    between atoms: C9_9  and  O11_11 
ROOT
HETATM    1  C1  UNL     1     -42.124  14.365   4.518  1.00 20.00     0.092 C 
HETATM    2  C2  UNL     1     -40.663  12.748   5.251  1.00 20.00     0.027 C 
HETATM    3  C3  UNL     1     -39.475  12.142   5.097  1.00 20.00     0.040 C 
HETATM    4  C4  UNL     1     -42.795  14.560   5.852  1.00 20.00     0.079 C 
HETATM    5  C5  UNL     1     -41.454  12.567   6.524  1.00 20.00     0.090 C 
HETATM    6  C8  UNL     1     -42.026  13.901   6.982  1.00 20.00     0.132 C 
HETATM    7  N10 UNL     1     -41.165  13.536   4.244  1.00 20.00    -0.270 NA
ENDROOT
BRANCH   6   8
HETATM    8  O11 UNL     1     -40.975  14.771   7.401  1.00 20.00    -0.380 OA
BRANCH   8   9
HETATM    9  C9  UNL     1     -40.365  14.305   8.595  1.00 20.00     0.122 A 
HETATM   10  C6  UNL     1     -40.092  15.341   9.648  1.00 20.00     0.034 A 
HETATM   11  C7  UNL     1     -41.212  14.359   9.834  1.00 20.00     0.034 A 
ENDBRANCH   8   9
ENDBRANCH   6   8
TORSDOF 2
ENDMDL
MODEL 8
REMARK VINA RESULT:      -3.4     20.777     22.543
REMARK  2 active torsions:
REMARK  status: ('A' for Active; 'I' for Inactive)
REMARK    1  A    between atoms: C8_8  and  O11_11 
REMARK    2  A    between atoms: C9_9  and  O11_11 
ROOT
HETATM    1  C1  UNL     1     -24.938  -1.358  12.222  1.00 20.00     0.092 C 
HETATM    2  C2  UNL     1     -26.899  -1.276  11.025  1.00 20.00     0.027 C 
HETATM    3  C3  UNL     1     -27.781  -0.524  10.349  1.00 20.00     0.040 C 
HETATM    4  C4  UNL     1     -24.626  -2.791  11.879  1.00 20.00     0.079 C 
HETATM    5  C5  UNL     1     -26.918  -2.780  10.894  1.00 20.00     0.090 C 
HETATM    6  C8  UNL     1     -25.499  -3.313  10.753  1.00 20.00     0.132 C 
HETATM    7  N10 UNL     1     -25.973  -0.676  11.843  1.00 20.00    -0.270 NA
ENDROOT
BRANCH   6   8
HETATM    8  O11 UNL     1     -24.942  -2.909   9.503  1.00 20.00    -0.380 OA
BRANCH   8   9
HETATM    9  C9  UNL     1     -23.784  -3.666   9.185  1.00 20.00     0.122 A 
HETATM   10  C6  UNL     1     -23.257  -3.515   7.787  1.00 20.00     0.034 A 
HETATM   11  C7  UNL     1     -22.529  -2.879   8.935  1.00 20.00     0.034 A 
ENDBRANCH   8   9
ENDBRANCH   6   8
TORSDOF 2
ENDMDL
MODEL 9
REMARK VINA RESULT:      -3.4     20.079     21.832
REMARK  2 active torsions:
REMARK  status: ('A' for Active; 'I' for Inactive)
REMARK    1  A    between atoms: C8_8  and  O11_11 
REMARK    2  A    between atoms: C9_9  and  O11_11 
ROOT
HETATM    1  C1  UNL     1     -27.928  -0.655  11.010  1.00 20.00     0.092 C 
HETATM    2  C2  UNL     1     -28.464  -2.875  10.745  1.00 20.00     0.027 C 
HETATM    3  C3  UNL     1     -29.201  -3.792  10.099  1.00 20.00     0.040 C 
HETATM    4  C4  UNL     1     -26.532  -0.909  11.512  1.00 20.00     0.079 C 
HETATM    5  C5  UNL     1     -27.261  -3.293  11.555  1.00 20.00     0.090 C 
HETATM    6  C8  UNL     1     -26.098  -2.346  11.297  1.00 20.00     0.132 C 
HETATM    7  N10 UNL     1     -28.807  -1.547  10.673  1.00 20.00    -0.270 NA
ENDROOT
BRANCH   6   8
HETATM    8  O11 UNL     1     -25.627  -2.497   9.958  1.00 20.00    -0.380 OA
BRANCH   8   9
HETATM    9  C9  UNL     1     -24.536  -3.403   9.893  1.00 20.00     0.122 A 
HETATM   10  C6  UNL     1     -23.608  -3.239   8.724  1.00 20.00     0.034 A 
HETATM   11  C7  UNL     1     -23.171  -2.808  10.094  1.00 20.00     0.034 A 
ENDBRANCH   8   9
ENDBRANCH   6   8
TORSDOF 2
ENDMDL
