MODEL 1
REMARK VINA RESULT:      -5.3      0.000      0.000
REMARK  0 active torsions:
REMARK  status: ('A' for Active; 'I' for Inactive)
ROOT
HETATM    1  C1  UNL     1     -33.084   8.409   5.401  1.00 20.00     0.006 A 
HETATM    2  C2  UNL     1     -33.618   7.194   5.319  1.00 20.00    -0.008 A 
HETATM    3  C3  UNL     1     -33.169   6.731   4.006  1.00 20.00     0.038 A 
HETATM    4  C4  UNL     1     -32.274   8.718   4.188  1.00 20.00     0.177 A 
HETATM    5  C5  UNL     1     -34.487   6.377   6.192  1.00 20.00     0.310 C 
HETATM    6  C6  UNL     1     -33.648   5.400   3.500  1.00 20.00     0.089 C 
HETATM    7  C7  UNL     1     -34.255   4.551   4.620  1.00 20.00     0.276 C 
HETATM    8  N8  UNL     1     -32.407   7.529   3.312  1.00 20.00    -0.290 NA
HETATM    9  N9  UNL     1     -35.191   5.318   5.454  1.00 20.00     0.087 N 
HETATM   10  H19 UNL     1     -35.639   4.690   6.123  1.00 20.00     0.316 HD
ENDROOT
TORSDOF 0
ENDMDL
MODEL 2
REMARK VINA RESULT:      -5.2      0.984      3.107
REMARK  0 active torsions:
REMARK  status: ('A' for Active; 'I' for Inactive)
ROOT
HETATM    1  C1  UNL     1     -34.380   6.541   6.208  1.00 20.00     0.006 A 
HETATM    2  C2  UNL     1     -33.652   6.940   5.170  1.00 20.00    -0.008 A 
HETATM    3  C3  UNL     1     -33.738   5.800   4.257  1.00 20.00     0.038 A 
HETATM    4  C4  UNL     1     -34.961   5.189   5.965  1.00 20.00     0.177 A 
HETATM    5  C5  UNL     1     -32.861   8.149   4.855  1.00 20.00     0.310 C 
HETATM    6  C6  UNL     1     -32.957   5.833   2.974  1.00 20.00     0.089 C 
HETATM    7  C7  UNL     1     -32.465   7.246   2.644  1.00 20.00     0.276 C 
HETATM    8  N8  UNL     1     -34.459   4.780   4.630  1.00 20.00    -0.290 NA
HETATM    9  N9  UNL     1     -31.859   7.909   3.806  1.00 20.00     0.087 N 
HETATM   10  H19 UNL     1     -31.463   8.803   3.516  1.00 20.00     0.316 HD
ENDROOT
TORSDOF 0
ENDMDL
MODEL 3
REMARK VINA RESULT:      -5.0      1.182      2.063
REMARK  0 active torsions:
REMARK  status: ('A' for Active; 'I' for Inactive)
ROOT
HETATM    1  C1  UNL     1     -32.251   7.610   3.315  1.00 20.00     0.006 A 
HETATM    2  C2  UNL     1     -33.058   6.645   3.746  1.00 20.00    -0.008 A 
HETATM    3  C3  UNL     1     -33.573   7.190   5.003  1.00 20.00     0.038 A 
HETATM    4  C4  UNL     1     -32.267   8.774   4.247  1.00 20.00     0.177 A 
HETATM    5  C5  UNL     1     -33.432   5.302   3.253  1.00 20.00     0.310 C 
HETATM    6  C6  UNL     1     -34.473   6.339   5.851  1.00 20.00     0.089 C 
HETATM    7  C7  UNL     1     -35.020   5.138   5.073  1.00 20.00     0.276 C 
HETATM    8  N8  UNL     1     -33.179   8.383   5.349  1.00 20.00    -0.290 NA
HETATM    9  N9  UNL     1     -33.970   4.441   4.317  1.00 20.00     0.087 N 
HETATM   10  H19 UNL     1     -34.361   3.599   3.895  1.00 20.00     0.316 HD
ENDROOT
TORSDOF 0
ENDMDL
MODEL 4
REMARK VINA RESULT:      -4.9      1.005      2.224
REMARK  0 active torsions:
REMARK  status: ('A' for Active; 'I' for Inactive)
ROOT
HETATM    1  C1  UNL     1     -32.909   6.031   2.774  1.00 20.00     0.006 A 
HETATM    2  C2  UNL     1     -33.543   5.891   3.934  1.00 20.00    -0.008 A 
HETATM    3  C3  UNL     1     -33.219   7.136   4.633  1.00 20.00     0.038 A 
HETATM    4  C4  UNL     1     -32.219   7.351   2.699  1.00 20.00     0.177 A 
HETATM    5  C5  UNL     1     -34.366   4.829   4.551  1.00 20.00     0.310 C 
HETATM    6  C6  UNL     1     -33.694   7.324   6.045  1.00 20.00     0.089 C 
HETATM    7  C7  UNL     1     -34.781   6.312   6.419  1.00 20.00     0.276 C 
HETATM    8  N8  UNL     1     -32.484   8.008   4.002  1.00 20.00    -0.290 NA
HETATM    9  N9  UNL     1     -34.429   4.944   6.016  1.00 20.00     0.087 N 
HETATM   10  H19 UNL     1     -35.134   4.296   6.368  1.00 20.00     0.316 HD
ENDROOT
TORSDOF 0
ENDMDL
MODEL 5
REMARK VINA RESULT:      -4.9      0.982      3.573
REMARK  0 active torsions:
REMARK  status: ('A' for Active; 'I' for Inactive)
ROOT
HETATM    1  C1  UNL     1     -34.495   5.048   4.774  1.00 20.00     0.006 A 
HETATM    2  C2  UNL     1     -33.660   5.935   4.243  1.00 20.00    -0.008 A 
HETATM    3  C3  UNL     1     -33.631   6.996   5.251  1.00 20.00     0.038 A 
HETATM    4  C4  UNL     1     -34.971   5.498   6.113  1.00 20.00     0.177 A 
HETATM    5  C5  UNL     1     -32.901   6.025   2.977  1.00 20.00     0.310 C 
HETATM    6  C6  UNL     1     -32.845   8.245   4.972  1.00 20.00     0.089 C 
HETATM    7  C7  UNL     1     -31.875   8.057   3.802  1.00 20.00     0.276 C 
HETATM    8  N8  UNL     1     -34.338   6.821   6.332  1.00 20.00    -0.290 NA
HETATM    9  N9  UNL     1     -32.513   7.406   2.650  1.00 20.00     0.087 N 
HETATM   10  H19 UNL     1     -31.859   7.389   1.867  1.00 20.00     0.316 HD
ENDROOT
TORSDOF 0
ENDMDL
MODEL 6
REMARK VINA RESULT:      -4.8      0.956      1.028
REMARK  0 active torsions:
REMARK  status: ('A' for Active; 'I' for Inactive)
ROOT
HETATM    1  C1  UNL     1     -32.587   8.309   4.532  1.00 20.00     0.006 A 
HETATM    2  C2  UNL     1     -33.297   7.346   5.110  1.00 20.00    -0.008 A 
HETATM    3  C3  UNL     1     -33.364   6.322   4.065  1.00 20.00     0.038 A 
HETATM    4  C4  UNL     1     -32.165   7.912   3.158  1.00 20.00     0.177 A 
HETATM    5  C5  UNL     1     -33.960   7.183   6.421  1.00 20.00     0.310 C 
HETATM    6  C6  UNL     1     -34.175   5.082   4.311  1.00 20.00     0.089 C 
HETATM    7  C7  UNL     1     -34.518   4.912   5.794  1.00 20.00     0.276 C 
HETATM    8  N8  UNL     1     -32.748   6.565   2.942  1.00 20.00    -0.290 NA
HETATM    9  N9  UNL     1     -35.014   6.157   6.396  1.00 20.00     0.087 N 
HETATM   10  H19 UNL     1     -35.317   5.971   7.352  1.00 20.00     0.316 HD
ENDROOT
TORSDOF 0
ENDMDL
MODEL 7
REMARK VINA RESULT:      -4.4      1.553      2.838
REMARK  0 active torsions:
REMARK  status: ('A' for Active; 'I' for Inactive)
ROOT
HETATM    1  C1  UNL     1     -32.427   6.654   2.845  1.00 20.00     0.006 A 
HETATM    2  C2  UNL     1     -32.947   7.030   4.009  1.00 20.00    -0.008 A 
HETATM    3  C3  UNL     1     -33.805   5.898   4.361  1.00 20.00     0.038 A 
HETATM    4  C4  UNL     1     -32.902   5.293   2.463  1.00 20.00     0.177 A 
HETATM    5  C5  UNL     1     -32.843   8.237   4.855  1.00 20.00     0.310 C 
HETATM    6  C6  UNL     1     -34.650   5.981   5.600  1.00 20.00     0.089 C 
HETATM    7  C7  UNL     1     -34.198   7.119   6.521  1.00 20.00     0.276 C 
HETATM    8  N8  UNL     1     -33.829   4.881   3.545  1.00 20.00    -0.290 NA
HETATM    9  N9  UNL     1     -33.973   8.372   5.787  1.00 20.00     0.087 N 
HETATM   10  H19 UNL     1     -33.767   9.119   6.450  1.00 20.00     0.316 HD
ENDROOT
TORSDOF 0
ENDMDL
MODEL 8
REMARK VINA RESULT:      -4.1     12.204     13.197
REMARK  0 active torsions:
REMARK  status: ('A' for Active; 'I' for Inactive)
ROOT
HETATM    1  C1  UNL     1     -33.307  16.757  -2.506  1.00 20.00     0.006 A 
HETATM    2  C2  UNL     1     -33.454  16.044  -3.618  1.00 20.00    -0.008 A 
HETATM    3  C3  UNL     1     -34.483  16.788  -4.346  1.00 20.00     0.038 A 
HETATM    4  C4  UNL     1     -34.189  17.959  -2.521  1.00 20.00     0.177 A 
HETATM    5  C5  UNL     1     -32.862  14.795  -4.141  1.00 20.00     0.310 C 
HETATM    6  C6  UNL     1     -34.997  16.240  -5.646  1.00 20.00     0.089 C 
HETATM    7  C7  UNL     1     -34.081  15.146  -6.204  1.00 20.00     0.276 C 
HETATM    8  N8  UNL     1     -34.943  17.878  -3.797  1.00 20.00    -0.290 NA
HETATM    9  N9  UNL     1     -33.696  14.167  -5.178  1.00 20.00     0.087 N 
HETATM   10  H19 UNL     1     -33.167  13.411  -5.614  1.00 20.00     0.316 HD
ENDROOT
TORSDOF 0
ENDMDL
MODEL 9
REMARK VINA RESULT:      -4.0     15.894     16.939
REMARK  0 active torsions:
REMARK  status: ('A' for Active; 'I' for Inactive)
ROOT
HETATM    1  C1  UNL     1     -22.761  19.095   8.680  1.00 20.00     0.006 A 
HETATM    2  C2  UNL     1     -23.539  18.890   9.739  1.00 20.00    -0.008 A 
HETATM    3  C3  UNL     1     -22.576  18.532  10.782  1.00 20.00     0.038 A 
HETATM    4  C4  UNL     1     -21.323  18.914   9.031  1.00 20.00     0.177 A 
HETATM    5  C5  UNL     1     -24.996  18.925   9.984  1.00 20.00     0.310 C 
HETATM    6  C6  UNL     1     -23.086  18.136  12.139  1.00 20.00     0.089 C 
HETATM    7  C7  UNL     1     -24.554  18.529  12.332  1.00 20.00     0.276 C 
HETATM    8  N8  UNL     1     -21.313  18.528  10.463  1.00 20.00    -0.290 NA
HETATM    9  N9  UNL     1     -25.385  18.159  11.178  1.00 20.00     0.087 N 
HETATM   10  H19 UNL     1     -26.363  18.353  11.391  1.00 20.00     0.316 HD
ENDROOT
TORSDOF 0
ENDMDL
