MODEL 1
REMARK VINA RESULT:      -3.3      0.000      0.000
REMARK  2 active torsions:
REMARK  status: ('A' for Active; 'I' for Inactive)
REMARK    1  A    between atoms: C1_1  and  O4_4 
REMARK    2  A    between atoms: C1_1  and  S5_5 
ROOT
HETATM    1  C1  UNL     1     -34.049   6.897   5.326  1.00 20.00     0.337 C 
HETATM    2  O3  UNL     1     -34.094   7.042   6.543  1.00 20.00    -0.251 OA
ENDROOT
BRANCH   1   3
HETATM    3  O4  UNL     1     -33.647   7.867   4.450  1.00 20.00    -0.317 OA
HETATM    4  C2  UNL     1     -32.432   8.548   4.785  1.00 20.00     0.214 C 
ENDBRANCH   1   3
BRANCH   1   5
HETATM    5  S5  UNL     1     -34.510   5.379   4.543  1.00 20.00     0.050 SA
HETATM    6 CL6  UNL     1     -33.204   5.336   2.984  1.00 20.00    -0.033 Cl
ENDBRANCH   1   5
TORSDOF 2
ENDMDL
MODEL 2
REMARK VINA RESULT:      -3.3      2.077      2.567
REMARK  2 active torsions:
REMARK  status: ('A' for Active; 'I' for Inactive)
REMARK    1  A    between atoms: C1_1  and  O4_4 
REMARK    2  A    between atoms: C1_1  and  S5_5 
ROOT
HETATM    1  C1  UNL     1     -33.776   7.128   5.397  1.00 20.00     0.337 C 
HETATM    2  O3  UNL     1     -34.213   7.155   6.541  1.00 20.00    -0.251 OA
ENDROOT
BRANCH   1   3
HETATM    3  O4  UNL     1     -34.089   6.166   4.476  1.00 20.00    -0.317 OA
HETATM    4  C2  UNL     1     -34.678   4.970   4.998  1.00 20.00     0.214 C 
ENDBRANCH   1   3
BRANCH   1   5
HETATM    5  S5  UNL     1     -32.661   8.359   4.786  1.00 20.00     0.050 SA
HETATM    6 CL6  UNL     1     -32.155   7.562   2.984  1.00 20.00    -0.033 Cl
ENDBRANCH   1   5
TORSDOF 2
ENDMDL
MODEL 3
REMARK VINA RESULT:      -3.2      2.060      2.327
REMARK  2 active torsions:
REMARK  status: ('A' for Active; 'I' for Inactive)
REMARK    1  A    between atoms: C1_1  and  O4_4 
REMARK    2  A    between atoms: C1_1  and  S5_5 
ROOT
HETATM    1  C1  UNL     1     -34.159   5.516   4.330  1.00 20.00     0.337 C 
HETATM    2  O3  UNL     1     -34.705   4.500   4.744  1.00 20.00    -0.251 OA
ENDROOT
BRANCH   1   3
HETATM    3  O4  UNL     1     -34.317   6.755   4.886  1.00 20.00    -0.317 OA
HETATM    4  C2  UNL     1     -34.099   6.840   6.298  1.00 20.00     0.214 C 
ENDBRANCH   1   3
BRANCH   1   5
HETATM    5  S5  UNL     1     -33.077   5.498   2.930  1.00 20.00     0.050 SA
HETATM    6 CL6  UNL     1     -32.212   7.333   3.087  1.00 20.00    -0.033 Cl
ENDBRANCH   1   5
TORSDOF 2
ENDMDL
MODEL 4
REMARK VINA RESULT:      -3.2      2.018      2.159
REMARK  2 active torsions:
REMARK  status: ('A' for Active; 'I' for Inactive)
REMARK    1  A    between atoms: C1_1  and  O4_4 
REMARK    2  A    between atoms: C1_1  and  S5_5 
ROOT
HETATM    1  C1  UNL     1     -33.245   7.613   5.008  1.00 20.00     0.337 C 
HETATM    2  O3  UNL     1     -32.786   8.743   5.131  1.00 20.00    -0.251 OA
ENDROOT
BRANCH   1   3
HETATM    3  O4  UNL     1     -33.139   6.859   3.872  1.00 20.00    -0.317 OA
HETATM    4  C2  UNL     1     -32.188   7.316   2.904  1.00 20.00     0.214 C 
ENDBRANCH   1   3
BRANCH   1   5
HETATM    5  S5  UNL     1     -34.119   6.805   6.317  1.00 20.00     0.050 SA
HETATM    6 CL6  UNL     1     -34.645   5.061   5.413  1.00 20.00    -0.033 Cl
ENDBRANCH   1   5
TORSDOF 2
ENDMDL
MODEL 5
REMARK VINA RESULT:      -3.2      2.320      2.605
REMARK  2 active torsions:
REMARK  status: ('A' for Active; 'I' for Inactive)
REMARK    1  A    between atoms: C1_1  and  O4_4 
REMARK    2  A    between atoms: C1_1  and  S5_5 
ROOT
HETATM    1  C1  UNL     1     -33.553   5.870   3.765  1.00 20.00     0.337 C 
HETATM    2  O3  UNL     1     -33.116   5.282   2.783  1.00 20.00    -0.251 OA
ENDROOT
BRANCH   1   3
HETATM    3  O4  UNL     1     -33.216   7.150   4.109  1.00 20.00    -0.317 OA
HETATM    4  C2  UNL     1     -32.120   7.724   3.387  1.00 20.00     0.214 C 
ENDBRANCH   1   3
BRANCH   1   5
HETATM    5  S5  UNL     1     -34.698   5.114   4.882  1.00 20.00     0.050 SA
HETATM    6 CL6  UNL     1     -34.438   6.264   6.540  1.00 20.00    -0.033 Cl
ENDBRANCH   1   5
TORSDOF 2
ENDMDL
MODEL 6
REMARK VINA RESULT:      -3.2      2.785      2.906
REMARK  2 active torsions:
REMARK  status: ('A' for Active; 'I' for Inactive)
REMARK    1  A    between atoms: C1_1  and  O4_4 
REMARK    2  A    between atoms: C1_1  and  S5_5 
ROOT
HETATM    1  C1  UNL     1     -34.239   5.576   4.784  1.00 20.00     0.337 C 
HETATM    2  O3  UNL     1     -34.751   4.463   4.813  1.00 20.00    -0.251 OA
ENDROOT
BRANCH   1   3
HETATM    3  O4  UNL     1     -33.657   6.126   3.674  1.00 20.00    -0.317 OA
HETATM    4  C2  UNL     1     -32.990   5.210   2.799  1.00 20.00     0.214 C 
ENDBRANCH   1   3
BRANCH   1   5
HETATM    5  S5  UNL     1     -34.189   6.627   6.206  1.00 20.00     0.050 SA
HETATM    6 CL6  UNL     1     -33.539   8.367   5.379  1.00 20.00    -0.033 Cl
ENDBRANCH   1   5
TORSDOF 2
ENDMDL
MODEL 7
REMARK VINA RESULT:      -3.1      2.515      2.927
REMARK  2 active torsions:
REMARK  status: ('A' for Active; 'I' for Inactive)
REMARK    1  A    between atoms: C1_1  and  O4_4 
REMARK    2  A    between atoms: C1_1  and  S5_5 
ROOT
HETATM    1  C1  UNL     1     -33.306   6.984   4.333  1.00 20.00     0.337 C 
HETATM    2  O3  UNL     1     -32.597   7.810   3.770  1.00 20.00    -0.251 OA
ENDROOT
BRANCH   1   3
HETATM    3  O4  UNL     1     -33.759   5.833   3.749  1.00 20.00    -0.317 OA
HETATM    4  C2  UNL     1     -32.925   5.282   2.724  1.00 20.00     0.214 C 
ENDBRANCH   1   3
BRANCH   1   5
HETATM    5  S5  UNL     1     -33.842   7.189   6.006  1.00 20.00     0.050 SA
HETATM    6 CL6  UNL     1     -34.730   5.391   6.351  1.00 20.00    -0.033 Cl
ENDBRANCH   1   5
TORSDOF 2
ENDMDL
MODEL 8
REMARK VINA RESULT:      -3.1      1.702      2.270
REMARK  2 active torsions:
REMARK  status: ('A' for Active; 'I' for Inactive)
REMARK    1  A    between atoms: C1_1  and  O4_4 
REMARK    2  A    between atoms: C1_1  and  S5_5 
ROOT
HETATM    1  C1  UNL     1     -32.949   7.770   4.476  1.00 20.00     0.337 C 
HETATM    2  O3  UNL     1     -32.568   8.762   5.086  1.00 20.00    -0.251 OA
ENDROOT
BRANCH   1   3
HETATM    3  O4  UNL     1     -33.938   6.931   4.913  1.00 20.00    -0.317 OA
HETATM    4  C2  UNL     1     -34.076   6.814   6.333  1.00 20.00     0.214 C 
ENDBRANCH   1   3
BRANCH   1   5
HETATM    5  S5  UNL     1     -32.249   7.294   2.922  1.00 20.00     0.050 SA
HETATM    6 CL6  UNL     1     -32.969   5.400   2.738  1.00 20.00    -0.033 Cl
ENDBRANCH   1   5
TORSDOF 2
ENDMDL
MODEL 9
REMARK VINA RESULT:      -3.0      2.722      3.188
REMARK  2 active torsions:
REMARK  status: ('A' for Active; 'I' for Inactive)
REMARK    1  A    between atoms: C1_1  and  O4_4 
REMARK    2  A    between atoms: C1_1  and  S5_5 
ROOT
HETATM    1  C1  UNL     1     -33.882   5.567   4.044  1.00 20.00     0.337 C 
HETATM    2  O3  UNL     1     -33.395   5.181   2.987  1.00 20.00    -0.251 OA
ENDROOT
BRANCH   1   3
HETATM    3  O4  UNL     1     -34.626   4.780   4.880  1.00 20.00    -0.317 OA
HETATM    4  C2  UNL     1     -34.714   5.220   6.240  1.00 20.00     0.214 C 
ENDBRANCH   1   3
BRANCH   1   5
HETATM    5  S5  UNL     1     -33.676   7.225   4.626  1.00 20.00     0.050 SA
HETATM    6 CL6  UNL     1     -32.047   7.810   3.557  1.00 20.00    -0.033 Cl
ENDBRANCH   1   5
TORSDOF 2
ENDMDL
