MODEL 1
REMARK VINA RESULT:      -4.0      0.000      0.000
REMARK  0 active torsions:
REMARK  status: ('A' for Active; 'I' for Inactive)
ROOT
HETATM    1  C1  UNL     1     -33.558   7.916   5.190  1.00 20.00     0.050 C 
HETATM    2  C2  UNL     1     -32.251   8.291   4.521  1.00 20.00     0.171 C 
HETATM    3  C3  UNL     1     -33.743   6.500   4.694  1.00 20.00     0.128 C 
HETATM    4  C4  UNL     1     -33.270   6.620   3.256  1.00 20.00     0.235 C 
HETATM    5  O5  UNL     1     -32.226   7.609   3.257  1.00 20.00    -0.369 OA
HETATM    6 CL6  UNL     1     -35.416   5.945   4.830  1.00 20.00    -0.121 Cl
HETATM    7 CL7  UNL     1     -32.657   5.085   2.623  1.00 20.00    -0.094 Cl
ENDROOT
TORSDOF 0
ENDMDL
MODEL 2
REMARK VINA RESULT:      -4.0      2.191      2.951
REMARK  0 active torsions:
REMARK  status: ('A' for Active; 'I' for Inactive)
ROOT
HETATM    1  C1  UNL     1     -32.569   7.013   3.173  1.00 20.00     0.050 C 
HETATM    2  C2  UNL     1     -32.946   5.565   2.937  1.00 20.00     0.171 C 
HETATM    3  C3  UNL     1     -32.955   7.181   4.625  1.00 20.00     0.128 C 
HETATM    4  C4  UNL     1     -34.247   6.385   4.687  1.00 20.00     0.235 C 
HETATM    5  O5  UNL     1     -34.097   5.301   3.756  1.00 20.00    -0.369 OA
HETATM    6 CL6  UNL     1     -33.163   8.877   5.081  1.00 20.00    -0.121 Cl
HETATM    7 CL7  UNL     1     -34.568   5.756   6.311  1.00 20.00    -0.094 Cl
ENDROOT
TORSDOF 0
ENDMDL
MODEL 3
REMARK VINA RESULT:      -3.9      1.116      2.468
REMARK  0 active torsions:
REMARK  status: ('A' for Active; 'I' for Inactive)
ROOT
HETATM    1  C1  UNL     1     -32.161   7.639   3.488  1.00 20.00     0.050 C 
HETATM    2  C2  UNL     1     -32.593   8.511   4.649  1.00 20.00     0.171 C 
HETATM    3  C3  UNL     1     -33.277   6.620   3.458  1.00 20.00     0.128 C 
HETATM    4  C4  UNL     1     -33.514   6.392   4.941  1.00 20.00     0.235 C 
HETATM    5  O5  UNL     1     -33.251   7.647   5.589  1.00 20.00    -0.369 OA
HETATM    6 CL6  UNL     1     -32.828   5.145   2.592  1.00 20.00    -0.121 Cl
HETATM    7 CL7  UNL     1     -35.170   5.865   5.280  1.00 20.00    -0.094 Cl
ENDROOT
TORSDOF 0
ENDMDL
MODEL 4
REMARK VINA RESULT:      -3.8      2.283      3.084
REMARK  0 active torsions:
REMARK  status: ('A' for Active; 'I' for Inactive)
ROOT
HETATM    1  C1  UNL     1     -34.451   5.017   5.018  1.00 20.00     0.050 C 
HETATM    2  C2  UNL     1     -34.643   5.747   6.332  1.00 20.00     0.171 C 
HETATM    3  C3  UNL     1     -33.375   5.858   4.371  1.00 20.00     0.128 C 
HETATM    4  C4  UNL     1     -33.810   7.258   4.767  1.00 20.00     0.235 C 
HETATM    5  O5  UNL     1     -34.418   7.140   6.064  1.00 20.00    -0.369 OA
HETATM    6 CL6  UNL     1     -33.291   5.627   2.620  1.00 20.00    -0.121 Cl
HETATM    7 CL7  UNL     1     -32.448   8.388   4.832  1.00 20.00    -0.094 Cl
ENDROOT
TORSDOF 0
ENDMDL
MODEL 5
REMARK VINA RESULT:      -3.8      1.987      2.613
REMARK  0 active torsions:
REMARK  status: ('A' for Active; 'I' for Inactive)
ROOT
HETATM    1  C1  UNL     1     -33.854   4.718   3.921  1.00 20.00     0.050 C 
HETATM    2  C2  UNL     1     -33.127   5.354   2.754  1.00 20.00     0.171 C 
HETATM    3  C3  UNL     1     -34.369   5.942   4.644  1.00 20.00     0.128 C 
HETATM    4  C4  UNL     1     -33.193   6.892   4.501  1.00 20.00     0.235 C 
HETATM    5  O5  UNL     1     -32.586   6.595   3.233  1.00 20.00    -0.369 OA
HETATM    6 CL6  UNL     1     -34.792   5.609   6.329  1.00 20.00    -0.121 Cl
HETATM    7 CL7  UNL     1     -33.694   8.590   4.557  1.00 20.00    -0.094 Cl
ENDROOT
TORSDOF 0
ENDMDL
MODEL 6
REMARK VINA RESULT:      -3.7      2.304      2.720
REMARK  0 active torsions:
REMARK  status: ('A' for Active; 'I' for Inactive)
ROOT
HETATM    1  C1  UNL     1     -34.276   6.740   6.091  1.00 20.00     0.050 C 
HETATM    2  C2  UNL     1     -34.957   5.408   5.856  1.00 20.00     0.171 C 
HETATM    3  C3  UNL     1     -33.739   7.041   4.710  1.00 20.00     0.128 C 
HETATM    4  C4  UNL     1     -33.280   5.665   4.260  1.00 20.00     0.235 C 
HETATM    5  O5  UNL     1     -34.186   4.723   4.856  1.00 20.00    -0.369 OA
HETATM    6 CL6  UNL     1     -32.436   8.236   4.732  1.00 20.00    -0.121 Cl
HETATM    7 CL7  UNL     1     -33.296   5.499   2.497  1.00 20.00    -0.094 Cl
ENDROOT
TORSDOF 0
ENDMDL
MODEL 7
REMARK VINA RESULT:      -3.7      2.225      2.568
REMARK  0 active torsions:
REMARK  status: ('A' for Active; 'I' for Inactive)
ROOT
HETATM    1  C1  UNL     1     -33.996   6.880   5.263  1.00 20.00     0.050 C 
HETATM    2  C2  UNL     1     -34.321   5.750   4.309  1.00 20.00     0.171 C 
HETATM    3  C3  UNL     1     -33.340   7.871   4.328  1.00 20.00     0.128 C 
HETATM    4  C4  UNL     1     -32.524   6.949   3.438  1.00 20.00     0.235 C 
HETATM    5  O5  UNL     1     -33.276   5.730   3.323  1.00 20.00    -0.369 OA
HETATM    6 CL6  UNL     1     -32.352   9.063   5.183  1.00 20.00    -0.121 Cl
HETATM    7 CL7  UNL     1     -32.240   7.646   1.835  1.00 20.00    -0.094 Cl
ENDROOT
TORSDOF 0
ENDMDL
MODEL 8
REMARK VINA RESULT:      -3.4      1.899      2.271
REMARK  0 active torsions:
REMARK  status: ('A' for Active; 'I' for Inactive)
ROOT
HETATM    1  C1  UNL     1     -34.526   5.930   6.142  1.00 20.00     0.050 C 
HETATM    2  C2  UNL     1     -34.166   7.327   6.605  1.00 20.00     0.171 C 
HETATM    3  C3  UNL     1     -33.583   5.759   4.973  1.00 20.00     0.128 C 
HETATM    4  C4  UNL     1     -33.627   7.142   4.346  1.00 20.00     0.235 C 
HETATM    5  O5  UNL     1     -33.805   8.069   5.429  1.00 20.00    -0.369 OA
HETATM    6 CL6  UNL     1     -34.096   4.479   3.866  1.00 20.00    -0.121 Cl
HETATM    7 CL7  UNL     1     -32.144   7.519   3.455  1.00 20.00    -0.094 Cl
ENDROOT
TORSDOF 0
ENDMDL
MODEL 9
REMARK VINA RESULT:      -3.3      2.311      3.377
REMARK  0 active torsions:
REMARK  status: ('A' for Active; 'I' for Inactive)
ROOT
HETATM    1  C1  UNL     1     -33.202   5.643   2.812  1.00 20.00     0.050 C 
HETATM    2  C2  UNL     1     -33.833   5.325   4.151  1.00 20.00     0.171 C 
HETATM    3  C3  UNL     1     -32.440   6.906   3.142  1.00 20.00     0.128 C 
HETATM    4  C4  UNL     1     -33.417   7.615   4.063  1.00 20.00     0.235 C 
HETATM    5  O5  UNL     1     -34.111   6.584   4.785  1.00 20.00    -0.369 OA
HETATM    6 CL6  UNL     1     -32.032   7.851   1.704  1.00 20.00    -0.121 Cl
HETATM    7 CL7  UNL     1     -32.600   8.707   5.192  1.00 20.00    -0.094 Cl
ENDROOT
TORSDOF 0
ENDMDL
