MODEL 1
REMARK VINA RESULT:      -3.9      0.000      0.000
REMARK  1 active torsions:
REMARK  status: ('A' for Active; 'I' for Inactive)
REMARK    1  A    between atoms: C1_1  and  C4_4 
ROOT
HETATM    1  C2  UNL     1     -34.163   7.279   6.081  1.00 20.00     0.038 C 
HETATM    2  C3  UNL     1     -33.659   8.413   5.209  1.00 20.00     0.169 C 
HETATM    3  C4  UNL     1     -33.053   6.396   4.220  1.00 20.00     0.190 C 
HETATM    4  C5  UNL     1     -34.279   6.118   5.099  1.00 20.00    -0.013 C 
HETATM    5  C6  UNL     1     -35.615   6.204   4.336  1.00 20.00     0.018 C 
HETATM    6  C7  UNL     1     -34.188   4.761   5.800  1.00 20.00     0.018 C 
HETATM    7  O9  UNL     1     -32.915   7.818   4.137  1.00 20.00    -0.378 OA
ENDROOT
BRANCH   3   8
HETATM    8  C1  UNL     1     -33.139   5.866   2.826  1.00 20.00     0.263 C 
HETATM    9  O8  UNL     1     -32.770   4.739   2.507  1.00 20.00    -0.304 OA
ENDBRANCH   3   8
TORSDOF 1
ENDMDL
MODEL 2
REMARK VINA RESULT:      -3.8      1.477      1.760
REMARK  1 active torsions:
REMARK  status: ('A' for Active; 'I' for Inactive)
REMARK    1  A    between atoms: C1_1  and  C4_4 
ROOT
HETATM    1  C2  UNL     1     -34.554   5.473   6.308  1.00 20.00     0.038 C 
HETATM    2  C3  UNL     1     -34.349   6.876   6.847  1.00 20.00     0.169 C 
HETATM    3  C4  UNL     1     -33.208   6.688   4.828  1.00 20.00     0.190 C 
HETATM    4  C5  UNL     1     -34.336   5.649   4.808  1.00 20.00    -0.013 C 
HETATM    5  C6  UNL     1     -35.629   6.157   4.144  1.00 20.00     0.018 C 
HETATM    6  C7  UNL     1     -33.904   4.345   4.134  1.00 20.00     0.018 C 
HETATM    7  O9  UNL     1     -33.450   7.543   5.950  1.00 20.00    -0.378 OA
ENDROOT
BRANCH   3   8
HETATM    8  C1  UNL     1     -33.119   7.550   3.612  1.00 20.00     0.263 C 
HETATM    9  O8  UNL     1     -32.199   7.483   2.801  1.00 20.00    -0.304 OA
ENDBRANCH   3   8
TORSDOF 1
ENDMDL
MODEL 3
REMARK VINA RESULT:      -3.7     15.807     16.696
REMARK  1 active torsions:
REMARK  status: ('A' for Active; 'I' for Inactive)
REMARK    1  A    between atoms: C1_1  and  C4_4 
ROOT
HETATM    1  C2  UNL     1     -23.165  17.304   9.936  1.00 20.00     0.038 C 
HETATM    2  C3  UNL     1     -23.350  18.644   9.250  1.00 20.00     0.169 C 
HETATM    3  C4  UNL     1     -25.056  18.372  10.809  1.00 20.00     0.190 C 
HETATM    4  C5  UNL     1     -23.880  17.501  11.269  1.00 20.00    -0.013 C 
HETATM    5  C6  UNL     1     -22.945  18.207  12.269  1.00 20.00     0.018 C 
HETATM    6  C7  UNL     1     -24.349  16.174  11.871  1.00 20.00     0.018 C 
HETATM    7  O9  UNL     1     -24.565  19.212   9.759  1.00 20.00    -0.378 OA
ENDROOT
BRANCH   3   8
HETATM    8  C1  UNL     1     -25.639  19.256  11.862  1.00 20.00     0.263 C 
HETATM    9  O8  UNL     1     -26.764  19.100  12.329  1.00 20.00    -0.304 OA
ENDBRANCH   3   8
TORSDOF 1
ENDMDL
MODEL 4
REMARK VINA RESULT:      -3.5      9.055      9.929
REMARK  1 active torsions:
REMARK  status: ('A' for Active; 'I' for Inactive)
REMARK    1  A    between atoms: C1_1  and  C4_4 
ROOT
HETATM    1  C2  UNL     1     -42.248   5.018   1.458  1.00 20.00     0.038 C 
HETATM    2  C3  UNL     1     -43.269   5.924   2.121  1.00 20.00     0.169 C 
HETATM    3  C4  UNL     1     -42.005   7.196   0.638  1.00 20.00     0.190 C 
HETATM    4  C5  UNL     1     -41.945   5.743   0.150  1.00 20.00    -0.013 C 
HETATM    5  C6  UNL     1     -43.018   5.403  -0.901  1.00 20.00     0.018 C 
HETATM    6  C7  UNL     1     -40.566   5.378  -0.403  1.00 20.00     0.018 C 
HETATM    7  O9  UNL     1     -43.017   7.255   1.648  1.00 20.00    -0.378 OA
ENDROOT
BRANCH   3   8
HETATM    8  C1  UNL     1     -42.352   8.203  -0.410  1.00 20.00     0.263 C 
HETATM    9  O8  UNL     1     -43.417   8.811  -0.437  1.00 20.00    -0.304 OA
ENDBRANCH   3   8
TORSDOF 1
ENDMDL
MODEL 5
REMARK VINA RESULT:      -3.4      8.954     10.227
REMARK  1 active torsions:
REMARK  status: ('A' for Active; 'I' for Inactive)
REMARK    1  A    between atoms: C1_1  and  C4_4 
ROOT
HETATM    1  C2  UNL     1     -43.065   6.981   1.759  1.00 20.00     0.038 C 
HETATM    2  C3  UNL     1     -43.295   5.511   2.056  1.00 20.00     0.169 C 
HETATM    3  C4  UNL     1     -43.138   5.782  -0.249  1.00 20.00     0.190 C 
HETATM    4  C5  UNL     1     -42.383   6.951   0.395  1.00 20.00    -0.013 C 
HETATM    5  C6  UNL     1     -40.875   6.690   0.567  1.00 20.00     0.018 C 
HETATM    6  C7  UNL     1     -42.581   8.258  -0.375  1.00 20.00     0.018 C 
HETATM    7  O9  UNL     1     -43.417   4.842   0.793  1.00 20.00    -0.378 OA
ENDROOT
BRANCH   3   8
HETATM    8  C1  UNL     1     -42.390   5.060  -1.322  1.00 20.00     0.263 C 
HETATM    9  O8  UNL     1     -42.927   4.312  -2.134  1.00 20.00    -0.304 OA
ENDBRANCH   3   8
TORSDOF 1
ENDMDL
MODEL 6
REMARK VINA RESULT:      -3.4      9.245     10.614
REMARK  1 active torsions:
REMARK  status: ('A' for Active; 'I' for Inactive)
REMARK    1  A    between atoms: C1_1  and  C4_4 
ROOT
HETATM    1  C2  UNL     1     -40.505  12.446   5.263  1.00 20.00     0.038 C 
HETATM    2  C3  UNL     1     -39.517  11.865   6.256  1.00 20.00     0.169 C 
HETATM    3  C4  UNL     1     -40.380  13.836   7.140  1.00 20.00     0.190 C 
HETATM    4  C5  UNL     1     -41.413  13.299   6.143  1.00 20.00    -0.013 C 
HETATM    5  C6  UNL     1     -42.496  12.417   6.794  1.00 20.00     0.018 C 
HETATM    6  C7  UNL     1     -42.089  14.422   5.354  1.00 20.00     0.018 C 
HETATM    7  O9  UNL     1     -39.416  12.797   7.341  1.00 20.00    -0.378 OA
ENDROOT
BRANCH   3   8
HETATM    8  C1  UNL     1     -40.926  14.211   8.480  1.00 20.00     0.263 C 
HETATM    9  O8  UNL     1     -40.512  13.740   9.535  1.00 20.00    -0.304 OA
ENDBRANCH   3   8
TORSDOF 1
ENDMDL
MODEL 7
REMARK VINA RESULT:      -3.4      8.482      9.762
REMARK  1 active torsions:
REMARK  status: ('A' for Active; 'I' for Inactive)
REMARK    1  A    between atoms: C1_1  and  C4_4 
ROOT
HETATM    1  C2  UNL     1     -41.242   7.360   1.109  1.00 20.00     0.038 C 
HETATM    2  C3  UNL     1     -40.439   6.942  -0.108  1.00 20.00     0.169 C 
HETATM    3  C4  UNL     1     -42.210   5.456   0.152  1.00 20.00     0.190 C 
HETATM    4  C5  UNL     1     -42.621   6.771   0.827  1.00 20.00    -0.013 C 
HETATM    5  C6  UNL     1     -43.417   7.713  -0.094  1.00 20.00     0.018 C 
HETATM    6  C7  UNL     1     -43.417   6.533   2.112  1.00 20.00     0.018 C 
HETATM    7  O9  UNL     1     -41.022   5.728  -0.599  1.00 20.00    -0.378 OA
ENDROOT
BRANCH   3   8
HETATM    8  C1  UNL     1     -43.220   4.883  -0.787  1.00 20.00     0.263 C 
HETATM    9  O8  UNL     1     -42.972   4.597  -1.955  1.00 20.00    -0.304 OA
ENDBRANCH   3   8
TORSDOF 1
ENDMDL
MODEL 8
REMARK VINA RESULT:      -3.3     13.081     14.019
REMARK  1 active torsions:
REMARK  status: ('A' for Active; 'I' for Inactive)
REMARK    1  A    between atoms: C1_1  and  C4_4 
ROOT
HETATM    1  C2  UNL     1     -34.910  16.592  -7.067  1.00 20.00     0.038 C 
HETATM    2  C3  UNL     1     -35.666  15.588  -7.916  1.00 20.00     0.169 C 
HETATM    3  C4  UNL     1     -35.321  14.663  -5.809  1.00 20.00     0.190 C 
HETATM    4  C5  UNL     1     -35.282  16.187  -5.644  1.00 20.00    -0.013 C 
HETATM    5  C6  UNL     1     -36.642  16.799  -5.261  1.00 20.00     0.018 C 
HETATM    6  C7  UNL     1     -34.228  16.628  -4.626  1.00 20.00     0.018 C 
HETATM    7  O9  UNL     1     -35.813  14.399  -7.127  1.00 20.00    -0.378 OA
ENDROOT
BRANCH   3   8
HETATM    8  C1  UNL     1     -36.205  13.943  -4.843  1.00 20.00     0.263 C 
HETATM    9  O8  UNL     1     -35.855  12.946  -4.219  1.00 20.00    -0.304 OA
ENDBRANCH   3   8
TORSDOF 1
ENDMDL
MODEL 9
REMARK VINA RESULT:      -3.2      9.532     10.596
REMARK  1 active torsions:
REMARK  status: ('A' for Active; 'I' for Inactive)
REMARK    1  A    between atoms: C1_1  and  C4_4 
ROOT
HETATM    1  C2  UNL     1     -42.534  14.793   5.976  1.00 20.00     0.038 C 
HETATM    2  C3  UNL     1     -42.457  14.326   4.535  1.00 20.00     0.169 C 
HETATM    3  C4  UNL     1     -40.675  13.398   5.708  1.00 20.00     0.190 C 
HETATM    4  C5  UNL     1     -41.777  13.704   6.729  1.00 20.00    -0.013 C 
HETATM    5  C6  UNL     1     -42.709  12.509   7.005  1.00 20.00     0.018 C 
HETATM    6  C7  UNL     1     -41.207  14.212   8.055  1.00 20.00     0.018 C 
HETATM    7  O9  UNL     1     -41.257  13.551   4.409  1.00 20.00    -0.378 OA
ENDROOT
BRANCH   3   8
HETATM    8  C1  UNL     1     -40.100  12.021   5.788  1.00 20.00     0.263 C 
HETATM    9  O8  UNL     1     -39.234  11.696   6.595  1.00 20.00    -0.304 OA
ENDBRANCH   3   8
TORSDOF 1
ENDMDL
