MODEL 1
REMARK VINA RESULT:      -5.5      0.000      0.000
REMARK  0 active torsions:
REMARK  status: ('A' for Active; 'I' for Inactive)
ROOT
HETATM    1  C1  UNL     1     -34.288   5.141   4.570  1.00 20.00     0.116 A 
HETATM    2  C2  UNL     1     -33.871   7.175   5.835  1.00 20.00     0.084 A 
HETATM    3  C3  UNL     1     -34.487   5.884   5.666  1.00 20.00     0.124 A 
HETATM    4  C4  UNL     1     -33.079   7.639   4.862  1.00 20.00     0.109 A 
HETATM    5  C5  UNL     1     -33.401   5.664   3.488  1.00 20.00     0.249 A 
HETATM    6  N6  UNL     1     -32.845   6.913   3.723  1.00 20.00    -0.314 N 
HETATM    7  O7  UNL     1     -33.203   5.001   2.472  1.00 20.00    -0.268 OA
HETATM    8  F8  UNL     1     -35.283   5.432   6.656  1.00 20.00    -0.206 F 
HETATM    9 CL9  UNL     1     -32.282   9.150   4.922  1.00 20.00    -0.064 Cl
HETATM   10  H12 UNL     1     -32.234   7.322   3.023  1.00 20.00     0.170 HD
ENDROOT
TORSDOF 0
ENDMDL
MODEL 2
REMARK VINA RESULT:      -5.4      2.315      2.825
REMARK  0 active torsions:
REMARK  status: ('A' for Active; 'I' for Inactive)
ROOT
HETATM    1  C1  UNL     1     -33.897   7.283   5.968  1.00 20.00     0.116 A 
HETATM    2  C2  UNL     1     -34.217   5.301   4.596  1.00 20.00     0.084 A 
HETATM    3  C3  UNL     1     -34.456   6.081   5.784  1.00 20.00     0.124 A 
HETATM    4  C4  UNL     1     -33.412   5.802   3.653  1.00 20.00     0.109 A 
HETATM    5  C5  UNL     1     -32.999   7.838   4.910  1.00 20.00     0.249 A 
HETATM    6  N6  UNL     1     -32.819   7.030   3.797  1.00 20.00    -0.314 N 
HETATM    7  O7  UNL     1     -32.475   8.939   5.055  1.00 20.00    -0.268 OA
HETATM    8  F8  UNL     1     -35.269   5.561   6.725  1.00 20.00    -0.206 F 
HETATM    9 CL9  UNL     1     -33.038   4.994   2.194  1.00 20.00    -0.064 Cl
HETATM   10  H12 UNL     1     -32.218   7.352   3.044  1.00 20.00     0.170 HD
ENDROOT
TORSDOF 0
ENDMDL
MODEL 3
REMARK VINA RESULT:      -5.2      1.456      1.605
REMARK  0 active torsions:
REMARK  status: ('A' for Active; 'I' for Inactive)
ROOT
HETATM    1  C1  UNL     1     -34.507   5.685   5.924  1.00 20.00     0.116 A 
HETATM    2  C2  UNL     1     -33.542   7.839   5.340  1.00 20.00     0.084 A 
HETATM    3  C3  UNL     1     -34.240   6.958   6.241  1.00 20.00     0.124 A 
HETATM    4  C4  UNL     1     -33.153   7.363   4.153  1.00 20.00     0.109 A 
HETATM    5  C5  UNL     1     -34.068   5.159   4.596  1.00 20.00     0.249 A 
HETATM    6  N6  UNL     1     -33.403   6.066   3.785  1.00 20.00    -0.314 N 
HETATM    7  O7  UNL     1     -34.301   3.994   4.282  1.00 20.00    -0.268 OA
HETATM    8  F8  UNL     1     -34.626   7.454   7.434  1.00 20.00    -0.206 F 
HETATM    9 CL9  UNL     1     -32.317   8.288   2.984  1.00 20.00    -0.064 Cl
HETATM   10  H12 UNL     1     -33.081   5.767   2.870  1.00 20.00     0.170 HD
ENDROOT
TORSDOF 0
ENDMDL
MODEL 4
REMARK VINA RESULT:      -5.1      2.600      2.971
REMARK  0 active torsions:
REMARK  status: ('A' for Active; 'I' for Inactive)
ROOT
HETATM    1  C1  UNL     1     -32.407   7.330   3.180  1.00 20.00     0.116 A 
HETATM    2  C2  UNL     1     -33.485   7.760   5.317  1.00 20.00     0.084 A 
HETATM    3  C3  UNL     1     -32.654   8.152   4.207  1.00 20.00     0.124 A 
HETATM    4  C4  UNL     1     -34.023   6.535   5.312  1.00 20.00     0.109 A 
HETATM    5  C5  UNL     1     -33.012   5.964   3.180  1.00 20.00     0.249 A 
HETATM    6  N6  UNL     1     -33.799   5.660   4.281  1.00 20.00    -0.314 N 
HETATM    7  O7  UNL     1     -32.800   5.191   2.248  1.00 20.00    -0.268 OA
HETATM    8  F8  UNL     1     -32.119   9.390   4.229  1.00 20.00    -0.206 F 
HETATM    9 CL9  UNL     1     -35.027   5.932   6.556  1.00 20.00    -0.064 Cl
HETATM   10  H12 UNL     1     -34.236   4.745   4.338  1.00 20.00     0.170 HD
ENDROOT
TORSDOF 0
ENDMDL
MODEL 5
REMARK VINA RESULT:      -5.1      2.375      2.756
REMARK  0 active torsions:
REMARK  status: ('A' for Active; 'I' for Inactive)
ROOT
HETATM    1  C1  UNL     1     -34.076   5.109   4.203  1.00 20.00     0.116 A 
HETATM    2  C2  UNL     1     -32.637   6.878   3.359  1.00 20.00     0.084 A 
HETATM    3  C3  UNL     1     -33.258   5.582   3.255  1.00 20.00     0.124 A 
HETATM    4  C4  UNL     1     -32.892   7.624   4.439  1.00 20.00     0.109 A 
HETATM    5  C5  UNL     1     -34.358   5.948   5.407  1.00 20.00     0.249 A 
HETATM    6  N6  UNL     1     -33.724   7.182   5.435  1.00 20.00    -0.314 N 
HETATM    7  O7  UNL     1     -35.105   5.535   6.290  1.00 20.00    -0.268 OA
HETATM    8  F8  UNL     1     -32.990   4.843   2.160  1.00 20.00    -0.206 F 
HETATM    9 CL9  UNL     1     -32.230   9.178   4.701  1.00 20.00    -0.064 Cl
HETATM   10  H12 UNL     1     -33.876   7.797   6.229  1.00 20.00     0.170 HD
ENDROOT
TORSDOF 0
ENDMDL
MODEL 6
REMARK VINA RESULT:      -5.1      2.893      3.405
REMARK  0 active torsions:
REMARK  status: ('A' for Active; 'I' for Inactive)
ROOT
HETATM    1  C1  UNL     1     -32.501   6.834   2.943  1.00 20.00     0.116 A 
HETATM    2  C2  UNL     1     -33.891   5.219   4.113  1.00 20.00     0.084 A 
HETATM    3  C3  UNL     1     -33.063   5.621   3.005  1.00 20.00     0.124 A 
HETATM    4  C4  UNL     1     -34.100   6.091   5.106  1.00 20.00     0.109 A 
HETATM    5  C5  UNL     1     -32.737   7.803   4.056  1.00 20.00     0.249 A 
HETATM    6  N6  UNL     1     -33.544   7.344   5.086  1.00 20.00    -0.314 N 
HETATM    7  O7  UNL     1     -32.232   8.923   4.022  1.00 20.00    -0.268 OA
HETATM    8  F8  UNL     1     -32.864   4.730   2.014  1.00 20.00    -0.206 F 
HETATM    9 CL9  UNL     1     -35.057   5.756   6.482  1.00 20.00    -0.064 Cl
HETATM   10  H12 UNL     1     -33.742   7.958   5.870  1.00 20.00     0.170 HD
ENDROOT
TORSDOF 0
ENDMDL
MODEL 7
REMARK VINA RESULT:      -5.0      2.941      3.444
REMARK  0 active torsions:
REMARK  status: ('A' for Active; 'I' for Inactive)
ROOT
HETATM    1  C1  UNL     1     -33.702   7.623   5.846  1.00 20.00     0.116 A 
HETATM    2  C2  UNL     1     -32.600   7.363   3.695  1.00 20.00     0.084 A 
HETATM    3  C3  UNL     1     -32.895   8.106   4.893  1.00 20.00     0.124 A 
HETATM    4  C4  UNL     1     -33.153   6.155   3.538  1.00 20.00     0.109 A 
HETATM    5  C5  UNL     1     -34.315   6.273   5.666  1.00 20.00     0.249 A 
HETATM    6  N6  UNL     1     -33.984   5.620   4.488  1.00 20.00    -0.314 N 
HETATM    7  O7  UNL     1     -35.058   5.809   6.527  1.00 20.00    -0.268 OA
HETATM    8  F8  UNL     1     -32.330   9.322   5.035  1.00 20.00    -0.206 F 
HETATM    9 CL9  UNL     1     -32.895   5.160   2.172  1.00 20.00    -0.064 Cl
HETATM   10  H12 UNL     1     -34.371   4.699   4.308  1.00 20.00     0.170 HD
ENDROOT
TORSDOF 0
ENDMDL
MODEL 8
REMARK VINA RESULT:      -4.4      2.332      2.751
REMARK  0 active torsions:
REMARK  status: ('A' for Active; 'I' for Inactive)
ROOT
HETATM    1  C1  UNL     1     -34.353   5.392   5.487  1.00 20.00     0.116 A 
HETATM    2  C2  UNL     1     -33.233   5.735   3.357  1.00 20.00     0.084 A 
HETATM    3  C3  UNL     1     -33.942   4.915   4.306  1.00 20.00     0.124 A 
HETATM    4  C4  UNL     1     -32.981   7.010   3.674  1.00 20.00     0.109 A 
HETATM    5  C5  UNL     1     -34.070   6.817   5.836  1.00 20.00     0.249 A 
HETATM    6  N6  UNL     1     -33.384   7.542   4.872  1.00 20.00    -0.314 N 
HETATM    7  O7  UNL     1     -34.437   7.277   6.914  1.00 20.00    -0.268 OA
HETATM    8  F8  UNL     1     -34.186   3.633   3.970  1.00 20.00    -0.206 F 
HETATM    9 CL9  UNL     1     -32.153   8.100   2.652  1.00 20.00    -0.064 Cl
HETATM   10  H12 UNL     1     -33.162   8.516   5.052  1.00 20.00     0.170 HD
ENDROOT
TORSDOF 0
ENDMDL
MODEL 9
REMARK VINA RESULT:      -4.4      2.625      3.047
REMARK  0 active torsions:
REMARK  status: ('A' for Active; 'I' for Inactive)
ROOT
HETATM    1  C1  UNL     1     -32.771   8.524   3.932  1.00 20.00     0.116 A 
HETATM    2  C2  UNL     1     -34.017   6.971   5.327  1.00 20.00     0.084 A 
HETATM    3  C3  UNL     1     -33.481   8.277   5.040  1.00 20.00     0.124 A 
HETATM    4  C4  UNL     1     -33.794   5.981   4.456  1.00 20.00     0.109 A 
HETATM    5  C5  UNL     1     -32.526   7.414   2.962  1.00 20.00     0.249 A 
HETATM    6  N6  UNL     1     -33.073   6.188   3.308  1.00 20.00    -0.314 N 
HETATM    7  O7  UNL     1     -31.878   7.617   1.938  1.00 20.00    -0.268 OA
HETATM    8  F8  UNL     1     -33.715   9.262   5.929  1.00 20.00    -0.206 F 
HETATM    9 CL9  UNL     1     -34.366   4.384   4.662  1.00 20.00    -0.064 Cl
HETATM   10  H12 UNL     1     -32.940   5.394   2.688  1.00 20.00     0.170 HD
ENDROOT
TORSDOF 0
ENDMDL
