MODEL 1
REMARK VINA RESULT:      -4.6      0.000      0.000
REMARK  0 active torsions:
REMARK  status: ('A' for Active; 'I' for Inactive)
ROOT
HETATM    1  C1  UNL     1     -32.269   7.667   3.774  1.00 20.00     0.012 C 
HETATM    2  C2  UNL     1     -33.292   7.404   4.342  1.00 20.00    -0.110 C 
HETATM    3  C3  UNL     1     -34.293   6.642   6.467  1.00 20.00     0.045 C 
HETATM    4  C4  UNL     1     -33.984   5.165   6.316  1.00 20.00     0.169 C 
HETATM    5  C5  UNL     1     -35.209   5.848   4.451  1.00 20.00     0.184 C 
HETATM    6  C6  UNL     1     -34.548   7.083   5.042  1.00 20.00     0.090 C 
HETATM    7  O7  UNL     1     -34.692   4.707   5.157  1.00 20.00    -0.390 OA
ENDROOT
TORSDOF 0
ENDMDL
MODEL 2
REMARK VINA RESULT:      -4.1      1.555      1.868
REMARK  0 active torsions:
REMARK  status: ('A' for Active; 'I' for Inactive)
ROOT
HETATM    1  C1  UNL     1     -32.861   5.176   2.762  1.00 20.00     0.012 C 
HETATM    2  C2  UNL     1     -33.703   5.593   3.508  1.00 20.00    -0.110 C 
HETATM    3  C3  UNL     1     -34.305   7.399   5.080  1.00 20.00     0.045 C 
HETATM    4  C4  UNL     1     -33.478   6.925   6.258  1.00 20.00     0.169 C 
HETATM    5  C5  UNL     1     -34.909   5.193   5.628  1.00 20.00     0.184 C 
HETATM    6  C6  UNL     1     -34.736   6.105   4.424  1.00 20.00     0.090 C 
HETATM    7  O7  UNL     1     -33.994   5.642   6.640  1.00 20.00    -0.390 OA
ENDROOT
TORSDOF 0
ENDMDL
MODEL 3
REMARK VINA RESULT:      -3.5      2.044      3.453
REMARK  0 active torsions:
REMARK  status: ('A' for Active; 'I' for Inactive)
ROOT
HETATM    1  C1  UNL     1     -34.262   5.886   6.439  1.00 20.00     0.012 C 
HETATM    2  C2  UNL     1     -34.078   6.879   5.791  1.00 20.00    -0.110 C 
HETATM    3  C3  UNL     1     -33.794   7.791   3.514  1.00 20.00     0.045 C 
HETATM    4  C4  UNL     1     -32.351   7.374   3.309  1.00 20.00     0.169 C 
HETATM    5  C5  UNL     1     -32.467   8.672   5.244  1.00 20.00     0.184 C 
HETATM    6  C6  UNL     1     -33.852   8.097   4.995  1.00 20.00     0.090 C 
HETATM    7  O7  UNL     1     -31.574   8.062   4.298  1.00 20.00    -0.390 OA
ENDROOT
TORSDOF 0
ENDMDL
MODEL 4
REMARK VINA RESULT:      -3.4     13.217     13.791
REMARK  0 active torsions:
REMARK  status: ('A' for Active; 'I' for Inactive)
ROOT
HETATM    1  C1  UNL     1     -31.389  18.637  -0.450  1.00 20.00     0.012 C 
HETATM    2  C2  UNL     1     -32.392  18.107  -0.840  1.00 20.00    -0.110 C 
HETATM    3  C3  UNL     1     -33.361  16.606  -2.544  1.00 20.00     0.045 C 
HETATM    4  C4  UNL     1     -33.436  17.609  -3.678  1.00 20.00     0.169 C 
HETATM    5  C5  UNL     1     -34.613  18.475  -1.859  1.00 20.00     0.184 C 
HETATM    6  C6  UNL     1     -33.623  17.456  -1.320  1.00 20.00     0.090 C 
HETATM    7  O7  UNL     1     -34.332  18.647  -3.258  1.00 20.00    -0.390 OA
ENDROOT
TORSDOF 0
ENDMDL
MODEL 5
REMARK VINA RESULT:      -3.2      9.408     10.032
REMARK  0 active torsions:
REMARK  status: ('A' for Active; 'I' for Inactive)
ROOT
HETATM    1  C1  UNL     1     -39.195  11.893   5.366  1.00 20.00     0.012 C 
HETATM    2  C2  UNL     1     -40.207  12.502   5.575  1.00 20.00    -0.110 C 
HETATM    3  C3  UNL     1     -41.177  14.542   6.573  1.00 20.00     0.045 C 
HETATM    4  C4  UNL     1     -41.129  14.100   8.022  1.00 20.00     0.169 C 
HETATM    5  C5  UNL     1     -42.345  12.515   6.815  1.00 20.00     0.184 C 
HETATM    6  C6  UNL     1     -41.449  13.251   5.832  1.00 20.00     0.090 C 
HETATM    7  O7  UNL     1     -41.980  12.951   8.135  1.00 20.00    -0.390 OA
ENDROOT
TORSDOF 0
ENDMDL
MODEL 6
REMARK VINA RESULT:      -3.2     15.793     16.989
REMARK  0 active torsions:
REMARK  status: ('A' for Active; 'I' for Inactive)
ROOT
HETATM    1  C1  UNL     1     -24.417  16.134  11.747  1.00 20.00     0.012 C 
HETATM    2  C2  UNL     1     -23.988  17.162  11.302  1.00 20.00    -0.110 C 
HETATM    3  C3  UNL     1     -23.637  18.494   9.253  1.00 20.00     0.045 C 
HETATM    4  C4  UNL     1     -22.424  17.749   8.733  1.00 20.00     0.169 C 
HETATM    5  C5  UNL     1     -21.950  18.498  10.891  1.00 20.00     0.184 C 
HETATM    6  C6  UNL     1     -23.462  18.424  10.755  1.00 20.00     0.090 C 
HETATM    7  O7  UNL     1     -21.384  17.916   9.706  1.00 20.00    -0.390 OA
ENDROOT
TORSDOF 0
ENDMDL
MODEL 7
REMARK VINA RESULT:      -3.2     16.343     17.012
REMARK  0 active torsions:
REMARK  status: ('A' for Active; 'I' for Inactive)
ROOT
HETATM    1  C1  UNL     1     -24.343  19.263   8.510  1.00 20.00     0.012 C 
HETATM    2  C2  UNL     1     -23.815  18.538   9.306  1.00 20.00    -0.110 C 
HETATM    3  C3  UNL     1     -24.163  17.112  11.292  1.00 20.00     0.045 C 
HETATM    4  C4  UNL     1     -24.231  18.219  12.325  1.00 20.00     0.169 C 
HETATM    5  C5  UNL     1     -22.208  18.415  11.180  1.00 20.00     0.184 C 
HETATM    6  C6  UNL     1     -23.168  17.648  10.285  1.00 20.00     0.090 C 
HETATM    7  O7  UNL     1     -22.958  18.879  12.314  1.00 20.00    -0.390 OA
ENDROOT
TORSDOF 0
ENDMDL
MODEL 8
REMARK VINA RESULT:      -3.2     12.620     13.433
REMARK  0 active torsions:
REMARK  status: ('A' for Active; 'I' for Inactive)
ROOT
HETATM    1  C1  UNL     1     -33.366  16.442  -2.912  1.00 20.00     0.012 C 
HETATM    2  C2  UNL     1     -33.595  15.586  -3.720  1.00 20.00    -0.110 C 
HETATM    3  C3  UNL     1     -33.958  15.103  -6.115  1.00 20.00     0.045 C 
HETATM    4  C4  UNL     1     -35.392  15.587  -6.202  1.00 20.00     0.169 C 
HETATM    5  C5  UNL     1     -35.272  13.962  -4.532  1.00 20.00     0.184 C 
HETATM    6  C6  UNL     1     -33.876  14.536  -4.714  1.00 20.00     0.090 C 
HETATM    7  O7  UNL     1     -36.168  14.755  -5.330  1.00 20.00    -0.390 OA
ENDROOT
TORSDOF 0
ENDMDL
MODEL 9
REMARK VINA RESULT:      -3.2     13.166     13.806
REMARK  0 active torsions:
REMARK  status: ('A' for Active; 'I' for Inactive)
ROOT
HETATM    1  C1  UNL     1     -33.703  15.353  -3.782  1.00 20.00     0.012 C 
HETATM    2  C2  UNL     1     -33.324  16.248  -3.080  1.00 20.00    -0.110 C 
HETATM    3  C3  UNL     1     -33.829  17.618  -1.089  1.00 20.00     0.045 C 
HETATM    4  C4  UNL     1     -34.850  18.537  -1.731  1.00 20.00     0.169 C 
HETATM    5  C5  UNL     1     -32.870  18.675  -2.958  1.00 20.00     0.184 C 
HETATM    6  C6  UNL     1     -32.858  17.348  -2.218  1.00 20.00     0.090 C 
HETATM    7  O7  UNL     1     -34.167  19.263  -2.762  1.00 20.00    -0.390 OA
ENDROOT
TORSDOF 0
ENDMDL
