MODEL 1
REMARK VINA RESULT:      -4.1      0.000      0.000
REMARK  2 active torsions:
REMARK  status: ('A' for Active; 'I' for Inactive)
REMARK    1  A    between atoms: C7_7  and  O10_10 
REMARK    2  A    between atoms: C8_8  and  O10_10 
ROOT
HETATM    1  C1  UNL     1     -34.777  16.535  -6.028  1.00 20.00     0.024 C 
HETATM    2  C2  UNL     1     -35.839  15.816  -6.417  1.00 20.00     0.118 C 
HETATM    3  C3  UNL     1     -35.533  14.158  -4.898  1.00 20.00     0.188 C 
HETATM    4  C4  UNL     1     -34.143  14.626  -4.553  1.00 20.00     0.127 C 
HETATM    5  C7  UNL     1     -33.943  16.105  -4.865  1.00 20.00     0.154 C 
HETATM    6  N9  UNL     1     -36.307  14.690  -5.791  1.00 20.00    -0.237 NA
HETATM    7  F11 UNL     1     -35.989  13.067  -4.266  1.00 20.00    -0.189 F 
ENDROOT
BRANCH   5   8
HETATM    8  O10 UNL     1     -34.299  16.877  -3.721  1.00 20.00    -0.376 OA
BRANCH   8   9
HETATM    9  C8  UNL     1     -33.300  16.801  -2.714  1.00 20.00     0.122 A 
HETATM   10  C5  UNL     1     -32.793  18.113  -2.185  1.00 20.00     0.034 A 
HETATM   11  C6  UNL     1     -33.709  17.270  -1.346  1.00 20.00     0.034 A 
ENDBRANCH   8   9
ENDBRANCH   5   8
TORSDOF 2
ENDMDL
MODEL 2
REMARK VINA RESULT:      -4.0      1.290      1.597
REMARK  2 active torsions:
REMARK  status: ('A' for Active; 'I' for Inactive)
REMARK    1  A    between atoms: C7_7  and  O10_10 
REMARK    2  A    between atoms: C8_8  and  O10_10 
ROOT
HETATM    1  C1  UNL     1     -34.349  17.696  -4.912  1.00 20.00     0.024 C 
HETATM    2  C2  UNL     1     -35.036  16.746  -5.561  1.00 20.00     0.118 C 
HETATM    3  C3  UNL     1     -34.276  15.032  -4.282  1.00 20.00     0.188 C 
HETATM    4  C4  UNL     1     -33.190  15.874  -3.663  1.00 20.00     0.127 C 
HETATM    5  C7  UNL     1     -33.521  17.361  -3.714  1.00 20.00     0.154 C 
HETATM    6  N9  UNL     1     -35.111  15.429  -5.191  1.00 20.00    -0.237 NA
HETATM    7  F11 UNL     1     -34.353  13.750  -3.899  1.00 20.00    -0.189 F 
ENDROOT
BRANCH   5   8
HETATM    8  O10 UNL     1     -34.233  17.725  -2.534  1.00 20.00    -0.376 OA
BRANCH   8   9
HETATM    9  C8  UNL     1     -33.556  17.286  -1.365  1.00 20.00     0.122 A 
HETATM   10  C5  UNL     1     -32.490  18.202  -0.835  1.00 20.00     0.034 A 
HETATM   11  C6  UNL     1     -33.806  18.088  -0.119  1.00 20.00     0.034 A 
ENDBRANCH   8   9
ENDBRANCH   5   8
TORSDOF 2
ENDMDL
MODEL 3
REMARK VINA RESULT:      -4.0      0.962      1.198
REMARK  2 active torsions:
REMARK  status: ('A' for Active; 'I' for Inactive)
REMARK    1  A    between atoms: C7_7  and  O10_10 
REMARK    2  A    between atoms: C8_8  and  O10_10 
ROOT
HETATM    1  C1  UNL     1     -34.130  16.914  -4.713  1.00 20.00     0.024 C 
HETATM    2  C2  UNL     1     -35.293  16.582  -5.289  1.00 20.00     0.118 C 
HETATM    3  C3  UNL     1     -35.215  14.400  -4.668  1.00 20.00     0.188 C 
HETATM    4  C4  UNL     1     -33.766  14.488  -4.265  1.00 20.00     0.127 C 
HETATM    5  C7  UNL     1     -33.353  15.914  -3.920  1.00 20.00     0.154 C 
HETATM    6  N9  UNL     1     -35.914  15.365  -5.178  1.00 20.00    -0.237 NA
HETATM    7  F11 UNL     1     -35.819  13.211  -4.537  1.00 20.00    -0.189 F 
ENDROOT
BRANCH   5   8
HETATM    8  O10 UNL     1     -33.572  16.143  -2.530  1.00 20.00    -0.376 OA
BRANCH   8   9
HETATM    9  C8  UNL     1     -33.538  17.529  -2.222  1.00 20.00     0.122 A 
HETATM   10  C5  UNL     1     -33.909  17.903  -0.815  1.00 20.00     0.034 A 
HETATM   11  C6  UNL     1     -32.474  17.962  -1.253  1.00 20.00     0.034 A 
ENDBRANCH   8   9
ENDBRANCH   5   8
TORSDOF 2
ENDMDL
MODEL 4
REMARK VINA RESULT:      -3.8     10.827     11.752
REMARK  2 active torsions:
REMARK  status: ('A' for Active; 'I' for Inactive)
REMARK    1  A    between atoms: C7_7  and  O10_10 
REMARK    2  A    between atoms: C8_8  and  O10_10 
ROOT
HETATM    1  C1  UNL     1     -32.754   6.164   2.935  1.00 20.00     0.024 C 
HETATM    2  C2  UNL     1     -33.683   5.585   3.708  1.00 20.00     0.118 C 
HETATM    3  C3  UNL     1     -33.743   7.254   5.244  1.00 20.00     0.188 C 
HETATM    4  C4  UNL     1     -32.484   7.890   4.716  1.00 20.00     0.127 C 
HETATM    5  C7  UNL     1     -32.226   7.524   3.258  1.00 20.00     0.154 C 
HETATM    6  N9  UNL     1     -34.280   6.162   4.798  1.00 20.00    -0.237 NA
HETATM    7  F11 UNL     1     -34.330   7.838   6.299  1.00 20.00    -0.189 F 
ENDROOT
BRANCH   5   8
HETATM    8  O10 UNL     1     -32.857   8.485   2.415  1.00 20.00    -0.376 OA
BRANCH   8   9
HETATM    9  C8  UNL     1     -32.158   8.636   1.188  1.00 20.00     0.122 A 
HETATM   10  C5  UNL     1     -32.934   8.319  -0.058  1.00 20.00     0.034 A 
HETATM   11  C6  UNL     1     -32.630   9.746   0.293  1.00 20.00     0.034 A 
ENDBRANCH   8   9
ENDBRANCH   5   8
TORSDOF 2
ENDMDL
MODEL 5
REMARK VINA RESULT:      -3.7     11.759     12.974
REMARK  2 active torsions:
REMARK  status: ('A' for Active; 'I' for Inactive)
REMARK    1  A    between atoms: C7_7  and  O10_10 
REMARK    2  A    between atoms: C8_8  and  O10_10 
ROOT
HETATM    1  C1  UNL     1     -42.383  15.031   5.677  1.00 20.00     0.024 C 
HETATM    2  C2  UNL     1     -42.070  16.168   6.313  1.00 20.00     0.118 C 
HETATM    3  C3  UNL     1     -40.704  15.184   7.836  1.00 20.00     0.188 C 
HETATM    4  C4  UNL     1     -41.186  13.800   7.486  1.00 20.00     0.127 C 
HETATM    5  C7  UNL     1     -41.760  13.732   6.076  1.00 20.00     0.154 C 
HETATM    6  N9  UNL     1     -41.142  16.287   7.315  1.00 20.00    -0.237 NA
HETATM    7  F11 UNL     1     -39.782  15.288   8.803  1.00 20.00    -0.189 F 
ENDROOT
BRANCH   5   8
HETATM    8  O10 UNL     1     -40.717  13.411   5.160  1.00 20.00    -0.376 OA
BRANCH   8   9
HETATM    9  C8  UNL     1     -40.119  12.162   5.473  1.00 20.00     0.122 A 
HETATM   10  C5  UNL     1     -39.326  11.514   4.373  1.00 20.00     0.034 A 
HETATM   11  C6  UNL     1     -38.617  12.147   5.535  1.00 20.00     0.034 A 
ENDBRANCH   8   9
ENDBRANCH   5   8
TORSDOF 2
ENDMDL
MODEL 6
REMARK VINA RESULT:      -3.7     16.304     17.813
REMARK  2 active torsions:
REMARK  status: ('A' for Active; 'I' for Inactive)
REMARK    1  A    between atoms: C7_7  and  O10_10 
REMARK    2  A    between atoms: C8_8  and  O10_10 
ROOT
HETATM    1  C1  UNL     1     -25.105  19.254   8.649  1.00 20.00     0.024 C 
HETATM    2  C2  UNL     1     -24.720  19.263   7.366  1.00 20.00     0.118 C 
HETATM    3  C3  UNL     1     -22.525  18.889   7.806  1.00 20.00     0.188 C 
HETATM    4  C4  UNL     1     -22.691  19.180   9.275  1.00 20.00     0.127 C 
HETATM    5  C7  UNL     1     -24.126  18.966   9.742  1.00 20.00     0.154 C 
HETATM    6  N9  UNL     1     -23.462  18.963   6.913  1.00 20.00    -0.237 NA
HETATM    7  F11 UNL     1     -21.294  18.577   7.376  1.00 20.00    -0.189 F 
ENDROOT
BRANCH   5   8
HETATM    8  O10 UNL     1     -24.285  17.616  10.170  1.00 20.00    -0.376 OA
BRANCH   8   9
HETATM    9  C8  UNL     1     -24.270  17.517  11.587  1.00 20.00     0.122 A 
HETATM   10  C5  UNL     1     -25.596  17.265  12.246  1.00 20.00     0.034 A 
HETATM   11  C6  UNL     1     -24.582  16.161  12.155  1.00 20.00     0.034 A 
ENDBRANCH   8   9
ENDBRANCH   5   8
TORSDOF 2
ENDMDL
MODEL 7
REMARK VINA RESULT:      -3.7      3.870      5.651
REMARK  2 active torsions:
REMARK  status: ('A' for Active; 'I' for Inactive)
REMARK    1  A    between atoms: C7_7  and  O10_10 
REMARK    2  A    between atoms: C8_8  and  O10_10 
ROOT
HETATM    1  C1  UNL     1     -31.838  18.264  -1.304  1.00 20.00     0.024 C 
HETATM    2  C2  UNL     1     -31.709  18.503   0.008  1.00 20.00     0.118 C 
HETATM    3  C3  UNL     1     -33.936  18.474   0.444  1.00 20.00     0.188 C 
HETATM    4  C4  UNL     1     -34.300  18.544  -1.016  1.00 20.00     0.127 C 
HETATM    5  C7  UNL     1     -33.182  18.020  -1.910  1.00 20.00     0.154 C 
HETATM    6  N9  UNL     1     -32.731  18.492   0.922  1.00 20.00    -0.237 NA
HETATM    7  F11 UNL     1     -34.943  18.445   1.328  1.00 20.00    -0.189 F 
ENDROOT
BRANCH   5   8
HETATM    8  O10 UNL     1     -33.359  16.621  -2.112  1.00 20.00    -0.376 OA
BRANCH   8   9
HETATM    9  C8  UNL     1     -33.580  16.319  -3.482  1.00 20.00     0.122 A 
HETATM   10  C5  UNL     1     -32.685  15.272  -4.082  1.00 20.00     0.034 A 
HETATM   11  C6  UNL     1     -34.118  14.947  -3.776  1.00 20.00     0.034 A 
ENDBRANCH   8   9
ENDBRANCH   5   8
TORSDOF 2
ENDMDL
MODEL 8
REMARK VINA RESULT:      -3.6     12.808     13.993
REMARK  2 active torsions:
REMARK  status: ('A' for Active; 'I' for Inactive)
REMARK    1  A    between atoms: C7_7  and  O10_10 
REMARK    2  A    between atoms: C8_8  and  O10_10 
ROOT
HETATM    1  C1  UNL     1     -41.418  14.295   6.847  1.00 20.00     0.024 C 
HETATM    2  C2  UNL     1     -41.525  14.627   8.141  1.00 20.00     0.118 C 
HETATM    3  C3  UNL     1     -42.809  12.843   8.706  1.00 20.00     0.188 C 
HETATM    4  C4  UNL     1     -43.091  12.494   7.267  1.00 20.00     0.127 C 
HETATM    5  C7  UNL     1     -42.017  13.028   6.327  1.00 20.00     0.154 C 
HETATM    6  N9  UNL     1     -42.111  13.857   9.111  1.00 20.00    -0.237 NA
HETATM    7  F11 UNL     1     -43.372  12.072   9.647  1.00 20.00    -0.189 F 
ENDROOT
BRANCH   5   8
HETATM    8  O10 UNL     1     -40.991  12.050   6.182  1.00 20.00    -0.376 OA
BRANCH   8   9
HETATM    9  C8  UNL     1     -40.021  12.454   5.227  1.00 20.00     0.122 A 
HETATM   10  C5  UNL     1     -38.606  12.028   5.501  1.00 20.00     0.034 A 
HETATM   11  C6  UNL     1     -39.396  11.354   4.416  1.00 20.00     0.034 A 
ENDBRANCH   8   9
ENDBRANCH   5   8
TORSDOF 2
ENDMDL
MODEL 9
REMARK VINA RESULT:      -3.6     11.741     12.645
REMARK  2 active torsions:
REMARK  status: ('A' for Active; 'I' for Inactive)
REMARK    1  A    between atoms: C7_7  and  O10_10 
REMARK    2  A    between atoms: C8_8  and  O10_10 
ROOT
HETATM    1  C1  UNL     1     -32.855   8.073   5.111  1.00 20.00     0.024 C 
HETATM    2  C2  UNL     1     -32.399   9.134   4.431  1.00 20.00     0.118 C 
HETATM    3  C3  UNL     1     -32.366   8.088   2.417  1.00 20.00     0.188 C 
HETATM    4  C4  UNL     1     -32.543   6.725   3.036  1.00 20.00     0.127 C 
HETATM    5  C7  UNL     1     -33.203   6.801   4.408  1.00 20.00     0.154 C 
HETATM    6  N9  UNL     1     -32.263   9.203   3.069  1.00 20.00    -0.237 NA
HETATM    7  F11 UNL     1     -32.253   8.146   1.082  1.00 20.00    -0.189 F 
ENDROOT
BRANCH   5   8
HETATM    8  O10 UNL     1     -34.618   6.723   4.253  1.00 20.00    -0.376 OA
BRANCH   8   9
HETATM    9  C8  UNL     1     -35.141   5.553   4.865  1.00 20.00     0.122 A 
HETATM   10  C5  UNL     1     -34.131   4.570   5.385  1.00 20.00     0.034 A 
HETATM   11  C6  UNL     1     -34.909   5.423   6.344  1.00 20.00     0.034 A 
ENDBRANCH   8   9
ENDBRANCH   5   8
TORSDOF 2
ENDMDL
