MODEL 1
REMARK VINA RESULT:      -6.1      0.000      0.000
REMARK  0 active torsions:
REMARK  status: ('A' for Active; 'I' for Inactive)
ROOT
HETATM    1  C1  UNL     1     -33.987   4.483   5.560  1.00 20.00    -0.025 C 
HETATM    2  C2  UNL     1     -34.093   5.502   6.434  1.00 20.00    -0.025 C 
HETATM    3  C3  UNL     1     -32.374   6.201   2.838  1.00 20.00    -0.024 C 
HETATM    4  C4  UNL     1     -32.005   7.494   2.990  1.00 20.00    -0.025 C 
HETATM    5  C5  UNL     1     -35.587   5.946   4.796  1.00 20.00     0.018 C 
HETATM    6  C6  UNL     1     -34.519   4.958   4.229  1.00 20.00     0.016 C 
HETATM    7  C7  UNL     1     -34.579   6.723   5.656  1.00 20.00     0.014 C 
HETATM    8  C8  UNL     1     -33.674   6.038   3.534  1.00 20.00     0.021 C 
HETATM    9  C9  UNL     1     -32.932   8.241   3.964  1.00 20.00     0.009 C 
HETATM   10  C10 UNL     1     -33.392   7.007   4.714  1.00 20.00     0.009 C 
HETATM   11  C11 UNL     1     -32.211   9.238   4.854  1.00 20.00     0.014 C 
ENDROOT
TORSDOF 0
ENDMDL
MODEL 2
REMARK VINA RESULT:      -5.1      0.999      3.877
REMARK  0 active torsions:
REMARK  status: ('A' for Active; 'I' for Inactive)
ROOT
HETATM    1  C1  UNL     1     -31.963   8.710   5.036  1.00 20.00    -0.025 C 
HETATM    2  C2  UNL     1     -31.695   7.972   3.942  1.00 20.00    -0.025 C 
HETATM    3  C3  UNL     1     -34.361   6.553   6.636  1.00 20.00    -0.024 C 
HETATM    4  C4  UNL     1     -34.637   5.344   6.094  1.00 20.00    -0.025 C 
HETATM    5  C5  UNL     1     -33.789   8.772   3.640  1.00 20.00     0.018 C 
HETATM    6  C6  UNL     1     -33.464   8.815   5.167  1.00 20.00     0.016 C 
HETATM    7  C7  UNL     1     -33.028   7.459   3.399  1.00 20.00     0.014 C 
HETATM    8  C8  UNL     1     -34.185   7.501   5.509  1.00 20.00     0.021 C 
HETATM    9  C9  UNL     1     -34.472   5.353   4.565  1.00 20.00     0.009 C 
HETATM   10  C10 UNL     1     -33.501   6.516   4.524  1.00 20.00     0.009 C 
HETATM   11  C11 UNL     1     -33.882   4.071   4.005  1.00 20.00     0.014 C 
ENDROOT
TORSDOF 0
ENDMDL
MODEL 3
REMARK VINA RESULT:      -4.9      0.835      2.360
REMARK  0 active torsions:
REMARK  status: ('A' for Active; 'I' for Inactive)
ROOT
HETATM    1  C1  UNL     1     -35.576   5.985   5.462  1.00 20.00    -0.025 C 
HETATM    2  C2  UNL     1     -35.365   5.475   4.233  1.00 20.00    -0.025 C 
HETATM    3  C3  UNL     1     -33.078   8.578   5.467  1.00 20.00    -0.024 C 
HETATM    4  C4  UNL     1     -32.349   8.805   4.349  1.00 20.00    -0.025 C 
HETATM    5  C5  UNL     1     -33.582   4.840   5.470  1.00 20.00     0.018 C 
HETATM    6  C6  UNL     1     -34.239   6.077   6.159  1.00 20.00     0.016 C 
HETATM    7  C7  UNL     1     -33.855   5.345   4.045  1.00 20.00     0.014 C 
HETATM    8  C8  UNL     1     -33.264   7.110   5.570  1.00 20.00     0.021 C 
HETATM    9  C9  UNL     1     -32.163   7.522   3.520  1.00 20.00     0.009 C 
HETATM   10  C10 UNL     1     -33.394   6.816   4.052  1.00 20.00     0.009 C 
HETATM   11  C11 UNL     1     -32.214   7.750   2.019  1.00 20.00     0.014 C 
ENDROOT
TORSDOF 0
ENDMDL
MODEL 4
REMARK VINA RESULT:      -4.3      0.918      3.574
REMARK  0 active torsions:
REMARK  status: ('A' for Active; 'I' for Inactive)
ROOT
HETATM    1  C1  UNL     1     -32.895   8.581   2.411  1.00 20.00    -0.025 C 
HETATM    2  C2  UNL     1     -33.066   9.198   3.596  1.00 20.00    -0.025 C 
HETATM    3  C3  UNL     1     -33.956   5.261   3.311  1.00 20.00    -0.024 C 
HETATM    4  C4  UNL     1     -34.442   5.029   4.553  1.00 20.00    -0.025 C 
HETATM    5  C5  UNL     1     -31.270   7.850   3.864  1.00 20.00     0.018 C 
HETATM    6  C6  UNL     1     -32.106   7.317   2.657  1.00 20.00     0.016 C 
HETATM    7  C7  UNL     1     -32.502   8.277   4.676  1.00 20.00     0.014 C 
HETATM    8  C8  UNL     1     -32.843   6.231   3.457  1.00 20.00     0.021 C 
HETATM    9  C9  UNL     1     -33.819   5.975   5.595  1.00 20.00     0.009 C 
HETATM   10  C10 UNL     1     -33.457   7.069   4.610  1.00 20.00     0.009 C 
HETATM   11  C11 UNL     1     -34.795   6.439   6.661  1.00 20.00     0.014 C 
ENDROOT
TORSDOF 0
ENDMDL
MODEL 5
REMARK VINA RESULT:      -4.2     12.022     13.428
REMARK  0 active torsions:
REMARK  status: ('A' for Active; 'I' for Inactive)
ROOT
HETATM    1  C1  UNL     1     -35.223  14.085  -4.548  1.00 20.00    -0.025 C 
HETATM    2  C2  UNL     1     -35.900  14.929  -5.349  1.00 20.00    -0.025 C 
HETATM    3  C3  UNL     1     -33.406  16.477  -2.563  1.00 20.00    -0.024 C 
HETATM    4  C4  UNL     1     -33.632  17.800  -2.739  1.00 20.00    -0.025 C 
HETATM    5  C5  UNL     1     -33.746  15.036  -6.032  1.00 20.00     0.018 C 
HETATM    6  C6  UNL     1     -33.769  14.495  -4.567  1.00 20.00     0.016 C 
HETATM    7  C7  UNL     1     -34.919  16.005  -5.813  1.00 20.00     0.014 C 
HETATM    8  C8  UNL     1     -33.461  15.847  -3.905  1.00 20.00     0.021 C 
HETATM    9  C9  UNL     1     -34.050  18.119  -4.185  1.00 20.00     0.009 C 
HETATM   10  C10 UNL     1     -34.587  16.737  -4.498  1.00 20.00     0.009 C 
HETATM   11  C11 UNL     1     -35.109  19.202  -4.291  1.00 20.00     0.014 C 
ENDROOT
TORSDOF 0
ENDMDL
MODEL 6
REMARK VINA RESULT:      -4.2     12.519     13.493
REMARK  0 active torsions:
REMARK  status: ('A' for Active; 'I' for Inactive)
ROOT
HETATM    1  C1  UNL     1     -33.987  19.248  -2.494  1.00 20.00    -0.025 C 
HETATM    2  C2  UNL     1     -32.646  19.187  -2.603  1.00 20.00    -0.025 C 
HETATM    3  C3  UNL     1     -34.293  19.230   1.093  1.00 20.00    -0.024 C 
HETATM    4  C4  UNL     1     -33.176  19.256   1.859  1.00 20.00    -0.025 C 
HETATM    5  C5  UNL     1     -33.293  17.143  -1.885  1.00 20.00     0.018 C 
HETATM    6  C6  UNL     1     -34.423  18.163  -1.538  1.00 20.00     0.016 C 
HETATM    7  C7  UNL     1     -32.154  18.137  -1.609  1.00 20.00     0.014 C 
HETATM    8  C8  UNL     1     -33.994  18.367  -0.076  1.00 20.00     0.021 C 
HETATM    9  C9  UNL     1     -31.988  18.575   1.158  1.00 20.00     0.009 C 
HETATM   10  C10 UNL     1     -32.507  18.776  -0.252  1.00 20.00     0.009 C 
HETATM   11  C11 UNL     1     -30.657  19.263   1.402  1.00 20.00     0.014 C 
ENDROOT
TORSDOF 0
ENDMDL
MODEL 7
REMARK VINA RESULT:      -4.1     11.833     13.665
REMARK  0 active torsions:
REMARK  status: ('A' for Active; 'I' for Inactive)
ROOT
HETATM    1  C1  UNL     1     -34.592  18.820  -1.212  1.00 20.00    -0.025 C 
HETATM    2  C2  UNL     1     -33.882  17.755  -0.794  1.00 20.00    -0.025 C 
HETATM    3  C3  UNL     1     -35.320  17.766  -4.577  1.00 20.00    -0.024 C 
HETATM    4  C4  UNL     1     -34.939  16.533  -4.987  1.00 20.00    -0.025 C 
HETATM    5  C5  UNL     1     -32.545  18.840  -2.260  1.00 20.00     0.018 C 
HETATM    6  C6  UNL     1     -34.022  19.263  -2.539  1.00 20.00     0.016 C 
HETATM    7  C7  UNL     1     -32.906  17.388  -1.911  1.00 20.00     0.014 C 
HETATM    8  C8  UNL     1     -34.238  18.283  -3.704  1.00 20.00     0.021 C 
HETATM    9  C9  UNL     1     -33.668  16.058  -4.262  1.00 20.00     0.009 C 
HETATM   10  C10 UNL     1     -33.853  16.935  -3.039  1.00 20.00     0.009 C 
HETATM   11  C11 UNL     1     -33.668  14.576  -3.933  1.00 20.00     0.014 C 
ENDROOT
TORSDOF 0
ENDMDL
MODEL 8
REMARK VINA RESULT:      -4.0     12.233     13.711
REMARK  0 active torsions:
REMARK  status: ('A' for Active; 'I' for Inactive)
ROOT
HETATM    1  C1  UNL     1     -32.167  18.216  -1.558  1.00 20.00    -0.025 C 
HETATM    2  C2  UNL     1     -32.579  19.263  -2.299  1.00 20.00    -0.025 C 
HETATM    3  C3  UNL     1     -33.410  15.520  -3.594  1.00 20.00    -0.024 C 
HETATM    4  C4  UNL     1     -34.000  15.796  -4.781  1.00 20.00    -0.025 C 
HETATM    5  C5  UNL     1     -34.453  18.390  -1.381  1.00 20.00     0.018 C 
HETATM    6  C6  UNL     1     -33.345  17.290  -1.371  1.00 20.00     0.016 C 
HETATM    7  C7  UNL     1     -34.017  18.979  -2.732  1.00 20.00     0.014 C 
HETATM    8  C8  UNL     1     -33.830  16.581  -2.646  1.00 20.00     0.021 C 
HETATM    9  C9  UNL     1     -34.696  17.167  -4.766  1.00 20.00     0.009 C 
HETATM   10  C10 UNL     1     -33.847  17.758  -3.658  1.00 20.00     0.009 C 
HETATM   11  C11 UNL     1     -34.576  17.930  -6.073  1.00 20.00     0.014 C 
ENDROOT
TORSDOF 0
ENDMDL
MODEL 9
REMARK VINA RESULT:      -4.0      8.558     10.564
REMARK  0 active torsions:
REMARK  status: ('A' for Active; 'I' for Inactive)
ROOT
HETATM    1  C1  UNL     1     -40.882   7.492   1.075  1.00 20.00    -0.025 C 
HETATM    2  C2  UNL     1     -40.778   7.468  -0.268  1.00 20.00    -0.025 C 
HETATM    3  C3  UNL     1     -43.004   4.624   1.558  1.00 20.00    -0.024 C 
HETATM    4  C4  UNL     1     -43.352   3.864   0.493  1.00 20.00    -0.025 C 
HETATM    5  C5  UNL     1     -42.897   8.128   0.168  1.00 20.00     0.018 C 
HETATM    6  C6  UNL     1     -42.347   7.386   1.427  1.00 20.00     0.016 C 
HETATM    7  C7  UNL     1     -42.174   7.209  -0.830  1.00 20.00     0.014 C 
HETATM    8  C8  UNL     1     -43.003   6.035   1.100  1.00 20.00     0.021 C 
HETATM    9  C9  UNL     1     -43.417   4.693  -0.802  1.00 20.00     0.009 C 
HETATM   10  C10 UNL     1     -42.469   5.780  -0.335  1.00 20.00     0.009 C 
HETATM   11  C11 UNL     1     -42.912   3.954  -2.028  1.00 20.00     0.014 C 
ENDROOT
TORSDOF 0
ENDMDL
