MODEL 1
REMARK VINA RESULT:      -5.2      0.000      0.000
REMARK  0 active torsions:
REMARK  status: ('A' for Active; 'I' for Inactive)
ROOT
HETATM    1  C1  UNL     1     -34.472   6.570   6.273  1.00 20.00     0.002 C 
HETATM    2  C2  UNL     1     -33.515   7.438   5.910  1.00 20.00     0.030 C 
HETATM    3  C3  UNL     1     -34.987   5.550   5.373  1.00 20.00    -0.001 C 
HETATM    4  C4  UNL     1     -34.332   5.220   4.246  1.00 20.00     0.006 C 
HETATM    5  C5  UNL     1     -33.017   7.250   4.539  1.00 20.00     0.066 C 
HETATM    6  C6  UNL     1     -32.497   7.461   2.529  1.00 20.00     0.219 C 
HETATM    7  C7  UNL     1     -33.030   5.873   3.926  1.00 20.00     0.186 C 
HETATM    8  N8  UNL     1     -32.591   8.143   3.716  1.00 20.00    -0.221 NA
HETATM    9  N9  UNL     1     -32.807   6.198   2.506  1.00 20.00    -0.245 NA
HETATM   10 CL10 UNL     1     -32.055   8.297   1.120  1.00 20.00    -0.041 Cl
ENDROOT
TORSDOF 0
ENDMDL
MODEL 2
REMARK VINA RESULT:      -4.7      0.735      2.030
REMARK  0 active torsions:
REMARK  status: ('A' for Active; 'I' for Inactive)
ROOT
HETATM    1  C1  UNL     1     -34.548   4.988   6.039  1.00 20.00     0.002 C 
HETATM    2  C2  UNL     1     -34.491   4.886   4.702  1.00 20.00     0.030 C 
HETATM    3  C3  UNL     1     -34.032   6.141   6.760  1.00 20.00    -0.001 C 
HETATM    4  C4  UNL     1     -33.751   7.292   6.123  1.00 20.00     0.006 C 
HETATM    5  C5  UNL     1     -33.890   6.048   4.033  1.00 20.00     0.066 C 
HETATM    6  C6  UNL     1     -32.687   7.350   2.929  1.00 20.00     0.219 C 
HETATM    7  C7  UNL     1     -34.013   7.414   4.660  1.00 20.00     0.186 C 
HETATM    8  N8  UNL     1     -33.191   6.073   2.952  1.00 20.00    -0.221 NA
HETATM    9  N9  UNL     1     -33.008   8.166   3.889  1.00 20.00    -0.245 NA
HETATM   10 CL10 UNL     1     -31.607   7.798   1.699  1.00 20.00    -0.041 Cl
ENDROOT
TORSDOF 0
ENDMDL
MODEL 3
REMARK VINA RESULT:      -4.6      1.739      2.629
REMARK  0 active torsions:
REMARK  status: ('A' for Active; 'I' for Inactive)
ROOT
HETATM    1  C1  UNL     1     -34.097   4.423   4.352  1.00 20.00     0.002 C 
HETATM    2  C2  UNL     1     -33.573   5.336   3.518  1.00 20.00     0.030 C 
HETATM    3  C3  UNL     1     -34.480   4.739   5.719  1.00 20.00    -0.001 C 
HETATM    4  C4  UNL     1     -34.619   6.013   6.127  1.00 20.00     0.006 C 
HETATM    5  C5  UNL     1     -33.448   6.681   4.097  1.00 20.00     0.066 C 
HETATM    6  C6  UNL     1     -32.767   8.511   4.835  1.00 20.00     0.219 C 
HETATM    7  C7  UNL     1     -34.423   7.129   5.157  1.00 20.00     0.186 C 
HETATM    8  N8  UNL     1     -32.550   7.572   3.858  1.00 20.00    -0.221 NA
HETATM    9  N9  UNL     1     -33.736   8.322   5.681  1.00 20.00    -0.245 NA
HETATM   10 CL10 UNL     1     -31.722   9.843   4.958  1.00 20.00    -0.041 Cl
ENDROOT
TORSDOF 0
ENDMDL
MODEL 4
REMARK VINA RESULT:      -4.4      1.689      2.545
REMARK  0 active torsions:
REMARK  status: ('A' for Active; 'I' for Inactive)
ROOT
HETATM    1  C1  UNL     1     -34.421   6.658   6.706  1.00 20.00     0.002 C 
HETATM    2  C2  UNL     1     -34.877   5.707   5.875  1.00 20.00     0.030 C 
HETATM    3  C3  UNL     1     -33.344   7.564   6.342  1.00 20.00    -0.001 C 
HETATM    4  C4  UNL     1     -32.956   7.708   5.062  1.00 20.00     0.006 C 
HETATM    5  C5  UNL     1     -34.216   5.682   4.563  1.00 20.00     0.066 C 
HETATM    6  C6  UNL     1     -33.135   5.174   2.851  1.00 20.00     0.219 C 
HETATM    7  C7  UNL     1     -33.666   6.961   3.983  1.00 20.00     0.186 C 
HETATM    8  N8  UNL     1     -33.977   4.667   3.809  1.00 20.00    -0.221 NA
HETATM    9  N9  UNL     1     -32.816   6.434   2.901  1.00 20.00    -0.245 NA
HETATM   10 CL10 UNL     1     -32.479   4.133   1.682  1.00 20.00    -0.041 Cl
ENDROOT
TORSDOF 0
ENDMDL
MODEL 5
REMARK VINA RESULT:      -4.2     12.146     12.781
REMARK  0 active torsions:
REMARK  status: ('A' for Active; 'I' for Inactive)
ROOT
HETATM    1  C1  UNL     1     -32.978  18.244  -1.612  1.00 20.00     0.002 C 
HETATM    2  C2  UNL     1     -31.792  18.817  -1.348  1.00 20.00     0.030 C 
HETATM    3  C3  UNL     1     -33.865  17.764  -0.565  1.00 20.00    -0.001 C 
HETATM    4  C4  UNL     1     -33.698  18.138   0.716  1.00 20.00     0.006 C 
HETATM    5  C5  UNL     1     -31.487  18.942   0.084  1.00 20.00     0.066 C 
HETATM    6  C6  UNL     1     -30.657  18.810   1.995  1.00 20.00     0.219 C 
HETATM    7  C7  UNL     1     -32.613  19.096   1.074  1.00 20.00     0.186 C 
HETATM    8  N8  UNL     1     -30.338  18.888   0.662  1.00 20.00    -0.221 NA
HETATM    9  N9  UNL     1     -31.910  18.826   2.341  1.00 20.00    -0.245 NA
HETATM   10 CL10 UNL     1     -29.417  18.620   3.139  1.00 20.00    -0.041 Cl
ENDROOT
TORSDOF 0
ENDMDL
MODEL 6
REMARK VINA RESULT:      -4.0     12.351     12.571
REMARK  0 active torsions:
REMARK  status: ('A' for Active; 'I' for Inactive)
ROOT
HETATM    1  C1  UNL     1     -31.504  19.139   3.511  1.00 20.00     0.002 C 
HETATM    2  C2  UNL     1     -32.576  19.263   2.712  1.00 20.00     0.030 C 
HETATM    3  C3  UNL     1     -30.199  18.734   3.013  1.00 20.00    -0.001 C 
HETATM    4  C4  UNL     1     -29.917  18.759   1.699  1.00 20.00     0.006 C 
HETATM    5  C5  UNL     1     -32.309  18.982   1.295  1.00 20.00     0.066 C 
HETATM    6  C6  UNL     1     -32.273  18.204  -0.642  1.00 20.00     0.219 C 
HETATM    7  C7  UNL     1     -30.938  19.250   0.729  1.00 20.00     0.186 C 
HETATM    8  N8  UNL     1     -33.101  18.466   0.421  1.00 20.00    -0.221 NA
HETATM    9  N9  UNL     1     -31.015  18.519  -0.548  1.00 20.00    -0.245 NA
HETATM   10 CL10 UNL     1     -32.896  17.414  -2.009  1.00 20.00    -0.041 Cl
ENDROOT
TORSDOF 0
ENDMDL
MODEL 7
REMARK VINA RESULT:      -3.9      2.832      3.713
REMARK  0 active torsions:
REMARK  status: ('A' for Active; 'I' for Inactive)
ROOT
HETATM    1  C1  UNL     1     -32.016   8.216   3.261  1.00 20.00     0.002 C 
HETATM    2  C2  UNL     1     -32.802   8.461   4.322  1.00 20.00     0.030 C 
HETATM    3  C3  UNL     1     -31.966   6.918   2.607  1.00 20.00    -0.001 C 
HETATM    4  C4  UNL     1     -32.915   5.991   2.825  1.00 20.00     0.006 C 
HETATM    5  C5  UNL     1     -33.622   7.317   4.743  1.00 20.00     0.066 C 
HETATM    6  C6  UNL     1     -34.516   5.739   5.777  1.00 20.00     0.219 C 
HETATM    7  C7  UNL     1     -34.067   6.304   3.718  1.00 20.00     0.186 C 
HETATM    8  N8  UNL     1     -34.003   7.003   5.931  1.00 20.00    -0.221 NA
HETATM    9  N9  UNL     1     -34.521   5.206   4.590  1.00 20.00    -0.245 NA
HETATM   10 CL10 UNL     1     -35.055   4.885   7.141  1.00 20.00    -0.041 Cl
ENDROOT
TORSDOF 0
ENDMDL
MODEL 8
REMARK VINA RESULT:      -3.8     11.969     12.944
REMARK  0 active torsions:
REMARK  status: ('A' for Active; 'I' for Inactive)
ROOT
HETATM    1  C1  UNL     1     -34.017  14.808  -5.126  1.00 20.00     0.002 C 
HETATM    2  C2  UNL     1     -33.187  15.100  -4.112  1.00 20.00     0.030 C 
HETATM    3  C3  UNL     1     -35.155  15.645  -5.471  1.00 20.00    -0.001 C 
HETATM    4  C4  UNL     1     -35.264  16.901  -5.004  1.00 20.00     0.006 C 
HETATM    5  C5  UNL     1     -33.512  16.347  -3.405  1.00 20.00     0.066 C 
HETATM    6  C6  UNL     1     -34.037  17.798  -2.000  1.00 20.00     0.219 C 
HETATM    7  C7  UNL     1     -34.182  17.472  -4.151  1.00 20.00     0.186 C 
HETATM    8  N8  UNL     1     -33.344  16.625  -2.160  1.00 20.00    -0.221 NA
HETATM    9  N9  UNL     1     -34.628  18.322  -3.033  1.00 20.00    -0.245 NA
HETATM   10 CL10 UNL     1     -34.166  18.487  -0.454  1.00 20.00    -0.041 Cl
ENDROOT
TORSDOF 0
ENDMDL
MODEL 9
REMARK VINA RESULT:      -3.7     11.825     13.041
REMARK  0 active torsions:
REMARK  status: ('A' for Active; 'I' for Inactive)
ROOT
HETATM    1  C1  UNL     1     -33.417  18.906  -2.866  1.00 20.00     0.002 C 
HETATM    2  C2  UNL     1     -33.660  18.669  -4.165  1.00 20.00     0.030 C 
HETATM    3  C3  UNL     1     -33.446  17.857  -1.860  1.00 20.00    -0.001 C 
HETATM    4  C4  UNL     1     -33.413  16.558  -2.206  1.00 20.00     0.006 C 
HETATM    5  C5  UNL     1     -33.929  17.259  -4.482  1.00 20.00     0.066 C 
HETATM    6  C6  UNL     1     -34.769  15.445  -5.080  1.00 20.00     0.219 C 
HETATM    7  C7  UNL     1     -33.300  16.176  -3.643  1.00 20.00     0.186 C 
HETATM    8  N8  UNL     1     -34.704  16.780  -5.391  1.00 20.00    -0.221 NA
HETATM    9  N9  UNL     1     -34.092  15.005  -4.061  1.00 20.00    -0.245 NA
HETATM   10 CL10 UNL     1     -35.784  14.427  -5.984  1.00 20.00    -0.041 Cl
ENDROOT
TORSDOF 0
ENDMDL
