MODEL 1
REMARK VINA RESULT:      -4.4      0.000      0.000
REMARK  0 active torsions:
REMARK  status: ('A' for Active; 'I' for Inactive)
ROOT
HETATM    1  C1  UNL     1     -32.756   6.318   2.850  1.00 20.00     0.032 C 
HETATM    2  C2  UNL     1     -32.333   7.560   3.108  1.00 20.00     0.028 C 
HETATM    3  C3  UNL     1     -34.962   5.733   5.672  1.00 20.00     0.026 C 
HETATM    4  C4  UNL     1     -34.543   4.515   5.314  1.00 20.00     0.115 C 
HETATM    5  C5  UNL     1     -33.631   5.753   3.884  1.00 20.00     0.062 C 
HETATM    6  C6  UNL     1     -32.685   8.170   4.429  1.00 20.00     0.026 C 
HETATM    7  C7  UNL     1     -34.481   6.720   4.670  1.00 20.00     0.184 C 
HETATM    8  C8  UNL     1     -31.816   9.318   4.878  1.00 20.00     0.070 C 
HETATM    9  N9  UNL     1     -33.735   4.501   4.207  1.00 20.00    -0.263 NA
HETATM   10  N10 UNL     1     -33.642   7.781   5.208  1.00 20.00    -0.279 NA
ENDROOT
TORSDOF 0
ENDMDL
MODEL 2
REMARK VINA RESULT:      -4.3     16.053     16.997
REMARK  0 active torsions:
REMARK  status: ('A' for Active; 'I' for Inactive)
ROOT
HETATM    1  C1  UNL     1     -22.189  18.384  11.733  1.00 20.00     0.032 C 
HETATM    2  C2  UNL     1     -23.375  18.536  12.331  1.00 20.00     0.028 C 
HETATM    3  C3  UNL     1     -23.124  18.700   8.241  1.00 20.00     0.026 C 
HETATM    4  C4  UNL     1     -22.024  17.939   8.228  1.00 20.00     0.115 C 
HETATM    5  C5  UNL     1     -22.249  18.386  10.267  1.00 20.00     0.062 C 
HETATM    6  C6  UNL     1     -24.604  18.568  11.476  1.00 20.00     0.026 C 
HETATM    7  C7  UNL     1     -23.350  19.193   9.625  1.00 20.00     0.184 C 
HETATM    8  C8  UNL     1     -25.901  18.250  12.173  1.00 20.00     0.070 C 
HETATM    9  N9  UNL     1     -21.460  17.744   9.461  1.00 20.00    -0.263 NA
HETATM   10  N10 UNL     1     -24.631  18.821  10.207  1.00 20.00    -0.279 NA
ENDROOT
TORSDOF 0
ENDMDL
MODEL 3
REMARK VINA RESULT:      -4.2      1.278      2.284
REMARK  0 active torsions:
REMARK  status: ('A' for Active; 'I' for Inactive)
ROOT
HETATM    1  C1  UNL     1     -32.944   8.104   5.072  1.00 20.00     0.032 C 
HETATM    2  C2  UNL     1     -32.268   8.414   3.961  1.00 20.00     0.028 C 
HETATM    3  C3  UNL     1     -34.241   4.828   4.204  1.00 20.00     0.026 C 
HETATM    4  C4  UNL     1     -35.114   5.312   5.093  1.00 20.00     0.115 C 
HETATM    5  C5  UNL     1     -33.667   6.830   4.999  1.00 20.00     0.062 C 
HETATM    6  C6  UNL     1     -32.415   7.523   2.766  1.00 20.00     0.026 C 
HETATM    7  C7  UNL     1     -33.084   5.756   4.113  1.00 20.00     0.184 C 
HETATM    8  C8  UNL     1     -32.061   8.139   1.437  1.00 20.00     0.070 C 
HETATM    9  N9  UNL     1     -34.775   6.535   5.607  1.00 20.00    -0.263 NA
HETATM   10  N10 UNL     1     -32.835   6.300   2.787  1.00 20.00    -0.279 NA
ENDROOT
TORSDOF 0
ENDMDL
MODEL 4
REMARK VINA RESULT:      -4.2     16.182     16.662
REMARK  0 active torsions:
REMARK  status: ('A' for Active; 'I' for Inactive)
ROOT
HETATM    1  C1  UNL     1     -24.373  19.252   8.994  1.00 20.00     0.032 C 
HETATM    2  C2  UNL     1     -23.358  19.074   8.142  1.00 20.00     0.028 C 
HETATM    3  C3  UNL     1     -22.989  17.824  12.030  1.00 20.00     0.026 C 
HETATM    4  C4  UNL     1     -24.311  17.679  12.161  1.00 20.00     0.115 C 
HETATM    5  C5  UNL     1     -24.141  18.691  10.330  1.00 20.00     0.062 C 
HETATM    6  C6  UNL     1     -22.192  18.247   8.587  1.00 20.00     0.026 C 
HETATM    7  C7  UNL     1     -22.714  18.635  10.815  1.00 20.00     0.184 C 
HETATM    8  C8  UNL     1     -21.335  17.670   7.490  1.00 20.00     0.070 C 
HETATM    9  N9  UNL     1     -25.042  18.218  11.135  1.00 20.00    -0.263 NA
HETATM   10  N10 UNL     1     -21.884  17.979   9.815  1.00 20.00    -0.279 NA
ENDROOT
TORSDOF 0
ENDMDL
MODEL 5
REMARK VINA RESULT:      -4.0      9.376     10.289
REMARK  0 active torsions:
REMARK  status: ('A' for Active; 'I' for Inactive)
ROOT
HETATM    1  C1  UNL     1     -41.829  14.359   5.396  1.00 20.00     0.032 C 
HETATM    2  C2  UNL     1     -41.789  14.922   6.608  1.00 20.00     0.028 C 
HETATM    3  C3  UNL     1     -39.515  11.599   5.835  1.00 20.00     0.026 C 
HETATM    4  C4  UNL     1     -39.467  11.874   4.527  1.00 20.00     0.115 C 
HETATM    5  C5  UNL     1     -40.912  13.226   5.229  1.00 20.00     0.062 C 
HETATM    6  C6  UNL     1     -40.766  14.434   7.586  1.00 20.00     0.026 C 
HETATM    7  C7  UNL     1     -40.591  12.413   6.458  1.00 20.00     0.184 C 
HETATM    8  C8  UNL     1     -40.424  15.378   8.710  1.00 20.00     0.070 C 
HETATM    9  N9  UNL     1     -40.329  12.862   4.128  1.00 20.00    -0.263 NA
HETATM   10  N10 UNL     1     -40.150  13.297   7.527  1.00 20.00    -0.279 NA
ENDROOT
TORSDOF 0
ENDMDL
MODEL 6
REMARK VINA RESULT:      -3.9     12.476     13.334
REMARK  0 active torsions:
REMARK  status: ('A' for Active; 'I' for Inactive)
ROOT
HETATM    1  C1  UNL     1     -33.767  14.773  -4.791  1.00 20.00     0.032 C 
HETATM    2  C2  UNL     1     -33.078  15.435  -3.855  1.00 20.00     0.028 C 
HETATM    3  C3  UNL     1     -36.385  17.169  -5.551  1.00 20.00     0.026 C 
HETATM    4  C4  UNL     1     -36.922  15.979  -5.840  1.00 20.00     0.115 C 
HETATM    5  C5  UNL     1     -34.970  15.471  -5.258  1.00 20.00     0.062 C 
HETATM    6  C6  UNL     1     -33.651  16.710  -3.319  1.00 20.00     0.026 C 
HETATM    7  C7  UNL     1     -34.947  16.979  -5.225  1.00 20.00     0.184 C 
HETATM    8  C8  UNL     1     -33.131  17.153  -1.975  1.00 20.00     0.070 C 
HETATM    9  N9  UNL     1     -36.066  14.921  -5.682  1.00 20.00    -0.263 NA
HETATM   10  N10 UNL     1     -34.554  17.433  -3.899  1.00 20.00    -0.279 NA
ENDROOT
TORSDOF 0
ENDMDL
MODEL 7
REMARK VINA RESULT:      -3.9      1.280      3.953
REMARK  0 active torsions:
REMARK  status: ('A' for Active; 'I' for Inactive)
ROOT
HETATM    1  C1  UNL     1     -34.176   7.090   6.418  1.00 20.00     0.032 C 
HETATM    2  C2  UNL     1     -34.515   5.867   5.996  1.00 20.00     0.028 C 
HETATM    3  C3  UNL     1     -32.660   8.465   3.421  1.00 20.00     0.026 C 
HETATM    4  C4  UNL     1     -32.075   9.123   4.427  1.00 20.00     0.115 C 
HETATM    5  C5  UNL     1     -33.451   7.889   5.424  1.00 20.00     0.062 C 
HETATM    6  C6  UNL     1     -34.031   5.419   4.652  1.00 20.00     0.026 C 
HETATM    7  C7  UNL     1     -33.752   7.620   3.971  1.00 20.00     0.184 C 
HETATM    8  C8  UNL     1     -34.003   3.930   4.424  1.00 20.00     0.070 C 
HETATM    9  N9  UNL     1     -32.556   8.797   5.668  1.00 20.00    -0.263 NA
HETATM   10  N10 UNL     1     -33.623   6.196   3.701  1.00 20.00    -0.279 NA
ENDROOT
TORSDOF 0
ENDMDL
MODEL 8
REMARK VINA RESULT:      -3.8      1.427      3.538
REMARK  0 active torsions:
REMARK  status: ('A' for Active; 'I' for Inactive)
ROOT
HETATM    1  C1  UNL     1     -32.769   5.563   2.632  1.00 20.00     0.032 C 
HETATM    2  C2  UNL     1     -33.503   5.000   3.598  1.00 20.00     0.028 C 
HETATM    3  C3  UNL     1     -32.515   8.973   3.849  1.00 20.00     0.026 C 
HETATM    4  C4  UNL     1     -32.398   9.079   2.521  1.00 20.00     0.115 C 
HETATM    5  C5  UNL     1     -32.553   7.004   2.804  1.00 20.00     0.062 C 
HETATM    6  C6  UNL     1     -34.103   5.888   4.644  1.00 20.00     0.026 C 
HETATM    7  C7  UNL     1     -32.522   7.533   4.217  1.00 20.00     0.184 C 
HETATM    8  C8  UNL     1     -35.281   5.321   5.394  1.00 20.00     0.070 C 
HETATM    9  N9  UNL     1     -32.403   7.880   1.858  1.00 20.00    -0.263 NA
HETATM   10  N10 UNL     1     -33.710   7.087   4.930  1.00 20.00    -0.279 NA
ENDROOT
TORSDOF 0
ENDMDL
MODEL 9
REMARK VINA RESULT:      -3.7      1.332      3.560
REMARK  0 active torsions:
REMARK  status: ('A' for Active; 'I' for Inactive)
ROOT
HETATM    1  C1  UNL     1     -33.518   8.204   5.486  1.00 20.00     0.032 C 
HETATM    2  C2  UNL     1     -34.254   7.383   6.242  1.00 20.00     0.028 C 
HETATM    3  C3  UNL     1     -32.906   6.116   2.582  1.00 20.00     0.026 C 
HETATM    4  C4  UNL     1     -31.867   6.956   2.618  1.00 20.00     0.115 C 
HETATM    5  C5  UNL     1     -33.036   7.602   4.238  1.00 20.00     0.062 C 
HETATM    6  C6  UNL     1     -34.399   5.956   5.810  1.00 20.00     0.026 C 
HETATM    7  C7  UNL     1     -33.891   6.525   3.618  1.00 20.00     0.184 C 
HETATM    8  C8  UNL     1     -34.793   4.977   6.886  1.00 20.00     0.070 C 
HETATM    9  N9  UNL     1     -31.932   7.890   3.619  1.00 20.00    -0.263 NA
HETATM   10  N10 UNL     1     -34.193   5.508   4.614  1.00 20.00    -0.279 NA
ENDROOT
TORSDOF 0
ENDMDL
