MODEL 1
REMARK VINA RESULT:      -4.7      0.000      0.000
REMARK  0 active torsions:
REMARK  status: ('A' for Active; 'I' for Inactive)
ROOT
HETATM    1  C1  UNL     1     -34.233  18.455  -0.659  1.00 20.00     0.008 C 
HETATM    2  C2  UNL     1     -34.191  19.152   0.487  1.00 20.00     0.028 C 
HETATM    3  C3  UNL     1     -31.821  18.151  -0.823  1.00 20.00    -0.005 C 
HETATM    4  C4  UNL     1     -30.643  18.998   1.283  1.00 20.00     0.015 C 
HETATM    5  C5  UNL     1     -33.058  17.811  -1.242  1.00 20.00    -0.065 C 
HETATM    6  C6  UNL     1     -31.254  19.097   2.472  1.00 20.00     0.028 C 
HETATM    7  C7  UNL     1     -32.855  19.233   1.108  1.00 20.00     0.046 C 
HETATM    8  C8  UNL     1     -31.638  19.223   0.200  1.00 20.00     0.085 C 
HETATM    9  C9  UNL     1     -33.302  16.790  -2.309  1.00 20.00     0.048 C 
HETATM   10  C10 UNL     1     -30.610  18.995   3.807  1.00 20.00     0.070 C 
HETATM   11  N11 UNL     1     -32.616  19.259   2.383  1.00 20.00    -0.258 NA
ENDROOT
TORSDOF 0
ENDMDL
MODEL 2
REMARK VINA RESULT:      -4.5     11.598     12.421
REMARK  0 active torsions:
REMARK  status: ('A' for Active; 'I' for Inactive)
ROOT
HETATM    1  C1  UNL     1     -33.573   5.007   4.023  1.00 20.00     0.008 C 
HETATM    2  C2  UNL     1     -32.898   5.351   2.915  1.00 20.00     0.028 C 
HETATM    3  C3  UNL     1     -33.558   7.242   4.995  1.00 20.00    -0.005 C 
HETATM    4  C4  UNL     1     -32.608   8.953   3.350  1.00 20.00     0.015 C 
HETATM    5  C5  UNL     1     -34.047   5.984   5.001  1.00 20.00    -0.065 C 
HETATM    6  C6  UNL     1     -32.611   8.770   2.022  1.00 20.00     0.028 C 
HETATM    7  C7  UNL     1     -32.657   6.799   2.768  1.00 20.00     0.046 C 
HETATM    8  C8  UNL     1     -32.492   7.633   4.027  1.00 20.00     0.085 C 
HETATM    9  C9  UNL     1     -35.071   5.515   5.988  1.00 20.00     0.048 C 
HETATM   10  C10 UNL     1     -32.654   9.832   0.984  1.00 20.00     0.070 C 
HETATM   11  N11 UNL     1     -32.625   7.448   1.645  1.00 20.00    -0.258 NA
ENDROOT
TORSDOF 0
ENDMDL
MODEL 3
REMARK VINA RESULT:      -4.3     10.523     11.698
REMARK  0 active torsions:
REMARK  status: ('A' for Active; 'I' for Inactive)
ROOT
HETATM    1  C1  UNL     1     -42.147  15.719   6.465  1.00 20.00     0.008 C 
HETATM    2  C2  UNL     1     -42.290  14.861   5.443  1.00 20.00     0.028 C 
HETATM    3  C3  UNL     1     -40.491  14.381   7.650  1.00 20.00    -0.005 C 
HETATM    4  C4  UNL     1     -39.758  12.373   6.246  1.00 20.00     0.015 C 
HETATM    5  C5  UNL     1     -41.128  15.561   7.500  1.00 20.00    -0.065 C 
HETATM    6  C6  UNL     1     -39.853  12.343   4.910  1.00 20.00     0.028 C 
HETATM    7  C7  UNL     1     -41.343  13.730   5.454  1.00 20.00     0.046 C 
HETATM    8  C8  UNL     1     -40.858  13.212   6.797  1.00 20.00     0.085 C 
HETATM    9  C9  UNL     1     -40.851  16.750   8.367  1.00 20.00     0.048 C 
HETATM   10  C10 UNL     1     -38.986  11.574   3.980  1.00 20.00     0.070 C 
HETATM   11  N11 UNL     1     -40.836  13.161   4.405  1.00 20.00    -0.258 NA
ENDROOT
TORSDOF 0
ENDMDL
MODEL 4
REMARK VINA RESULT:      -4.3      2.830      4.011
REMARK  0 active torsions:
REMARK  status: ('A' for Active; 'I' for Inactive)
ROOT
HETATM    1  C1  UNL     1     -34.707  16.989  -4.556  1.00 20.00     0.008 C 
HETATM    2  C2  UNL     1     -35.051  18.148  -3.974  1.00 20.00     0.028 C 
HETATM    3  C3  UNL     1     -33.148  16.315  -2.810  1.00 20.00    -0.005 C 
HETATM    4  C4  UNL     1     -33.246  17.921  -0.822  1.00 20.00     0.015 C 
HETATM    5  C5  UNL     1     -33.870  15.987  -3.901  1.00 20.00    -0.065 C 
HETATM    6  C6  UNL     1     -34.316  18.678  -0.546  1.00 20.00     0.028 C 
HETATM    7  C7  UNL     1     -34.500  18.341  -2.619  1.00 20.00     0.046 C 
HETATM    8  C8  UNL     1     -33.155  17.716  -2.293  1.00 20.00     0.085 C 
HETATM    9  C9  UNL     1     -33.855  14.616  -4.503  1.00 20.00     0.048 C 
HETATM   10  C10 UNL     1     -34.735  19.164   0.794  1.00 20.00     0.070 C 
HETATM   11  N11 UNL     1     -35.093  18.961  -1.645  1.00 20.00    -0.258 NA
ENDROOT
TORSDOF 0
ENDMDL
MODEL 5
REMARK VINA RESULT:      -4.1      4.018      7.011
REMARK  0 active torsions:
REMARK  status: ('A' for Active; 'I' for Inactive)
ROOT
HETATM    1  C1  UNL     1     -34.638  18.165  -2.843  1.00 20.00     0.008 C 
HETATM    2  C2  UNL     1     -35.338  18.021  -3.980  1.00 20.00     0.028 C 
HETATM    3  C3  UNL     1     -33.314  16.142  -3.138  1.00 20.00    -0.005 C 
HETATM    4  C4  UNL     1     -33.733  15.096  -5.433  1.00 20.00     0.015 C 
HETATM    5  C5  UNL     1     -33.508  17.310  -2.491  1.00 20.00    -0.065 C 
HETATM    6  C6  UNL     1     -34.179  15.796  -6.485  1.00 20.00     0.028 C 
HETATM    7  C7  UNL     1     -34.884  16.914  -4.843  1.00 20.00     0.046 C 
HETATM    8  C8  UNL     1     -34.279  15.688  -4.182  1.00 20.00     0.085 C 
HETATM    9  C9  UNL     1     -32.611  17.788  -1.392  1.00 20.00     0.048 C 
HETATM   10  C10 UNL     1     -33.916  15.503  -7.918  1.00 20.00     0.070 C 
HETATM   11  N11 UNL     1     -34.905  16.912  -6.140  1.00 20.00    -0.258 NA
ENDROOT
TORSDOF 0
ENDMDL
MODEL 6
REMARK VINA RESULT:      -4.0     11.276     11.965
REMARK  0 active torsions:
REMARK  status: ('A' for Active; 'I' for Inactive)
ROOT
HETATM    1  C1  UNL     1     -32.312   9.463   3.083  1.00 20.00     0.008 C 
HETATM    2  C2  UNL     1     -32.507   8.990   4.324  1.00 20.00     0.028 C 
HETATM    3  C3  UNL     1     -32.704   7.333   1.968  1.00 20.00    -0.005 C 
HETATM    4  C4  UNL     1     -33.515   5.564   3.626  1.00 20.00     0.015 C 
HETATM    5  C5  UNL     1     -32.565   8.672   1.881  1.00 20.00    -0.065 C 
HETATM    6  C6  UNL     1     -34.124   5.869   4.780  1.00 20.00     0.028 C 
HETATM    7  C7  UNL     1     -32.983   7.595   4.381  1.00 20.00     0.046 C 
HETATM    8  C8  UNL     1     -32.548   6.641   3.282  1.00 20.00     0.085 C 
HETATM    9  C9  UNL     1     -32.646   9.415   0.583  1.00 20.00     0.048 C 
HETATM   10  C10 UNL     1     -35.116   5.032   5.504  1.00 20.00     0.070 C 
HETATM   11  N11 UNL     1     -33.795   7.111   5.269  1.00 20.00    -0.258 NA
ENDROOT
TORSDOF 0
ENDMDL
MODEL 7
REMARK VINA RESULT:      -4.0      3.080      5.092
REMARK  0 active torsions:
REMARK  status: ('A' for Active; 'I' for Inactive)
ROOT
HETATM    1  C1  UNL     1     -34.993  17.218  -5.789  1.00 20.00     0.008 C 
HETATM    2  C2  UNL     1     -34.715  18.285  -5.023  1.00 20.00     0.028 C 
HETATM    3  C3  UNL     1     -34.020  15.588  -4.263  1.00 20.00    -0.005 C 
HETATM    4  C4  UNL     1     -33.329  16.689  -2.060  1.00 20.00     0.015 C 
HETATM    5  C5  UNL     1     -34.789  15.842  -5.341  1.00 20.00    -0.065 C 
HETATM    6  C6  UNL     1     -33.876  17.826  -1.609  1.00 20.00     0.028 C 
HETATM    7  C7  UNL     1     -34.167  17.959  -3.693  1.00 20.00     0.046 C 
HETATM    8  C8  UNL     1     -33.328  16.701  -3.548  1.00 20.00     0.085 C 
HETATM    9  C9  UNL     1     -35.456  14.763  -6.136  1.00 20.00     0.048 C 
HETATM   10  C10 UNL     1     -34.017  18.237  -0.188  1.00 20.00     0.070 C 
HETATM   11  N11 UNL     1     -34.383  18.630  -2.603  1.00 20.00    -0.258 NA
ENDROOT
TORSDOF 0
ENDMDL
MODEL 8
REMARK VINA RESULT:      -4.0      2.286      4.955
REMARK  0 active torsions:
REMARK  status: ('A' for Active; 'I' for Inactive)
ROOT
HETATM    1  C1  UNL     1     -33.583  19.258   0.128  1.00 20.00     0.008 C 
HETATM    2  C2  UNL     1     -34.674  19.092  -0.636  1.00 20.00     0.028 C 
HETATM    3  C3  UNL     1     -32.168  17.767  -1.179  1.00 20.00    -0.005 C 
HETATM    4  C4  UNL     1     -33.358  17.003  -3.309  1.00 20.00     0.015 C 
HETATM    5  C5  UNL     1     -32.273  18.719  -0.229  1.00 20.00    -0.065 C 
HETATM    6  C6  UNL     1     -34.354  17.696  -3.878  1.00 20.00     0.028 C 
HETATM    7  C7  UNL     1     -34.451  18.305  -1.863  1.00 20.00     0.046 C 
HETATM    8  C8  UNL     1     -33.390  17.218  -1.837  1.00 20.00     0.085 C 
HETATM    9  C9  UNL     1     -31.090  19.263   0.511  1.00 20.00     0.048 C 
HETATM   10  C10 UNL     1     -34.708  17.710  -5.321  1.00 20.00     0.070 C 
HETATM   11  N11 UNL     1     -35.049  18.492  -2.999  1.00 20.00    -0.258 NA
ENDROOT
TORSDOF 0
ENDMDL
MODEL 9
REMARK VINA RESULT:      -4.0      4.852      7.975
REMARK  0 active torsions:
REMARK  status: ('A' for Active; 'I' for Inactive)
ROOT
HETATM    1  C1  UNL     1     -33.797  15.118  -3.849  1.00 20.00     0.008 C 
HETATM    2  C2  UNL     1     -34.553  14.608  -4.834  1.00 20.00     0.028 C 
HETATM    3  C3  UNL     1     -34.236  17.447  -4.413  1.00 20.00    -0.005 C 
HETATM    4  C4  UNL     1     -36.012  17.629  -6.244  1.00 20.00     0.015 C 
HETATM    5  C5  UNL     1     -33.758  16.544  -3.532  1.00 20.00    -0.065 C 
HETATM    6  C6  UNL     1     -36.920  16.672  -6.479  1.00 20.00     0.028 C 
HETATM    7  C7  UNL     1     -35.334  15.607  -5.587  1.00 20.00     0.046 C 
HETATM    8  C8  UNL     1     -34.759  17.004  -5.740  1.00 20.00     0.085 C 
HETATM    9  C9  UNL     1     -33.163  16.931  -2.214  1.00 20.00     0.048 C 
HETATM   10  C10 UNL     1     -38.281  16.863  -7.043  1.00 20.00     0.070 C 
HETATM   11  N11 UNL     1     -36.512  15.416  -6.096  1.00 20.00    -0.258 NA
ENDROOT
TORSDOF 0
ENDMDL
