MODEL 1
REMARK VINA RESULT:      -5.0      0.000      0.000
REMARK  0 active torsions:
REMARK  status: ('A' for Active; 'I' for Inactive)
ROOT
HETATM    1  C1  UNL     1     -34.354   4.903   5.848  1.00 20.00    -0.025 C 
HETATM    2  C2  UNL     1     -33.977   5.996   6.538  1.00 20.00    -0.025 C 
HETATM    3  C3  UNL     1     -32.703   5.576   2.707  1.00 20.00    -0.024 C 
HETATM    4  C4  UNL     1     -31.889   6.654   2.603  1.00 20.00    -0.025 C 
HETATM    5  C5  UNL     1     -35.463   6.730   5.001  1.00 20.00     0.018 C 
HETATM    6  C6  UNL     1     -34.890   5.361   4.512  1.00 20.00     0.016 C 
HETATM    7  C7  UNL     1     -34.132   7.200   5.610  1.00 20.00     0.014 C 
HETATM    8  C8  UNL     1     -33.849   5.972   3.560  1.00 20.00     0.021 C 
HETATM    9  C9  UNL     1     -32.290   7.786   3.562  1.00 20.00     0.009 C 
HETATM   10  C10 UNL     1     -33.078   6.914   4.522  1.00 20.00     0.009 C 
HETATM   11  C11 UNL     1     -33.053   8.930   2.913  1.00 20.00     0.014 C 
ENDROOT
TORSDOF 0
ENDMDL
MODEL 2
REMARK VINA RESULT:      -4.7      0.857      3.574
REMARK  0 active torsions:
REMARK  status: ('A' for Active; 'I' for Inactive)
ROOT
HETATM    1  C1  UNL     1     -32.542   8.203   2.051  1.00 20.00    -0.025 C 
HETATM    2  C2  UNL     1     -33.032   9.140   2.885  1.00 20.00    -0.025 C 
HETATM    3  C3  UNL     1     -33.992   5.252   3.546  1.00 20.00    -0.024 C 
HETATM    4  C4  UNL     1     -34.857   5.388   4.580  1.00 20.00    -0.025 C 
HETATM    5  C5  UNL     1     -31.482   8.013   4.082  1.00 20.00     0.018 C 
HETATM    6  C6  UNL     1     -31.936   7.106   2.894  1.00 20.00     0.016 C 
HETATM    7  C7  UNL     1     -32.879   8.610   4.310  1.00 20.00     0.014 C 
HETATM    8  C8  UNL     1     -32.937   6.279   3.718  1.00 20.00     0.021 C 
HETATM    9  C9  UNL     1     -34.595   6.662   5.399  1.00 20.00     0.009 C 
HETATM   10  C10 UNL     1     -33.832   7.398   4.315  1.00 20.00     0.009 C 
HETATM   11  C11 UNL     1     -33.854   6.435   6.707  1.00 20.00     0.014 C 
ENDROOT
TORSDOF 0
ENDMDL
MODEL 3
REMARK VINA RESULT:      -4.5      1.069      3.669
REMARK  0 active torsions:
REMARK  status: ('A' for Active; 'I' for Inactive)
ROOT
HETATM    1  C1  UNL     1     -31.697   8.448   4.733  1.00 20.00    -0.025 C 
HETATM    2  C2  UNL     1     -31.776   7.768   3.573  1.00 20.00    -0.025 C 
HETATM    3  C3  UNL     1     -34.016   6.519   6.720  1.00 20.00    -0.024 C 
HETATM    4  C4  UNL     1     -34.561   5.394   6.198  1.00 20.00    -0.025 C 
HETATM    5  C5  UNL     1     -33.746   8.858   3.775  1.00 20.00     0.018 C 
HETATM    6  C6  UNL     1     -33.105   8.741   5.195  1.00 20.00     0.016 C 
HETATM    7  C7  UNL     1     -33.254   7.477   3.314  1.00 20.00     0.014 C 
HETATM    8  C8  UNL     1     -33.926   7.513   5.624  1.00 20.00     0.021 C 
HETATM    9  C9  UNL     1     -34.663   5.449   4.666  1.00 20.00     0.009 C 
HETATM   10  C10 UNL     1     -33.609   6.523   4.471  1.00 20.00     0.009 C 
HETATM   11  C11 UNL     1     -36.051   5.765   4.132  1.00 20.00     0.014 C 
ENDROOT
TORSDOF 0
ENDMDL
MODEL 4
REMARK VINA RESULT:      -4.1     11.857     13.315
REMARK  0 active torsions:
REMARK  status: ('A' for Active; 'I' for Inactive)
ROOT
HETATM    1  C1  UNL     1     -35.103  14.017  -4.557  1.00 20.00    -0.025 C 
HETATM    2  C2  UNL     1     -35.902  14.817  -5.288  1.00 20.00    -0.025 C 
HETATM    3  C3  UNL     1     -33.484  16.505  -2.499  1.00 20.00    -0.024 C 
HETATM    4  C4  UNL     1     -33.882  17.796  -2.583  1.00 20.00    -0.025 C 
HETATM    5  C5  UNL     1     -33.805  15.217  -6.028  1.00 20.00     0.018 C 
HETATM    6  C6  UNL     1     -33.708  14.597  -4.597  1.00 20.00     0.016 C 
HETATM    7  C7  UNL     1     -35.073  16.027  -5.716  1.00 20.00     0.014 C 
HETATM    8  C8  UNL     1     -33.533  15.940  -3.869  1.00 20.00     0.021 C 
HETATM    9  C9  UNL     1     -34.458  18.144  -3.964  1.00 20.00     0.009 C 
HETATM   10  C10 UNL     1     -34.780  16.718  -4.369  1.00 20.00     0.009 C 
HETATM   11  C11 UNL     1     -33.509  18.904  -4.876  1.00 20.00     0.014 C 
ENDROOT
TORSDOF 0
ENDMDL
MODEL 5
REMARK VINA RESULT:      -4.1     12.135     13.454
REMARK  0 active torsions:
REMARK  status: ('A' for Active; 'I' for Inactive)
ROOT
HETATM    1  C1  UNL     1     -32.193  18.216  -1.542  1.00 20.00    -0.025 C 
HETATM    2  C2  UNL     1     -32.536  19.263  -2.316  1.00 20.00    -0.025 C 
HETATM    3  C3  UNL     1     -33.320  15.512  -3.655  1.00 20.00    -0.024 C 
HETATM    4  C4  UNL     1     -33.798  15.791  -4.891  1.00 20.00    -0.025 C 
HETATM    5  C5  UNL     1     -34.484  18.413  -1.547  1.00 20.00     0.018 C 
HETATM    6  C6  UNL     1     -33.392  17.301  -1.445  1.00 20.00     0.016 C 
HETATM    7  C7  UNL     1     -33.937  18.990  -2.862  1.00 20.00     0.014 C 
HETATM    8  C8  UNL     1     -33.785  16.591  -2.751  1.00 20.00     0.021 C 
HETATM    9  C9  UNL     1     -34.419  17.194  -4.977  1.00 20.00     0.009 C 
HETATM   10  C10 UNL     1     -33.703  17.762  -3.766  1.00 20.00     0.009 C 
HETATM   11  C11 UNL     1     -35.938  17.221  -4.934  1.00 20.00     0.014 C 
ENDROOT
TORSDOF 0
ENDMDL
MODEL 6
REMARK VINA RESULT:      -3.8     10.001     11.686
REMARK  0 active torsions:
REMARK  status: ('A' for Active; 'I' for Inactive)
ROOT
HETATM    1  C1  UNL     1     -41.494  13.685   4.769  1.00 20.00    -0.025 C 
HETATM    2  C2  UNL     1     -40.510  12.960   5.332  1.00 20.00    -0.025 C 
HETATM    3  C3  UNL     1     -41.639  16.427   7.115  1.00 20.00    -0.024 C 
HETATM    4  C4  UNL     1     -40.730  16.491   8.118  1.00 20.00    -0.025 C 
HETATM    5  C5  UNL     1     -42.291  12.736   6.705  1.00 20.00     0.018 C 
HETATM    6  C6  UNL     1     -42.493  14.028   5.849  1.00 20.00     0.016 C 
HETATM    7  C7  UNL     1     -40.771  12.924   6.838  1.00 20.00     0.014 C 
HETATM    8  C8  UNL     1     -41.987  14.998   6.930  1.00 20.00     0.021 C 
HETATM    9  C9  UNL     1     -40.212  15.104   8.529  1.00 20.00     0.009 C 
HETATM   10  C10 UNL     1     -40.588  14.401   7.238  1.00 20.00     0.009 C 
HETATM   11  C11 UNL     1     -40.828  14.547   9.802  1.00 20.00     0.014 C 
ENDROOT
TORSDOF 0
ENDMDL
MODEL 7
REMARK VINA RESULT:      -3.8      1.082      2.428
REMARK  0 active torsions:
REMARK  status: ('A' for Active; 'I' for Inactive)
ROOT
HETATM    1  C1  UNL     1     -35.337   5.760   6.128  1.00 20.00    -0.025 C 
HETATM    2  C2  UNL     1     -35.577   5.513   4.826  1.00 20.00    -0.025 C 
HETATM    3  C3  UNL     1     -33.027   8.517   5.799  1.00 20.00    -0.024 C 
HETATM    4  C4  UNL     1     -32.769   9.024   4.570  1.00 20.00    -0.025 C 
HETATM    5  C5  UNL     1     -33.458   4.821   5.195  1.00 20.00     0.018 C 
HETATM    6  C6  UNL     1     -33.840   5.841   6.315  1.00 20.00     0.016 C 
HETATM    7  C7  UNL     1     -34.236   5.561   4.096  1.00 20.00     0.014 C 
HETATM    8  C8  UNL     1     -33.158   7.048   5.650  1.00 20.00     0.021 C 
HETATM    9  C9  UNL     1     -32.940   7.977   3.457  1.00 20.00     0.009 C 
HETATM   10  C10 UNL     1     -33.830   7.040   4.251  1.00 20.00     0.009 C 
HETATM   11  C11 UNL     1     -31.640   7.388   2.934  1.00 20.00     0.014 C 
ENDROOT
TORSDOF 0
ENDMDL
MODEL 8
REMARK VINA RESULT:      -3.8     12.360     13.771
REMARK  0 active torsions:
REMARK  status: ('A' for Active; 'I' for Inactive)
ROOT
HETATM    1  C1  UNL     1     -27.630  -0.584  11.258  1.00 20.00    -0.025 C 
HETATM    2  C2  UNL     1     -27.891  -1.287  10.138  1.00 20.00    -0.025 C 
HETATM    3  C3  UNL     1     -24.218  -1.619  11.836  1.00 20.00    -0.024 C 
HETATM    4  C4  UNL     1     -23.600  -2.408  10.925  1.00 20.00    -0.025 C 
HETATM    5  C5  UNL     1     -27.795  -2.812  11.803  1.00 20.00     0.018 C 
HETATM    6  C6  UNL     1     -27.029  -1.533  12.269  1.00 20.00     0.016 C 
HETATM    7  C7  UNL     1     -27.335  -2.696  10.342  1.00 20.00     0.014 C 
HETATM    8  C8  UNL     1     -25.629  -2.067  11.918  1.00 20.00     0.021 C 
HETATM    9  C9  UNL     1     -24.589  -3.289  10.145  1.00 20.00     0.009 C 
HETATM   10  C10 UNL     1     -25.816  -2.441  10.424  1.00 20.00     0.009 C 
HETATM   11  C11 UNL     1     -24.653  -4.736  10.607  1.00 20.00     0.014 C 
ENDROOT
TORSDOF 0
ENDMDL
MODEL 9
REMARK VINA RESULT:      -3.7     12.214     13.812
REMARK  0 active torsions:
REMARK  status: ('A' for Active; 'I' for Inactive)
ROOT
HETATM    1  C1  UNL     1     -35.302  15.569  -6.988  1.00 20.00    -0.025 C 
HETATM    2  C2  UNL     1     -34.046  15.142  -6.753  1.00 20.00    -0.025 C 
HETATM    3  C3  UNL     1     -35.503  18.219  -4.542  1.00 20.00    -0.024 C 
HETATM    4  C4  UNL     1     -34.403  18.542  -3.821  1.00 20.00    -0.025 C 
HETATM    5  C5  UNL     1     -35.257  14.480  -4.963  1.00 20.00     0.018 C 
HETATM    6  C6  UNL     1     -36.017  15.654  -5.660  1.00 20.00     0.016 C 
HETATM    7  C7  UNL     1     -33.864  15.067  -5.237  1.00 20.00     0.014 C 
HETATM    8  C8  UNL     1     -35.504  16.746  -4.705  1.00 20.00     0.021 C 
HETATM    9  C9  UNL     1     -33.448  17.351  -3.643  1.00 20.00     0.009 C 
HETATM   10  C10 UNL     1     -33.969  16.548  -4.820  1.00 20.00     0.009 C 
HETATM   11  C11 UNL     1     -33.522  16.675  -2.283  1.00 20.00     0.014 C 
ENDROOT
TORSDOF 0
ENDMDL
