MODEL 1
REMARK VINA RESULT:      -5.5      0.000      0.000
REMARK  0 active torsions:
REMARK  status: ('A' for Active; 'I' for Inactive)
ROOT
HETATM    1  C1  UNL     1     -34.415   6.657   6.292  1.00 20.00     0.002 C 
HETATM    2  C2  UNL     1     -33.433   7.475   5.881  1.00 20.00     0.028 C 
HETATM    3  C3  UNL     1     -34.994   5.637   5.434  1.00 20.00    -0.003 C 
HETATM    4  C4  UNL     1     -34.379   5.244   4.306  1.00 20.00    -0.012 C 
HETATM    5  C5  UNL     1     -32.811   6.200   2.523  1.00 20.00     0.032 C 
HETATM    6  C6  UNL     1     -32.480   7.494   2.474  1.00 20.00     0.123 C 
HETATM    7  C7  UNL     1     -32.975   7.239   4.498  1.00 20.00     0.047 C 
HETATM    8  C8  UNL     1     -33.051   5.821   3.942  1.00 20.00     0.086 C 
HETATM    9  N9  UNL     1     -32.557   8.150   3.674  1.00 20.00    -0.241 NA
HETATM   10 CL10 UNL     1     -32.061   8.325   1.044  1.00 20.00    -0.063 Cl
ENDROOT
TORSDOF 0
ENDMDL
MODEL 2
REMARK VINA RESULT:      -5.1      1.097      2.047
REMARK  0 active torsions:
REMARK  status: ('A' for Active; 'I' for Inactive)
ROOT
HETATM    1  C1  UNL     1     -34.551   4.964   6.020  1.00 20.00     0.002 C 
HETATM    2  C2  UNL     1     -34.509   4.932   4.679  1.00 20.00     0.028 C 
HETATM    3  C3  UNL     1     -34.019   6.075   6.793  1.00 20.00    -0.003 C 
HETATM    4  C4  UNL     1     -33.749   7.258   6.217  1.00 20.00    -0.012 C 
HETATM    5  C5  UNL     1     -33.034   8.183   3.940  1.00 20.00     0.032 C 
HETATM    6  C6  UNL     1     -32.672   7.394   2.924  1.00 20.00     0.123 C 
HETATM    7  C7  UNL     1     -33.904   6.125   4.054  1.00 20.00     0.047 C 
HETATM    8  C8  UNL     1     -34.041   7.464   4.768  1.00 20.00     0.086 C 
HETATM    9  N9  UNL     1     -33.204   6.132   2.961  1.00 20.00    -0.241 NA
HETATM   10 CL10 UNL     1     -31.580   7.851   1.695  1.00 20.00    -0.063 Cl
ENDROOT
TORSDOF 0
ENDMDL
MODEL 3
REMARK VINA RESULT:      -5.0      1.715      2.660
REMARK  0 active torsions:
REMARK  status: ('A' for Active; 'I' for Inactive)
ROOT
HETATM    1  C1  UNL     1     -34.076   4.415   4.359  1.00 20.00     0.002 C 
HETATM    2  C2  UNL     1     -33.602   5.367   3.540  1.00 20.00     0.028 C 
HETATM    3  C3  UNL     1     -34.426   4.677   5.745  1.00 20.00    -0.003 C 
HETATM    4  C4  UNL     1     -34.596   5.932   6.194  1.00 20.00    -0.012 C 
HETATM    5  C5  UNL     1     -33.743   8.295   5.707  1.00 20.00     0.032 C 
HETATM    6  C6  UNL     1     -32.743   8.538   4.854  1.00 20.00     0.123 C 
HETATM    7  C7  UNL     1     -33.489   6.705   4.154  1.00 20.00     0.047 C 
HETATM    8  C8  UNL     1     -34.477   7.084   5.252  1.00 20.00     0.086 C 
HETATM    9  N9  UNL     1     -32.577   7.587   3.882  1.00 20.00    -0.241 NA
HETATM   10 CL10 UNL     1     -31.686   9.872   4.966  1.00 20.00    -0.063 Cl
ENDROOT
TORSDOF 0
ENDMDL
MODEL 4
REMARK VINA RESULT:      -4.6      1.927      2.568
REMARK  0 active torsions:
REMARK  status: ('A' for Active; 'I' for Inactive)
ROOT
HETATM    1  C1  UNL     1     -34.454   6.626   6.701  1.00 20.00     0.002 C 
HETATM    2  C2  UNL     1     -34.898   5.706   5.830  1.00 20.00     0.028 C 
HETATM    3  C3  UNL     1     -33.371   7.543   6.385  1.00 20.00    -0.003 C 
HETATM    4  C4  UNL     1     -32.971   7.738   5.117  1.00 20.00    -0.012 C 
HETATM    5  C5  UNL     1     -32.855   6.454   2.906  1.00 20.00     0.032 C 
HETATM    6  C6  UNL     1     -33.134   5.150   2.815  1.00 20.00     0.123 C 
HETATM    7  C7  UNL     1     -34.216   5.718   4.521  1.00 20.00     0.047 C 
HETATM    8  C8  UNL     1     -33.676   7.043   3.999  1.00 20.00     0.086 C 
HETATM    9  N9  UNL     1     -33.980   4.677   3.783  1.00 20.00    -0.241 NA
HETATM   10 CL10 UNL     1     -32.461   4.102   1.649  1.00 20.00    -0.063 Cl
ENDROOT
TORSDOF 0
ENDMDL
MODEL 5
REMARK VINA RESULT:      -4.3     12.133     12.788
REMARK  0 active torsions:
REMARK  status: ('A' for Active; 'I' for Inactive)
ROOT
HETATM    1  C1  UNL     1     -33.020  18.245  -1.653  1.00 20.00     0.002 C 
HETATM    2  C2  UNL     1     -31.851  18.841  -1.366  1.00 20.00     0.028 C 
HETATM    3  C3  UNL     1     -33.920  17.751  -0.625  1.00 20.00    -0.003 C 
HETATM    4  C4  UNL     1     -33.793  18.137   0.656  1.00 20.00    -0.012 C 
HETATM    5  C5  UNL     1     -31.961  18.891   2.277  1.00 20.00     0.032 C 
HETATM    6  C6  UNL     1     -30.662  18.849   1.966  1.00 20.00     0.123 C 
HETATM    7  C7  UNL     1     -31.568  18.974   0.076  1.00 20.00     0.047 C 
HETATM    8  C8  UNL     1     -32.744  19.130   1.034  1.00 20.00     0.086 C 
HETATM    9  N9  UNL     1     -30.393  18.915   0.624  1.00 20.00    -0.241 NA
HETATM   10 CL10 UNL     1     -29.406  18.657   3.105  1.00 20.00    -0.063 Cl
ENDROOT
TORSDOF 0
ENDMDL
MODEL 6
REMARK VINA RESULT:      -4.1      2.521      4.133
REMARK  0 active torsions:
REMARK  status: ('A' for Active; 'I' for Inactive)
ROOT
HETATM    1  C1  UNL     1     -32.224   7.993   1.688  1.00 20.00     0.002 C 
HETATM    2  C2  UNL     1     -32.324   6.781   2.258  1.00 20.00     0.028 C 
HETATM    3  C3  UNL     1     -32.616   9.214   2.373  1.00 20.00    -0.003 C 
HETATM    4  C4  UNL     1     -32.796   9.238   3.704  1.00 20.00    -0.012 C 
HETATM    5  C5  UNL     1     -33.511   7.663   5.590  1.00 20.00     0.032 C 
HETATM    6  C6  UNL     1     -33.988   6.435   5.361  1.00 20.00     0.123 C 
HETATM    7  C7  UNL     1     -32.838   6.793   3.642  1.00 20.00     0.047 C 
HETATM    8  C8  UNL     1     -32.544   8.009   4.513  1.00 20.00     0.086 C 
HETATM    9  N9  UNL     1     -33.577   5.873   4.181  1.00 20.00    -0.241 NA
HETATM   10 CL10 UNL     1     -35.081   5.621   6.388  1.00 20.00    -0.063 Cl
ENDROOT
TORSDOF 0
ENDMDL
MODEL 7
REMARK VINA RESULT:      -4.1      2.803      3.774
REMARK  0 active torsions:
REMARK  status: ('A' for Active; 'I' for Inactive)
ROOT
HETATM    1  C1  UNL     1     -31.971   8.500   3.738  1.00 20.00     0.002 C 
HETATM    2  C2  UNL     1     -32.799   8.619   4.788  1.00 20.00     0.028 C 
HETATM    3  C3  UNL     1     -31.904   7.295   2.928  1.00 20.00    -0.003 C 
HETATM    4  C4  UNL     1     -32.873   6.366   2.980  1.00 20.00    -0.012 C 
HETATM    5  C5  UNL     1     -34.581   5.443   4.647  1.00 20.00     0.032 C 
HETATM    6  C6  UNL     1     -34.591   5.794   5.937  1.00 20.00     0.123 C 
HETATM    7  C7  UNL     1     -33.652   7.441   5.035  1.00 20.00     0.047 C 
HETATM    8  C8  UNL     1     -34.071   6.587   3.844  1.00 20.00     0.086 C 
HETATM    9  N9  UNL     1     -34.042   7.021   6.200  1.00 20.00    -0.241 NA
HETATM   10 CL10 UNL     1     -35.163   4.799   7.200  1.00 20.00    -0.063 Cl
ENDROOT
TORSDOF 0
ENDMDL
MODEL 8
REMARK VINA RESULT:      -4.0     11.969     13.006
REMARK  0 active torsions:
REMARK  status: ('A' for Active; 'I' for Inactive)
ROOT
HETATM    1  C1  UNL     1     -33.464  18.938  -2.805  1.00 20.00     0.002 C 
HETATM    2  C2  UNL     1     -33.655  18.676  -4.107  1.00 20.00     0.028 C 
HETATM    3  C3  UNL     1     -33.514  17.904  -1.783  1.00 20.00    -0.003 C 
HETATM    4  C4  UNL     1     -33.437  16.603  -2.106  1.00 20.00    -0.012 C 
HETATM    5  C5  UNL     1     -34.041  15.052  -4.051  1.00 20.00     0.032 C 
HETATM    6  C6  UNL     1     -34.749  15.463  -5.107  1.00 20.00     0.123 C 
HETATM    7  C7  UNL     1     -33.894  17.253  -4.420  1.00 20.00     0.047 C 
HETATM    8  C8  UNL     1     -33.247  16.198  -3.531  1.00 20.00     0.086 C 
HETATM    9  N9  UNL     1     -34.663  16.806  -5.365  1.00 20.00    -0.241 NA
HETATM   10 CL10 UNL     1     -35.751  14.451  -6.046  1.00 20.00    -0.063 Cl
ENDROOT
TORSDOF 0
ENDMDL
MODEL 9
REMARK VINA RESULT:      -4.0     12.131     12.409
REMARK  0 active torsions:
REMARK  status: ('A' for Active; 'I' for Inactive)
ROOT
HETATM    1  C1  UNL     1     -32.166  19.228   3.039  1.00 20.00     0.002 C 
HETATM    2  C2  UNL     1     -33.224  19.263   2.214  1.00 20.00     0.028 C 
HETATM    3  C3  UNL     1     -30.856  18.763   2.612  1.00 20.00    -0.003 C 
HETATM    4  C4  UNL     1     -30.550  18.645   1.310  1.00 20.00    -0.012 C 
HETATM    5  C5  UNL     1     -31.716  18.162  -0.917  1.00 20.00     0.032 C 
HETATM    6  C6  UNL     1     -32.996  17.785  -0.993  1.00 20.00     0.123 C 
HETATM    7  C7  UNL     1     -32.944  18.816   0.835  1.00 20.00     0.047 C 
HETATM    8  C8  UNL     1     -31.546  19.043   0.271  1.00 20.00     0.086 C 
HETATM    9  N9  UNL     1     -33.774  18.187   0.061  1.00 20.00    -0.241 NA
HETATM   10 CL10 UNL     1     -33.641  16.819  -2.242  1.00 20.00    -0.063 Cl
ENDROOT
TORSDOF 0
ENDMDL
