MODEL 1
REMARK VINA RESULT:      -5.3      0.000      0.000
REMARK  0 active torsions:
REMARK  status: ('A' for Active; 'I' for Inactive)
ROOT
HETATM    1  C1  UNL     1     -32.494   7.443   2.746  1.00 20.00     0.104 C 
HETATM    2  C2  UNL     1     -33.951   7.032   6.145  1.00 20.00     0.107 A 
HETATM    3  C3  UNL     1     -33.804   5.660   3.791  1.00 20.00     0.145 A 
HETATM    4  C4  UNL     1     -33.188   6.899   3.868  1.00 20.00     0.100 A 
HETATM    5  C5  UNL     1     -33.267   7.592   5.071  1.00 20.00     0.142 A 
HETATM    6  C6  UNL     1     -34.533   5.788   5.965  1.00 20.00     0.212 A 
HETATM    7  N7  UNL     1     -31.930   7.885   1.834  1.00 20.00    -0.191 NA
HETATM    8  N8  UNL     1     -34.476   5.084   4.812  1.00 20.00    -0.231 NA
HETATM    9  F9  UNL     1     -32.693   8.796   5.208  1.00 20.00    -0.204 F 
HETATM   10  F10 UNL     1     -35.195   5.236   6.994  1.00 20.00    -0.184 F 
ENDROOT
TORSDOF 0
ENDMDL
MODEL 2
REMARK VINA RESULT:      -5.0      1.725      2.130
REMARK  0 active torsions:
REMARK  status: ('A' for Active; 'I' for Inactive)
ROOT
HETATM    1  C1  UNL     1     -32.468   7.531   2.841  1.00 20.00     0.104 C 
HETATM    2  C2  UNL     1     -34.367   5.013   4.813  1.00 20.00     0.107 A 
HETATM    3  C3  UNL     1     -33.431   7.561   5.089  1.00 20.00     0.145 A 
HETATM    4  C4  UNL     1     -33.188   6.898   3.897  1.00 20.00     0.100 A 
HETATM    5  C5  UNL     1     -33.669   5.600   3.763  1.00 20.00     0.142 A 
HETATM    6  C6  UNL     1     -34.557   5.760   5.965  1.00 20.00     0.212 A 
HETATM    7  N7  UNL     1     -31.882   8.047   1.981  1.00 20.00    -0.191 NA
HETATM    8  N8  UNL     1     -34.105   7.024   6.130  1.00 20.00    -0.231 NA
HETATM    9  F9  UNL     1     -33.466   4.906   2.635  1.00 20.00    -0.204 F 
HETATM   10  F10 UNL     1     -35.230   5.206   6.984  1.00 20.00    -0.184 F 
ENDROOT
TORSDOF 0
ENDMDL
MODEL 3
REMARK VINA RESULT:      -4.7      1.712      3.822
REMARK  0 active torsions:
REMARK  status: ('A' for Active; 'I' for Inactive)
ROOT
HETATM    1  C1  UNL     1     -34.438   6.043   5.801  1.00 20.00     0.104 C 
HETATM    2  C2  UNL     1     -32.655   8.327   3.468  1.00 20.00     0.107 A 
HETATM    3  C3  UNL     1     -33.389   5.703   3.617  1.00 20.00     0.145 A 
HETATM    4  C4  UNL     1     -33.726   6.540   4.669  1.00 20.00     0.100 A 
HETATM    5  C5  UNL     1     -33.348   7.875   4.586  1.00 20.00     0.142 A 
HETATM    6  C6  UNL     1     -32.366   7.410   2.470  1.00 20.00     0.212 A 
HETATM    7  N7  UNL     1     -35.019   5.638   6.721  1.00 20.00    -0.191 NA
HETATM    8  N8  UNL     1     -32.717   6.105   2.516  1.00 20.00    -0.231 NA
HETATM    9  F9  UNL     1     -33.644   8.735   5.571  1.00 20.00    -0.204 F 
HETATM   10  F10 UNL     1     -31.698   7.832   1.386  1.00 20.00    -0.184 F 
ENDROOT
TORSDOF 0
ENDMDL
MODEL 4
REMARK VINA RESULT:      -4.7      2.032      4.355
REMARK  0 active torsions:
REMARK  status: ('A' for Active; 'I' for Inactive)
ROOT
HETATM    1  C1  UNL     1     -34.440   6.136   5.880  1.00 20.00     0.104 C 
HETATM    2  C2  UNL     1     -32.767   6.065   2.558  1.00 20.00     0.107 A 
HETATM    3  C3  UNL     1     -33.300   7.847   4.554  1.00 20.00     0.145 A 
HETATM    4  C4  UNL     1     -33.734   6.541   4.709  1.00 20.00     0.100 A 
HETATM    5  C5  UNL     1     -33.458   5.638   3.687  1.00 20.00     0.142 A 
HETATM    6  C6  UNL     1     -32.377   7.394   2.501  1.00 20.00     0.212 A 
HETATM    7  N7  UNL     1     -35.014   5.808   6.834  1.00 20.00    -0.191 NA
HETATM    8  N8  UNL     1     -32.627   8.299   3.473  1.00 20.00    -0.231 NA
HETATM    9  F9  UNL     1     -33.851   4.360   3.776  1.00 20.00    -0.204 F 
HETATM   10  F10 UNL     1     -31.708   7.819   1.418  1.00 20.00    -0.184 F 
ENDROOT
TORSDOF 0
ENDMDL
MODEL 5
REMARK VINA RESULT:      -4.5      1.681      1.892
REMARK  0 active torsions:
REMARK  status: ('A' for Active; 'I' for Inactive)
ROOT
HETATM    1  C1  UNL     1     -33.165   5.138   2.711  1.00 20.00     0.104 C 
HETATM    2  C2  UNL     1     -33.463   7.634   5.454  1.00 20.00     0.107 A 
HETATM    3  C3  UNL     1     -34.371   5.136   4.839  1.00 20.00     0.145 A 
HETATM    4  C4  UNL     1     -33.539   5.772   3.933  1.00 20.00     0.100 A 
HETATM    5  C5  UNL     1     -33.079   7.045   4.254  1.00 20.00     0.142 A 
HETATM    6  C6  UNL     1     -34.300   6.913   6.292  1.00 20.00     0.212 A 
HETATM    7  N7  UNL     1     -32.861   4.622   1.717  1.00 20.00    -0.191 NA
HETATM    8  N8  UNL     1     -34.765   5.675   6.014  1.00 20.00    -0.231 NA
HETATM    9  F9  UNL     1     -32.272   7.714   3.419  1.00 20.00    -0.204 F 
HETATM   10  F10 UNL     1     -34.676   7.469   7.453  1.00 20.00    -0.184 F 
ENDROOT
TORSDOF 0
ENDMDL
MODEL 6
REMARK VINA RESULT:      -4.4      1.387      3.671
REMARK  0 active torsions:
REMARK  status: ('A' for Active; 'I' for Inactive)
ROOT
HETATM    1  C1  UNL     1     -34.255   5.318   4.728  1.00 20.00     0.104 C 
HETATM    2  C2  UNL     1     -33.156   8.773   5.562  1.00 20.00     0.107 A 
HETATM    3  C3  UNL     1     -32.903   6.969   3.531  1.00 20.00     0.145 A 
HETATM    4  C4  UNL     1     -33.642   6.604   4.645  1.00 20.00     0.100 A 
HETATM    5  C5  UNL     1     -33.766   7.528   5.676  1.00 20.00     0.142 A 
HETATM    6  C6  UNL     1     -32.438   9.041   4.407  1.00 20.00     0.212 A 
HETATM    7  N7  UNL     1     -34.754   4.272   4.795  1.00 20.00    -0.191 NA
HETATM    8  N8  UNL     1     -32.296   8.168   3.385  1.00 20.00    -0.231 NA
HETATM    9  F9  UNL     1     -34.467   7.235   6.780  1.00 20.00    -0.204 F 
HETATM   10  F10 UNL     1     -31.845  10.238   4.284  1.00 20.00    -0.184 F 
ENDROOT
TORSDOF 0
ENDMDL
MODEL 7
REMARK VINA RESULT:      -4.3      2.295      3.971
REMARK  0 active torsions:
REMARK  status: ('A' for Active; 'I' for Inactive)
ROOT
HETATM    1  C1  UNL     1     -34.242   5.337   4.701  1.00 20.00     0.104 C 
HETATM    2  C2  UNL     1     -32.201   8.120   3.312  1.00 20.00     0.107 A 
HETATM    3  C3  UNL     1     -33.770   7.606   5.484  1.00 20.00     0.145 A 
HETATM    4  C4  UNL     1     -33.607   6.604   4.541  1.00 20.00     0.100 A 
HETATM    5  C5  UNL     1     -32.806   6.873   3.437  1.00 20.00     0.142 A 
HETATM    6  C6  UNL     1     -32.427   9.053   4.311  1.00 20.00     0.212 A 
HETATM    7  N7  UNL     1     -34.759   4.306   4.831  1.00 20.00    -0.191 NA
HETATM    8  N8  UNL     1     -33.199   8.827   5.398  1.00 20.00    -0.231 NA
HETATM    9  F9  UNL     1     -32.610   5.946   2.489  1.00 20.00    -0.204 F 
HETATM   10  F10 UNL     1     -31.849  10.259   4.203  1.00 20.00    -0.184 F 
ENDROOT
TORSDOF 0
ENDMDL
MODEL 8
REMARK VINA RESULT:      -4.3      2.032      2.340
REMARK  0 active torsions:
REMARK  status: ('A' for Active; 'I' for Inactive)
ROOT
HETATM    1  C1  UNL     1     -32.480   8.802   4.800  1.00 20.00     0.104 C 
HETATM    2  C2  UNL     1     -34.374   5.634   5.266  1.00 20.00     0.107 A 
HETATM    3  C3  UNL     1     -32.659   6.758   3.467  1.00 20.00     0.145 A 
HETATM    4  C4  UNL     1     -33.006   7.492   4.590  1.00 20.00     0.100 A 
HETATM    5  C5  UNL     1     -33.881   6.912   5.502  1.00 20.00     0.142 A 
HETATM    6  C6  UNL     1     -33.966   4.984   4.113  1.00 20.00     0.212 A 
HETATM    7  N7  UNL     1     -32.052   9.867   4.972  1.00 20.00    -0.191 NA
HETATM    8  N8  UNL     1     -33.118   5.515   3.204  1.00 20.00    -0.231 NA
HETATM    9  F9  UNL     1     -34.255   7.572   6.608  1.00 20.00    -0.204 F 
HETATM   10  F10 UNL     1     -34.434   3.749   3.874  1.00 20.00    -0.184 F 
ENDROOT
TORSDOF 0
ENDMDL
MODEL 9
REMARK VINA RESULT:      -4.3     12.559     13.616
REMARK  0 active torsions:
REMARK  status: ('A' for Active; 'I' for Inactive)
ROOT
HETATM    1  C1  UNL     1     -35.355  15.068  -6.082  1.00 20.00     0.104 C 
HETATM    2  C2  UNL     1     -33.283  16.229  -3.218  1.00 20.00     0.107 A 
HETATM    3  C3  UNL     1     -34.566  17.277  -5.385  1.00 20.00     0.145 A 
HETATM    4  C4  UNL     1     -34.633  15.908  -5.182  1.00 20.00     0.100 A 
HETATM    5  C5  UNL     1     -33.977  15.381  -4.075  1.00 20.00     0.142 A 
HETATM    6  C6  UNL     1     -33.276  17.583  -3.510  1.00 20.00     0.212 A 
HETATM    7  N7  UNL     1     -35.942  14.385  -6.813  1.00 20.00    -0.191 NA
HETATM    8  N8  UNL     1     -33.903  18.131  -4.575  1.00 20.00    -0.231 NA
HETATM    9  F9  UNL     1     -34.003  14.065  -3.824  1.00 20.00    -0.204 F 
HETATM   10  F10 UNL     1     -32.612  18.412  -2.691  1.00 20.00    -0.184 F 
ENDROOT
TORSDOF 0
ENDMDL
