MODEL 1
REMARK VINA RESULT:      -4.3      0.000      0.000
REMARK  0 active torsions:
REMARK  status: ('A' for Active; 'I' for Inactive)
ROOT
HETATM    1  C1  UNL     1     -33.564   8.411   5.777  1.00 20.00     0.032 A 
HETATM    2  C2  UNL     1     -32.620   8.453   3.337  1.00 20.00     0.040 A 
HETATM    3  C3  UNL     1     -32.826   6.276   2.363  1.00 20.00     0.142 A 
HETATM    4  C4  UNL     1     -34.114   7.366   6.488  1.00 20.00     0.093 A 
HETATM    5  C5  UNL     1     -33.206   7.916   4.495  1.00 20.00     0.013 A 
HETATM    6  C6  UNL     1     -32.430   7.602   2.250  1.00 20.00     0.052 A 
HETATM    7  C7  UNL     1     -33.554   6.569   4.471  1.00 20.00     0.139 A 
HETATM    8  C8  UNL     1     -34.597   4.952   6.075  1.00 20.00     0.157 C 
HETATM    9  N9  UNL     1     -33.393   5.705   3.451  1.00 20.00    -0.241 NA
HETATM   10  N10 UNL     1     -34.103   6.253   5.686  1.00 20.00    -0.345 N 
HETATM   11 CL11 UNL     1     -31.723   8.187   0.799  1.00 20.00    -0.083 Cl
ENDROOT
TORSDOF 0
ENDMDL
MODEL 2
REMARK VINA RESULT:      -4.3     12.107     13.180
REMARK  0 active torsions:
REMARK  status: ('A' for Active; 'I' for Inactive)
ROOT
HETATM    1  C1  UNL     1     -33.272  14.927  -4.342  1.00 20.00     0.032 A 
HETATM    2  C2  UNL     1     -33.371  16.566  -2.303  1.00 20.00     0.040 A 
HETATM    3  C3  UNL     1     -34.797  18.414  -2.832  1.00 20.00     0.142 A 
HETATM    4  C4  UNL     1     -33.896  15.012  -5.567  1.00 20.00     0.093 A 
HETATM    5  C5  UNL     1     -33.651  16.069  -3.587  1.00 20.00     0.013 A 
HETATM    6  C6  UNL     1     -33.965  17.769  -1.927  1.00 20.00     0.052 A 
HETATM    7  C7  UNL     1     -34.503  16.819  -4.392  1.00 20.00     0.139 A 
HETATM    8  C8  UNL     1     -35.443  16.608  -6.704  1.00 20.00     0.157 C 
HETATM    9  N9  UNL     1     -35.102  17.984  -4.078  1.00 20.00    -0.241 NA
HETATM   10  N10 UNL     1     -34.640  16.164  -5.587  1.00 20.00    -0.345 N 
HETATM   11 CL11 UNL     1     -33.672  18.437  -0.372  1.00 20.00    -0.083 Cl
ENDROOT
TORSDOF 0
ENDMDL
MODEL 3
REMARK VINA RESULT:      -4.1      1.061      2.179
REMARK  0 active torsions:
REMARK  status: ('A' for Active; 'I' for Inactive)
ROOT
HETATM    1  C1  UNL     1     -34.104   4.691   4.156  1.00 20.00     0.032 A 
HETATM    2  C2  UNL     1     -32.898   6.244   2.429  1.00 20.00     0.040 A 
HETATM    3  C3  UNL     1     -32.557   8.405   3.400  1.00 20.00     0.142 A 
HETATM    4  C4  UNL     1     -34.521   4.964   5.440  1.00 20.00     0.093 A 
HETATM    5  C5  UNL     1     -33.504   5.870   3.640  1.00 20.00     0.013 A 
HETATM    6  C6  UNL     1     -32.416   7.547   2.318  1.00 20.00     0.052 A 
HETATM    7  C7  UNL     1     -33.579   6.832   4.642  1.00 20.00     0.139 A 
HETATM    8  C8  UNL     1     -34.474   6.927   6.980  1.00 20.00     0.157 C 
HETATM    9  N9  UNL     1     -33.131   8.101   4.587  1.00 20.00    -0.241 NA
HETATM   10  N10 UNL     1     -34.198   6.265   5.725  1.00 20.00    -0.345 N 
HETATM   11 CL11 UNL     1     -31.661   8.076   0.870  1.00 20.00    -0.083 Cl
ENDROOT
TORSDOF 0
ENDMDL
MODEL 4
REMARK VINA RESULT:      -4.0     12.477     12.777
REMARK  0 active torsions:
REMARK  status: ('A' for Active; 'I' for Inactive)
ROOT
HETATM    1  C1  UNL     1     -31.111  18.727   0.014  1.00 20.00     0.032 A 
HETATM    2  C2  UNL     1     -29.692  18.917   2.204  1.00 20.00     0.040 A 
HETATM    3  C3  UNL     1     -31.148  19.262   4.073  1.00 20.00     0.142 A 
HETATM    4  C4  UNL     1     -32.476  18.797  -0.156  1.00 20.00     0.093 A 
HETATM    5  C5  UNL     1     -30.842  18.890   1.399  1.00 20.00     0.013 A 
HETATM    6  C6  UNL     1     -29.861  19.108   3.574  1.00 20.00     0.052 A 
HETATM    7  C7  UNL     1     -32.070  19.058   2.031  1.00 20.00     0.139 A 
HETATM    8  C8  UNL     1     -34.469  19.128   1.311  1.00 20.00     0.157 C 
HETATM    9  N9  UNL     1     -32.289  19.245   3.346  1.00 20.00    -0.241 NA
HETATM   10  N10 UNL     1     -33.049  18.999   1.073  1.00 20.00    -0.345 N 
HETATM   11 CL11 UNL     1     -28.502  19.150   4.623  1.00 20.00    -0.083 Cl
ENDROOT
TORSDOF 0
ENDMDL
MODEL 5
REMARK VINA RESULT:      -3.8      9.381     10.297
REMARK  0 active torsions:
REMARK  status: ('A' for Active; 'I' for Inactive)
ROOT
HETATM    1  C1  UNL     1     -42.463  14.646   6.111  1.00 20.00     0.032 A 
HETATM    2  C2  UNL     1     -40.806  13.112   4.789  1.00 20.00     0.040 A 
HETATM    3  C3  UNL     1     -39.193  12.190   6.298  1.00 20.00     0.142 A 
HETATM    4  C4  UNL     1     -42.498  14.946   7.456  1.00 20.00     0.093 A 
HETATM    5  C5  UNL     1     -41.368  13.767   5.897  1.00 20.00     0.013 A 
HETATM    6  C6  UNL     1     -39.691  12.306   5.007  1.00 20.00     0.052 A 
HETATM    7  C7  UNL     1     -40.767  13.562   7.134  1.00 20.00     0.139 A 
HETATM    8  C8  UNL     1     -41.167  14.346   9.480  1.00 20.00     0.157 C 
HETATM    9  N9  UNL     1     -39.692  12.796   7.400  1.00 20.00    -0.241 NA
HETATM   10  N10 UNL     1     -41.465  14.284   8.067  1.00 20.00    -0.345 N 
HETATM   11 CL11 UNL     1     -38.950  11.471   3.701  1.00 20.00    -0.083 Cl
ENDROOT
TORSDOF 0
ENDMDL
MODEL 6
REMARK VINA RESULT:      -3.7      2.639      3.880
REMARK  0 active torsions:
REMARK  status: ('A' for Active; 'I' for Inactive)
ROOT
HETATM    1  C1  UNL     1     -32.572   8.981   5.112  1.00 20.00     0.032 A 
HETATM    2  C2  UNL     1     -33.894   7.001   6.199  1.00 20.00     0.040 A 
HETATM    3  C3  UNL     1     -34.271   5.297   4.560  1.00 20.00     0.142 A 
HETATM    4  C4  UNL     1     -32.115   9.127   3.821  1.00 20.00     0.093 A 
HETATM    5  C5  UNL     1     -33.231   7.726   5.195  1.00 20.00     0.013 A 
HETATM    6  C6  UNL     1     -34.424   5.757   5.862  1.00 20.00     0.052 A 
HETATM    7  C7  UNL     1     -33.152   7.145   3.933  1.00 20.00     0.139 A 
HETATM    8  C8  UNL     1     -32.173   7.784   1.717  1.00 20.00     0.157 C 
HETATM    9  N9  UNL     1     -33.644   5.950   3.555  1.00 20.00    -0.241 NA
HETATM   10  N10 UNL     1     -32.472   8.008   3.114  1.00 20.00    -0.345 N 
HETATM   11 CL11 UNL     1     -35.246   4.812   7.037  1.00 20.00    -0.083 Cl
ENDROOT
TORSDOF 0
ENDMDL
MODEL 7
REMARK VINA RESULT:      -3.6     12.554     13.129
REMARK  0 active torsions:
REMARK  status: ('A' for Active; 'I' for Inactive)
ROOT
HETATM    1  C1  UNL     1     -34.698  19.151  -0.128  1.00 20.00     0.032 A 
HETATM    2  C2  UNL     1     -32.800  19.045   1.671  1.00 20.00     0.040 A 
HETATM    3  C3  UNL     1     -30.683  18.782   0.585  1.00 20.00     0.142 A 
HETATM    4  C4  UNL     1     -34.610  19.080  -1.501  1.00 20.00     0.093 A 
HETATM    5  C5  UNL     1     -33.381  19.044   0.392  1.00 20.00     0.013 A 
HETATM    6  C6  UNL     1     -31.416  18.910   1.757  1.00 20.00     0.052 A 
HETATM    7  C7  UNL     1     -32.527  18.907  -0.698  1.00 20.00     0.139 A 
HETATM    8  C8  UNL     1     -32.789  18.818  -3.188  1.00 20.00     0.157 C 
HETATM    9  N9  UNL     1     -31.187  18.774  -0.671  1.00 20.00    -0.241 NA
HETATM   10  N10 UNL     1     -33.289  18.931  -1.837  1.00 20.00    -0.345 N 
HETATM   11 CL11 UNL     1     -30.635  18.905   3.287  1.00 20.00    -0.083 Cl
ENDROOT
TORSDOF 0
ENDMDL
MODEL 8
REMARK VINA RESULT:      -3.6     12.352     12.440
REMARK  0 active torsions:
REMARK  status: ('A' for Active; 'I' for Inactive)
ROOT
HETATM    1  C1  UNL     1     -32.850  19.263   2.833  1.00 20.00     0.032 A 
HETATM    2  C2  UNL     1     -33.498  18.818   0.337  1.00 20.00     0.040 A 
HETATM    3  C3  UNL     1     -31.521  18.366  -0.934  1.00 20.00     0.142 A 
HETATM    4  C4  UNL     1     -31.608  19.263   3.431  1.00 20.00     0.093 A 
HETATM    5  C5  UNL     1     -32.663  18.964   1.457  1.00 20.00     0.013 A 
HETATM    6  C6  UNL     1     -32.901  18.511  -0.884  1.00 20.00     0.052 A 
HETATM    7  C7  UNL     1     -31.297  18.792   1.264  1.00 20.00     0.139 A 
HETATM    8  C8  UNL     1     -29.250  18.885   2.705  1.00 20.00     0.157 C 
HETATM    9  N9  UNL     1     -30.670  18.495   0.109  1.00 20.00    -0.241 NA
HETATM   10  N10 UNL     1     -30.673  18.976   2.470  1.00 20.00    -0.345 N 
HETATM   11 CL11 UNL     1     -33.857  18.314  -2.296  1.00 20.00    -0.083 Cl
ENDROOT
TORSDOF 0
ENDMDL
MODEL 9
REMARK VINA RESULT:      -3.6     12.448     13.250
REMARK  0 active torsions:
REMARK  status: ('A' for Active; 'I' for Inactive)
ROOT
HETATM    1  C1  UNL     1     -33.300  16.880  -3.419  1.00 20.00     0.032 A 
HETATM    2  C2  UNL     1     -32.578  17.765  -1.065  1.00 20.00     0.040 A 
HETATM    3  C3  UNL     1     -34.247  19.263  -0.228  1.00 20.00     0.142 A 
HETATM    4  C4  UNL     1     -34.432  17.161  -4.153  1.00 20.00     0.093 A 
HETATM    5  C5  UNL     1     -33.382  17.614  -2.207  1.00 20.00     0.013 A 
HETATM    6  C6  UNL     1     -33.032  18.613  -0.056  1.00 20.00     0.052 A 
HETATM    7  C7  UNL     1     -34.577  18.327  -2.246  1.00 20.00     0.139 A 
HETATM    8  C8  UNL     1     -36.470  18.574  -3.869  1.00 20.00     0.157 C 
HETATM    9  N9  UNL     1     -35.061  19.157  -1.303  1.00 20.00    -0.241 NA
HETATM   10  N10 UNL     1     -35.200  18.040  -3.433  1.00 20.00    -0.345 N 
HETATM   11 CL11 UNL     1     -32.104  18.845   1.370  1.00 20.00    -0.083 Cl
ENDROOT
TORSDOF 0
ENDMDL
