MODEL 1
REMARK VINA RESULT:      -5.5      0.000      0.000
REMARK  0 active torsions:
REMARK  status: ('A' for Active; 'I' for Inactive)
ROOT
HETATM    1  C1  UNL     1     -34.743   5.258   6.141  1.00 20.00    -0.025 C 
HETATM    2  C2  UNL     1     -34.434   6.508   6.517  1.00 20.00    -0.025 C 
HETATM    3  C3  UNL     1     -33.035   5.377   2.709  1.00 20.00    -0.024 C 
HETATM    4  C4  UNL     1     -32.525   6.536   2.286  1.00 20.00    -0.025 C 
HETATM    5  C5  UNL     1     -35.256   6.643   4.373  1.00 20.00     0.018 C 
HETATM    6  C6  UNL     1     -34.720   5.229   4.630  1.00 20.00     0.016 C 
HETATM    7  C7  UNL     1     -34.197   7.312   5.255  1.00 20.00     0.014 C 
HETATM    8  C8  UNL     1     -33.239   5.349   4.189  1.00 20.00     0.021 C 
HETATM    9  C9  UNL     1     -32.278   7.509   3.401  1.00 20.00     0.009 C 
HETATM   10  C10 UNL     1     -32.856   6.804   4.649  1.00 20.00     0.009 C 
HETATM   11  C11 UNL     1     -32.829   8.898   3.111  1.00 20.00     0.014 C 
ENDROOT
TORSDOF 0
ENDMDL
MODEL 2
REMARK VINA RESULT:      -4.4      1.070      1.751
REMARK  0 active torsions:
REMARK  status: ('A' for Active; 'I' for Inactive)
ROOT
HETATM    1  C1  UNL     1     -34.239   4.322   4.734  1.00 20.00    -0.025 C 
HETATM    2  C2  UNL     1     -34.454   4.879   5.936  1.00 20.00    -0.025 C 
HETATM    3  C3  UNL     1     -32.683   7.407   3.071  1.00 20.00    -0.024 C 
HETATM    4  C4  UNL     1     -32.669   8.560   3.744  1.00 20.00    -0.025 C 
HETATM    5  C5  UNL     1     -35.240   6.364   4.365  1.00 20.00     0.018 C 
HETATM    6  C6  UNL     1     -34.191   5.446   3.724  1.00 20.00     0.016 C 
HETATM    7  C7  UNL     1     -34.542   6.377   5.728  1.00 20.00     0.014 C 
HETATM    8  C8  UNL     1     -32.875   6.226   3.966  1.00 20.00     0.021 C 
HETATM    9  C9  UNL     1     -32.838   8.377   5.223  1.00 20.00     0.009 C 
HETATM   10  C10 UNL     1     -33.103   6.864   5.386  1.00 20.00     0.009 C 
HETATM   11  C11 UNL     1     -33.890   9.301   5.819  1.00 20.00     0.014 C 
ENDROOT
TORSDOF 0
ENDMDL
MODEL 3
REMARK VINA RESULT:      -4.2      0.890      3.337
REMARK  0 active torsions:
REMARK  status: ('A' for Active; 'I' for Inactive)
ROOT
HETATM    1  C1  UNL     1     -32.547   8.677   2.588  1.00 20.00    -0.025 C 
HETATM    2  C2  UNL     1     -33.260   9.187   3.603  1.00 20.00    -0.025 C 
HETATM    3  C3  UNL     1     -33.297   4.986   3.312  1.00 20.00    -0.024 C 
HETATM    4  C4  UNL     1     -33.970   4.674   4.422  1.00 20.00    -0.025 C 
HETATM    5  C5  UNL     1     -31.987   7.483   4.477  1.00 20.00     0.018 C 
HETATM    6  C6  UNL     1     -32.177   7.262   2.971  1.00 20.00     0.016 C 
HETATM    7  C7  UNL     1     -33.373   8.109   4.661  1.00 20.00     0.014 C 
HETATM    8  C8  UNL     1     -33.475   6.417   2.919  1.00 20.00     0.021 C 
HETATM    9  C9  UNL     1     -34.740   5.832   4.984  1.00 20.00     0.009 C 
HETATM   10  C10 UNL     1     -34.332   7.024   4.090  1.00 20.00     0.009 C 
HETATM   11  C11 UNL     1     -34.522   6.022   6.478  1.00 20.00     0.014 C 
ENDROOT
TORSDOF 0
ENDMDL
MODEL 4
REMARK VINA RESULT:      -4.1      1.108      2.434
REMARK  0 active torsions:
REMARK  status: ('A' for Active; 'I' for Inactive)
ROOT
HETATM    1  C1  UNL     1     -35.238   5.804   6.219  1.00 20.00    -0.025 C 
HETATM    2  C2  UNL     1     -35.330   5.427   4.935  1.00 20.00    -0.025 C 
HETATM    3  C3  UNL     1     -32.687   8.618   5.686  1.00 20.00    -0.024 C 
HETATM    4  C4  UNL     1     -32.153   8.778   4.473  1.00 20.00    -0.025 C 
HETATM    5  C5  UNL     1     -33.088   5.607   5.415  1.00 20.00     0.018 C 
HETATM    6  C6  UNL     1     -33.894   6.474   6.391  1.00 20.00     0.016 C 
HETATM    7  C7  UNL     1     -34.049   5.852   4.248  1.00 20.00     0.014 C 
HETATM    8  C8  UNL     1     -33.959   7.834   5.651  1.00 20.00     0.021 C 
HETATM    9  C9  UNL     1     -32.967   8.142   3.386  1.00 20.00     0.009 C 
HETATM   10  C10 UNL     1     -34.094   7.404   4.144  1.00 20.00     0.009 C 
HETATM   11  C11 UNL     1     -32.134   7.286   2.443  1.00 20.00     0.014 C 
ENDROOT
TORSDOF 0
ENDMDL
MODEL 5
REMARK VINA RESULT:      -3.9      1.244      3.554
REMARK  0 active torsions:
REMARK  status: ('A' for Active; 'I' for Inactive)
ROOT
HETATM    1  C1  UNL     1     -32.355   9.038   4.997  1.00 20.00    -0.025 C 
HETATM    2  C2  UNL     1     -31.903   8.224   4.032  1.00 20.00    -0.025 C 
HETATM    3  C3  UNL     1     -34.720   6.514   6.654  1.00 20.00    -0.024 C 
HETATM    4  C4  UNL     1     -34.901   5.327   6.072  1.00 20.00    -0.025 C 
HETATM    5  C5  UNL     1     -34.194   8.019   4.054  1.00 20.00     0.018 C 
HETATM    6  C6  UNL     1     -33.709   8.516   5.421  1.00 20.00     0.016 C 
HETATM    7  C7  UNL     1     -32.953   7.152   3.818  1.00 20.00     0.014 C 
HETATM    8  C8  UNL     1     -33.472   7.193   6.192  1.00 20.00     0.021 C 
HETATM    9  C9  UNL     1     -33.803   4.972   5.113  1.00 20.00     0.009 C 
HETATM   10  C10 UNL     1     -32.915   6.235   5.075  1.00 20.00     0.009 C 
HETATM   11  C11 UNL     1     -34.323   4.488   3.767  1.00 20.00     0.014 C 
ENDROOT
TORSDOF 0
ENDMDL
MODEL 6
REMARK VINA RESULT:      -3.7     10.056     11.355
REMARK  0 active torsions:
REMARK  status: ('A' for Active; 'I' for Inactive)
ROOT
HETATM    1  C1  UNL     1     -42.331  15.465   8.740  1.00 20.00    -0.025 C 
HETATM    2  C2  UNL     1     -41.558  14.507   9.273  1.00 20.00    -0.025 C 
HETATM    3  C3  UNL     1     -42.008  14.337   5.089  1.00 20.00    -0.024 C 
HETATM    4  C4  UNL     1     -41.165  13.344   4.797  1.00 20.00    -0.025 C 
HETATM    5  C5  UNL     1     -40.408  15.363   7.474  1.00 20.00     0.018 C 
HETATM    6  C6  UNL     1     -41.909  15.626   7.297  1.00 20.00     0.016 C 
HETATM    7  C7  UNL     1     -40.625  14.022   8.181  1.00 20.00     0.014 C 
HETATM    8  C8  UNL     1     -42.381  14.362   6.535  1.00 20.00     0.021 C 
HETATM    9  C9  UNL     1     -40.816  12.503   5.988  1.00 20.00     0.009 C 
HETATM   10  C10 UNL     1     -41.500  13.224   7.171  1.00 20.00     0.009 C 
HETATM   11  C11 UNL     1     -39.319  12.268   6.133  1.00 20.00     0.014 C 
ENDROOT
TORSDOF 0
ENDMDL
MODEL 7
REMARK VINA RESULT:      -3.5     12.285     13.480
REMARK  0 active torsions:
REMARK  status: ('A' for Active; 'I' for Inactive)
ROOT
HETATM    1  C1  UNL     1     -29.131  -2.146  10.559  1.00 20.00    -0.025 C 
HETATM    2  C2  UNL     1     -28.620  -3.250   9.995  1.00 20.00    -0.025 C 
HETATM    3  C3  UNL     1     -25.839  -0.799  11.995  1.00 20.00    -0.024 C 
HETATM    4  C4  UNL     1     -24.743  -1.555  11.902  1.00 20.00    -0.025 C 
HETATM    5  C5  UNL     1     -27.780  -3.148  12.134  1.00 20.00     0.018 C 
HETATM    6  C6  UNL     1     -28.197  -1.744  11.678  1.00 20.00     0.016 C 
HETATM    7  C7  UNL     1     -27.338  -3.581  10.733  1.00 20.00     0.014 C 
HETATM    8  C8  UNL     1     -26.898  -1.208  11.024  1.00 20.00     0.021 C 
HETATM    9  C9  UNL     1     -24.847  -2.611  10.843  1.00 20.00     0.009 C 
HETATM   10  C10 UNL     1     -26.302  -2.490  10.334  1.00 20.00     0.009 C 
HETATM   11  C11 UNL     1     -24.431  -3.990  11.335  1.00 20.00     0.014 C 
ENDROOT
TORSDOF 0
ENDMDL
MODEL 8
REMARK VINA RESULT:      -3.5     12.222     14.118
REMARK  0 active torsions:
REMARK  status: ('A' for Active; 'I' for Inactive)
ROOT
HETATM    1  C1  UNL     1     -36.164  15.558  -7.235  1.00 20.00    -0.025 C 
HETATM    2  C2  UNL     1     -36.344  16.857  -6.955  1.00 20.00    -0.025 C 
HETATM    3  C3  UNL     1     -33.658  14.828  -4.425  1.00 20.00    -0.024 C 
HETATM    4  C4  UNL     1     -33.209  15.845  -3.686  1.00 20.00    -0.025 C 
HETATM    5  C5  UNL     1     -34.074  16.485  -6.951  1.00 20.00     0.018 C 
HETATM    6  C6  UNL     1     -34.812  15.167  -6.684  1.00 20.00     0.016 C 
HETATM    7  C7  UNL     1     -35.114  17.332  -6.209  1.00 20.00     0.014 C 
HETATM    8  C8  UNL     1     -34.928  15.158  -5.139  1.00 20.00     0.021 C 
HETATM    9  C9  UNL     1     -34.096  17.052  -3.752  1.00 20.00     0.009 C 
HETATM   10  C10 UNL     1     -35.167  16.676  -4.799  1.00 20.00     0.009 C 
HETATM   11  C11 UNL     1     -33.329  18.339  -4.023  1.00 20.00     0.014 C 
ENDROOT
TORSDOF 0
ENDMDL
MODEL 9
REMARK VINA RESULT:      -3.5     12.365     13.607
REMARK  0 active torsions:
REMARK  status: ('A' for Active; 'I' for Inactive)
ROOT
HETATM    1  C1  UNL     1     -34.546  18.536  -3.292  1.00 20.00    -0.025 C 
HETATM    2  C2  UNL     1     -33.223  18.569  -3.512  1.00 20.00    -0.025 C 
HETATM    3  C3  UNL     1     -34.381  18.858   0.526  1.00 20.00    -0.024 C 
HETATM    4  C4  UNL     1     -33.187  18.827   1.122  1.00 20.00    -0.025 C 
HETATM    5  C5  UNL     1     -33.574  17.067  -1.806  1.00 20.00     0.018 C 
HETATM    6  C6  UNL     1     -34.749  18.051  -1.874  1.00 20.00     0.016 C 
HETATM    7  C7  UNL     1     -32.542  18.113  -2.238  1.00 20.00     0.014 C 
HETATM    8  C8  UNL     1     -34.286  19.187  -0.928  1.00 20.00     0.021 C 
HETATM    9  C9  UNL     1     -32.058  19.138   0.185  1.00 20.00     0.009 C 
HETATM   10  C10 UNL     1     -32.737  19.255  -1.198  1.00 20.00     0.009 C 
HETATM   11  C11 UNL     1     -30.915  18.137   0.278  1.00 20.00     0.014 C 
ENDROOT
TORSDOF 0
ENDMDL
