MODEL 1
REMARK VINA RESULT:      -4.5      0.000      0.000
REMARK  0 active torsions:
REMARK  status: ('A' for Active; 'I' for Inactive)
ROOT
HETATM    1  C1  UNL     1     -35.482   5.729   4.582  1.00 20.00     0.011 A 
HETATM    2  C2  UNL     1     -34.072   5.341   4.131  1.00 20.00     0.011 A 
HETATM    3  C3  UNL     1     -33.788   6.855   6.362  1.00 20.00     0.027 A 
HETATM    4  C4  UNL     1     -33.905   7.844   5.191  1.00 20.00     0.067 A 
HETATM    5  C5  UNL     1     -34.301   6.446   5.057  1.00 20.00    -0.026 A 
HETATM    6 BR6  UNL     1     -32.288   8.438   4.375  1.00 20.00    -0.090 Br
ENDROOT
TORSDOF 0
ENDMDL
MODEL 2
REMARK VINA RESULT:      -4.4      1.522      2.667
REMARK  0 active torsions:
REMARK  status: ('A' for Active; 'I' for Inactive)
ROOT
HETATM    1  C1  UNL     1     -34.163   6.580   6.616  1.00 20.00     0.011 A 
HETATM    2  C2  UNL     1     -33.653   7.518   5.517  1.00 20.00     0.011 A 
HETATM    3  C3  UNL     1     -35.482   5.883   4.362  1.00 20.00     0.027 A 
HETATM    4  C4  UNL     1     -34.153   5.113   4.340  1.00 20.00     0.067 A 
HETATM    5  C5  UNL     1     -34.352   6.276   5.199  1.00 20.00    -0.026 A 
HETATM    6 BR6  UNL     1     -33.064   5.279   2.783  1.00 20.00    -0.090 Br
ENDROOT
TORSDOF 0
ENDMDL
MODEL 3
REMARK VINA RESULT:      -3.8      2.310      2.834
REMARK  0 active torsions:
REMARK  status: ('A' for Active; 'I' for Inactive)
ROOT
HETATM    1  C1  UNL     1     -31.833   7.999   4.065  1.00 20.00     0.011 A 
HETATM    2  C2  UNL     1     -32.841   7.095   3.351  1.00 20.00     0.011 A 
HETATM    3  C3  UNL     1     -34.194   8.360   5.331  1.00 20.00     0.027 A 
HETATM    4  C4  UNL     1     -33.536   7.133   5.984  1.00 20.00     0.067 A 
HETATM    5  C5  UNL     1     -33.107   7.633   4.681  1.00 20.00    -0.026 A 
HETATM    6 BR6  UNL     1     -34.561   5.528   6.075  1.00 20.00    -0.090 Br
ENDROOT
TORSDOF 0
ENDMDL
MODEL 4
REMARK VINA RESULT:      -3.6      2.091      3.113
REMARK  0 active torsions:
REMARK  status: ('A' for Active; 'I' for Inactive)
ROOT
HETATM    1  C1  UNL     1     -32.913   8.768   3.517  1.00 20.00     0.011 A 
HETATM    2  C2  UNL     1     -32.179   8.349   4.793  1.00 20.00     0.011 A 
HETATM    3  C3  UNL     1     -33.098   6.075   3.640  1.00 20.00     0.027 A 
HETATM    4  C4  UNL     1     -34.264   6.626   4.476  1.00 20.00     0.067 A 
HETATM    5  C5  UNL     1     -33.114   7.453   4.122  1.00 20.00    -0.026 A 
HETATM    6 BR6  UNL     1     -34.441   5.994   6.266  1.00 20.00    -0.090 Br
ENDROOT
TORSDOF 0
ENDMDL
MODEL 5
REMARK VINA RESULT:      -3.4      1.475      2.040
REMARK  0 active torsions:
REMARK  status: ('A' for Active; 'I' for Inactive)
ROOT
HETATM    1  C1  UNL     1     -34.552   4.895   5.129  1.00 20.00     0.011 A 
HETATM    2  C2  UNL     1     -35.353   6.043   4.507  1.00 20.00     0.011 A 
HETATM    3  C3  UNL     1     -33.235   5.597   2.875  1.00 20.00     0.027 A 
HETATM    4  C4  UNL     1     -32.726   6.533   3.982  1.00 20.00     0.067 A 
HETATM    5  C5  UNL     1     -33.969   5.782   4.124  1.00 20.00    -0.026 A 
HETATM    6 BR6  UNL     1     -32.803   8.410   3.653  1.00 20.00    -0.090 Br
ENDROOT
TORSDOF 0
ENDMDL
MODEL 6
REMARK VINA RESULT:      -3.3      2.120      2.764
REMARK  0 active torsions:
REMARK  status: ('A' for Active; 'I' for Inactive)
ROOT
HETATM    1  C1  UNL     1     -34.069   8.424   5.588  1.00 20.00     0.011 A 
HETATM    2  C2  UNL     1     -33.570   7.038   6.006  1.00 20.00     0.011 A 
HETATM    3  C3  UNL     1     -31.883   7.926   4.079  1.00 20.00     0.027 A 
HETATM    4  C4  UNL     1     -33.071   7.290   3.340  1.00 20.00     0.067 A 
HETATM    5  C5  UNL     1     -33.150   7.654   4.752  1.00 20.00    -0.026 A 
HETATM    6 BR6  UNL     1     -32.927   5.451   2.859  1.00 20.00    -0.090 Br
ENDROOT
TORSDOF 0
ENDMDL
MODEL 7
REMARK VINA RESULT:      -3.2      8.727      9.242
REMARK  0 active torsions:
REMARK  status: ('A' for Active; 'I' for Inactive)
ROOT
HETATM    1  C1  UNL     1     -39.730  12.069   4.804  1.00 20.00     0.011 A 
HETATM    2  C2  UNL     1     -39.147  11.926   6.212  1.00 20.00     0.011 A 
HETATM    3  C3  UNL     1     -41.773  12.528   6.512  1.00 20.00     0.027 A 
HETATM    4  C4  UNL     1     -41.049  13.872   6.334  1.00 20.00     0.067 A 
HETATM    5  C5  UNL     1     -40.417  12.605   5.977  1.00 20.00    -0.026 A 
HETATM    6 BR6  UNL     1     -40.484  14.783   7.911  1.00 20.00    -0.090 Br
ENDROOT
TORSDOF 0
ENDMDL
MODEL 8
REMARK VINA RESULT:      -3.2      8.600      9.423
REMARK  0 active torsions:
REMARK  status: ('A' for Active; 'I' for Inactive)
ROOT
HETATM    1  C1  UNL     1     -41.177   8.266  -0.324  1.00 20.00     0.011 A 
HETATM    2  C2  UNL     1     -40.839   7.746   1.076  1.00 20.00     0.011 A 
HETATM    3  C3  UNL     1     -40.751   5.611  -0.593  1.00 20.00     0.027 A 
HETATM    4  C4  UNL     1     -42.225   5.773  -0.191  1.00 20.00     0.067 A 
HETATM    5  C5  UNL     1     -41.253   6.845   0.006  1.00 20.00    -0.026 A 
HETATM    6 BR6  UNL     1     -42.840   4.785   1.319  1.00 20.00    -0.090 Br
ENDROOT
TORSDOF 0
ENDMDL
MODEL 9
REMARK VINA RESULT:      -3.1     15.314     16.307
REMARK  0 active torsions:
REMARK  status: ('A' for Active; 'I' for Inactive)
ROOT
HETATM    1  C1  UNL     1     -25.276  17.341  12.320  1.00 20.00     0.011 A 
HETATM    2  C2  UNL     1     -24.432  16.155  11.844  1.00 20.00     0.011 A 
HETATM    3  C3  UNL     1     -22.722  18.222  12.237  1.00 20.00     0.027 A 
HETATM    4  C4  UNL     1     -23.289  18.405  10.820  1.00 20.00     0.067 A 
HETATM    5  C5  UNL     1     -23.925  17.523  11.793  1.00 20.00    -0.026 A 
HETATM    6 BR6  UNL     1     -22.308  17.644   9.373  1.00 20.00    -0.090 Br
ENDROOT
TORSDOF 0
ENDMDL
