MODEL 1
REMARK VINA RESULT:      -4.8      0.000      0.000
REMARK  0 active torsions:
REMARK  status: ('A' for Active; 'I' for Inactive)
ROOT
HETATM    1  C1  UNL     1     -33.877   7.274   6.230  1.00 20.00     0.108 C 
HETATM    2  C2  UNL     1     -33.845   5.765   5.921  1.00 20.00     0.241 C 
HETATM    3  C3  UNL     1     -34.352   6.111   4.498  1.00 20.00     0.321 C 
HETATM    4  C4  UNL     1     -33.739   7.539   4.704  1.00 20.00     0.249 C 
HETATM    5  O5  UNL     1     -34.761   5.022   6.677  1.00 20.00    -0.229 OA
HETATM    6  F6  UNL     1     -35.693   6.107   4.307  1.00 20.00    -0.198 F 
HETATM    7  F7  UNL     1     -33.818   5.379   3.494  1.00 20.00    -0.198 F 
HETATM    8  F8  UNL     1     -34.526   8.544   4.245  1.00 20.00    -0.219 F 
HETATM    9 CL9  UNL     1     -32.073   7.782   4.095  1.00 20.00    -0.076 Cl
ENDROOT
TORSDOF 0
ENDMDL
MODEL 2
REMARK VINA RESULT:      -4.7      2.459      3.198
REMARK  0 active torsions:
REMARK  status: ('A' for Active; 'I' for Inactive)
ROOT
HETATM    1  C1  UNL     1     -33.689   5.692   3.527  1.00 20.00     0.108 C 
HETATM    2  C2  UNL     1     -32.723   6.772   4.050  1.00 20.00     0.241 C 
HETATM    3  C3  UNL     1     -33.938   7.427   4.753  1.00 20.00     0.321 C 
HETATM    4  C4  UNL     1     -34.622   6.018   4.727  1.00 20.00     0.249 C 
HETATM    5  O5  UNL     1     -32.170   7.564   3.034  1.00 20.00    -0.229 OA
HETATM    6  F6  UNL     1     -34.607   8.380   4.061  1.00 20.00    -0.198 F 
HETATM    7  F7  UNL     1     -33.695   7.942   5.980  1.00 20.00    -0.198 F 
HETATM    8  F8  UNL     1     -35.940   6.055   4.405  1.00 20.00    -0.219 F 
HETATM    9 CL9  UNL     1     -34.409   5.005   6.188  1.00 20.00    -0.076 Cl
ENDROOT
TORSDOF 0
ENDMDL
MODEL 3
REMARK VINA RESULT:      -4.4      2.511      2.989
REMARK  0 active torsions:
REMARK  status: ('A' for Active; 'I' for Inactive)
ROOT
HETATM    1  C1  UNL     1     -33.978   7.272   3.924  1.00 20.00     0.108 C 
HETATM    2  C2  UNL     1     -32.875   7.450   4.984  1.00 20.00     0.241 C 
HETATM    3  C3  UNL     1     -33.821   6.750   5.992  1.00 20.00     0.321 C 
HETATM    4  C4  UNL     1     -34.521   6.080   4.762  1.00 20.00     0.249 C 
HETATM    5  O5  UNL     1     -32.615   8.791   5.297  1.00 20.00    -0.229 OA
HETATM    6  F6  UNL     1     -34.634   7.548   6.725  1.00 20.00    -0.198 F 
HETATM    7  F7  UNL     1     -33.223   5.907   6.864  1.00 20.00    -0.198 F 
HETATM    8  F8  UNL     1     -35.874   6.042   4.855  1.00 20.00    -0.219 F 
HETATM    9 CL9  UNL     1     -33.926   4.456   4.298  1.00 20.00    -0.076 Cl
ENDROOT
TORSDOF 0
ENDMDL
MODEL 4
REMARK VINA RESULT:      -4.3      2.041      2.706
REMARK  0 active torsions:
REMARK  status: ('A' for Active; 'I' for Inactive)
ROOT
HETATM    1  C1  UNL     1     -33.001   6.364   3.518  1.00 20.00     0.108 C 
HETATM    2  C2  UNL     1     -34.265   6.625   4.361  1.00 20.00     0.241 C 
HETATM    3  C3  UNL     1     -33.436   7.656   5.167  1.00 20.00     0.321 C 
HETATM    4  C4  UNL     1     -32.507   7.784   3.912  1.00 20.00     0.249 C 
HETATM    5  O5  UNL     1     -34.669   5.517   5.116  1.00 20.00    -0.229 OA
HETATM    6  F6  UNL     1     -32.806   7.203   6.278  1.00 20.00    -0.198 F 
HETATM    7  F7  UNL     1     -34.095   8.779   5.531  1.00 20.00    -0.198 F 
HETATM    8  F8  UNL     1     -31.185   7.844   4.214  1.00 20.00    -0.219 F 
HETATM    9 CL9  UNL     1     -32.900   9.101   2.764  1.00 20.00    -0.076 Cl
ENDROOT
TORSDOF 0
ENDMDL
MODEL 5
REMARK VINA RESULT:      -3.9      9.106      9.701
REMARK  0 active torsions:
REMARK  status: ('A' for Active; 'I' for Inactive)
ROOT
HETATM    1  C1  UNL     1     -40.818   6.330  -0.301  1.00 20.00     0.108 C 
HETATM    2  C2  UNL     1     -40.979   7.532   0.648  1.00 20.00     0.241 C 
HETATM    3  C3  UNL     1     -42.511   7.321   0.553  1.00 20.00     0.321 C 
HETATM    4  C4  UNL     1     -42.210   5.829   0.179  1.00 20.00     0.249 C 
HETATM    5  O5  UNL     1     -40.545   8.743   0.091  1.00 20.00    -0.229 OA
HETATM    6  F6  UNL     1     -43.167   8.012  -0.410  1.00 20.00    -0.198 F 
HETATM    7  F7  UNL     1     -43.199   7.515   1.701  1.00 20.00    -0.198 F 
HETATM    8  F8  UNL     1     -42.995   5.345  -0.816  1.00 20.00    -0.219 F 
HETATM    9 CL9  UNL     1     -42.201   4.658   1.533  1.00 20.00    -0.076 Cl
ENDROOT
TORSDOF 0
ENDMDL
MODEL 6
REMARK VINA RESULT:      -3.9      8.851      9.327
REMARK  0 active torsions:
REMARK  status: ('A' for Active; 'I' for Inactive)
ROOT
HETATM    1  C1  UNL     1     -42.803   6.748   1.297  1.00 20.00     0.108 C 
HETATM    2  C2  UNL     1     -41.971   5.461   1.144  1.00 20.00     0.241 C 
HETATM    3  C3  UNL     1     -41.801   5.825  -0.352  1.00 20.00     0.321 C 
HETATM    4  C4  UNL     1     -42.060   7.316   0.055  1.00 20.00     0.249 C 
HETATM    5  O5  UNL     1     -42.712   4.290   1.355  1.00 20.00    -0.229 OA
HETATM    6  F6  UNL     1     -42.716   5.320  -1.215  1.00 20.00    -0.198 F 
HETATM    7  F7  UNL     1     -40.586   5.561  -0.883  1.00 20.00    -0.198 F 
HETATM    8  F8  UNL     1     -42.863   7.987  -0.808  1.00 20.00    -0.219 F 
HETATM    9 CL9  UNL     1     -40.609   8.310   0.392  1.00 20.00    -0.076 Cl
ENDROOT
TORSDOF 0
ENDMDL
MODEL 7
REMARK VINA RESULT:      -3.9      8.810      9.431
REMARK  0 active torsions:
REMARK  status: ('A' for Active; 'I' for Inactive)
ROOT
HETATM    1  C1  UNL     1     -42.778   7.455   0.634  1.00 20.00     0.108 C 
HETATM    2  C2  UNL     1     -41.655   7.689  -0.395  1.00 20.00     0.241 C 
HETATM    3  C3  UNL     1     -41.003   6.379   0.115  1.00 20.00     0.321 C 
HETATM    4  C4  UNL     1     -42.428   5.941   0.596  1.00 20.00     0.249 C 
HETATM    5  O5  UNL     1     -40.891   8.834  -0.134  1.00 20.00    -0.229 OA
HETATM    6  F6  UNL     1     -40.093   6.495   1.113  1.00 20.00    -0.198 F 
HETATM    7  F7  UNL     1     -40.435   5.602  -0.834  1.00 20.00    -0.198 F 
HETATM    8  F8  UNL     1     -42.435   5.343   1.815  1.00 20.00    -0.219 F 
HETATM    9 CL9  UNL     1     -43.379   4.941  -0.546  1.00 20.00    -0.076 Cl
ENDROOT
TORSDOF 0
ENDMDL
MODEL 8
REMARK VINA RESULT:      -3.8      2.056      2.502
REMARK  0 active torsions:
REMARK  status: ('A' for Active; 'I' for Inactive)
ROOT
HETATM    1  C1  UNL     1     -33.597   6.253   3.915  1.00 20.00     0.108 C 
HETATM    2  C2  UNL     1     -34.674   5.917   4.964  1.00 20.00     0.241 C 
HETATM    3  C3  UNL     1     -33.870   6.775   5.972  1.00 20.00     0.321 C 
HETATM    4  C4  UNL     1     -33.267   7.530   4.739  1.00 20.00     0.249 C 
HETATM    5  O5  UNL     1     -34.721   4.557   5.298  1.00 20.00    -0.229 OA
HETATM    6  F6  UNL     1     -32.951   6.130   6.731  1.00 20.00    -0.198 F 
HETATM    7  F7  UNL     1     -34.610   7.526   6.819  1.00 20.00    -0.198 F 
HETATM    8  F8  UNL     1     -31.938   7.786   4.850  1.00 20.00    -0.219 F 
HETATM    9 CL9  UNL     1     -34.107   9.029   4.237  1.00 20.00    -0.076 Cl
ENDROOT
TORSDOF 0
ENDMDL
MODEL 9
REMARK VINA RESULT:      -3.8      8.668      9.337
REMARK  0 active torsions:
REMARK  status: ('A' for Active; 'I' for Inactive)
ROOT
HETATM    1  C1  UNL     1     -41.142   5.848  -0.577  1.00 20.00     0.108 C 
HETATM    2  C2  UNL     1     -42.675   5.968  -0.478  1.00 20.00     0.241 C 
HETATM    3  C3  UNL     1     -42.473   6.550   0.943  1.00 20.00     0.321 C 
HETATM    4  C4  UNL     1     -41.036   6.975   0.488  1.00 20.00     0.249 C 
HETATM    5  O5  UNL     1     -43.333   4.731  -0.489  1.00 20.00    -0.229 OA
HETATM    6  F6  UNL     1     -42.490   5.671   1.974  1.00 20.00    -0.198 F 
HETATM    7  F7  UNL     1     -43.307   7.559   1.285  1.00 20.00    -0.198 F 
HETATM    8  F8  UNL     1     -40.078   6.760   1.425  1.00 20.00    -0.219 F 
HETATM    9 CL9  UNL     1     -40.864   8.642  -0.145  1.00 20.00    -0.076 Cl
ENDROOT
TORSDOF 0
ENDMDL
