MODEL 1
REMARK VINA RESULT:      -5.2      0.000      0.000
REMARK  1 active torsions:
REMARK  status: ('A' for Active; 'I' for Inactive)
REMARK    1  A    between atoms: C3_3  and  C7_7 
ROOT
HETATM    1  C1  UNL     1     -33.483   7.422   5.156  1.00 20.00     0.024 A 
HETATM    2  C2  UNL     1     -33.776   5.433   3.885  1.00 20.00     0.131 A 
HETATM    3  C3  UNL     1     -33.977   6.125   5.068  1.00 20.00     0.024 A 
HETATM    4  C4  UNL     1     -32.812   7.978   4.073  1.00 20.00    -0.021 A 
HETATM    5  C5  UNL     1     -32.663   7.202   2.934  1.00 20.00     0.131 A 
HETATM    6  C6  UNL     1     -32.283   9.368   4.172  1.00 20.00     0.051 C 
HETATM    7  N8  UNL     1     -33.130   5.940   2.811  1.00 20.00    -0.248 NA
HETATM    8 CL11 UNL     1     -31.852   7.779   1.531  1.00 20.00    -0.062 Cl
ENDROOT
BRANCH   3   9
HETATM    9  C7  UNL     1     -34.697   5.500   6.210  1.00 20.00     0.388 C 
HETATM   10  F9  UNL     1     -35.149   6.444   7.078  1.00 20.00    -0.209 F 
HETATM   11  F10 UNL     1     -33.869   4.689   6.924  1.00 20.00    -0.209 F 
ENDBRANCH   3   9
TORSDOF 1
ENDMDL
MODEL 2
REMARK VINA RESULT:      -5.1      1.170      2.126
REMARK  1 active torsions:
REMARK  status: ('A' for Active; 'I' for Inactive)
REMARK    1  A    between atoms: C3_3  and  C7_7 
ROOT
HETATM    1  C1  UNL     1     -33.750   5.595   4.094  1.00 20.00     0.024 A 
HETATM    2  C2  UNL     1     -33.478   7.811   4.913  1.00 20.00     0.131 A 
HETATM    3  C3  UNL     1     -33.952   6.524   5.109  1.00 20.00     0.024 A 
HETATM    4  C4  UNL     1     -33.092   5.977   2.931  1.00 20.00    -0.021 A 
HETATM    5  C5  UNL     1     -32.658   7.289   2.833  1.00 20.00     0.131 A 
HETATM    6  C6  UNL     1     -32.880   4.977   1.846  1.00 20.00     0.051 C 
HETATM    7  N8  UNL     1     -32.834   8.219   3.797  1.00 20.00    -0.248 NA
HETATM    8 CL11 UNL     1     -31.832   7.880   1.444  1.00 20.00    -0.062 Cl
ENDROOT
BRANCH   3   9
HETATM    9  C7  UNL     1     -34.654   6.148   6.365  1.00 20.00     0.388 C 
HETATM   10  F9  UNL     1     -34.598   7.156   7.277  1.00 20.00    -0.209 F 
HETATM   11  F10 UNL     1     -34.062   5.071   6.950  1.00 20.00    -0.209 F 
ENDBRANCH   3   9
TORSDOF 1
ENDMDL
MODEL 3
REMARK VINA RESULT:      -4.8      3.656      4.638
REMARK  1 active torsions:
REMARK  status: ('A' for Active; 'I' for Inactive)
REMARK    1  A    between atoms: C3_3  and  C7_7 
ROOT
HETATM    1  C1  UNL     1     -33.070   6.468   3.204  1.00 20.00     0.024 A 
HETATM    2  C2  UNL     1     -33.089   8.422   4.561  1.00 20.00     0.131 A 
HETATM    3  C3  UNL     1     -32.751   7.812   3.363  1.00 20.00     0.024 A 
HETATM    4  C4  UNL     1     -33.707   5.785   4.234  1.00 20.00    -0.021 A 
HETATM    5  C5  UNL     1     -34.001   6.486   5.393  1.00 20.00     0.131 A 
HETATM    6  C6  UNL     1     -34.045   4.344   4.059  1.00 20.00     0.051 C 
HETATM    7  N8  UNL     1     -33.708   7.791   5.583  1.00 20.00    -0.248 NA
HETATM    8 CL11 UNL     1     -34.786   5.750   6.736  1.00 20.00    -0.062 Cl
ENDROOT
BRANCH   3   9
HETATM    9  C7  UNL     1     -32.068   8.572   2.282  1.00 20.00     0.388 C 
HETATM   10  F9  UNL     1     -32.812   9.642   1.893  1.00 20.00    -0.209 F 
HETATM   11  F10 UNL     1     -31.903   7.799   1.174  1.00 20.00    -0.209 F 
ENDBRANCH   3   9
TORSDOF 1
ENDMDL
MODEL 4
REMARK VINA RESULT:      -4.7      3.556      4.256
REMARK  1 active torsions:
REMARK  status: ('A' for Active; 'I' for Inactive)
REMARK    1  A    between atoms: C3_3  and  C7_7 
ROOT
HETATM    1  C1  UNL     1     -32.984   8.086   4.199  1.00 20.00     0.024 A 
HETATM    2  C2  UNL     1     -32.904   6.278   2.656  1.00 20.00     0.131 A 
HETATM    3  C3  UNL     1     -32.625   7.604   2.945  1.00 20.00     0.024 A 
HETATM    4  C4  UNL     1     -33.604   7.240   5.111  1.00 20.00    -0.021 A 
HETATM    5  C5  UNL     1     -33.840   5.931   4.724  1.00 20.00     0.131 A 
HETATM    6  C6  UNL     1     -33.988   7.763   6.453  1.00 20.00     0.051 C 
HETATM    7  N8  UNL     1     -33.504   5.426   3.516  1.00 20.00    -0.248 NA
HETATM    8 CL11 UNL     1     -34.600   4.790   5.764  1.00 20.00    -0.062 Cl
ENDROOT
BRANCH   3   9
HETATM    9  C7  UNL     1     -31.962   8.484   1.945  1.00 20.00     0.388 C 
HETATM   10  F9  UNL     1     -32.744   9.555   1.643  1.00 20.00    -0.209 F 
HETATM   11  F10 UNL     1     -31.754   7.821   0.775  1.00 20.00    -0.209 F 
ENDBRANCH   3   9
TORSDOF 1
ENDMDL
MODEL 5
REMARK VINA RESULT:      -4.4     12.406     13.028
REMARK  1 active torsions:
REMARK  status: ('A' for Active; 'I' for Inactive)
REMARK    1  A    between atoms: C3_3  and  C7_7 
ROOT
HETATM    1  C1  UNL     1     -33.303  16.588  -2.350  1.00 20.00     0.024 A 
HETATM    2  C2  UNL     1     -34.705  18.497  -2.562  1.00 20.00     0.131 A 
HETATM    3  C3  UNL     1     -33.832  17.746  -1.792  1.00 20.00     0.024 A 
HETATM    4  C4  UNL     1     -33.660  16.221  -3.643  1.00 20.00    -0.021 A 
HETATM    5  C5  UNL     1     -34.542  17.040  -4.329  1.00 20.00     0.131 A 
HETATM    6  C6  UNL     1     -33.091  14.977  -4.236  1.00 20.00     0.051 C 
HETATM    7  N8  UNL     1     -35.075  18.173  -3.821  1.00 20.00    -0.248 NA
HETATM    8 CL11 UNL     1     -35.059  16.691  -5.933  1.00 20.00    -0.062 Cl
ENDROOT
BRANCH   3   9
HETATM    9  C7  UNL     1     -33.471  18.166  -0.411  1.00 20.00     0.388 C 
HETATM   10  F9  UNL     1     -32.134  18.041  -0.196  1.00 20.00    -0.209 F 
HETATM   11  F10 UNL     1     -34.082  17.376   0.513  1.00 20.00    -0.209 F 
ENDBRANCH   3   9
TORSDOF 1
ENDMDL
MODEL 6
REMARK VINA RESULT:      -4.3     15.690     16.313
REMARK  1 active torsions:
REMARK  status: ('A' for Active; 'I' for Inactive)
REMARK    1  A    between atoms: C3_3  and  C7_7 
ROOT
HETATM    1  C1  UNL     1     -23.229  17.146  10.062  1.00 20.00     0.024 A 
HETATM    2  C2  UNL     1     -24.076  19.231   9.292  1.00 20.00     0.131 A 
HETATM    3  C3  UNL     1     -23.151  18.208   9.167  1.00 20.00     0.024 A 
HETATM    4  C4  UNL     1     -24.215  17.143  11.042  1.00 20.00    -0.021 A 
HETATM    5  C5  UNL     1     -25.091  18.215  11.084  1.00 20.00     0.131 A 
HETATM    6  C6  UNL     1     -24.293  16.003  12.000  1.00 20.00     0.051 C 
HETATM    7  N8  UNL     1     -25.048  19.262  10.231  1.00 20.00    -0.248 NA
HETATM    8 CL11 UNL     1     -26.352  18.324  12.250  1.00 20.00    -0.062 Cl
ENDROOT
BRANCH   3   9
HETATM    9  C7  UNL     1     -22.107  18.243   8.107  1.00 20.00     0.388 C 
HETATM   10  F9  UNL     1     -22.582  18.825   6.973  1.00 20.00    -0.209 F 
HETATM   11  F10 UNL     1     -21.725  16.984   7.759  1.00 20.00    -0.209 F 
ENDBRANCH   3   9
TORSDOF 1
ENDMDL
MODEL 7
REMARK VINA RESULT:      -4.3      9.945     10.465
REMARK  1 active torsions:
REMARK  status: ('A' for Active; 'I' for Inactive)
REMARK    1  A    between atoms: C3_3  and  C7_7 
ROOT
HETATM    1  C1  UNL     1     -41.047  13.264   4.824  1.00 20.00     0.024 A 
HETATM    2  C2  UNL     1     -39.729  12.550   6.670  1.00 20.00     0.131 A 
HETATM    3  C3  UNL     1     -39.983  12.512   5.309  1.00 20.00     0.024 A 
HETATM    4  C4  UNL     1     -41.815  14.019   5.703  1.00 20.00    -0.021 A 
HETATM    5  C5  UNL     1     -41.479  13.989   7.047  1.00 20.00     0.131 A 
HETATM    6  C6  UNL     1     -42.955  14.823   5.178  1.00 20.00     0.051 C 
HETATM    7  N8  UNL     1     -40.452  13.272   7.556  1.00 20.00    -0.248 NA
HETATM    8 CL11 UNL     1     -42.353  14.879   8.232  1.00 20.00    -0.062 Cl
ENDROOT
BRANCH   3   9
HETATM    9  C7  UNL     1     -39.143  11.692   4.395  1.00 20.00     0.388 C 
HETATM   10  F9  UNL     1     -37.828  11.776   4.733  1.00 20.00    -0.209 F 
HETATM   11  F10 UNL     1     -39.237  12.141   3.113  1.00 20.00    -0.209 F 
ENDBRANCH   3   9
TORSDOF 1
ENDMDL
MODEL 8
REMARK VINA RESULT:      -4.3      1.999      2.383
REMARK  1 active torsions:
REMARK  status: ('A' for Active; 'I' for Inactive)
REMARK    1  A    between atoms: C3_3  and  C7_7 
ROOT
HETATM    1  C1  UNL     1     -33.356   6.465   3.683  1.00 20.00     0.024 A 
HETATM    2  C2  UNL     1     -33.920   7.061   5.916  1.00 20.00     0.131 A 
HETATM    3  C3  UNL     1     -33.994   6.147   4.877  1.00 20.00     0.024 A 
HETATM    4  C4  UNL     1     -32.675   7.671   3.566  1.00 20.00    -0.021 A 
HETATM    5  C5  UNL     1     -32.662   8.518   4.663  1.00 20.00     0.131 A 
HETATM    6  C6  UNL     1     -31.994   8.008   2.283  1.00 20.00     0.051 C 
HETATM    7  N8  UNL     1     -33.268   8.243   5.839  1.00 20.00    -0.248 NA
HETATM    8 CL11 UNL     1     -31.854  10.037   4.639  1.00 20.00    -0.062 Cl
ENDROOT
BRANCH   3   9
HETATM    9  C7  UNL     1     -34.732   4.865   5.035  1.00 20.00     0.388 C 
HETATM   10  F9  UNL     1     -34.890   4.552   6.350  1.00 20.00    -0.209 F 
HETATM   11  F10 UNL     1     -34.041   3.834   4.477  1.00 20.00    -0.209 F 
ENDBRANCH   3   9
TORSDOF 1
ENDMDL
MODEL 9
REMARK VINA RESULT:      -4.2      3.555      4.554
REMARK  1 active torsions:
REMARK  status: ('A' for Active; 'I' for Inactive)
REMARK    1  A    between atoms: C3_3  and  C7_7 
ROOT
HETATM    1  C1  UNL     1     -33.138   6.712   3.616  1.00 20.00     0.024 A 
HETATM    2  C2  UNL     1     -33.375   8.311   5.361  1.00 20.00     0.131 A 
HETATM    3  C3  UNL     1     -32.919   8.001   4.090  1.00 20.00     0.024 A 
HETATM    4  C4  UNL     1     -33.795   5.786   4.418  1.00 20.00    -0.021 A 
HETATM    5  C5  UNL     1     -34.211   6.195   5.674  1.00 20.00     0.131 A 
HETATM    6  C6  UNL     1     -34.026   4.405   3.905  1.00 20.00     0.051 C 
HETATM    7  N8  UNL     1     -34.019   7.438   6.168  1.00 20.00    -0.248 NA
HETATM    8 CL11 UNL     1     -35.034   5.141   6.757  1.00 20.00    -0.062 Cl
ENDROOT
BRANCH   3   9
HETATM    9  C7  UNL     1     -32.217   9.015   3.259  1.00 20.00     0.388 C 
HETATM   10  F9  UNL     1     -32.067  10.185   3.938  1.00 20.00    -0.209 F 
HETATM   11  F10 UNL     1     -32.936   9.312   2.142  1.00 20.00    -0.209 F 
ENDBRANCH   3   9
TORSDOF 1
ENDMDL
