MODEL 1
REMARK VINA RESULT:      -4.2      0.000      0.000
REMARK  1 active torsions:
REMARK  status: ('A' for Active; 'I' for Inactive)
REMARK    1  A    between atoms: C3_3  and  C6_6 
ROOT
HETATM    1  C1  UNL     1     -43.085  14.704   6.442  1.00 20.00    -0.025 C 
HETATM    2  C2  UNL     1     -42.604  15.879   6.870  1.00 20.00    -0.026 C 
HETATM    3  C4  UNL     1     -42.235  13.486   6.166  1.00 20.00     0.015 C 
HETATM    4  C5  UNL     1     -41.143  16.130   7.157  1.00 20.00     0.008 C 
HETATM    5  C6  UNL     1     -40.726  13.822   6.232  1.00 20.00     0.066 C 
HETATM    6  C7  UNL     1     -40.343  14.811   7.360  1.00 20.00     0.000 C 
HETATM    7  C9  UNL     1     -42.691  12.325   7.057  1.00 20.00     0.015 C 
HETATM    8  C10 UNL     1     -40.977  17.115   8.317  1.00 20.00     0.014 C 
HETATM    9  C11 UNL     1     -40.497  14.227   8.771  1.00 20.00     0.011 C 
ENDROOT
BRANCH   5  10
HETATM   10  C3  UNL     1     -39.844  12.606   6.206  1.00 20.00     0.128 C 
HETATM   11  C8  UNL     1     -39.686  11.913   4.881  1.00 20.00     0.091 C 
HETATM   12  O12 UNL     1     -39.279  12.198   7.220  1.00 20.00    -0.298 OA
ENDBRANCH   5  10
TORSDOF 1
ENDMDL
MODEL 2
REMARK VINA RESULT:      -3.6     13.097     14.061
REMARK  1 active torsions:
REMARK  status: ('A' for Active; 'I' for Inactive)
REMARK    1  A    between atoms: C3_3  and  C6_6 
ROOT
HETATM    1  C1  UNL     1     -33.373  15.037  -4.429  1.00 20.00    -0.025 C 
HETATM    2  C2  UNL     1     -33.150  15.940  -3.464  1.00 20.00    -0.026 C 
HETATM    3  C4  UNL     1     -34.535  15.090  -5.392  1.00 20.00     0.015 C 
HETATM    4  C5  UNL     1     -34.024  17.149  -3.232  1.00 20.00     0.008 C 
HETATM    5  C6  UNL     1     -35.549  16.191  -4.995  1.00 20.00     0.066 C 
HETATM    6  C7  UNL     1     -34.901  17.494  -4.470  1.00 20.00     0.000 C 
HETATM    7  C9  UNL     1     -34.011  15.165  -6.830  1.00 20.00     0.015 C 
HETATM    8  C10 UNL     1     -33.193  18.337  -2.738  1.00 20.00     0.014 C 
HETATM    9  C11 UNL     1     -34.138  18.280  -5.545  1.00 20.00     0.011 C 
ENDROOT
BRANCH   5  10
HETATM   10  C3  UNL     1     -36.590  16.446  -6.048  1.00 20.00     0.128 C 
HETATM   11  C8  UNL     1     -37.325  17.756  -5.970  1.00 20.00     0.091 C 
HETATM   12  O12 UNL     1     -36.829  15.624  -6.931  1.00 20.00    -0.298 OA
ENDBRANCH   5  10
TORSDOF 1
ENDMDL
MODEL 3
REMARK VINA RESULT:      -3.5      1.382      2.119
REMARK  1 active torsions:
REMARK  status: ('A' for Active; 'I' for Inactive)
REMARK    1  A    between atoms: C3_3  and  C6_6 
ROOT
HETATM    1  C1  UNL     1     -41.444  16.653   7.162  1.00 20.00    -0.025 C 
HETATM    2  C2  UNL     1     -40.888  16.743   8.378  1.00 20.00    -0.026 C 
HETATM    3  C4  UNL     1     -41.561  15.370   6.374  1.00 20.00     0.015 C 
HETATM    4  C5  UNL     1     -40.325  15.562   9.131  1.00 20.00     0.008 C 
HETATM    5  C6  UNL     1     -40.773  14.219   7.045  1.00 20.00     0.066 C 
HETATM    6  C7  UNL     1     -40.861  14.204   8.590  1.00 20.00     0.000 C 
HETATM    7  C9  UNL     1     -43.036  15.076   6.082  1.00 20.00     0.015 C 
HETATM    8  C10 UNL     1     -40.531  15.727  10.639  1.00 20.00     0.014 C 
HETATM    9  C11 UNL     1     -42.256  13.853   9.126  1.00 20.00     0.011 C 
ENDROOT
BRANCH   5  10
HETATM   10  C3  UNL     1     -41.054  12.874   6.437  1.00 20.00     0.128 C 
HETATM   11  C8  UNL     1     -40.211  12.475   5.257  1.00 20.00     0.091 C 
HETATM   12  O12 UNL     1     -41.930  12.135   6.885  1.00 20.00    -0.298 OA
ENDBRANCH   5  10
TORSDOF 1
ENDMDL
MODEL 4
REMARK VINA RESULT:      -3.5     12.993     14.364
REMARK  1 active torsions:
REMARK  status: ('A' for Active; 'I' for Inactive)
REMARK    1  A    between atoms: C3_3  and  C6_6 
ROOT
HETATM    1  C1  UNL     1     -35.724  15.557  -7.463  1.00 20.00    -0.025 C 
HETATM    2  C2  UNL     1     -35.473  16.831  -7.797  1.00 20.00    -0.026 C 
HETATM    3  C4  UNL     1     -35.180  14.879  -6.228  1.00 20.00     0.015 C 
HETATM    4  C5  UNL     1     -34.629  17.764  -6.962  1.00 20.00     0.008 C 
HETATM    5  C6  UNL     1     -34.131  15.764  -5.511  1.00 20.00     0.066 C 
HETATM    6  C7  UNL     1     -34.476  17.273  -5.494  1.00 20.00     0.000 C 
HETATM    7  C9  UNL     1     -36.340  14.393  -5.353  1.00 20.00     0.015 C 
HETATM    8  C10 UNL     1     -35.146  19.202  -7.061  1.00 20.00     0.014 C 
HETATM    9  C11 UNL     1     -35.688  17.618  -4.616  1.00 20.00     0.011 C 
ENDROOT
BRANCH   5  10
HETATM   10  C3  UNL     1     -33.742  15.244  -4.156  1.00 20.00     0.128 C 
HETATM   11  C8  UNL     1     -33.288  16.261  -3.145  1.00 20.00     0.091 C 
HETATM   12  O12 UNL     1     -33.794  14.045  -3.887  1.00 20.00    -0.298 OA
ENDBRANCH   5  10
TORSDOF 1
ENDMDL
MODEL 5
REMARK VINA RESULT:      -3.4     12.896     13.797
REMARK  1 active torsions:
REMARK  status: ('A' for Active; 'I' for Inactive)
REMARK    1  A    between atoms: C3_3  and  C6_6 
ROOT
HETATM    1  C1  UNL     1     -36.138  17.916  -4.186  1.00 20.00    -0.025 C 
HETATM    2  C2  UNL     1     -35.092  18.128  -3.375  1.00 20.00    -0.026 C 
HETATM    3  C4  UNL     1     -36.088  17.070  -5.436  1.00 20.00     0.015 C 
HETATM    4  C5  UNL     1     -33.726  17.524  -3.596  1.00 20.00     0.008 C 
HETATM    5  C6  UNL     1     -34.636  16.656  -5.781  1.00 20.00     0.066 C 
HETATM    6  C7  UNL     1     -33.767  16.296  -4.552  1.00 20.00     0.000 C 
HETATM    7  C9  UNL     1     -37.092  15.918  -5.322  1.00 20.00     0.015 C 
HETATM    8  C10 UNL     1     -33.041  17.220  -2.261  1.00 20.00     0.014 C 
HETATM    9  C11 UNL     1     -34.201  15.003  -3.847  1.00 20.00     0.011 C 
ENDROOT
BRANCH   5  10
HETATM   10  C3  UNL     1     -34.556  15.622  -6.868  1.00 20.00     0.128 C 
HETATM   11  C8  UNL     1     -35.632  15.658  -7.918  1.00 20.00     0.091 C 
HETATM   12  O12 UNL     1     -33.653  14.787  -6.898  1.00 20.00    -0.298 OA
ENDBRANCH   5  10
TORSDOF 1
ENDMDL
MODEL 6
REMARK VINA RESULT:      -3.3      1.745      2.592
REMARK  1 active torsions:
REMARK  status: ('A' for Active; 'I' for Inactive)
REMARK    1  A    between atoms: C3_3  and  C6_6 
ROOT
HETATM    1  C1  UNL     1     -43.084  15.695   6.795  1.00 20.00    -0.025 C 
HETATM    2  C2  UNL     1     -43.144  15.315   8.079  1.00 20.00    -0.026 C 
HETATM    3  C4  UNL     1     -42.267  14.992   5.738  1.00 20.00     0.015 C 
HETATM    4  C5  UNL     1     -42.416  14.113   8.631  1.00 20.00     0.008 C 
HETATM    5  C6  UNL     1     -41.344  13.915   6.357  1.00 20.00     0.066 C 
HETATM    6  C7  UNL     1     -41.988  13.115   7.516  1.00 20.00     0.000 C 
HETATM    7  C9  UNL     1     -43.188  14.503   4.614  1.00 20.00     0.015 C 
HETATM    8  C10 UNL     1     -43.226  13.449   9.748  1.00 20.00     0.014 C 
HETATM    9  C11 UNL     1     -43.129  12.191   7.068  1.00 20.00     0.011 C 
ENDROOT
BRANCH   5  10
HETATM   10  C3  UNL     1     -40.695  13.027   5.333  1.00 20.00     0.128 C 
HETATM   11  C8  UNL     1     -39.938  11.836   5.851  1.00 20.00     0.091 C 
HETATM   12  O12 UNL     1     -40.780  13.264   4.129  1.00 20.00    -0.298 OA
ENDBRANCH   5  10
TORSDOF 1
ENDMDL
MODEL 7
REMARK VINA RESULT:      -3.2     12.638     14.233
REMARK  1 active torsions:
REMARK  status: ('A' for Active; 'I' for Inactive)
REMARK    1  A    between atoms: C3_3  and  C6_6 
ROOT
HETATM    1  C1  UNL     1     -33.984  15.149  -6.433  1.00 20.00    -0.025 C 
HETATM    2  C2  UNL     1     -34.603  15.902  -7.354  1.00 20.00    -0.026 C 
HETATM    3  C4  UNL     1     -33.805  15.550  -4.988  1.00 20.00     0.015 C 
HETATM    4  C5  UNL     1     -35.225  17.245  -7.056  1.00 20.00     0.008 C 
HETATM    5  C6  UNL     1     -34.230  17.019  -4.751  1.00 20.00     0.066 C 
HETATM    6  C7  UNL     1     -35.491  17.452  -5.537  1.00 20.00     0.000 C 
HETATM    7  C9  UNL     1     -34.475  14.515  -4.078  1.00 20.00     0.015 C 
HETATM    8  C10 UNL     1     -36.471  17.472  -7.918  1.00 20.00     0.014 C 
HETATM    9  C11 UNL     1     -36.781  16.772  -5.056  1.00 20.00     0.011 C 
ENDROOT
BRANCH   5  10
HETATM   10  C3  UNL     1     -34.300  17.390  -3.296  1.00 20.00     0.128 C 
HETATM   11  C8  UNL     1     -33.247  16.804  -2.397  1.00 20.00     0.091 C 
HETATM   12  O12 UNL     1     -35.176  18.138  -2.864  1.00 20.00    -0.298 OA
ENDBRANCH   5  10
TORSDOF 1
ENDMDL
MODEL 8
REMARK VINA RESULT:      -3.2     21.238     23.359
REMARK  1 active torsions:
REMARK  status: ('A' for Active; 'I' for Inactive)
REMARK    1  A    between atoms: C3_3  and  C6_6 
ROOT
HETATM    1  C1  UNL     1     -27.195  -4.729  10.994  1.00 20.00    -0.025 C 
HETATM    2  C2  UNL     1     -28.102  -3.819  10.612  1.00 20.00    -0.026 C 
HETATM    3  C4  UNL     1     -25.701  -4.523  10.920  1.00 20.00     0.015 C 
HETATM    4  C5  UNL     1     -27.743  -2.453  10.079  1.00 20.00     0.008 C 
HETATM    5  C6  UNL     1     -25.345  -3.225  10.156  1.00 20.00     0.066 C 
HETATM    6  C7  UNL     1     -26.291  -2.035  10.447  1.00 20.00     0.000 C 
HETATM    7  C9  UNL     1     -25.092  -4.650  12.321  1.00 20.00     0.015 C 
HETATM    8  C10 UNL     1     -28.789  -1.414  10.494  1.00 20.00     0.014 C 
HETATM    9  C11 UNL     1     -26.169  -1.485  11.875  1.00 20.00     0.011 C 
ENDROOT
BRANCH   5  10
HETATM   10  C3  UNL     1     -23.894  -2.850  10.264  1.00 20.00     0.128 C 
HETATM   11  C8  UNL     1     -22.956  -3.478   9.270  1.00 20.00     0.091 C 
HETATM   12  O12 UNL     1     -23.494  -2.067  11.124  1.00 20.00    -0.298 OA
ENDBRANCH   5  10
TORSDOF 1
ENDMDL
MODEL 9
REMARK VINA RESULT:      -3.1     13.255     14.222
REMARK  1 active torsions:
REMARK  status: ('A' for Active; 'I' for Inactive)
REMARK    1  A    between atoms: C3_3  and  C6_6 
ROOT
HETATM    1  C1  UNL     1     -36.467  18.144  -4.463  1.00 20.00    -0.025 C 
HETATM    2  C2  UNL     1     -37.613  17.898  -5.114  1.00 20.00    -0.026 C 
HETATM    3  C4  UNL     1     -35.237  17.272  -4.546  1.00 20.00     0.015 C 
HETATM    4  C5  UNL     1     -37.813  16.721  -6.038  1.00 20.00     0.008 C 
HETATM    5  C6  UNL     1     -35.529  15.951  -5.299  1.00 20.00     0.066 C 
HETATM    6  C7  UNL     1     -36.467  16.109  -6.521  1.00 20.00     0.000 C 
HETATM    7  C9  UNL     1     -34.059  18.090  -5.084  1.00 20.00     0.015 C 
HETATM    8  C10 UNL     1     -38.752  17.087  -7.192  1.00 20.00     0.014 C 
HETATM    9  C11 UNL     1     -35.837  16.888  -7.685  1.00 20.00     0.011 C 
ENDROOT
BRANCH   5  10
HETATM   10  C3  UNL     1     -34.291  15.163  -5.619  1.00 20.00     0.128 C 
HETATM   11  C8  UNL     1     -33.476  14.679  -4.452  1.00 20.00     0.091 C 
HETATM   12  O12 UNL     1     -33.961  14.925  -6.780  1.00 20.00    -0.298 OA
ENDBRANCH   5  10
TORSDOF 1
ENDMDL
