MODEL 1
REMARK VINA RESULT:      -4.6      0.000      0.000
REMARK  1 active torsions:
REMARK  status: ('A' for Active; 'I' for Inactive)
REMARK    1  A    between atoms: C6_6  and  C8_8 
ROOT
HETATM    1  C1  UNL     1     -32.889  19.041  -1.924  1.00 20.00     0.008 C 
HETATM    2  C2  UNL     1     -32.885  19.261  -3.248  1.00 20.00     0.028 C 
HETATM    3  C3  UNL     1     -33.584  16.711  -2.091  1.00 20.00    -0.005 C 
HETATM    4  C4  UNL     1     -34.558  17.018  -5.416  1.00 20.00     0.128 C 
HETATM    5  C5  UNL     1     -33.394  17.806  -1.328  1.00 20.00    -0.065 C 
HETATM    6  C6  UNL     1     -34.169  16.113  -4.515  1.00 20.00     0.011 C 
HETATM    7  C7  UNL     1     -33.417  18.151  -4.058  1.00 20.00     0.046 C 
HETATM    8  C9  UNL     1     -33.231  16.728  -3.543  1.00 20.00     0.098 C 
HETATM    9  C10 UNL     1     -33.668  17.828   0.145  1.00 20.00     0.048 C 
HETATM   10  N11 UNL     1     -34.089  18.281  -5.164  1.00 20.00    -0.264 NA
ENDROOT
BRANCH   6  11
HETATM   11  C8  UNL     1     -34.546  14.713  -4.557  1.00 20.00     0.268 C 
HETATM   12  O12 UNL     1     -33.851  13.814  -4.078  1.00 20.00    -0.302 OA
ENDBRANCH   6  11
TORSDOF 1
ENDMDL
MODEL 2
REMARK VINA RESULT:      -4.1      2.597      3.924
REMARK  1 active torsions:
REMARK  status: ('A' for Active; 'I' for Inactive)
REMARK    1  A    between atoms: C6_6  and  C8_8 
ROOT
HETATM    1  C1  UNL     1     -33.663  15.020  -3.764  1.00 20.00     0.008 C 
HETATM    2  C2  UNL     1     -33.877  14.408  -4.939  1.00 20.00     0.028 C 
HETATM    3  C3  UNL     1     -34.301  17.236  -4.550  1.00 20.00    -0.005 C 
HETATM    4  C4  UNL     1     -34.148  16.326  -7.902  1.00 20.00     0.128 C 
HETATM    5  C5  UNL     1     -33.721  16.471  -3.603  1.00 20.00    -0.065 C 
HETATM    6  C6  UNL     1     -34.706  17.218  -7.081  1.00 20.00     0.011 C 
HETATM    7  C7  UNL     1     -34.193  15.316  -6.057  1.00 20.00     0.046 C 
HETATM    8  C9  UNL     1     -34.938  16.610  -5.747  1.00 20.00     0.098 C 
HETATM    9  C10 UNL     1     -33.124  17.038  -2.351  1.00 20.00     0.048 C 
HETATM   10  N11 UNL     1     -33.839  15.136  -7.295  1.00 20.00    -0.264 NA
ENDROOT
BRANCH   6  11
HETATM   11  C8  UNL     1     -35.110  18.551  -7.485  1.00 20.00     0.268 C 
HETATM   12  O12 UNL     1     -36.222  19.021  -7.240  1.00 20.00    -0.302 OA
ENDBRANCH   6  11
TORSDOF 1
ENDMDL
MODEL 3
REMARK VINA RESULT:      -4.0     11.251     12.433
REMARK  1 active torsions:
REMARK  status: ('A' for Active; 'I' for Inactive)
REMARK    1  A    between atoms: C6_6  and  C8_8 
ROOT
HETATM    1  C1  UNL     1     -42.473  14.884   6.662  1.00 20.00     0.008 C 
HETATM    2  C2  UNL     1     -41.807  14.113   7.534  1.00 20.00     0.028 C 
HETATM    3  C3  UNL     1     -41.565  13.806   4.675  1.00 20.00    -0.005 C 
HETATM    4  C4  UNL     1     -39.034  12.203   6.441  1.00 20.00     0.128 C 
HETATM    5  C5  UNL     1     -42.234  14.841   5.220  1.00 20.00    -0.065 C 
HETATM    6  C6  UNL     1     -39.743  12.118   5.313  1.00 20.00     0.011 C 
HETATM    7  C7  UNL     1     -40.823  13.202   6.923  1.00 20.00     0.046 C 
HETATM    8  C9  UNL     1     -41.107  12.666   5.524  1.00 20.00     0.098 C 
HETATM    9  C10 UNL     1     -42.773  15.979   4.409  1.00 20.00     0.048 C 
HETATM   10  N11 UNL     1     -39.689  12.853   7.455  1.00 20.00    -0.264 NA
ENDROOT
BRANCH   6  11
HETATM   11  C8  UNL     1     -39.263  11.489   4.098  1.00 20.00     0.268 C 
HETATM   12  O12 UNL     1     -39.174  12.083   3.022  1.00 20.00    -0.302 OA
ENDBRANCH   6  11
TORSDOF 1
ENDMDL
MODEL 4
REMARK VINA RESULT:      -3.9     24.201     25.029
REMARK  1 active torsions:
REMARK  status: ('A' for Active; 'I' for Inactive)
REMARK    1  A    between atoms: C6_6  and  C8_8 
ROOT
HETATM    1  C1  UNL     1     -26.183  -0.622  11.795  1.00 20.00     0.008 C 
HETATM    2  C2  UNL     1     -27.485  -0.320  11.917  1.00 20.00     0.028 C 
HETATM    3  C3  UNL     1     -26.556  -2.764  10.694  1.00 20.00    -0.005 C 
HETATM    4  C4  UNL     1     -29.927  -2.854  11.542  1.00 20.00     0.128 C 
HETATM    5  C5  UNL     1     -25.711  -1.924  11.325  1.00 20.00    -0.065 C 
HETATM    6  C6  UNL     1     -29.054  -3.340  10.656  1.00 20.00     0.011 C 
HETATM    7  C7  UNL     1     -28.406  -1.400  11.522  1.00 20.00     0.046 C 
HETATM    8  C9  UNL     1     -27.966  -2.357  10.419  1.00 20.00     0.098 C 
HETATM    9  C10 UNL     1     -24.270  -2.251  11.570  1.00 20.00     0.048 C 
HETATM   10  N11 UNL     1     -29.556  -1.648  12.075  1.00 20.00    -0.264 NA
ENDROOT
BRANCH   6  11
HETATM   11  C8  UNL     1     -29.217  -4.604   9.966  1.00 20.00     0.268 C 
HETATM   12  O12 UNL     1     -29.915  -4.737   8.959  1.00 20.00    -0.302 OA
ENDBRANCH   6  11
TORSDOF 1
ENDMDL
MODEL 5
REMARK VINA RESULT:      -3.9     12.114     12.950
REMARK  1 active torsions:
REMARK  status: ('A' for Active; 'I' for Inactive)
REMARK    1  A    between atoms: C6_6  and  C8_8 
ROOT
HETATM    1  C1  UNL     1     -40.452  15.755   9.044  1.00 20.00     0.008 C 
HETATM    2  C2  UNL     1     -40.290  14.437   8.850  1.00 20.00     0.028 C 
HETATM    3  C3  UNL     1     -41.625  16.144   6.944  1.00 20.00    -0.005 C 
HETATM    4  C4  UNL     1     -40.704  13.066   5.612  1.00 20.00     0.128 C 
HETATM    5  C5  UNL     1     -40.982  16.648   8.016  1.00 20.00    -0.065 C 
HETATM    6  C6  UNL     1     -41.627  14.024   5.501  1.00 20.00     0.011 C 
HETATM    7  C7  UNL     1     -40.704  13.955   7.520  1.00 20.00     0.046 C 
HETATM    8  C9  UNL     1     -41.851  14.673   6.818  1.00 20.00     0.098 C 
HETATM    9  C10 UNL     1     -40.783  18.118   8.228  1.00 20.00     0.048 C 
HETATM   10  N11 UNL     1     -40.134  12.993   6.857  1.00 20.00    -0.264 NA
ENDROOT
BRANCH   6  11
HETATM   11  C8  UNL     1     -42.361  14.306   4.283  1.00 20.00     0.268 C 
HETATM   12  O12 UNL     1     -41.831  14.343   3.171  1.00 20.00    -0.302 OA
ENDBRANCH   6  11
TORSDOF 1
ENDMDL
MODEL 6
REMARK VINA RESULT:      -3.9      1.977      2.241
REMARK  1 active torsions:
REMARK  status: ('A' for Active; 'I' for Inactive)
REMARK    1  A    between atoms: C6_6  and  C8_8 
ROOT
HETATM    1  C1  UNL     1     -35.137  18.720  -2.482  1.00 20.00     0.008 C 
HETATM    2  C2  UNL     1     -36.032  18.759  -3.481  1.00 20.00     0.028 C 
HETATM    3  C3  UNL     1     -33.750  16.993  -3.498  1.00 20.00    -0.005 C 
HETATM    4  C4  UNL     1     -36.180  16.111  -5.824  1.00 20.00     0.128 C 
HETATM    5  C5  UNL     1     -34.073  17.720  -2.410  1.00 20.00    -0.065 C 
HETATM    6  C6  UNL     1     -34.862  16.068  -5.615  1.00 20.00     0.011 C 
HETATM    7  C7  UNL     1     -35.850  17.722  -4.512  1.00 20.00     0.046 C 
HETATM    8  C9  UNL     1     -34.435  17.235  -4.803  1.00 20.00     0.098 C 
HETATM    9  C10 UNL     1     -33.376  17.566  -1.093  1.00 20.00     0.048 C 
HETATM   10  N11 UNL     1     -36.808  17.136  -5.167  1.00 20.00    -0.264 NA
ENDROOT
BRANCH   6  11
HETATM   11  C8  UNL     1     -33.982  15.069  -6.190  1.00 20.00     0.268 C 
HETATM   12  O12 UNL     1     -33.736  15.002  -7.396  1.00 20.00    -0.302 OA
ENDBRANCH   6  11
TORSDOF 1
ENDMDL
MODEL 7
REMARK VINA RESULT:      -3.9      2.496      4.466
REMARK  1 active torsions:
REMARK  status: ('A' for Active; 'I' for Inactive)
REMARK    1  A    between atoms: C6_6  and  C8_8 
ROOT
HETATM    1  C1  UNL     1     -33.699  14.772  -5.038  1.00 20.00     0.008 C 
HETATM    2  C2  UNL     1     -32.921  15.237  -4.048  1.00 20.00     0.028 C 
HETATM    3  C3  UNL     1     -35.279  16.625  -4.964  1.00 20.00    -0.005 C 
HETATM    4  C4  UNL     1     -34.140  17.755  -1.879  1.00 20.00     0.128 C 
HETATM    5  C5  UNL     1     -34.977  15.384  -5.396  1.00 20.00    -0.065 C 
HETATM    6  C6  UNL     1     -34.776  18.166  -2.978  1.00 20.00     0.011 C 
HETATM    7  C7  UNL     1     -33.448  16.429  -3.360  1.00 20.00     0.046 C 
HETATM    8  C9  UNL     1     -34.295  17.410  -4.162  1.00 20.00     0.098 C 
HETATM    9  C10 UNL     1     -35.898  14.575  -6.258  1.00 20.00     0.048 C 
HETATM   10  N11 UNL     1     -33.299  16.694  -2.095  1.00 20.00    -0.264 NA
ENDROOT
BRANCH   6  11
HETATM   11  C8  UNL     1     -35.726  19.262  -3.003  1.00 20.00     0.268 C 
HETATM   12  O12 UNL     1     -36.947  19.095  -2.979  1.00 20.00    -0.302 OA
ENDBRANCH   6  11
TORSDOF 1
ENDMDL
MODEL 8
REMARK VINA RESULT:      -3.8     11.392     12.555
REMARK  1 active torsions:
REMARK  status: ('A' for Active; 'I' for Inactive)
REMARK    1  A    between atoms: C6_6  and  C8_8 
ROOT
HETATM    1  C1  UNL     1     -34.098   6.464   6.207  1.00 20.00     0.008 C 
HETATM    2  C2  UNL     1     -33.316   7.546   6.339  1.00 20.00     0.028 C 
HETATM    3  C3  UNL     1     -33.709   6.202   3.816  1.00 20.00    -0.005 C 
HETATM    4  C4  UNL     1     -32.343   9.381   3.473  1.00 20.00     0.128 C 
HETATM    5  C5  UNL     1     -34.428   5.877   4.909  1.00 20.00    -0.065 C 
HETATM    6  C6  UNL     1     -32.358   8.177   2.896  1.00 20.00     0.011 C 
HETATM    7  C7  UNL     1     -32.798   8.090   5.071  1.00 20.00     0.046 C 
HETATM    8  C9  UNL     1     -32.536   7.121   3.924  1.00 20.00     0.098 C 
HETATM    9  C10 UNL     1     -35.572   4.911   4.873  1.00 20.00     0.048 C 
HETATM   10  N11 UNL     1     -32.594   9.349   4.820  1.00 20.00    -0.264 NA
ENDROOT
BRANCH   6  11
HETATM   11  C8  UNL     1     -32.133   7.953   1.482  1.00 20.00     0.268 C 
HETATM   12  O12 UNL     1     -32.432   8.774   0.613  1.00 20.00    -0.302 OA
ENDBRANCH   6  11
TORSDOF 1
ENDMDL
MODEL 9
REMARK VINA RESULT:      -3.8     12.188     13.533
REMARK  1 active torsions:
REMARK  status: ('A' for Active; 'I' for Inactive)
REMARK    1  A    between atoms: C6_6  and  C8_8 
ROOT
HETATM    1  C1  UNL     1     -41.236  13.353   4.879  1.00 20.00     0.008 C 
HETATM    2  C2  UNL     1     -42.006  14.407   5.189  1.00 20.00     0.028 C 
HETATM    3  C3  UNL     1     -40.116  13.256   7.040  1.00 20.00    -0.005 C 
HETATM    4  C4  UNL     1     -41.197  16.423   7.984  1.00 20.00     0.128 C 
HETATM    5  C5  UNL     1     -40.167  12.868   5.750  1.00 20.00    -0.065 C 
HETATM    6  C6  UNL     1     -40.772  15.264   8.493  1.00 20.00     0.011 C 
HETATM    7  C7  UNL     1     -41.702  15.030   6.490  1.00 20.00     0.046 C 
HETATM    8  C9  UNL     1     -41.176  14.140   7.610  1.00 20.00     0.098 C 
HETATM    9  C10 UNL     1     -39.169  11.931   5.141  1.00 20.00     0.048 C 
HETATM   10  N11 UNL     1     -41.792  16.299   6.756  1.00 20.00    -0.264 NA
ENDROOT
BRANCH   6  11
HETATM   11  C8  UNL     1     -40.101  15.137   9.772  1.00 20.00     0.268 C 
HETATM   12  O12 UNL     1     -40.443  14.325  10.634  1.00 20.00    -0.302 OA
ENDBRANCH   6  11
TORSDOF 1
ENDMDL
