MODEL 1
REMARK VINA RESULT:      -4.5      0.000      0.000
REMARK  1 active torsions:
REMARK  status: ('A' for Active; 'I' for Inactive)
REMARK    1  A    between atoms: C4_4  and  C8_8 
ROOT
HETATM    1  C1  UNL     1     -34.763   5.356   6.106  1.00 20.00     0.079 A 
HETATM    2  C2  UNL     1     -33.460   6.060   4.074  1.00 20.00     0.088 A 
HETATM    3  C3  UNL     1     -34.555   6.596   6.552  1.00 20.00     0.146 A 
HETATM    4  C4  UNL     1     -33.318   7.277   4.631  1.00 20.00     0.064 A 
HETATM    5  C5  UNL     1     -34.205   5.000   4.787  1.00 20.00     0.176 A 
HETATM    6  O10 UNL     1     -34.353   3.882   4.307  1.00 20.00    -0.288 OA
HETATM    7  O11 UNL     1     -33.860   7.572   5.882  1.00 20.00    -0.326 OA
ENDROOT
BRANCH   4   8
HETATM    8  C8  UNL     1     -32.581   8.373   3.962  1.00 20.00     0.006 A 
HETATM    9  C6  UNL     1     -33.147   8.865   2.652  1.00 20.00     0.017 A 
HETATM   10  C7  UNL     1     -31.902   8.032   2.658  1.00 20.00     0.017 A 
HETATM   11  C9  UNL     1     -31.921   9.365   4.873  1.00 20.00     0.022 C 
ENDBRANCH   4   8
TORSDOF 1
ENDMDL
MODEL 2
REMARK VINA RESULT:      -4.3      1.708      4.091
REMARK  1 active torsions:
REMARK  status: ('A' for Active; 'I' for Inactive)
REMARK    1  A    between atoms: C4_4  and  C8_8 
ROOT
HETATM    1  C1  UNL     1     -32.131   8.920   3.579  1.00 20.00     0.079 A 
HETATM    2  C2  UNL     1     -32.996   6.634   2.990  1.00 20.00     0.088 A 
HETATM    3  C3  UNL     1     -32.598   8.678   4.805  1.00 20.00     0.146 A 
HETATM    4  C4  UNL     1     -33.424   6.509   4.261  1.00 20.00     0.064 A 
HETATM    5  C5  UNL     1     -32.309   7.870   2.558  1.00 20.00     0.176 A 
HETATM    6  O10 UNL     1     -31.908   8.015   1.409  1.00 20.00    -0.288 OA
HETATM    7  O11 UNL     1     -33.236   7.527   5.195  1.00 20.00    -0.326 OA
ENDROOT
BRANCH   4   8
HETATM    8  C8  UNL     1     -34.119   5.294   4.746  1.00 20.00     0.006 A 
HETATM    9  C6  UNL     1     -35.585   5.441   5.073  1.00 20.00     0.017 A 
HETATM   10  C7  UNL     1     -34.585   5.311   6.181  1.00 20.00     0.017 A 
HETATM   11  C9  UNL     1     -33.643   3.996   4.166  1.00 20.00     0.022 C 
ENDBRANCH   4   8
TORSDOF 1
ENDMDL
MODEL 3
REMARK VINA RESULT:      -4.2      1.588      4.429
REMARK  1 active torsions:
REMARK  status: ('A' for Active; 'I' for Inactive)
REMARK    1  A    between atoms: C4_4  and  C8_8 
ROOT
HETATM    1  C1  UNL     1     -31.654   8.250   3.310  1.00 20.00     0.079 A 
HETATM    2  C2  UNL     1     -33.344   7.888   5.136  1.00 20.00     0.088 A 
HETATM    3  C3  UNL     1     -32.112   7.110   2.790  1.00 20.00     0.146 A 
HETATM    4  C4  UNL     1     -33.719   6.754   4.514  1.00 20.00     0.064 A 
HETATM    5  C5  UNL     1     -32.267   8.725   4.565  1.00 20.00     0.176 A 
HETATM    6  O10 UNL     1     -31.903   9.763   5.106  1.00 20.00    -0.288 OA
HETATM    7  O11 UNL     1     -33.111   6.339   3.329  1.00 20.00    -0.326 OA
ENDROOT
BRANCH   4   8
HETATM    8  C8  UNL     1     -34.790   5.877   5.042  1.00 20.00     0.006 A 
HETATM    9  C6  UNL     1     -34.882   5.756   6.544  1.00 20.00     0.017 A 
HETATM   10  C7  UNL     1     -34.346   4.613   5.736  1.00 20.00     0.017 A 
HETATM   11  C9  UNL     1     -36.058   5.846   4.243  1.00 20.00     0.022 C 
ENDBRANCH   4   8
TORSDOF 1
ENDMDL
MODEL 4
REMARK VINA RESULT:      -4.2     12.222     13.064
REMARK  1 active torsions:
REMARK  status: ('A' for Active; 'I' for Inactive)
REMARK    1  A    between atoms: C4_4  and  C8_8 
ROOT
HETATM    1  C1  UNL     1     -32.639  18.848   1.170  1.00 20.00     0.079 A 
HETATM    2  C2  UNL     1     -31.907  18.293  -1.170  1.00 20.00     0.088 A 
HETATM    3  C3  UNL     1     -33.869  18.540   0.757  1.00 20.00     0.146 A 
HETATM    4  C4  UNL     1     -33.189  18.011  -1.466  1.00 20.00     0.064 A 
HETATM    5  C5  UNL     1     -31.540  18.739   0.192  1.00 20.00     0.176 A 
HETATM    6  O10 UNL     1     -30.382  19.003   0.493  1.00 20.00    -0.288 OA
HETATM    7  O11 UNL     1     -34.199  18.130  -0.510  1.00 20.00    -0.326 OA
ENDROOT
BRANCH   4   8
HETATM    8  C8  UNL     1     -33.612  17.563  -2.812  1.00 20.00     0.006 A 
HETATM    9  C6  UNL     1     -33.561  18.594  -3.913  1.00 20.00     0.017 A 
HETATM   10  C7  UNL     1     -34.884  18.165  -3.356  1.00 20.00     0.017 A 
HETATM   11  C9  UNL     1     -33.294  16.138  -3.154  1.00 20.00     0.022 C 
ENDBRANCH   4   8
TORSDOF 1
ENDMDL
MODEL 5
REMARK VINA RESULT:      -4.2     11.962     12.952
REMARK  1 active torsions:
REMARK  status: ('A' for Active; 'I' for Inactive)
REMARK    1  A    between atoms: C4_4  and  C8_8 
ROOT
HETATM    1  C1  UNL     1     -34.649  16.706  -4.685  1.00 20.00     0.079 A 
HETATM    2  C2  UNL     1     -33.202  16.448  -2.645  1.00 20.00     0.088 A 
HETATM    3  C3  UNL     1     -35.017  17.875  -4.160  1.00 20.00     0.146 A 
HETATM    4  C4  UNL     1     -33.650  17.644  -2.220  1.00 20.00     0.064 A 
HETATM    5  C5  UNL     1     -33.681  15.889  -3.928  1.00 20.00     0.176 A 
HETATM    6  O10 UNL     1     -33.292  14.804  -4.343  1.00 20.00    -0.288 OA
HETATM    7  O11 UNL     1     -34.568  18.384  -2.966  1.00 20.00    -0.326 OA
ENDROOT
BRANCH   4   8
HETATM    8  C8  UNL     1     -33.206  18.249  -0.944  1.00 20.00     0.006 A 
HETATM    9  C6  UNL     1     -34.009  17.897   0.285  1.00 20.00     0.017 A 
HETATM   10  C7  UNL     1     -34.132  19.263  -0.318  1.00 20.00     0.017 A 
HETATM   11  C9  UNL     1     -31.727  18.447  -0.798  1.00 20.00     0.022 C 
ENDBRANCH   4   8
TORSDOF 1
ENDMDL
MODEL 6
REMARK VINA RESULT:      -4.1     12.050     13.113
REMARK  1 active torsions:
REMARK  status: ('A' for Active; 'I' for Inactive)
REMARK    1  A    between atoms: C4_4  and  C8_8 
ROOT
HETATM    1  C1  UNL     1     -34.562  15.592  -5.393  1.00 20.00     0.079 A 
HETATM    2  C2  UNL     1     -33.434  16.060  -3.196  1.00 20.00     0.088 A 
HETATM    3  C3  UNL     1     -35.036  16.836  -5.307  1.00 20.00     0.146 A 
HETATM    4  C4  UNL     1     -33.972  17.294  -3.224  1.00 20.00     0.064 A 
HETATM    5  C5  UNL     1     -33.698  15.110  -4.298  1.00 20.00     0.176 A 
HETATM    6  O10 UNL     1     -33.223  13.981  -4.302  1.00 20.00    -0.288 OA
HETATM    7  O11 UNL     1     -34.786  17.709  -4.278  1.00 20.00    -0.326 OA
ENDROOT
BRANCH   4   8
HETATM    8  C8  UNL     1     -33.742  18.284  -2.146  1.00 20.00     0.006 A 
HETATM    9  C6  UNL     1     -32.501  19.134  -2.266  1.00 20.00     0.017 A 
HETATM   10  C7  UNL     1     -32.555  18.038  -1.246  1.00 20.00     0.017 A 
HETATM   11  C9  UNL     1     -34.974  18.897  -1.551  1.00 20.00     0.022 C 
ENDBRANCH   4   8
TORSDOF 1
ENDMDL
MODEL 7
REMARK VINA RESULT:      -3.9     11.986     13.405
REMARK  1 active torsions:
REMARK  status: ('A' for Active; 'I' for Inactive)
REMARK    1  A    between atoms: C4_4  and  C8_8 
ROOT
HETATM    1  C1  UNL     1     -33.941  14.967  -5.646  1.00 20.00     0.079 A 
HETATM    2  C2  UNL     1     -34.541  17.274  -4.847  1.00 20.00     0.088 A 
HETATM    3  C3  UNL     1     -33.516  14.749  -4.400  1.00 20.00     0.146 A 
HETATM    4  C4  UNL     1     -34.080  16.933  -3.629  1.00 20.00     0.064 A 
HETATM    5  C5  UNL     1     -34.502  16.296  -5.956  1.00 20.00     0.176 A 
HETATM    6  O10 UNL     1     -34.914  16.575  -7.076  1.00 20.00    -0.288 OA
HETATM    7  O11 UNL     1     -33.556  15.665  -3.378  1.00 20.00    -0.326 OA
ENDROOT
BRANCH   4   8
HETATM    8  C8  UNL     1     -34.095  17.873  -2.485  1.00 20.00     0.006 A 
HETATM    9  C6  UNL     1     -32.752  18.335  -1.974  1.00 20.00     0.017 A 
HETATM   10  C7  UNL     1     -33.554  17.352  -1.176  1.00 20.00     0.017 A 
HETATM   11  C9  UNL     1     -35.243  18.837  -2.449  1.00 20.00     0.022 C 
ENDBRANCH   4   8
TORSDOF 1
ENDMDL
MODEL 8
REMARK VINA RESULT:      -3.9      9.886     11.003
REMARK  1 active torsions:
REMARK  status: ('A' for Active; 'I' for Inactive)
REMARK    1  A    between atoms: C4_4  and  C8_8 
ROOT
HETATM    1  C1  UNL     1     -40.163  12.504   5.027  1.00 20.00     0.079 A 
HETATM    2  C2  UNL     1     -41.515  14.299   6.153  1.00 20.00     0.088 A 
HETATM    3  C3  UNL     1     -39.686  12.232   6.243  1.00 20.00     0.146 A 
HETATM    4  C4  UNL     1     -40.962  13.931   7.324  1.00 20.00     0.064 A 
HETATM    5  C5  UNL     1     -41.145  13.597   4.905  1.00 20.00     0.176 A 
HETATM    6  O10 UNL     1     -41.630  13.908   3.823  1.00 20.00    -0.288 OA
HETATM    7  O11 UNL     1     -40.035  12.891   7.395  1.00 20.00    -0.326 OA
ENDROOT
BRANCH   4   8
HETATM    8  C8  UNL     1     -41.296  14.599   8.602  1.00 20.00     0.006 A 
HETATM    9  C6  UNL     1     -40.403  15.743   9.018  1.00 20.00     0.017 A 
HETATM   10  C7  UNL     1     -40.309  14.428   9.731  1.00 20.00     0.017 A 
HETATM   11  C9  UNL     1     -42.756  14.675   8.936  1.00 20.00     0.022 C 
ENDBRANCH   4   8
TORSDOF 1
ENDMDL
MODEL 9
REMARK VINA RESULT:      -3.9     10.272     11.508
REMARK  1 active torsions:
REMARK  status: ('A' for Active; 'I' for Inactive)
REMARK    1  A    between atoms: C4_4  and  C8_8 
ROOT
HETATM    1  C1  UNL     1     -40.339  15.939   9.514  1.00 20.00     0.079 A 
HETATM    2  C2  UNL     1     -40.954  15.330   7.154  1.00 20.00     0.088 A 
HETATM    3  C3  UNL     1     -40.408  14.631   9.769  1.00 20.00     0.146 A 
HETATM    4  C4  UNL     1     -40.992  14.039   7.535  1.00 20.00     0.064 A 
HETATM    5  C5  UNL     1     -40.619  16.384   8.136  1.00 20.00     0.176 A 
HETATM    6  O10 UNL     1     -40.576  17.567   7.821  1.00 20.00    -0.288 OA
HETATM    7  O11 UNL     1     -40.721  13.661   8.850  1.00 20.00    -0.326 OA
ENDROOT
BRANCH   4   8
HETATM    8  C8  UNL     1     -41.322  12.945   6.594  1.00 20.00     0.006 A 
HETATM    9  C6  UNL     1     -40.159  12.159   6.038  1.00 20.00     0.017 A 
HETATM   10  C7  UNL     1     -40.886  13.132   5.161  1.00 20.00     0.017 A 
HETATM   11  C9  UNL     1     -42.609  12.223   6.860  1.00 20.00     0.022 C 
ENDBRANCH   4   8
TORSDOF 1
ENDMDL
