MODEL 1
REMARK VINA RESULT:      -3.6      0.000      0.000
REMARK  0 active torsions:
REMARK  status: ('A' for Active; 'I' for Inactive)
ROOT
HETATM    1  C1  UNL     1     -33.502   6.260   3.908  1.00 20.00     0.031 C 
HETATM    2  C2  UNL     1     -34.564   5.295   4.413  1.00 20.00     0.075 C 
HETATM    3  C3  UNL     1     -33.653   7.092   6.195  1.00 20.00     0.094 C 
HETATM    4  C4  UNL     1     -33.657   7.527   4.738  1.00 20.00     0.092 C 
HETATM    5  S5  UNL     1     -34.613   5.550   6.210  1.00 20.00    -0.168 SA
HETATM    6 CL6  UNL     1     -32.342   8.675   4.410  1.00 20.00    -0.124 Cl
ENDROOT
TORSDOF 0
ENDMDL
MODEL 2
REMARK VINA RESULT:      -3.5      2.625      3.276
REMARK  0 active torsions:
REMARK  status: ('A' for Active; 'I' for Inactive)
ROOT
HETATM    1  C1  UNL     1     -33.304   7.566   5.720  1.00 20.00     0.031 C 
HETATM    2  C2  UNL     1     -32.674   8.502   4.701  1.00 20.00     0.075 C 
HETATM    3  C3  UNL     1     -33.372   6.066   3.798  1.00 20.00     0.094 C 
HETATM    4  C4  UNL     1     -34.214   6.635   4.930  1.00 20.00     0.092 C 
HETATM    5  S5  UNL     1     -32.351   7.463   3.246  1.00 20.00    -0.168 SA
HETATM    6 CL6  UNL     1     -34.860   5.340   5.960  1.00 20.00    -0.124 Cl
ENDROOT
TORSDOF 0
ENDMDL
MODEL 3
REMARK VINA RESULT:      -3.5      1.973      2.310
REMARK  0 active torsions:
REMARK  status: ('A' for Active; 'I' for Inactive)
ROOT
HETATM    1  C1  UNL     1     -34.132   4.739   4.971  1.00 20.00     0.031 C 
HETATM    2  C2  UNL     1     -34.802   5.424   6.151  1.00 20.00     0.075 C 
HETATM    3  C3  UNL     1     -33.287   6.992   4.576  1.00 20.00     0.094 C 
HETATM    4  C4  UNL     1     -33.965   5.810   3.902  1.00 20.00     0.092 C 
HETATM    5  S5  UNL     1     -34.056   7.078   6.220  1.00 20.00    -0.168 SA
HETATM    6 CL6  UNL     1     -32.999   5.212   2.537  1.00 20.00    -0.124 Cl
ENDROOT
TORSDOF 0
ENDMDL
MODEL 4
REMARK VINA RESULT:      -3.5      1.061      1.825
REMARK  0 active torsions:
REMARK  status: ('A' for Active; 'I' for Inactive)
ROOT
HETATM    1  C1  UNL     1     -34.117   7.185   6.374  1.00 20.00     0.031 C 
HETATM    2  C2  UNL     1     -34.582   5.738   6.423  1.00 20.00     0.075 C 
HETATM    3  C3  UNL     1     -33.682   6.614   4.044  1.00 20.00     0.094 C 
HETATM    4  C4  UNL     1     -33.063   7.252   5.278  1.00 20.00     0.092 C 
HETATM    5  S5  UNL     1     -34.623   5.200   4.689  1.00 20.00    -0.168 SA
HETATM    6 CL6  UNL     1     -32.577   8.930   4.955  1.00 20.00    -0.124 Cl
ENDROOT
TORSDOF 0
ENDMDL
MODEL 5
REMARK VINA RESULT:      -3.2      2.292      2.792
REMARK  0 active torsions:
REMARK  status: ('A' for Active; 'I' for Inactive)
ROOT
HETATM    1  C1  UNL     1     -32.628   7.697   4.569  1.00 20.00     0.031 C 
HETATM    2  C2  UNL     1     -32.343   7.463   3.094  1.00 20.00     0.075 C 
HETATM    3  C3  UNL     1     -33.911   5.641   4.301  1.00 20.00     0.094 C 
HETATM    4  C4  UNL     1     -33.983   7.061   4.842  1.00 20.00     0.092 C 
HETATM    5  S5  UNL     1     -32.972   5.793   2.754  1.00 20.00    -0.168 SA
HETATM    6 CL6  UNL     1     -34.357   7.066   6.578  1.00 20.00    -0.124 Cl
ENDROOT
TORSDOF 0
ENDMDL
MODEL 6
REMARK VINA RESULT:      -3.0      2.579      2.801
REMARK  0 active torsions:
REMARK  status: ('A' for Active; 'I' for Inactive)
ROOT
HETATM    1  C1  UNL     1     -33.693   5.976   3.844  1.00 20.00     0.031 C 
HETATM    2  C2  UNL     1     -32.589   6.725   3.116  1.00 20.00     0.075 C 
HETATM    3  C3  UNL     1     -33.551   7.900   5.336  1.00 20.00     0.094 C 
HETATM    4  C4  UNL     1     -33.581   6.380   5.308  1.00 20.00     0.092 C 
HETATM    5  S5  UNL     1     -32.529   8.359   3.906  1.00 20.00    -0.168 SA
HETATM    6 CL6  UNL     1     -34.945   5.749   6.255  1.00 20.00    -0.124 Cl
ENDROOT
TORSDOF 0
ENDMDL
MODEL 7
REMARK VINA RESULT:      -2.9      2.333      2.913
REMARK  0 active torsions:
REMARK  status: ('A' for Active; 'I' for Inactive)
ROOT
HETATM    1  C1  UNL     1     -32.313   7.580   3.207  1.00 20.00     0.031 C 
HETATM    2  C2  UNL     1     -32.284   8.478   4.432  1.00 20.00     0.075 C 
HETATM    3  C3  UNL     1     -34.044   6.446   4.496  1.00 20.00     0.094 C 
HETATM    4  C4  UNL     1     -32.772   6.213   3.697  1.00 20.00     0.092 C 
HETATM    5  S5  UNL     1     -33.730   7.982   5.413  1.00 20.00    -0.168 SA
HETATM    6 CL6  UNL     1     -33.062   5.106   2.339  1.00 20.00    -0.124 Cl
ENDROOT
TORSDOF 0
ENDMDL
MODEL 8
REMARK VINA RESULT:      -2.8     12.898     13.381
REMARK  0 active torsions:
REMARK  status: ('A' for Active; 'I' for Inactive)
ROOT
HETATM    1  C1  UNL     1     -33.754  15.034  -4.007  1.00 20.00     0.031 C 
HETATM    2  C2  UNL     1     -33.913  14.973  -5.518  1.00 20.00     0.075 C 
HETATM    3  C3  UNL     1     -34.574  17.304  -4.350  1.00 20.00     0.094 C 
HETATM    4  C4  UNL     1     -33.482  16.493  -3.671  1.00 20.00     0.092 C 
HETATM    5  S5  UNL     1     -34.810  16.490  -5.957  1.00 20.00    -0.168 SA
HETATM    6 CL6  UNL     1     -33.486  16.760  -1.914  1.00 20.00    -0.124 Cl
ENDROOT
TORSDOF 0
ENDMDL
MODEL 9
REMARK VINA RESULT:      -2.7     16.157     16.766
REMARK  0 active torsions:
REMARK  status: ('A' for Active; 'I' for Inactive)
ROOT
HETATM    1  C1  UNL     1     -24.328  18.156  10.121  1.00 20.00     0.031 C 
HETATM    2  C2  UNL     1     -24.532  18.392  11.609  1.00 20.00     0.075 C 
HETATM    3  C3  UNL     1     -21.988  18.459  10.738  1.00 20.00     0.094 C 
HETATM    4  C4  UNL     1     -23.054  18.902   9.748  1.00 20.00     0.092 C 
HETATM    5  S5  UNL     1     -22.864  18.344  12.325  1.00 20.00    -0.168 SA
HETATM    6 CL6  UNL     1     -22.565  18.544   8.078  1.00 20.00    -0.124 Cl
ENDROOT
TORSDOF 0
ENDMDL
