MODEL 1
REMARK VINA RESULT:      -5.3      0.000      0.000
REMARK  2 active torsions:
REMARK  status: ('A' for Active; 'I' for Inactive)
REMARK    1  A    between atoms: C5_5  and  C6_6 
REMARK    2  A    between atoms: C7_7  and  O8_8 
ROOT
HETATM    1  C3  UNL     1     -34.299   6.844   6.584  1.00 20.00     0.010 C 
HETATM    2  C4  UNL     1     -34.863   5.414   6.494  1.00 20.00     0.032 C 
HETATM    3  C6  UNL     1     -33.551   6.568   5.253  1.00 20.00     0.018 C 
HETATM    4  C7  UNL     1     -34.639   5.490   4.966  1.00 20.00     0.122 C 
ENDROOT
BRANCH   3   5
HETATM    5  C5  UNL     1     -33.356   7.696   4.267  1.00 20.00    -0.008 A 
HETATM    6  C1  UNL     1     -32.257   8.716   4.389  1.00 20.00     0.005 A 
HETATM    7  C2  UNL     1     -32.241   7.724   3.260  1.00 20.00     0.005 A 
ENDBRANCH   3   5
BRANCH   4   8
HETATM    8  O8  UNL     1     -34.191   4.285   4.320  1.00 20.00    -0.395 OA
HETATM    9  H20 UNL     1     -34.185   4.480   3.374  1.00 20.00     0.210 HD
ENDBRANCH   4   8
TORSDOF 2
ENDMDL
MODEL 2
REMARK VINA RESULT:      -4.8      2.025      3.975
REMARK  2 active torsions:
REMARK  status: ('A' for Active; 'I' for Inactive)
REMARK    1  A    between atoms: C5_5  and  C6_6 
REMARK    2  A    between atoms: C7_7  and  O8_8 
ROOT
HETATM    1  C3  UNL     1     -32.853   6.460   2.822  1.00 20.00     0.010 C 
HETATM    2  C4  UNL     1     -31.990   7.735   2.789  1.00 20.00     0.032 C 
HETATM    3  C6  UNL     1     -33.093   6.736   4.330  1.00 20.00     0.018 C 
HETATM    4  C7  UNL     1     -32.787   8.231   4.017  1.00 20.00     0.122 C 
ENDROOT
BRANCH   3   5
HETATM    5  C5  UNL     1     -34.425   6.371   4.944  1.00 20.00    -0.008 A 
HETATM    6  C1  UNL     1     -34.765   4.981   5.407  1.00 20.00     0.005 A 
HETATM    7  C2  UNL     1     -34.604   6.089   6.409  1.00 20.00     0.005 A 
ENDBRANCH   3   5
BRANCH   4   8
HETATM    8  O8  UNL     1     -32.048   8.956   5.016  1.00 20.00    -0.395 OA
HETATM    9  H20 UNL     1     -32.651   9.630   5.354  1.00 20.00     0.210 HD
ENDBRANCH   4   8
TORSDOF 2
ENDMDL
MODEL 3
REMARK VINA RESULT:      -4.6      1.682      3.548
REMARK  2 active torsions:
REMARK  status: ('A' for Active; 'I' for Inactive)
REMARK    1  A    between atoms: C5_5  and  C6_6 
REMARK    2  A    between atoms: C7_7  and  O8_8 
ROOT
HETATM    1  C3  UNL     1     -33.171   8.430   5.487  1.00 20.00     0.010 C 
HETATM    2  C4  UNL     1     -32.269   9.033   4.395  1.00 20.00     0.032 C 
HETATM    3  C6  UNL     1     -33.593   7.350   4.457  1.00 20.00     0.018 C 
HETATM    4  C7  UNL     1     -32.243   7.637   3.733  1.00 20.00     0.122 C 
ENDROOT
BRANCH   3   5
HETATM    5  C5  UNL     1     -33.887   5.947   4.936  1.00 20.00    -0.008 A 
HETATM    6  C1  UNL     1     -34.713   5.651   6.158  1.00 20.00     0.005 A 
HETATM    7  C2  UNL     1     -35.234   5.296   4.793  1.00 20.00     0.005 A 
ENDBRANCH   3   5
BRANCH   4   8
HETATM    8  O8  UNL     1     -32.269   7.604   2.295  1.00 20.00    -0.395 OA
HETATM    9  H20 UNL     1     -33.142   7.928   2.039  1.00 20.00     0.210 HD
ENDBRANCH   4   8
TORSDOF 2
ENDMDL
MODEL 4
REMARK VINA RESULT:      -4.4      1.615      2.067
REMARK  2 active torsions:
REMARK  status: ('A' for Active; 'I' for Inactive)
REMARK    1  A    between atoms: C5_5  and  C6_6 
REMARK    2  A    between atoms: C7_7  and  O8_8 
ROOT
HETATM    1  C3  UNL     1     -34.172   5.548   4.093  1.00 20.00     0.010 C 
HETATM    2  C4  UNL     1     -34.788   5.283   5.479  1.00 20.00     0.032 C 
HETATM    3  C6  UNL     1     -33.823   6.976   4.588  1.00 20.00     0.018 C 
HETATM    4  C7  UNL     1     -33.864   6.391   6.032  1.00 20.00     0.122 C 
ENDROOT
BRANCH   3   5
HETATM    5  C5  UNL     1     -32.556   7.639   4.099  1.00 20.00    -0.008 A 
HETATM    6  C1  UNL     1     -32.544   8.720   3.054  1.00 20.00     0.005 A 
HETATM    7  C2  UNL     1     -32.166   9.041   4.473  1.00 20.00     0.005 A 
ENDBRANCH   3   5
BRANCH   4   8
HETATM    8  O8  UNL     1     -34.418   7.243   7.052  1.00 20.00    -0.395 OA
HETATM    9  H20 UNL     1     -33.857   7.123   7.829  1.00 20.00     0.210 HD
ENDBRANCH   4   8
TORSDOF 2
ENDMDL
MODEL 5
REMARK VINA RESULT:      -4.0      1.457      2.306
REMARK  2 active torsions:
REMARK  status: ('A' for Active; 'I' for Inactive)
REMARK    1  A    between atoms: C5_5  and  C6_6 
REMARK    2  A    between atoms: C7_7  and  O8_8 
ROOT
HETATM    1  C3  UNL     1     -32.851   5.932   3.071  1.00 20.00     0.010 C 
HETATM    2  C4  UNL     1     -33.746   4.682   3.158  1.00 20.00     0.032 C 
HETATM    3  C6  UNL     1     -33.730   6.564   4.182  1.00 20.00     0.018 C 
HETATM    4  C7  UNL     1     -34.093   5.108   4.603  1.00 20.00     0.122 C 
ENDROOT
BRANCH   3   5
HETATM    5  C5  UNL     1     -33.090   7.484   5.196  1.00 20.00    -0.008 A 
HETATM    6  C1  UNL     1     -32.451   8.796   4.829  1.00 20.00     0.005 A 
HETATM    7  C2  UNL     1     -33.716   8.776   5.642  1.00 20.00     0.005 A 
ENDBRANCH   3   5
BRANCH   4   8
HETATM    8  O8  UNL     1     -35.448   4.885   5.033  1.00 20.00    -0.395 OA
HETATM    9  H20 UNL     1     -35.985   4.899   4.230  1.00 20.00     0.210 HD
ENDBRANCH   4   8
TORSDOF 2
ENDMDL
MODEL 6
REMARK VINA RESULT:      -3.9      2.036      3.445
REMARK  2 active torsions:
REMARK  status: ('A' for Active; 'I' for Inactive)
REMARK    1  A    between atoms: C5_5  and  C6_6 
REMARK    2  A    between atoms: C7_7  and  O8_8 
ROOT
HETATM    1  C3  UNL     1     -32.506   8.476   3.457  1.00 20.00     0.010 C 
HETATM    2  C4  UNL     1     -32.529   9.007   4.902  1.00 20.00     0.032 C 
HETATM    3  C6  UNL     1     -32.727   7.055   4.040  1.00 20.00     0.018 C 
HETATM    4  C7  UNL     1     -33.356   7.758   5.281  1.00 20.00     0.122 C 
ENDROOT
BRANCH   3   5
HETATM    5  C5  UNL     1     -33.555   6.058   3.262  1.00 20.00    -0.008 A 
HETATM    6  C1  UNL     1     -32.964   4.863   2.565  1.00 20.00     0.005 A 
HETATM    7  C2  UNL     1     -33.855   4.673   3.761  1.00 20.00     0.005 A 
ENDBRANCH   3   5
BRANCH   4   8
HETATM    8  O8  UNL     1     -33.077   7.164   6.561  1.00 20.00    -0.395 OA
HETATM    9  H20 UNL     1     -33.936   7.018   6.978  1.00 20.00     0.210 HD
ENDBRANCH   4   8
TORSDOF 2
ENDMDL
MODEL 7
REMARK VINA RESULT:      -3.9      2.097      2.564
REMARK  2 active torsions:
REMARK  status: ('A' for Active; 'I' for Inactive)
REMARK    1  A    between atoms: C5_5  and  C6_6 
REMARK    2  A    between atoms: C7_7  and  O8_8 
ROOT
HETATM    1  C3  UNL     1     -34.564   5.095   5.525  1.00 20.00     0.010 C 
HETATM    2  C4  UNL     1     -34.816   6.254   6.507  1.00 20.00     0.032 C 
HETATM    3  C6  UNL     1     -33.999   6.142   4.529  1.00 20.00     0.018 C 
HETATM    4  C7  UNL     1     -33.704   7.036   5.772  1.00 20.00     0.122 C 
ENDROOT
BRANCH   3   5
HETATM    5  C5  UNL     1     -32.859   5.753   3.616  1.00 20.00    -0.008 A 
HETATM    6  C1  UNL     1     -33.063   5.264   2.208  1.00 20.00     0.005 A 
HETATM    7  C2  UNL     1     -32.413   6.597   2.455  1.00 20.00     0.005 A 
ENDBRANCH   3   5
BRANCH   4   8
HETATM    8  O8  UNL     1     -33.911   8.450   5.606  1.00 20.00    -0.395 OA
HETATM    9  H20 UNL     1     -34.341   8.555   4.748  1.00 20.00     0.210 HD
ENDBRANCH   4   8
TORSDOF 2
ENDMDL
MODEL 8
REMARK VINA RESULT:      -3.9      9.243      9.761
REMARK  2 active torsions:
REMARK  status: ('A' for Active; 'I' for Inactive)
REMARK    1  A    between atoms: C5_5  and  C6_6 
REMARK    2  A    between atoms: C7_7  and  O8_8 
ROOT
HETATM    1  C3  UNL     1     -42.220  12.550   6.712  1.00 20.00     0.010 C 
HETATM    2  C4  UNL     1     -42.144  13.825   7.572  1.00 20.00     0.032 C 
HETATM    3  C6  UNL     1     -40.830  12.928   6.136  1.00 20.00     0.018 C 
HETATM    4  C7  UNL     1     -40.606  13.742   7.446  1.00 20.00     0.122 C 
ENDROOT
BRANCH   3   5
HETATM    5  C5  UNL     1     -39.856  11.829   5.778  1.00 20.00    -0.008 A 
HETATM    6  C1  UNL     1     -39.306  11.638   4.390  1.00 20.00     0.005 A 
HETATM    7  C2  UNL     1     -38.400  12.080   5.505  1.00 20.00     0.005 A 
ENDBRANCH   3   5
BRANCH   4   8
HETATM    8  O8  UNL     1     -39.901  14.989   7.311  1.00 20.00    -0.395 OA
HETATM    9  H20 UNL     1     -40.537  15.612   6.937  1.00 20.00     0.210 HD
ENDBRANCH   4   8
TORSDOF 2
ENDMDL
MODEL 9
REMARK VINA RESULT:      -3.8      2.000      3.605
REMARK  2 active torsions:
REMARK  status: ('A' for Active; 'I' for Inactive)
REMARK    1  A    between atoms: C5_5  and  C6_6 
REMARK    2  A    between atoms: C7_7  and  O8_8 
ROOT
HETATM    1  C3  UNL     1     -33.744   4.676   3.269  1.00 20.00     0.010 C 
HETATM    2  C4  UNL     1     -32.749   5.368   2.319  1.00 20.00     0.032 C 
HETATM    3  C6  UNL     1     -33.414   5.772   4.316  1.00 20.00     0.018 C 
HETATM    4  C7  UNL     1     -32.995   6.671   3.114  1.00 20.00     0.122 C 
ENDROOT
BRANCH   3   5
HETATM    5  C5  UNL     1     -34.502   6.253   5.249  1.00 20.00    -0.008 A 
HETATM    6  C1  UNL     1     -34.773   5.625   6.589  1.00 20.00     0.005 A 
HETATM    7  C2  UNL     1     -34.221   7.022   6.509  1.00 20.00     0.005 A 
ENDBRANCH   3   5
BRANCH   4   8
HETATM    8  O8  UNL     1     -31.855   7.525   3.321  1.00 20.00    -0.395 OA
HETATM    9  H20 UNL     1     -31.627   7.438   4.255  1.00 20.00     0.210 HD
ENDBRANCH   4   8
TORSDOF 2
ENDMDL
