MODEL 1
REMARK VINA RESULT:      -6.6      0.000      0.000
REMARK  0 active torsions:
REMARK  status: ('A' for Active; 'I' for Inactive)
ROOT
HETATM    1  C1  UNL     1     -34.701   5.039   5.226  1.00 20.00     0.002 C 
HETATM    2  C2  UNL     1     -34.234   5.429   4.030  1.00 20.00     0.028 C 
HETATM    3  C3  UNL     1     -34.449   5.789   6.446  1.00 20.00    -0.003 C 
HETATM    4  C4  UNL     1     -34.015   7.060   6.405  1.00 20.00    -0.012 C 
HETATM    5  C5  UNL     1     -32.618   8.578   4.893  1.00 20.00     0.007 C 
HETATM    6  C6  UNL     1     -31.945   8.122   3.833  1.00 20.00     0.114 C 
HETATM    7  C7  UNL     1     -33.468   6.691   4.051  1.00 20.00     0.045 C 
HETATM    8  C8  UNL     1     -33.833   7.743   5.091  1.00 20.00     0.084 C 
HETATM    9  N9  UNL     1     -32.456   6.973   3.289  1.00 20.00    -0.265 NA
ENDROOT
TORSDOF 0
ENDMDL
MODEL 2
REMARK VINA RESULT:      -6.2      1.427      3.564
REMARK  0 active torsions:
REMARK  status: ('A' for Active; 'I' for Inactive)
ROOT
HETATM    1  C1  UNL     1     -32.443   8.379   4.007  1.00 20.00     0.002 C 
HETATM    2  C2  UNL     1     -33.240   8.367   5.088  1.00 20.00     0.028 C 
HETATM    3  C3  UNL     1     -32.239   7.207   3.173  1.00 20.00    -0.003 C 
HETATM    4  C4  UNL     1     -33.066   6.150   3.243  1.00 20.00    -0.012 C 
HETATM    5  C5  UNL     1     -34.560   4.974   4.955  1.00 20.00     0.007 C 
HETATM    6  C6  UNL     1     -34.571   5.300   6.250  1.00 20.00     0.114 C 
HETATM    7  C7  UNL     1     -33.909   7.076   5.343  1.00 20.00     0.045 C 
HETATM    8  C8  UNL     1     -34.248   6.188   4.153  1.00 20.00     0.084 C 
HETATM    9  N9  UNL     1     -34.190   6.590   6.513  1.00 20.00    -0.265 NA
ENDROOT
TORSDOF 0
ENDMDL
MODEL 3
REMARK VINA RESULT:      -5.6      1.035      2.054
REMARK  0 active torsions:
REMARK  status: ('A' for Active; 'I' for Inactive)
ROOT
HETATM    1  C1  UNL     1     -34.762   5.823   6.110  1.00 20.00     0.002 C 
HETATM    2  C2  UNL     1     -33.966   6.873   6.371  1.00 20.00     0.028 C 
HETATM    3  C3  UNL     1     -34.919   5.275   4.773  1.00 20.00    -0.003 C 
HETATM    4  C4  UNL     1     -34.051   5.572   3.792  1.00 20.00    -0.012 C 
HETATM    5  C5  UNL     1     -32.512   7.492   3.089  1.00 20.00     0.007 C 
HETATM    6  C6  UNL     1     -32.514   8.681   3.697  1.00 20.00     0.114 C 
HETATM    7  C7  UNL     1     -33.247   7.405   5.197  1.00 20.00     0.045 C 
HETATM    8  C8  UNL     1     -32.871   6.441   4.079  1.00 20.00     0.084 C 
HETATM    9  N9  UNL     1     -32.947   8.652   4.997  1.00 20.00    -0.265 NA
ENDROOT
TORSDOF 0
ENDMDL
MODEL 4
REMARK VINA RESULT:      -5.5      1.258      3.034
REMARK  0 active torsions:
REMARK  status: ('A' for Active; 'I' for Inactive)
ROOT
HETATM    1  C1  UNL     1     -32.295   7.724   3.062  1.00 20.00     0.002 C 
HETATM    2  C2  UNL     1     -32.695   6.444   3.118  1.00 20.00     0.028 C 
HETATM    3  C3  UNL     1     -32.668   8.705   4.067  1.00 20.00    -0.003 C 
HETATM    4  C4  UNL     1     -33.159   8.328   5.260  1.00 20.00    -0.012 C 
HETATM    5  C5  UNL     1     -34.518   6.411   6.271  1.00 20.00     0.007 C 
HETATM    6  C6  UNL     1     -35.092   5.460   5.529  1.00 20.00     0.114 C 
HETATM    7  C7  UNL     1     -33.520   6.110   4.295  1.00 20.00     0.045 C 
HETATM    8  C8  UNL     1     -33.281   6.878   5.590  1.00 20.00     0.084 C 
HETATM    9  N9  UNL     1     -34.488   5.246   4.318  1.00 20.00    -0.265 NA
ENDROOT
TORSDOF 0
ENDMDL
MODEL 5
REMARK VINA RESULT:      -5.2      1.322      2.679
REMARK  0 active torsions:
REMARK  status: ('A' for Active; 'I' for Inactive)
ROOT
HETATM    1  C1  UNL     1     -32.925   5.456   2.683  1.00 20.00     0.002 C 
HETATM    2  C2  UNL     1     -32.829   6.720   3.126  1.00 20.00     0.028 C 
HETATM    3  C3  UNL     1     -33.542   4.399   3.466  1.00 20.00    -0.003 C 
HETATM    4  C4  UNL     1     -34.324   4.680   4.522  1.00 20.00    -0.012 C 
HETATM    5  C5  UNL     1     -34.577   6.489   6.313  1.00 20.00     0.007 C 
HETATM    6  C6  UNL     1     -33.692   7.477   6.474  1.00 20.00     0.114 C 
HETATM    7  C7  UNL     1     -33.422   6.952   4.457  1.00 20.00     0.045 C 
HETATM    8  C8  UNL     1     -34.613   6.100   4.878  1.00 20.00     0.084 C 
HETATM    9  N9  UNL     1     -32.982   7.790   5.344  1.00 20.00    -0.265 NA
ENDROOT
TORSDOF 0
ENDMDL
MODEL 6
REMARK VINA RESULT:      -4.9      1.034      2.965
REMARK  0 active torsions:
REMARK  status: ('A' for Active; 'I' for Inactive)
ROOT
HETATM    1  C1  UNL     1     -32.562   8.708   4.427  1.00 20.00     0.002 C 
HETATM    2  C2  UNL     1     -32.526   7.530   3.785  1.00 20.00     0.028 C 
HETATM    3  C3  UNL     1     -33.362   8.923   5.622  1.00 20.00    -0.003 C 
HETATM    4  C4  UNL     1     -33.852   7.890   6.327  1.00 20.00    -0.012 C 
HETATM    5  C5  UNL     1     -34.629   5.483   5.942  1.00 20.00     0.007 C 
HETATM    6  C6  UNL     1     -34.759   4.950   4.724  1.00 20.00     0.114 C 
HETATM    7  C7  UNL     1     -33.341   6.467   4.405  1.00 20.00     0.045 C 
HETATM    8  C8  UNL     1     -33.535   6.490   5.916  1.00 20.00     0.084 C 
HETATM    9  N9  UNL     1     -33.968   5.527   3.766  1.00 20.00    -0.265 NA
ENDROOT
TORSDOF 0
ENDMDL
MODEL 7
REMARK VINA RESULT:      -4.1     15.451     16.158
REMARK  0 active torsions:
REMARK  status: ('A' for Active; 'I' for Inactive)
ROOT
HETATM    1  C1  UNL     1     -23.610  19.152   8.227  1.00 20.00     0.002 C 
HETATM    2  C2  UNL     1     -24.667  19.263   9.047  1.00 20.00     0.028 C 
HETATM    3  C3  UNL     1     -22.450  18.339   8.552  1.00 20.00    -0.003 C 
HETATM    4  C4  UNL     1     -22.499  17.413   9.524  1.00 20.00    -0.012 C 
HETATM    5  C5  UNL     1     -23.720  16.992  11.733  1.00 20.00     0.007 C 
HETATM    6  C6  UNL     1     -24.505  17.904  12.312  1.00 20.00     0.114 C 
HETATM    7  C7  UNL     1     -24.566  18.472  10.289  1.00 20.00     0.045 C 
HETATM    8  C8  UNL     1     -23.776  17.169  10.257  1.00 20.00     0.084 C 
HETATM    9  N9  UNL     1     -25.048  18.815  11.444  1.00 20.00    -0.265 NA
ENDROOT
TORSDOF 0
ENDMDL
MODEL 8
REMARK VINA RESULT:      -3.9     15.899     16.458
REMARK  0 active torsions:
REMARK  status: ('A' for Active; 'I' for Inactive)
ROOT
HETATM    1  C1  UNL     1     -25.014  18.827  10.639  1.00 20.00     0.002 C 
HETATM    2  C2  UNL     1     -24.775  19.262   9.392  1.00 20.00     0.028 C 
HETATM    3  C3  UNL     1     -24.023  18.101  11.416  1.00 20.00    -0.003 C 
HETATM    4  C4  UNL     1     -22.727  18.099  11.065  1.00 20.00    -0.012 C 
HETATM    5  C5  UNL     1     -21.297  18.275   8.951  1.00 20.00     0.007 C 
HETATM    6  C6  UNL     1     -21.819  18.265   7.721  1.00 20.00     0.114 C 
HETATM    7  C7  UNL     1     -23.420  18.966   8.886  1.00 20.00     0.045 C 
HETATM    8  C8  UNL     1     -22.273  18.894   9.886  1.00 20.00     0.084 C 
HETATM    9  N9  UNL     1     -23.117  18.699   7.653  1.00 20.00    -0.265 NA
ENDROOT
TORSDOF 0
ENDMDL
MODEL 9
REMARK VINA RESULT:      -3.9     12.200     12.943
REMARK  0 active torsions:
REMARK  status: ('A' for Active; 'I' for Inactive)
ROOT
HETATM    1  C1  UNL     1     -33.286  18.266  -2.040  1.00 20.00     0.002 C 
HETATM    2  C2  UNL     1     -32.146  18.934  -1.804  1.00 20.00     0.028 C 
HETATM    3  C3  UNL     1     -34.035  17.600  -0.987  1.00 20.00    -0.003 C 
HETATM    4  C4  UNL     1     -33.810  17.875   0.309  1.00 20.00    -0.012 C 
HETATM    5  C5  UNL     1     -31.890  18.637   1.818  1.00 20.00     0.007 C 
HETATM    6  C6  UNL     1     -30.629  18.741   1.389  1.00 20.00     0.114 C 
HETATM    7  C7  UNL     1     -31.731  18.959  -0.387  1.00 20.00     0.045 C 
HETATM    8  C8  UNL     1     -32.812  18.919   0.686  1.00 20.00     0.084 C 
HETATM    9  N9  UNL     1     -30.506  18.954   0.040  1.00 20.00    -0.265 NA
ENDROOT
TORSDOF 0
ENDMDL
