MODEL 1
REMARK VINA RESULT:      -4.7      0.000      0.000
REMARK  0 active torsions:
REMARK  status: ('A' for Active; 'I' for Inactive)
ROOT
HETATM    1  C1  UNL     1     -34.612   5.015   5.400  1.00 20.00     0.002 C 
HETATM    2  C2  UNL     1     -33.825   4.835   4.327  1.00 20.00     0.028 C 
HETATM    3  C3  UNL     1     -34.808   6.316   6.017  1.00 20.00    -0.003 C 
HETATM    4  C4  UNL     1     -33.980   7.343   5.754  1.00 20.00    -0.012 C 
HETATM    5  C5  UNL     1     -32.502   8.196   3.849  1.00 20.00     0.027 C 
HETATM    6  C6  UNL     1     -32.503   7.649   2.629  1.00 20.00     0.100 C 
HETATM    7  C7  UNL     1     -33.158   6.060   3.843  1.00 20.00     0.047 C 
HETATM    8  C8  UNL     1     -32.807   7.142   4.855  1.00 20.00     0.085 C 
HETATM    9  N9  UNL     1     -32.888   6.332   2.603  1.00 20.00    -0.245 NA
HETATM   10 BR10 UNL     1     -32.111   8.523   1.052  1.00 20.00    -0.029 Br
ENDROOT
TORSDOF 0
ENDMDL
MODEL 2
REMARK VINA RESULT:      -4.1     16.375     16.816
REMARK  0 active torsions:
REMARK  status: ('A' for Active; 'I' for Inactive)
ROOT
HETATM    1  C1  UNL     1     -22.436  18.476   7.703  1.00 20.00     0.002 C 
HETATM    2  C2  UNL     1     -23.474  19.235   8.091  1.00 20.00     0.028 C 
HETATM    3  C3  UNL     1     -21.757  17.560   8.605  1.00 20.00    -0.003 C 
HETATM    4  C4  UNL     1     -21.918  17.647   9.937  1.00 20.00    -0.012 C 
HETATM    5  C5  UNL     1     -23.691  18.385  11.627  1.00 20.00     0.027 C 
HETATM    6  C6  UNL     1     -24.938  18.713  11.274  1.00 20.00     0.100 C 
HETATM    7  C7  UNL     1     -23.852  19.080   9.509  1.00 20.00     0.047 C 
HETATM    8  C8  UNL     1     -22.764  18.732  10.515  1.00 20.00     0.085 C 
HETATM    9  N9  UNL     1     -25.058  19.157   9.981  1.00 20.00    -0.245 NA
HETATM   10 BR10 UNL     1     -26.440  18.547  12.332  1.00 20.00    -0.029 Br
ENDROOT
TORSDOF 0
ENDMDL
MODEL 3
REMARK VINA RESULT:      -4.0     11.919     12.963
REMARK  0 active torsions:
REMARK  status: ('A' for Active; 'I' for Inactive)
ROOT
HETATM    1  C1  UNL     1     -35.035  15.367  -5.743  1.00 20.00     0.002 C 
HETATM    2  C2  UNL     1     -35.022  16.686  -5.498  1.00 20.00     0.028 C 
HETATM    3  C3  UNL     1     -34.508  14.391  -4.804  1.00 20.00    -0.003 C 
HETATM    4  C4  UNL     1     -33.702  14.762  -3.794  1.00 20.00    -0.012 C 
HETATM    5  C5  UNL     1     -33.292  16.792  -2.293  1.00 20.00     0.027 C 
HETATM    6  C6  UNL     1     -34.090  17.866  -2.290  1.00 20.00     0.100 C 
HETATM    7  C7  UNL     1     -34.408  17.065  -4.210  1.00 20.00     0.047 C 
HETATM    8  C8  UNL     1     -33.293  16.190  -3.654  1.00 20.00     0.085 C 
HETATM    9  N9  UNL     1     -34.773  18.061  -3.463  1.00 20.00    -0.245 NA
HETATM   10 BR10 UNL     1     -34.372  18.999  -0.862  1.00 20.00    -0.029 Br
ENDROOT
TORSDOF 0
ENDMDL
MODEL 4
REMARK VINA RESULT:      -3.9     12.715     13.065
REMARK  0 active torsions:
REMARK  status: ('A' for Active; 'I' for Inactive)
ROOT
HETATM    1  C1  UNL     1     -34.244  18.354  -1.011  1.00 20.00     0.002 C 
HETATM    2  C2  UNL     1     -34.261  19.061   0.130  1.00 20.00     0.028 C 
HETATM    3  C3  UNL     1     -33.028  17.766  -1.549  1.00 20.00    -0.003 C 
HETATM    4  C4  UNL     1     -31.816  18.155  -1.114  1.00 20.00    -0.012 C 
HETATM    5  C5  UNL     1     -30.726  19.073   1.010  1.00 20.00     0.027 C 
HETATM    6  C6  UNL     1     -31.373  19.162   2.178  1.00 20.00     0.100 C 
HETATM    7  C7  UNL     1     -32.945  19.211   0.780  1.00 20.00     0.047 C 
HETATM    8  C8  UNL     1     -31.703  19.243  -0.100  1.00 20.00     0.085 C 
HETATM    9  N9  UNL     1     -32.735  19.263   2.059  1.00 20.00    -0.245 NA
HETATM   10 BR10 UNL     1     -30.598  19.086   3.850  1.00 20.00    -0.029 Br
ENDROOT
TORSDOF 0
ENDMDL
MODEL 5
REMARK VINA RESULT:      -3.8     12.324     13.062
REMARK  0 active torsions:
REMARK  status: ('A' for Active; 'I' for Inactive)
ROOT
HETATM    1  C1  UNL     1     -33.814  18.817  -2.351  1.00 20.00     0.002 C 
HETATM    2  C2  UNL     1     -32.540  18.454  -2.134  1.00 20.00     0.028 C 
HETATM    3  C3  UNL     1     -34.721  19.172  -1.272  1.00 20.00    -0.003 C 
HETATM    4  C4  UNL     1     -34.440  18.856   0.005  1.00 20.00    -0.012 C 
HETATM    5  C5  UNL     1     -32.400  18.502   1.506  1.00 20.00     0.027 C 
HETATM    6  C6  UNL     1     -31.151  18.771   1.109  1.00 20.00     0.100 C 
HETATM    7  C7  UNL     1     -32.145  18.420  -0.712  1.00 20.00     0.047 C 
HETATM    8  C8  UNL     1     -33.205  18.084   0.327  1.00 20.00     0.085 C 
HETATM    9  N9  UNL     1     -30.968  18.711  -0.249  1.00 20.00    -0.245 NA
HETATM   10 BR10 UNL     1     -29.751  19.263   2.205  1.00 20.00    -0.029 Br
ENDROOT
TORSDOF 0
ENDMDL
MODEL 6
REMARK VINA RESULT:      -3.7      9.983     10.892
REMARK  0 active torsions:
REMARK  status: ('A' for Active; 'I' for Inactive)
ROOT
HETATM    1  C1  UNL     1     -42.227  15.933   6.675  1.00 20.00     0.002 C 
HETATM    2  C2  UNL     1     -42.410  15.080   5.654  1.00 20.00     0.028 C 
HETATM    3  C3  UNL     1     -41.186  15.749   7.671  1.00 20.00    -0.003 C 
HETATM    4  C4  UNL     1     -40.558  14.568   7.812  1.00 20.00    -0.012 C 
HETATM    5  C5  UNL     1     -39.895  12.549   6.389  1.00 20.00     0.027 C 
HETATM    6  C6  UNL     1     -40.035  12.520   5.059  1.00 20.00     0.100 C 
HETATM    7  C7  UNL     1     -41.484  13.931   5.641  1.00 20.00     0.047 C 
HETATM    8  C8  UNL     1     -40.964  13.404   6.972  1.00 20.00     0.085 C 
HETATM    9  N9  UNL     1     -41.016  13.350   4.579  1.00 20.00    -0.245 NA
HETATM   10 BR10 UNL     1     -39.000  11.545   3.884  1.00 20.00    -0.029 Br
ENDROOT
TORSDOF 0
ENDMDL
MODEL 7
REMARK VINA RESULT:      -3.7      1.103      2.074
REMARK  0 active torsions:
REMARK  status: ('A' for Active; 'I' for Inactive)
ROOT
HETATM    1  C1  UNL     1     -34.347   6.288   6.867  1.00 20.00     0.002 C 
HETATM    2  C2  UNL     1     -34.177   7.405   6.143  1.00 20.00     0.028 C 
HETATM    3  C3  UNL     1     -34.169   4.958   6.307  1.00 20.00    -0.003 C 
HETATM    4  C4  UNL     1     -34.137   4.762   4.977  1.00 20.00    -0.012 C 
HETATM    5  C5  UNL     1     -33.457   6.015   2.854  1.00 20.00     0.027 C 
HETATM    6  C6  UNL     1     -32.823   7.193   2.877  1.00 20.00     0.100 C 
HETATM    7  C7  UNL     1     -33.820   7.173   4.730  1.00 20.00     0.047 C 
HETATM    8  C8  UNL     1     -34.337   5.913   4.050  1.00 20.00     0.085 C 
HETATM    9  N9  UNL     1     -33.044   7.928   4.014  1.00 20.00    -0.245 NA
HETATM   10 BR10 UNL     1     -31.673   7.827   1.581  1.00 20.00    -0.029 Br
ENDROOT
TORSDOF 0
ENDMDL
MODEL 8
REMARK VINA RESULT:      -3.7      1.770      2.768
REMARK  0 active torsions:
REMARK  status: ('A' for Active; 'I' for Inactive)
ROOT
HETATM    1  C1  UNL     1     -33.510   8.373   5.942  1.00 20.00     0.002 C 
HETATM    2  C2  UNL     1     -33.238   8.310   4.629  1.00 20.00     0.028 C 
HETATM    3  C3  UNL     1     -33.997   7.230   6.696  1.00 20.00    -0.003 C 
HETATM    4  C4  UNL     1     -34.498   6.148   6.074  1.00 20.00    -0.012 C 
HETATM    5  C5  UNL     1     -34.222   4.886   3.867  1.00 20.00     0.027 C 
HETATM    6  C6  UNL     1     -33.263   5.175   2.980  1.00 20.00     0.100 C 
HETATM    7  C7  UNL     1     -33.495   6.994   4.011  1.00 20.00     0.047 C 
HETATM    8  C8  UNL     1     -34.609   6.130   4.587  1.00 20.00     0.085 C 
HETATM    9  N9  UNL     1     -32.813   6.469   3.041  1.00 20.00    -0.245 NA
HETATM   10 BR10 UNL     1     -32.495   3.989   1.794  1.00 20.00    -0.029 Br
ENDROOT
TORSDOF 0
ENDMDL
MODEL 9
REMARK VINA RESULT:      -3.7     12.484     13.442
REMARK  0 active torsions:
REMARK  status: ('A' for Active; 'I' for Inactive)
ROOT
HETATM    1  C1  UNL     1     -34.140  15.145  -6.423  1.00 20.00     0.002 C 
HETATM    2  C2  UNL     1     -33.868  14.840  -5.145  1.00 20.00     0.028 C 
HETATM    3  C3  UNL     1     -34.463  16.495  -6.853  1.00 20.00    -0.003 C 
HETATM    4  C4  UNL     1     -34.815  17.443  -5.966  1.00 20.00    -0.012 C 
HETATM    5  C5  UNL     1     -34.381  18.061  -3.523  1.00 20.00     0.027 C 
HETATM    6  C6  UNL     1     -33.475  17.434  -2.765  1.00 20.00     0.100 C 
HETATM    7  C7  UNL     1     -33.947  15.980  -4.211  1.00 20.00     0.047 C 
HETATM    8  C8  UNL     1     -34.930  17.101  -4.519  1.00 20.00     0.085 C 
HETATM    9  N9  UNL     1     -33.204  16.148  -3.160  1.00 20.00    -0.245 NA
HETATM   10 BR10 UNL     1     -32.559  18.170  -1.343  1.00 20.00    -0.029 Br
ENDROOT
TORSDOF 0
ENDMDL
