MODEL 1
REMARK VINA RESULT:      -5.0      0.000      0.000
REMARK  2 active torsions:
REMARK  status: ('A' for Active; 'I' for Inactive)
REMARK    1  A    between atoms: C6_6  and  C7_7 
REMARK    2  A    between atoms: C7_7  and  N8_8 
ROOT
HETATM    1  C1  UNL     1     -32.269   7.599   2.159  1.00 20.00     0.332 C 
HETATM    2  N8  UNL     1     -32.441   6.907   3.093  1.00 20.00    -0.247 NA
HETATM    3  O9  UNL     1     -32.097   8.292   1.224  1.00 20.00    -0.260 OA
ENDROOT
BRANCH   2   4
HETATM    4  C7  UNL     1     -32.649   7.623   4.348  1.00 20.00     0.161 C 
BRANCH   4   5
HETATM    5  C6  UNL     1     -34.068   7.359   4.835  1.00 20.00     0.028 C 
HETATM    6  C3  UNL     1     -34.100   7.037   6.298  1.00 20.00    -0.024 C 
HETATM    7  C2  UNL     1     -34.361   5.745   6.522  1.00 20.00    -0.030 C 
HETATM    8  C4  UNL     1     -34.542   4.988   5.251  1.00 20.00     0.027 C 
HETATM    9  C5  UNL     1     -34.684   6.099   4.209  1.00 20.00     0.014 C 
ENDBRANCH   4   5
ENDBRANCH   2   4
TORSDOF 2
ENDMDL
MODEL 2
REMARK VINA RESULT:      -4.9      0.742      1.027
REMARK  2 active torsions:
REMARK  status: ('A' for Active; 'I' for Inactive)
REMARK    1  A    between atoms: C6_6  and  C7_7 
REMARK    2  A    between atoms: C7_7  and  N8_8 
ROOT
HETATM    1  C1  UNL     1     -32.158   7.762   2.156  1.00 20.00     0.332 C 
HETATM    2  N8  UNL     1     -32.185   7.309   3.239  1.00 20.00    -0.247 NA
HETATM    3  O9  UNL     1     -32.131   8.215   1.070  1.00 20.00    -0.260 OA
ENDROOT
BRANCH   2   4
HETATM    4  C7  UNL     1     -33.034   6.129   3.383  1.00 20.00     0.161 C 
BRANCH   4   5
HETATM    5  C6  UNL     1     -34.272   6.509   4.185  1.00 20.00     0.028 C 
HETATM    6  C3  UNL     1     -33.932   7.398   5.341  1.00 20.00    -0.024 C 
HETATM    7  C2  UNL     1     -34.031   6.761   6.511  1.00 20.00    -0.030 C 
HETATM    8  C4  UNL     1     -34.449   5.341   6.336  1.00 20.00     0.027 C 
HETATM    9  C5  UNL     1     -34.919   5.302   4.881  1.00 20.00     0.014 C 
ENDBRANCH   4   5
ENDBRANCH   2   4
TORSDOF 2
ENDMDL
MODEL 3
REMARK VINA RESULT:      -4.4      1.773      1.903
REMARK  2 active torsions:
REMARK  status: ('A' for Active; 'I' for Inactive)
REMARK    1  A    between atoms: C6_6  and  C7_7 
REMARK    2  A    between atoms: C7_7  and  N8_8 
ROOT
HETATM    1  C1  UNL     1     -32.220   9.115   4.572  1.00 20.00     0.332 C 
HETATM    2  N8  UNL     1     -32.553   8.481   3.641  1.00 20.00    -0.247 NA
HETATM    3  O9  UNL     1     -31.888   9.750   5.505  1.00 20.00    -0.260 OA
ENDROOT
BRANCH   2   4
HETATM    4  C7  UNL     1     -32.910   7.098   3.944  1.00 20.00     0.161 C 
BRANCH   4   5
HETATM    5  C6  UNL     1     -34.194   7.090   4.763  1.00 20.00     0.028 C 
HETATM    6  C3  UNL     1     -33.926   6.818   6.212  1.00 20.00    -0.024 C 
HETATM    7  C2  UNL     1     -34.325   5.596   6.576  1.00 20.00    -0.030 C 
HETATM    8  C4  UNL     1     -34.921   4.844   5.435  1.00 20.00     0.027 C 
HETATM    9  C5  UNL     1     -35.132   5.934   4.382  1.00 20.00     0.014 C 
ENDBRANCH   4   5
ENDBRANCH   2   4
TORSDOF 2
ENDMDL
MODEL 4
REMARK VINA RESULT:      -4.3      2.535      3.905
REMARK  2 active torsions:
REMARK  status: ('A' for Active; 'I' for Inactive)
REMARK    1  A    between atoms: C6_6  and  C7_7 
REMARK    2  A    between atoms: C7_7  and  N8_8 
ROOT
HETATM    1  C1  UNL     1     -34.503   4.736   5.252  1.00 20.00     0.332 C 
HETATM    2  N8  UNL     1     -34.814   5.513   6.076  1.00 20.00    -0.247 NA
HETATM    3  O9  UNL     1     -34.191   3.958   4.426  1.00 20.00    -0.260 OA
ENDROOT
BRANCH   2   4
HETATM    4  C7  UNL     1     -33.881   6.622   6.249  1.00 20.00     0.161 C 
BRANCH   4   5
HETATM    5  C6  UNL     1     -34.005   7.560   5.055  1.00 20.00     0.028 C 
HETATM    6  C3  UNL     1     -33.091   7.159   3.937  1.00 20.00    -0.024 C 
HETATM    7  C2  UNL     1     -32.062   8.000   3.804  1.00 20.00    -0.030 C 
HETATM    8  C4  UNL     1     -32.111   9.100   4.809  1.00 20.00     0.027 C 
HETATM    9  C5  UNL     1     -33.531   8.986   5.370  1.00 20.00     0.014 C 
ENDBRANCH   4   5
ENDBRANCH   2   4
TORSDOF 2
ENDMDL
MODEL 5
REMARK VINA RESULT:      -4.3      1.004      1.654
REMARK  2 active torsions:
REMARK  status: ('A' for Active; 'I' for Inactive)
REMARK    1  A    between atoms: C6_6  and  C7_7 
REMARK    2  A    between atoms: C7_7  and  N8_8 
ROOT
HETATM    1  C1  UNL     1     -32.298   8.357   2.694  1.00 20.00     0.332 C 
HETATM    2  N8  UNL     1     -32.505   8.818   3.754  1.00 20.00    -0.247 NA
HETATM    3  O9  UNL     1     -32.090   7.894   1.633  1.00 20.00    -0.260 OA
ENDROOT
BRANCH   2   4
HETATM    4  C7  UNL     1     -33.653   8.245   4.452  1.00 20.00     0.161 C 
BRANCH   4   5
HETATM    5  C6  UNL     1     -33.278   6.858   4.958  1.00 20.00     0.028 C 
HETATM    6  C3  UNL     1     -34.050   5.784   4.255  1.00 20.00    -0.024 C 
HETATM    7  C2  UNL     1     -34.975   5.231   5.046  1.00 20.00    -0.030 C 
HETATM    8  C4  UNL     1     -34.980   5.843   6.405  1.00 20.00     0.027 C 
HETATM    9  C5  UNL     1     -33.672   6.637   6.426  1.00 20.00     0.014 C 
ENDBRANCH   4   5
ENDBRANCH   2   4
TORSDOF 2
ENDMDL
MODEL 6
REMARK VINA RESULT:      -3.9      2.510      3.833
REMARK  2 active torsions:
REMARK  status: ('A' for Active; 'I' for Inactive)
REMARK    1  A    between atoms: C6_6  and  C7_7 
REMARK    2  A    between atoms: C7_7  and  N8_8 
ROOT
HETATM    1  C1  UNL     1     -34.470   4.809   5.056  1.00 20.00     0.332 C 
HETATM    2  N8  UNL     1     -34.843   5.769   5.621  1.00 20.00    -0.247 NA
HETATM    3  O9  UNL     1     -34.096   3.847   4.490  1.00 20.00    -0.260 OA
ENDROOT
BRANCH   2   4
HETATM    4  C7  UNL     1     -34.593   7.023   4.917  1.00 20.00     0.161 C 
BRANCH   4   5
HETATM    5  C6  UNL     1     -33.088   7.222   4.788  1.00 20.00     0.028 C 
HETATM    6  C3  UNL     1     -32.684   8.625   5.123  1.00 20.00    -0.024 C 
HETATM    7  C2  UNL     1     -32.323   9.316   4.038  1.00 20.00    -0.030 C 
HETATM    8  C4  UNL     1     -32.429   8.497   2.797  1.00 20.00     0.027 C 
HETATM    9  C5  UNL     1     -32.593   7.076   3.341  1.00 20.00     0.014 C 
ENDBRANCH   4   5
ENDBRANCH   2   4
TORSDOF 2
ENDMDL
MODEL 7
REMARK VINA RESULT:      -3.7     11.903     12.402
REMARK  2 active torsions:
REMARK  status: ('A' for Active; 'I' for Inactive)
REMARK    1  A    between atoms: C6_6  and  C7_7 
REMARK    2  A    between atoms: C7_7  and  N8_8 
ROOT
HETATM    1  C1  UNL     1     -33.469  16.028  -3.293  1.00 20.00     0.332 C 
HETATM    2  N8  UNL     1     -33.159  17.037  -2.778  1.00 20.00    -0.247 NA
HETATM    3  O9  UNL     1     -33.779  15.016  -3.809  1.00 20.00    -0.260 OA
ENDROOT
BRANCH   2   4
HETATM    4  C7  UNL     1     -33.614  17.179  -1.398  1.00 20.00     0.161 C 
BRANCH   4   5
HETATM    5  C6  UNL     1     -33.174  18.539  -0.873  1.00 20.00     0.028 C 
HETATM    6  C3  UNL     1     -31.689  18.714  -0.963  1.00 20.00    -0.024 C 
HETATM    7  C2  UNL     1     -31.104  18.664   0.237  1.00 20.00    -0.030 C 
HETATM    8  C4  UNL     1     -32.095  18.443   1.329  1.00 20.00     0.027 C 
HETATM    9  C5  UNL     1     -33.432  18.704   0.632  1.00 20.00     0.014 C 
ENDBRANCH   4   5
ENDBRANCH   2   4
TORSDOF 2
ENDMDL
MODEL 8
REMARK VINA RESULT:      -3.7     12.413     12.984
REMARK  2 active torsions:
REMARK  status: ('A' for Active; 'I' for Inactive)
REMARK    1  A    between atoms: C6_6  and  C7_7 
REMARK    2  A    between atoms: C7_7  and  N8_8 
ROOT
HETATM    1  C1  UNL     1     -30.906  18.436   0.720  1.00 20.00     0.332 C 
HETATM    2  N8  UNL     1     -30.844  18.607  -0.440  1.00 20.00    -0.247 NA
HETATM    3  O9  UNL     1     -30.967  18.265   1.883  1.00 20.00    -0.260 OA
ENDROOT
BRANCH   2   4
HETATM    4  C7  UNL     1     -32.059  19.154  -1.038  1.00 20.00     0.161 C 
BRANCH   4   5
HETATM    5  C6  UNL     1     -33.147  18.088  -1.003  1.00 20.00     0.028 C 
HETATM    6  C3  UNL     1     -33.012  17.122  -2.140  1.00 20.00    -0.024 C 
HETATM    7  C2  UNL     1     -33.965  17.295  -3.061  1.00 20.00    -0.030 C 
HETATM    8  C4  UNL     1     -34.891  18.405  -2.700  1.00 20.00     0.027 C 
HETATM    9  C5  UNL     1     -34.551  18.668  -1.232  1.00 20.00     0.014 C 
ENDBRANCH   4   5
ENDBRANCH   2   4
TORSDOF 2
ENDMDL
MODEL 9
REMARK VINA RESULT:      -3.7     12.252     12.743
REMARK  2 active torsions:
REMARK  status: ('A' for Active; 'I' for Inactive)
REMARK    1  A    between atoms: C6_6  and  C7_7 
REMARK    2  A    between atoms: C7_7  and  N8_8 
ROOT
HETATM    1  C1  UNL     1     -29.515  18.831   2.580  1.00 20.00     0.332 C 
HETATM    2  N8  UNL     1     -30.208  19.088   1.668  1.00 20.00    -0.247 NA
HETATM    3  O9  UNL     1     -28.820  18.574   3.495  1.00 20.00    -0.260 OA
ENDROOT
BRANCH   2   4
HETATM    4  C7  UNL     1     -31.471  18.355   1.640  1.00 20.00     0.161 C 
BRANCH   4   5
HETATM    5  C6  UNL     1     -32.410  19.030   0.648  1.00 20.00     0.028 C 
HETATM    6  C3  UNL     1     -33.692  18.271   0.494  1.00 20.00    -0.024 C 
HETATM    7  C2  UNL     1     -33.767  17.648  -0.686  1.00 20.00    -0.030 C 
HETATM    8  C4  UNL     1     -32.551  17.881  -1.515  1.00 20.00     0.027 C 
HETATM    9  C5  UNL     1     -31.856  19.032  -0.784  1.00 20.00     0.014 C 
ENDBRANCH   4   5
ENDBRANCH   2   4
TORSDOF 2
ENDMDL
