MODEL 1
REMARK VINA RESULT:      -6.1      0.000      0.000
REMARK  0 active torsions:
REMARK  status: ('A' for Active; 'I' for Inactive)
ROOT
HETATM    1  C1  UNL     1     -34.065   5.400   3.941  1.00 20.00    -0.026 C 
HETATM    2  C2  UNL     1     -33.093   5.833   3.128  1.00 20.00    -0.025 C 
HETATM    3  C3  UNL     1     -33.540   7.268   5.555  1.00 20.00     0.012 C 
HETATM    4  C4  UNL     1     -34.527   6.157   5.157  1.00 20.00     0.004 C 
HETATM    5  C5  UNL     1     -32.370   7.148   3.306  1.00 20.00     0.007 C 
HETATM    6  C6  UNL     1     -33.079   8.074   4.330  1.00 20.00    -0.011 C 
HETATM    7  C7  UNL     1     -34.752   5.210   6.337  1.00 20.00     0.014 C 
HETATM    8  C8  UNL     1     -32.218   7.835   1.945  1.00 20.00     0.014 C 
HETATM    9  C9  UNL     1     -32.175   9.227   4.778  1.00 20.00     0.010 C 
ENDROOT
TORSDOF 0
ENDMDL
MODEL 2
REMARK VINA RESULT:      -5.6      0.604      3.308
REMARK  0 active torsions:
REMARK  status: ('A' for Active; 'I' for Inactive)
ROOT
HETATM    1  C1  UNL     1     -32.952   5.884   2.874  1.00 20.00    -0.026 C 
HETATM    2  C2  UNL     1     -33.909   5.485   3.723  1.00 20.00    -0.025 C 
HETATM    3  C3  UNL     1     -32.929   8.154   3.975  1.00 20.00     0.012 C 
HETATM    4  C4  UNL     1     -32.221   7.194   3.005  1.00 20.00     0.004 C 
HETATM    5  C5  UNL     1     -34.344   6.279   4.933  1.00 20.00     0.007 C 
HETATM    6  C6  UNL     1     -33.363   7.434   5.263  1.00 20.00    -0.011 C 
HETATM    7  C7  UNL     1     -32.050   7.861   1.640  1.00 20.00     0.014 C 
HETATM    8  C8  UNL     1     -34.514   5.334   6.127  1.00 20.00     0.014 C 
HETATM    9  C9  UNL     1     -33.975   8.442   6.240  1.00 20.00     0.010 C 
ENDROOT
TORSDOF 0
ENDMDL
MODEL 3
REMARK VINA RESULT:      -4.9      0.838      3.350
REMARK  0 active torsions:
REMARK  status: ('A' for Active; 'I' for Inactive)
ROOT
HETATM    1  C1  UNL     1     -32.372   7.027   2.999  1.00 20.00    -0.026 C 
HETATM    2  C2  UNL     1     -33.106   5.905   2.971  1.00 20.00    -0.025 C 
HETATM    3  C3  UNL     1     -33.608   7.777   5.067  1.00 20.00     0.012 C 
HETATM    4  C4  UNL     1     -32.405   8.010   4.138  1.00 20.00     0.004 C 
HETATM    5  C5  UNL     1     -34.021   5.471   4.091  1.00 20.00     0.007 C 
HETATM    6  C6  UNL     1     -33.787   6.284   5.392  1.00 20.00    -0.011 C 
HETATM    7  C7  UNL     1     -32.417   9.447   3.618  1.00 20.00     0.014 C 
HETATM    8  C8  UNL     1     -33.851   3.968   4.336  1.00 20.00     0.014 C 
HETATM    9  C9  UNL     1     -34.931   6.104   6.393  1.00 20.00     0.010 C 
ENDROOT
TORSDOF 0
ENDMDL
MODEL 4
REMARK VINA RESULT:      -4.9      0.937      3.200
REMARK  0 active torsions:
REMARK  status: ('A' for Active; 'I' for Inactive)
ROOT
HETATM    1  C1  UNL     1     -32.522   6.886   2.830  1.00 20.00    -0.026 C 
HETATM    2  C2  UNL     1     -32.399   7.687   3.897  1.00 20.00    -0.025 C 
HETATM    3  C3  UNL     1     -33.845   5.247   4.219  1.00 20.00     0.012 C 
HETATM    4  C4  UNL     1     -33.401   5.665   2.807  1.00 20.00     0.004 C 
HETATM    5  C5  UNL     1     -33.155   7.487   5.190  1.00 20.00     0.007 C 
HETATM    6  C6  UNL     1     -34.308   6.458   5.044  1.00 20.00    -0.011 C 
HETATM    7  C7  UNL     1     -32.696   4.499   2.113  1.00 20.00     0.014 C 
HETATM    8  C8  UNL     1     -33.675   8.839   5.690  1.00 20.00     0.014 C 
HETATM    9  C9  UNL     1     -34.831   5.990   6.405  1.00 20.00     0.010 C 
ENDROOT
TORSDOF 0
ENDMDL
MODEL 5
REMARK VINA RESULT:      -4.9      0.949      2.972
REMARK  0 active torsions:
REMARK  status: ('A' for Active; 'I' for Inactive)
ROOT
HETATM    1  C1  UNL     1     -34.027   4.833   3.922  1.00 20.00    -0.026 C 
HETATM    2  C2  UNL     1     -34.623   5.634   4.816  1.00 20.00    -0.025 C 
HETATM    3  C3  UNL     1     -32.655   6.782   3.097  1.00 20.00     0.012 C 
HETATM    4  C4  UNL     1     -32.854   5.257   3.080  1.00 20.00     0.004 C 
HETATM    5  C5  UNL     1     -34.168   7.042   5.117  1.00 20.00     0.007 C 
HETATM    6  C6  UNL     1     -32.768   7.348   4.522  1.00 20.00    -0.011 C 
HETATM    7  C7  UNL     1     -33.010   4.766   1.641  1.00 20.00     0.014 C 
HETATM    8  C8  UNL     1     -34.192   7.273   6.632  1.00 20.00     0.014 C 
HETATM    9  C9  UNL     1     -32.468   8.850   4.509  1.00 20.00     0.010 C 
ENDROOT
TORSDOF 0
ENDMDL
MODEL 6
REMARK VINA RESULT:      -4.9      1.020      3.693
REMARK  0 active torsions:
REMARK  status: ('A' for Active; 'I' for Inactive)
ROOT
HETATM    1  C1  UNL     1     -33.715   8.116   5.792  1.00 20.00    -0.026 C 
HETATM    2  C2  UNL     1     -34.091   6.847   6.006  1.00 20.00    -0.025 C 
HETATM    3  C3  UNL     1     -32.480   7.393   3.714  1.00 20.00     0.012 C 
HETATM    4  C4  UNL     1     -33.020   8.574   4.538  1.00 20.00     0.004 C 
HETATM    5  C5  UNL     1     -33.902   5.734   5.003  1.00 20.00     0.007 C 
HETATM    6  C6  UNL     1     -33.520   6.267   3.597  1.00 20.00    -0.011 C 
HETATM    7  C7  UNL     1     -31.885   9.544   4.867  1.00 20.00     0.014 C 
HETATM    8  C8  UNL     1     -35.172   4.877   4.948  1.00 20.00     0.014 C 
HETATM    9  C9  UNL     1     -32.982   5.155   2.691  1.00 20.00     0.010 C 
ENDROOT
TORSDOF 0
ENDMDL
MODEL 7
REMARK VINA RESULT:      -4.5      0.780      2.392
REMARK  0 active torsions:
REMARK  status: ('A' for Active; 'I' for Inactive)
ROOT
HETATM    1  C1  UNL     1     -34.145   6.877   6.104  1.00 20.00    -0.026 C 
HETATM    2  C2  UNL     1     -33.743   8.122   5.815  1.00 20.00    -0.025 C 
HETATM    3  C3  UNL     1     -33.650   6.172   3.732  1.00 20.00     0.012 C 
HETATM    4  C4  UNL     1     -33.984   5.715   5.162  1.00 20.00     0.004 C 
HETATM    5  C5  UNL     1     -33.045   8.504   4.531  1.00 20.00     0.007 C 
HETATM    6  C6  UNL     1     -32.566   7.264   3.730  1.00 20.00    -0.011 C 
HETATM    7  C7  UNL     1     -35.240   4.843   5.151  1.00 20.00     0.014 C 
HETATM    8  C8  UNL     1     -31.879   9.447   4.845  1.00 20.00     0.014 C 
HETATM    9  C9  UNL     1     -32.194   7.622   2.289  1.00 20.00     0.010 C 
ENDROOT
TORSDOF 0
ENDMDL
MODEL 8
REMARK VINA RESULT:      -4.5      1.027      4.042
REMARK  0 active torsions:
REMARK  status: ('A' for Active; 'I' for Inactive)
ROOT
HETATM    1  C1  UNL     1     -33.488   8.348   5.430  1.00 20.00    -0.026 C 
HETATM    2  C2  UNL     1     -33.715   7.362   6.309  1.00 20.00    -0.025 C 
HETATM    3  C3  UNL     1     -33.127   6.638   3.611  1.00 20.00     0.012 C 
HETATM    4  C4  UNL     1     -33.343   8.122   3.950  1.00 20.00     0.004 C 
HETATM    5  C5  UNL     1     -33.894   5.914   5.919  1.00 20.00     0.007 C 
HETATM    6  C6  UNL     1     -34.099   5.736   4.391  1.00 20.00    -0.011 C 
HETATM    7  C7  UNL     1     -32.198   8.960   3.379  1.00 20.00     0.014 C 
HETATM    8  C8  UNL     1     -35.061   5.313   6.710  1.00 20.00     0.014 C 
HETATM    9  C9  UNL     1     -33.918   4.279   3.955  1.00 20.00     0.010 C 
ENDROOT
TORSDOF 0
ENDMDL
MODEL 9
REMARK VINA RESULT:      -4.5      1.115      1.914
REMARK  0 active torsions:
REMARK  status: ('A' for Active; 'I' for Inactive)
ROOT
HETATM    1  C1  UNL     1     -34.595   5.097   5.087  1.00 20.00    -0.026 C 
HETATM    2  C2  UNL     1     -33.876   4.518   4.115  1.00 20.00    -0.025 C 
HETATM    3  C3  UNL     1     -33.313   7.243   4.751  1.00 20.00     0.012 C 
HETATM    4  C4  UNL     1     -34.530   6.566   5.403  1.00 20.00     0.004 C 
HETATM    5  C5  UNL     1     -32.945   5.273   3.195  1.00 20.00     0.007 C 
HETATM    6  C6  UNL     1     -33.146   6.809   3.285  1.00 20.00    -0.011 C 
HETATM    7  C7  UNL     1     -34.510   6.798   6.915  1.00 20.00     0.014 C 
HETATM    8  C8  UNL     1     -33.130   4.771   1.759  1.00 20.00     0.014 C 
HETATM    9  C9  UNL     1     -31.986   7.576   2.645  1.00 20.00     0.010 C 
ENDROOT
TORSDOF 0
ENDMDL
