MODEL 1
REMARK VINA RESULT:      -4.7      0.000      0.000
REMARK  0 active torsions:
REMARK  status: ('A' for Active; 'I' for Inactive)
ROOT
HETATM    1  C1  UNL     1     -32.124   7.637   2.158  1.00 20.00     0.147 A 
HETATM    2  C2  UNL     1     -32.790   6.748   3.021  1.00 20.00    -0.015 A 
HETATM    3  C3  UNL     1     -33.105   7.512   4.119  1.00 20.00     0.036 A 
HETATM    4  C4  UNL     1     -33.159   5.320   2.897  1.00 20.00     0.043 C 
HETATM    5  C5  UNL     1     -33.800   7.065   5.352  1.00 20.00     0.068 C 
HETATM    6  C6  UNL     1     -33.565   4.740   4.270  1.00 20.00     0.014 C 
HETATM    7  C7  UNL     1     -34.486   5.680   5.116  1.00 20.00    -0.042 C 
HETATM    8  C8  UNL     1     -35.842   5.875   4.408  1.00 20.00     0.015 C 
HETATM    9  C9  UNL     1     -34.751   5.019   6.481  1.00 20.00     0.015 C 
HETATM   10  N10 UNL     1     -32.018   8.868   2.671  1.00 20.00    -0.186 NA
HETATM   11  N11 UNL     1     -32.625   8.761   3.869  1.00 20.00    -0.282 N 
HETATM   12  H25 UNL     1     -32.670   9.582   4.460  1.00 20.00     0.189 HD
ENDROOT
TORSDOF 0
ENDMDL
MODEL 2
REMARK VINA RESULT:      -4.4     12.265     13.455
REMARK  0 active torsions:
REMARK  status: ('A' for Active; 'I' for Inactive)
ROOT
HETATM    1  C1  UNL     1     -34.758  16.059  -6.583  1.00 20.00     0.147 A 
HETATM    2  C2  UNL     1     -34.696  16.687  -5.326  1.00 20.00    -0.015 A 
HETATM    3  C3  UNL     1     -33.774  15.950  -4.622  1.00 20.00     0.036 A 
HETATM    4  C4  UNL     1     -35.378  17.877  -4.766  1.00 20.00     0.043 C 
HETATM    5  C5  UNL     1     -33.338  16.164  -3.220  1.00 20.00     0.068 C 
HETATM    6  C6  UNL     1     -35.217  17.925  -3.231  1.00 20.00     0.014 C 
HETATM    7  C7  UNL     1     -33.776  17.581  -2.726  1.00 20.00    -0.042 C 
HETATM    8  C8  UNL     1     -32.773  18.646  -3.212  1.00 20.00     0.015 C 
HETATM    9  C9  UNL     1     -33.775  17.592  -1.186  1.00 20.00     0.015 C 
HETATM   10  N10 UNL     1     -33.943  15.001  -6.669  1.00 20.00    -0.186 NA
HETATM   11  N11 UNL     1     -33.357  14.959  -5.457  1.00 20.00    -0.282 N 
HETATM   12  H25 UNL     1     -32.685  14.224  -5.274  1.00 20.00     0.189 HD
ENDROOT
TORSDOF 0
ENDMDL
MODEL 3
REMARK VINA RESULT:      -3.9     11.891     13.473
REMARK  0 active torsions:
REMARK  status: ('A' for Active; 'I' for Inactive)
ROOT
HETATM    1  C1  UNL     1     -33.131  16.582  -2.741  1.00 20.00     0.147 A 
HETATM    2  C2  UNL     1     -33.816  16.017  -3.832  1.00 20.00    -0.015 A 
HETATM    3  C3  UNL     1     -34.192  17.096  -4.595  1.00 20.00     0.036 A 
HETATM    4  C4  UNL     1     -34.109  14.616  -4.211  1.00 20.00     0.043 C 
HETATM    5  C5  UNL     1     -34.967  17.071  -5.861  1.00 20.00     0.068 C 
HETATM    6  C6  UNL     1     -35.190  14.565  -5.314  1.00 20.00     0.014 C 
HETATM    7  C7  UNL     1     -34.998  15.624  -6.449  1.00 20.00    -0.042 C 
HETATM    8  C8  UNL     1     -33.697  15.340  -7.228  1.00 20.00     0.015 C 
HETATM    9  C9  UNL     1     -36.177  15.515  -7.434  1.00 20.00     0.015 C 
HETATM   10  N10 UNL     1     -33.082  17.918  -2.803  1.00 20.00    -0.186 NA
HETATM   11  N11 UNL     1     -33.738  18.202  -3.944  1.00 20.00    -0.282 N 
HETATM   12  H25 UNL     1     -33.838  19.174  -4.212  1.00 20.00     0.189 HD
ENDROOT
TORSDOF 0
ENDMDL
MODEL 4
REMARK VINA RESULT:      -3.9     12.116     13.151
REMARK  0 active torsions:
REMARK  status: ('A' for Active; 'I' for Inactive)
ROOT
HETATM    1  C1  UNL     1     -31.981  18.688   2.080  1.00 20.00     0.147 A 
HETATM    2  C2  UNL     1     -32.746  18.660   0.900  1.00 20.00    -0.015 A 
HETATM    3  C3  UNL     1     -31.828  18.851  -0.105  1.00 20.00     0.036 A 
HETATM    4  C4  UNL     1     -34.191  18.456   0.648  1.00 20.00     0.043 C 
HETATM    5  C5  UNL     1     -32.099  18.930  -1.563  1.00 20.00     0.068 C 
HETATM    6  C6  UNL     1     -34.557  18.870  -0.794  1.00 20.00     0.014 C 
HETATM    7  C7  UNL     1     -33.533  18.393  -1.878  1.00 20.00    -0.042 C 
HETATM    8  C8  UNL     1     -33.516  16.853  -1.954  1.00 20.00     0.015 C 
HETATM    9  C9  UNL     1     -33.974  18.934  -3.250  1.00 20.00     0.015 C 
HETATM   10  N10 UNL     1     -30.679  18.886   1.843  1.00 20.00    -0.186 NA
HETATM   11  N11 UNL     1     -30.617  18.983   0.501  1.00 20.00    -0.282 N 
HETATM   12  H25 UNL     1     -29.713  19.142   0.072  1.00 20.00     0.189 HD
ENDROOT
TORSDOF 0
ENDMDL
MODEL 5
REMARK VINA RESULT:      -3.7     10.039     11.071
REMARK  0 active torsions:
REMARK  status: ('A' for Active; 'I' for Inactive)
ROOT
HETATM    1  C1  UNL     1     -40.041  12.449   4.832  1.00 20.00     0.147 A 
HETATM    2  C2  UNL     1     -40.849  13.280   5.630  1.00 20.00    -0.015 A 
HETATM    3  C3  UNL     1     -40.182  13.352   6.830  1.00 20.00     0.036 A 
HETATM    4  C4  UNL     1     -42.117  13.996   5.365  1.00 20.00     0.043 C 
HETATM    5  C5  UNL     1     -40.607  14.087   8.048  1.00 20.00     0.068 C 
HETATM    6  C6  UNL     1     -42.757  14.478   6.686  1.00 20.00     0.014 C 
HETATM    7  C7  UNL     1     -41.742  15.103   7.700  1.00 20.00    -0.042 C 
HETATM    8  C8  UNL     1     -41.136  16.396   7.118  1.00 20.00     0.015 C 
HETATM    9  C9  UNL     1     -42.494  15.469   8.993  1.00 20.00     0.015 C 
HETATM   10  N10 UNL     1     -38.950  12.022   5.477  1.00 20.00    -0.186 NA
HETATM   11  N11 UNL     1     -39.064  12.588   6.694  1.00 20.00    -0.282 N 
HETATM   12  H25 UNL     1     -38.341  12.405   7.380  1.00 20.00     0.189 HD
ENDROOT
TORSDOF 0
ENDMDL
MODEL 6
REMARK VINA RESULT:      -3.7     12.464     13.602
REMARK  0 active torsions:
REMARK  status: ('A' for Active; 'I' for Inactive)
ROOT
HETATM    1  C1  UNL     1     -34.432  18.300  -2.280  1.00 20.00     0.147 A 
HETATM    2  C2  UNL     1     -34.520  17.810  -3.596  1.00 20.00    -0.015 A 
HETATM    3  C3  UNL     1     -33.955  16.559  -3.532  1.00 20.00     0.036 A 
HETATM    4  C4  UNL     1     -35.086  18.380  -4.840  1.00 20.00     0.043 C 
HETATM    5  C5  UNL     1     -33.768  15.602  -4.652  1.00 20.00     0.068 C 
HETATM    6  C6  UNL     1     -34.610  17.579  -6.072  1.00 20.00     0.014 C 
HETATM    7  C7  UNL     1     -34.640  16.026  -5.878  1.00 20.00    -0.042 C 
HETATM    8  C8  UNL     1     -36.091  15.541  -5.690  1.00 20.00     0.015 C 
HETATM    9  C9  UNL     1     -34.072  15.358  -7.144  1.00 20.00     0.015 C 
HETATM   10  N10 UNL     1     -33.850  17.429  -1.447  1.00 20.00    -0.186 NA
HETATM   11  N11 UNL     1     -33.568  16.377  -2.240  1.00 20.00    -0.282 N 
HETATM   12  H25 UNL     1     -33.110  15.574  -1.828  1.00 20.00     0.189 HD
ENDROOT
TORSDOF 0
ENDMDL
MODEL 7
REMARK VINA RESULT:      -3.6     12.243     13.902
REMARK  0 active torsions:
REMARK  status: ('A' for Active; 'I' for Inactive)
ROOT
HETATM    1  C1  UNL     1     -33.275  15.888  -3.831  1.00 20.00     0.147 A 
HETATM    2  C2  UNL     1     -34.339  16.384  -4.605  1.00 20.00    -0.015 A 
HETATM    3  C3  UNL     1     -34.578  15.396  -5.529  1.00 20.00     0.036 A 
HETATM    4  C4  UNL     1     -35.129  17.635  -4.536  1.00 20.00     0.043 C 
HETATM    5  C5  UNL     1     -35.591  15.409  -6.614  1.00 20.00     0.068 C 
HETATM    6  C6  UNL     1     -35.943  17.838  -5.833  1.00 20.00     0.014 C 
HETATM    7  C7  UNL     1     -36.640  16.540  -6.362  1.00 20.00    -0.042 C 
HETATM    8  C8  UNL     1     -37.706  16.060  -5.357  1.00 20.00     0.015 C 
HETATM    9  C9  UNL     1     -37.348  16.864  -7.691  1.00 20.00     0.015 C 
HETATM   10  N10 UNL     1     -32.864  14.681  -4.237  1.00 20.00    -0.186 NA
HETATM   11  N11 UNL     1     -33.677  14.407  -5.275  1.00 20.00    -0.282 N 
HETATM   12  H25 UNL     1     -33.555  13.528  -5.762  1.00 20.00     0.189 HD
ENDROOT
TORSDOF 0
ENDMDL
MODEL 8
REMARK VINA RESULT:      -3.6      2.095      3.887
REMARK  0 active torsions:
REMARK  status: ('A' for Active; 'I' for Inactive)
ROOT
HETATM    1  C1  UNL     1     -34.370   4.756   5.497  1.00 20.00     0.147 A 
HETATM    2  C2  UNL     1     -33.831   5.626   4.532  1.00 20.00    -0.015 A 
HETATM    3  C3  UNL     1     -33.962   6.875   5.089  1.00 20.00     0.036 A 
HETATM    4  C4  UNL     1     -33.211   5.391   3.208  1.00 20.00     0.043 C 
HETATM    5  C5  UNL     1     -33.570   8.172   4.482  1.00 20.00     0.068 C 
HETATM    6  C6  UNL     1     -33.109   6.711   2.412  1.00 20.00     0.014 C 
HETATM    7  C7  UNL     1     -32.627   7.935   3.259  1.00 20.00    -0.042 C 
HETATM    8  C8  UNL     1     -31.179   7.711   3.742  1.00 20.00     0.015 C 
HETATM    9  C9  UNL     1     -32.644   9.192   2.369  1.00 20.00     0.015 C 
HETATM   10  N10 UNL     1     -34.815   5.403   6.580  1.00 20.00    -0.186 NA
HETATM   11  N11 UNL     1     -34.554   6.695   6.301  1.00 20.00    -0.282 N 
HETATM   12  H25 UNL     1     -34.810   7.396   6.986  1.00 20.00     0.189 HD
ENDROOT
TORSDOF 0
ENDMDL
MODEL 9
REMARK VINA RESULT:      -3.6     12.273     13.592
REMARK  0 active torsions:
REMARK  status: ('A' for Active; 'I' for Inactive)
ROOT
HETATM    1  C1  UNL     1     -33.618  18.031  -0.008  1.00 20.00     0.147 A 
HETATM    2  C2  UNL     1     -33.782  17.740  -1.374  1.00 20.00    -0.015 A 
HETATM    3  C3  UNL     1     -34.811  18.558  -1.775  1.00 20.00     0.036 A 
HETATM    4  C4  UNL     1     -33.072  16.822  -2.294  1.00 20.00     0.043 C 
HETATM    5  C5  UNL     1     -35.412  18.642  -3.130  1.00 20.00     0.068 C 
HETATM    6  C6  UNL     1     -33.876  16.628  -3.599  1.00 20.00     0.014 C 
HETATM    7  C7  UNL     1     -34.483  17.949  -4.179  1.00 20.00    -0.042 C 
HETATM    8  C8  UNL     1     -33.357  18.910  -4.607  1.00 20.00     0.015 C 
HETATM    9  C9  UNL     1     -35.317  17.604  -5.427  1.00 20.00     0.015 C 
HETATM   10  N10 UNL     1     -34.480  18.958   0.426  1.00 20.00    -0.186 NA
HETATM   11  N11 UNL     1     -35.196  19.259  -0.674  1.00 20.00    -0.282 N 
HETATM   12  H25 UNL     1     -35.931  19.951  -0.595  1.00 20.00     0.189 HD
ENDROOT
TORSDOF 0
ENDMDL
