MODEL 1
REMARK VINA RESULT:      -4.8      0.000      0.000
REMARK  1 active torsions:
REMARK  status: ('A' for Active; 'I' for Inactive)
REMARK    1  A    between atoms: C4_4  and  C11_11 
ROOT
HETATM    1  C1  UNL     1     -33.609   4.583   3.106  1.00 20.00     0.003 A 
HETATM    2  C2  UNL     1     -32.928   5.662   2.521  1.00 20.00     0.008 A 
HETATM    3  C3  UNL     1     -34.146   4.691   4.393  1.00 20.00     0.029 A 
HETATM    4  C4  UNL     1     -32.768   6.862   3.215  1.00 20.00    -0.045 A 
HETATM    5  C5  UNL     1     -33.313   6.957   4.483  1.00 20.00    -0.024 A 
HETATM    6  C6  UNL     1     -34.010   5.893   5.064  1.00 20.00     0.035 A 
HETATM    7  C7  UNL     1     -33.240   8.088   5.457  1.00 20.00     0.061 C 
HETATM    8  C10 UNL     1     -34.225   7.617   6.549  1.00 20.00     0.124 C 
HETATM    9  N12 UNL     1     -34.420   6.185   6.364  1.00 20.00    -0.389 N 
HETATM   10  H25 UNL     1     -35.150   5.660   6.825  1.00 20.00     0.159 HD
ENDROOT
BRANCH   4  11
HETATM   11  C11 UNL     1     -32.023   7.995   2.603  1.00 20.00     0.019 A 
HETATM   12  C8  UNL     1     -32.794   9.133   1.982  1.00 20.00     0.010 A 
HETATM   13  C9  UNL     1     -32.053   8.172   1.106  1.00 20.00     0.010 A 
ENDBRANCH   4  11
TORSDOF 1
ENDMDL
MODEL 2
REMARK VINA RESULT:      -4.5      9.586     11.092
REMARK  1 active torsions:
REMARK  status: ('A' for Active; 'I' for Inactive)
REMARK    1  A    between atoms: C4_4  and  C11_11 
ROOT
HETATM    1  C1  UNL     1     -42.338  14.818   4.810  1.00 20.00     0.003 A 
HETATM    2  C2  UNL     1     -41.544  13.660   4.837  1.00 20.00     0.008 A 
HETATM    3  C3  UNL     1     -42.380  15.681   5.910  1.00 20.00     0.029 A 
HETATM    4  C4  UNL     1     -40.785  13.346   5.965  1.00 20.00    -0.045 A 
HETATM    5  C5  UNL     1     -40.829  14.214   7.041  1.00 20.00    -0.024 A 
HETATM    6  C6  UNL     1     -41.602  15.378   7.013  1.00 20.00     0.035 A 
HETATM    7  C7  UNL     1     -40.171  14.091   8.377  1.00 20.00     0.061 C 
HETATM    8  C10 UNL     1     -40.457  15.480   8.989  1.00 20.00     0.124 C 
HETATM    9  N12 UNL     1     -41.545  16.072   8.221  1.00 20.00    -0.389 N 
HETATM   10  H25 UNL     1     -41.809  17.045   8.292  1.00 20.00     0.159 HD
ENDROOT
BRANCH   4  11
HETATM   11  C11 UNL     1     -39.965  12.105   6.001  1.00 20.00     0.019 A 
HETATM   12  C8  UNL     1     -38.502  12.180   5.642  1.00 20.00     0.010 A 
HETATM   13  C9  UNL     1     -39.464  11.517   4.706  1.00 20.00     0.010 A 
ENDBRANCH   4  11
TORSDOF 1
ENDMDL
MODEL 3
REMARK VINA RESULT:      -4.4      1.740      3.699
REMARK  1 active torsions:
REMARK  status: ('A' for Active; 'I' for Inactive)
REMARK    1  A    between atoms: C4_4  and  C11_11 
ROOT
HETATM    1  C1  UNL     1     -32.829   5.355   2.353  1.00 20.00     0.003 A 
HETATM    2  C2  UNL     1     -33.737   5.059   3.382  1.00 20.00     0.008 A 
HETATM    3  C3  UNL     1     -32.169   6.587   2.316  1.00 20.00     0.029 A 
HETATM    4  C4  UNL     1     -34.002   5.992   4.385  1.00 20.00    -0.045 A 
HETATM    5  C5  UNL     1     -33.335   7.203   4.340  1.00 20.00    -0.024 A 
HETATM    6  C6  UNL     1     -32.415   7.496   3.330  1.00 20.00     0.035 A 
HETATM    7  C7  UNL     1     -33.473   8.387   5.241  1.00 20.00     0.061 C 
HETATM    8  C10 UNL     1     -32.304   9.275   4.761  1.00 20.00     0.124 C 
HETATM    9  N12 UNL     1     -31.907   8.789   3.445  1.00 20.00    -0.389 N 
HETATM   10  H25 UNL     1     -31.054   9.072   2.984  1.00 20.00     0.159 HD
ENDROOT
BRANCH   4  11
HETATM   11  C11 UNL     1     -34.985   5.685   5.460  1.00 20.00     0.019 A 
HETATM   12  C8  UNL     1     -34.809   6.316   6.818  1.00 20.00     0.010 A 
HETATM   13  C9  UNL     1     -34.550   4.853   6.639  1.00 20.00     0.010 A 
ENDBRANCH   4  11
TORSDOF 1
ENDMDL
MODEL 4
REMARK VINA RESULT:      -4.4      0.896      2.669
REMARK  1 active torsions:
REMARK  status: ('A' for Active; 'I' for Inactive)
REMARK    1  A    between atoms: C4_4  and  C11_11 
ROOT
HETATM    1  C1  UNL     1     -33.896   7.971   6.235  1.00 20.00     0.003 A 
HETATM    2  C2  UNL     1     -33.123   8.495   5.186  1.00 20.00     0.008 A 
HETATM    3  C3  UNL     1     -34.383   6.662   6.178  1.00 20.00     0.029 A 
HETATM    4  C4  UNL     1     -32.831   7.719   4.064  1.00 20.00    -0.045 A 
HETATM    5  C5  UNL     1     -33.312   6.422   4.026  1.00 20.00    -0.024 A 
HETATM    6  C6  UNL     1     -34.064   5.888   5.076  1.00 20.00     0.035 A 
HETATM    7  C7  UNL     1     -33.198   5.407   2.935  1.00 20.00     0.061 C 
HETATM    8  C10 UNL     1     -33.750   4.145   3.632  1.00 20.00     0.124 C 
HETATM    9  N12 UNL     1     -34.493   4.590   4.804  1.00 20.00    -0.389 N 
HETATM   10  H25 UNL     1     -34.803   3.965   5.534  1.00 20.00     0.159 HD
ENDROOT
BRANCH   4  11
HETATM   11  C11 UNL     1     -32.035   8.285   2.941  1.00 20.00     0.019 A 
HETATM   12  C8  UNL     1     -32.691   9.252   1.988  1.00 20.00     0.010 A 
HETATM   13  C9  UNL     1     -32.354   7.868   1.528  1.00 20.00     0.010 A 
ENDBRANCH   4  11
TORSDOF 1
ENDMDL
MODEL 5
REMARK VINA RESULT:      -4.2     11.706     13.451
REMARK  1 active torsions:
REMARK  status: ('A' for Active; 'I' for Inactive)
REMARK    1  A    between atoms: C4_4  and  C11_11 
ROOT
HETATM    1  C1  UNL     1     -33.983  18.973  -5.151  1.00 20.00     0.003 A 
HETATM    2  C2  UNL     1     -33.511  18.689  -3.860  1.00 20.00     0.008 A 
HETATM    3  C3  UNL     1     -34.468  17.952  -5.974  1.00 20.00     0.029 A 
HETATM    4  C4  UNL     1     -33.514  17.381  -3.375  1.00 20.00    -0.045 A 
HETATM    5  C5  UNL     1     -34.005  16.383  -4.197  1.00 20.00    -0.024 A 
HETATM    6  C6  UNL     1     -34.495  16.661  -5.476  1.00 20.00     0.035 A 
HETATM    7  C7  UNL     1     -34.069  14.910  -3.955  1.00 20.00     0.061 C 
HETATM    8  C10 UNL     1     -34.913  14.437  -5.158  1.00 20.00     0.124 C 
HETATM    9  N12 UNL     1     -34.884  15.505  -6.150  1.00 20.00    -0.389 N 
HETATM   10  H25 UNL     1     -35.498  15.534  -6.951  1.00 20.00     0.159 HD
ENDROOT
BRANCH   4  11
HETATM   11  C11 UNL     1     -32.989  17.079  -2.015  1.00 20.00     0.019 A 
HETATM   12  C8  UNL     1     -33.711  17.629  -0.810  1.00 20.00     0.010 A 
HETATM   13  C9  UNL     1     -32.378  18.190  -1.199  1.00 20.00     0.010 A 
ENDBRANCH   4  11
TORSDOF 1
ENDMDL
MODEL 6
REMARK VINA RESULT:      -4.2      1.469      3.095
REMARK  1 active torsions:
REMARK  status: ('A' for Active; 'I' for Inactive)
REMARK    1  A    between atoms: C4_4  and  C11_11 
ROOT
HETATM    1  C1  UNL     1     -34.781   5.867   6.417  1.00 20.00     0.003 A 
HETATM    2  C2  UNL     1     -34.696   5.212   5.179  1.00 20.00     0.008 A 
HETATM    3  C3  UNL     1     -34.128   7.085   6.627  1.00 20.00     0.029 A 
HETATM    4  C4  UNL     1     -33.953   5.762   4.134  1.00 20.00    -0.045 A 
HETATM    5  C5  UNL     1     -33.320   6.972   4.353  1.00 20.00    -0.024 A 
HETATM    6  C6  UNL     1     -33.417   7.640   5.577  1.00 20.00     0.035 A 
HETATM    7  C7  UNL     1     -32.424   7.745   3.440  1.00 20.00     0.061 C 
HETATM    8  C10 UNL     1     -32.259   9.068   4.219  1.00 20.00     0.124 C 
HETATM    9  N12 UNL     1     -32.656   8.807   5.597  1.00 20.00    -0.389 N 
HETATM   10  H25 UNL     1     -32.816   9.539   6.276  1.00 20.00     0.159 HD
ENDROOT
BRANCH   4  11
HETATM   11  C11 UNL     1     -33.843   5.052   2.831  1.00 20.00     0.019 A 
HETATM   12  C8  UNL     1     -32.668   4.137   2.588  1.00 20.00     0.010 A 
HETATM   13  C9  UNL     1     -32.752   5.447   1.867  1.00 20.00     0.010 A 
ENDBRANCH   4  11
TORSDOF 1
ENDMDL
MODEL 7
REMARK VINA RESULT:      -4.1     12.002     13.635
REMARK  1 active torsions:
REMARK  status: ('A' for Active; 'I' for Inactive)
REMARK    1  A    between atoms: C4_4  and  C11_11 
ROOT
HETATM    1  C1  UNL     1     -33.612  14.642  -4.568  1.00 20.00     0.003 A 
HETATM    2  C2  UNL     1     -33.587  15.562  -3.509  1.00 20.00     0.008 A 
HETATM    3  C3  UNL     1     -34.065  15.023  -5.835  1.00 20.00     0.029 A 
HETATM    4  C4  UNL     1     -34.021  16.875  -3.698  1.00 20.00    -0.045 A 
HETATM    5  C5  UNL     1     -34.459  17.239  -4.959  1.00 20.00    -0.024 A 
HETATM    6  C6  UNL     1     -34.467  16.333  -6.023  1.00 20.00     0.035 A 
HETATM    7  C7  UNL     1     -35.025  18.544  -5.418  1.00 20.00     0.061 C 
HETATM    8  C10 UNL     1     -35.091  18.330  -6.946  1.00 20.00     0.124 C 
HETATM    9  N12 UNL     1     -35.000  16.894  -7.183  1.00 20.00    -0.389 N 
HETATM   10  H25 UNL     1     -34.837  16.492  -8.095  1.00 20.00     0.159 HD
ENDROOT
BRANCH   4  11
HETATM   11  C11 UNL     1     -34.019  17.841  -2.566  1.00 20.00     0.019 A 
HETATM   12  C8  UNL     1     -32.701  18.301  -1.995  1.00 20.00     0.010 A 
HETATM   13  C9  UNL     1     -33.574  17.377  -1.203  1.00 20.00     0.010 A 
ENDBRANCH   4  11
TORSDOF 1
ENDMDL
MODEL 8
REMARK VINA RESULT:      -3.8     10.141     11.822
REMARK  1 active torsions:
REMARK  status: ('A' for Active; 'I' for Inactive)
REMARK    1  A    between atoms: C4_4  and  C11_11 
ROOT
HETATM    1  C1  UNL     1     -40.599  15.331   8.337  1.00 20.00     0.003 A 
HETATM    2  C2  UNL     1     -40.361  14.049   7.815  1.00 20.00     0.008 A 
HETATM    3  C3  UNL     1     -41.406  16.243   7.650  1.00 20.00     0.029 A 
HETATM    4  C4  UNL     1     -40.922  13.663   6.598  1.00 20.00    -0.045 A 
HETATM    5  C5  UNL     1     -41.726  14.572   5.935  1.00 20.00    -0.024 A 
HETATM    6  C6  UNL     1     -41.983  15.843   6.458  1.00 20.00     0.035 A 
HETATM    7  C7  UNL     1     -42.396  14.443   4.605  1.00 20.00     0.061 C 
HETATM    8  C10 UNL     1     -43.286  15.704   4.585  1.00 20.00     0.124 C 
HETATM    9  N12 UNL     1     -42.767  16.613   5.600  1.00 20.00    -0.389 N 
HETATM   10  H25 UNL     1     -43.268  17.429   5.921  1.00 20.00     0.159 HD
ENDROOT
BRANCH   4  11
HETATM   11  C11 UNL     1     -40.647  12.313   6.034  1.00 20.00     0.019 A 
HETATM   12  C8  UNL     1     -39.248  11.755   6.113  1.00 20.00     0.010 A 
HETATM   13  C9  UNL     1     -39.801  12.193   4.792  1.00 20.00     0.010 A 
ENDBRANCH   4  11
TORSDOF 1
ENDMDL
MODEL 9
REMARK VINA RESULT:      -3.8      1.828      4.504
REMARK  1 active torsions:
REMARK  status: ('A' for Active; 'I' for Inactive)
REMARK    1  A    between atoms: C4_4  and  C11_11 
ROOT
HETATM    1  C1  UNL     1     -32.486   9.217   4.805  1.00 20.00     0.003 A 
HETATM    2  C2  UNL     1     -33.332   8.484   5.653  1.00 20.00     0.008 A 
HETATM    3  C3  UNL     1     -32.041   8.672   3.597  1.00 20.00     0.029 A 
HETATM    4  C4  UNL     1     -33.739   7.195   5.308  1.00 20.00    -0.045 A 
HETATM    5  C5  UNL     1     -33.298   6.673   4.106  1.00 20.00    -0.024 A 
HETATM    6  C6  UNL     1     -32.472   7.405   3.248  1.00 20.00     0.035 A 
HETATM    7  C7  UNL     1     -33.531   5.315   3.527  1.00 20.00     0.061 C 
HETATM    8  C10 UNL     1     -32.955   5.485   2.104  1.00 20.00     0.124 C 
HETATM    9  N12 UNL     1     -32.102   6.668   2.124  1.00 20.00    -0.389 N 
HETATM   10  H25 UNL     1     -31.747   7.109   1.288  1.00 20.00     0.159 HD
ENDROOT
BRANCH   4  11
HETATM   11  C11 UNL     1     -34.614   6.410   6.222  1.00 20.00     0.019 A 
HETATM   12  C8  UNL     1     -34.088   5.131   6.825  1.00 20.00     0.010 A 
HETATM   13  C9  UNL     1     -35.144   5.075   5.766  1.00 20.00     0.010 A 
ENDBRANCH   4  11
TORSDOF 1
ENDMDL
