MODEL 1
REMARK VINA RESULT:      -5.1      0.000      0.000
REMARK  1 active torsions:
REMARK  status: ('A' for Active; 'I' for Inactive)
REMARK    1  A    between atoms: C3_3  and  C6_6 
ROOT
HETATM    1  C1  UNL     1     -33.189   9.786   1.495  1.00 20.00     0.013 C 
HETATM    2  C2  UNL     1     -32.875   9.129   2.449  1.00 20.00    -0.107 C 
HETATM    3  C5  UNL     1     -32.075   9.082   4.841  1.00 20.00     0.033 A 
HETATM    4  C6  UNL     1     -33.423   8.413   4.803  1.00 20.00     0.030 A 
HETATM    5  C7  UNL     1     -32.499   8.338   3.595  1.00 20.00     0.027 A 
HETATM    6  C10 UNL     1     -31.772   7.061   3.263  1.00 20.00     0.030 C 
ENDROOT
BRANCH   4   7
HETATM    7  C3  UNL     1     -33.657   7.247   5.640  1.00 20.00    -0.018 C 
HETATM    8  C4  UNL     1     -34.520   6.236   5.424  1.00 20.00    -0.091 C 
HETATM    9  C8  UNL     1     -34.643   5.095   6.395  1.00 20.00     0.042 C 
HETATM   10  C9  UNL     1     -35.423   6.151   4.226  1.00 20.00     0.042 C 
ENDBRANCH   4   7
TORSDOF 1
ENDMDL
MODEL 2
REMARK VINA RESULT:      -4.1      9.759     10.691
REMARK  1 active torsions:
REMARK  status: ('A' for Active; 'I' for Inactive)
REMARK    1  A    between atoms: C3_3  and  C6_6 
ROOT
HETATM    1  C1  UNL     1     -39.197  11.607   4.405  1.00 20.00     0.013 C 
HETATM    2  C2  UNL     1     -39.985  12.360   4.907  1.00 20.00    -0.107 C 
HETATM    3  C5  UNL     1     -41.617  12.809   6.778  1.00 20.00     0.033 A 
HETATM    4  C6  UNL     1     -40.539  13.857   6.858  1.00 20.00     0.030 A 
HETATM    5  C7  UNL     1     -40.931  13.266   5.510  1.00 20.00     0.027 A 
HETATM    6  C10 UNL     1     -41.743  14.069   4.527  1.00 20.00     0.030 C 
ENDROOT
BRANCH   4   7
HETATM    7  C3  UNL     1     -40.904  15.220   7.213  1.00 20.00    -0.018 C 
HETATM    8  C4  UNL     1     -40.721  15.842   8.393  1.00 20.00    -0.091 C 
HETATM    9  C8  UNL     1     -41.157  17.265   8.600  1.00 20.00     0.042 C 
HETATM   10  C9  UNL     1     -40.081  15.194   9.588  1.00 20.00     0.042 C 
ENDBRANCH   4   7
TORSDOF 1
ENDMDL
MODEL 3
REMARK VINA RESULT:      -4.1     10.877     12.068
REMARK  1 active torsions:
REMARK  status: ('A' for Active; 'I' for Inactive)
REMARK    1  A    between atoms: C3_3  and  C6_6 
ROOT
HETATM    1  C1  UNL     1     -34.123  15.393  -7.359  1.00 20.00     0.013 C 
HETATM    2  C2  UNL     1     -33.984  15.203  -6.182  1.00 20.00    -0.107 C 
HETATM    3  C5  UNL     1     -32.404  14.819  -4.254  1.00 20.00     0.033 A 
HETATM    4  C6  UNL     1     -33.155  16.093  -3.975  1.00 20.00     0.030 A 
HETATM    5  C7  UNL     1     -33.817  14.974  -4.768  1.00 20.00     0.027 A 
HETATM    6  C10 UNL     1     -34.888  14.119  -4.142  1.00 20.00     0.030 C 
ENDROOT
BRANCH   4   7
HETATM    7  C3  UNL     1     -33.565  16.388  -2.610  1.00 20.00    -0.018 C 
HETATM    8  C4  UNL     1     -33.363  17.524  -1.916  1.00 20.00    -0.091 C 
HETATM    9  C8  UNL     1     -33.853  17.671  -0.502  1.00 20.00     0.042 C 
HETATM   10  C9  UNL     1     -32.645  18.723  -2.467  1.00 20.00     0.042 C 
ENDBRANCH   4   7
TORSDOF 1
ENDMDL
MODEL 4
REMARK VINA RESULT:      -3.9      9.498     10.598
REMARK  1 active torsions:
REMARK  status: ('A' for Active; 'I' for Inactive)
REMARK    1  A    between atoms: C3_3  and  C6_6 
ROOT
HETATM    1  C1  UNL     1     -42.251  14.031   9.864  1.00 20.00     0.013 C 
HETATM    2  C2  UNL     1     -42.294  13.734   8.702  1.00 20.00    -0.107 C 
HETATM    3  C5  UNL     1     -42.624  14.483   6.316  1.00 20.00     0.033 A 
HETATM    4  C6  UNL     1     -41.231  13.923   6.425  1.00 20.00     0.030 A 
HETATM    5  C7  UNL     1     -42.345  13.375   7.306  1.00 20.00     0.027 A 
HETATM    6  C10 UNL     1     -42.948  12.022   7.029  1.00 20.00     0.030 C 
ENDROOT
BRANCH   4   7
HETATM    7  C3  UNL     1     -40.696  13.141   5.321  1.00 20.00    -0.018 C 
HETATM    8  C4  UNL     1     -39.622  12.329   5.330  1.00 20.00    -0.091 C 
HETATM    9  C8  UNL     1     -39.196  11.585   4.096  1.00 20.00     0.042 C 
HETATM   10  C9  UNL     1     -38.765  12.091   6.542  1.00 20.00     0.042 C 
ENDBRANCH   4   7
TORSDOF 1
ENDMDL
MODEL 5
REMARK VINA RESULT:      -3.8     11.160     11.905
REMARK  1 active torsions:
REMARK  status: ('A' for Active; 'I' for Inactive)
REMARK    1  A    between atoms: C3_3  and  C6_6 
ROOT
HETATM    1  C1  UNL     1     -31.004  18.564   0.292  1.00 20.00     0.013 C 
HETATM    2  C2  UNL     1     -31.903  18.383  -0.483  1.00 20.00    -0.107 C 
HETATM    3  C5  UNL     1     -32.799  18.683  -2.822  1.00 20.00     0.033 A 
HETATM    4  C6  UNL     1     -32.703  17.203  -2.562  1.00 20.00     0.030 A 
HETATM    5  C7  UNL     1     -32.983  18.164  -1.414  1.00 20.00     0.027 A 
HETATM    6  C10 UNL     1     -34.359  18.258  -0.808  1.00 20.00     0.030 C 
ENDROOT
BRANCH   4   7
HETATM    7  C3  UNL     1     -33.745  16.327  -3.075  1.00 20.00    -0.018 C 
HETATM    8  C4  UNL     1     -33.597  15.237  -3.852  1.00 20.00    -0.091 C 
HETATM    9  C8  UNL     1     -34.784  14.433  -4.301  1.00 20.00     0.042 C 
HETATM   10  C9  UNL     1     -32.267  14.731  -4.336  1.00 20.00     0.042 C 
ENDBRANCH   4   7
TORSDOF 1
ENDMDL
MODEL 6
REMARK VINA RESULT:      -3.6     10.837     12.511
REMARK  1 active torsions:
REMARK  status: ('A' for Active; 'I' for Inactive)
REMARK    1  A    between atoms: C3_3  and  C6_6 
ROOT
HETATM    1  C1  UNL     1     -33.689  17.840   0.260  1.00 20.00     0.013 C 
HETATM    2  C2  UNL     1     -33.908  18.007  -0.908  1.00 20.00    -0.107 C 
HETATM    3  C5  UNL     1     -33.018  18.663  -3.176  1.00 20.00     0.033 A 
HETATM    4  C6  UNL     1     -33.496  17.239  -3.273  1.00 20.00     0.030 A 
HETATM    5  C7  UNL     1     -34.172  18.207  -2.312  1.00 20.00     0.027 A 
HETATM    6  C10 UNL     1     -35.538  18.764  -2.619  1.00 20.00     0.030 C 
ENDROOT
BRANCH   4   7
HETATM    7  C3  UNL     1     -34.165  16.799  -4.488  1.00 20.00    -0.018 C 
HETATM    8  C4  UNL     1     -34.400  15.535  -4.888  1.00 20.00    -0.091 C 
HETATM    9  C8  UNL     1     -35.110  15.246  -6.181  1.00 20.00     0.042 C 
HETATM   10  C9  UNL     1     -33.987  14.320  -4.106  1.00 20.00     0.042 C 
ENDBRANCH   4   7
TORSDOF 1
ENDMDL
MODEL 7
REMARK VINA RESULT:      -3.6     10.157     10.973
REMARK  1 active torsions:
REMARK  status: ('A' for Active; 'I' for Inactive)
REMARK    1  A    between atoms: C3_3  and  C6_6 
ROOT
HETATM    1  C1  UNL     1     -42.383  14.678   3.741  1.00 20.00     0.013 C 
HETATM    2  C2  UNL     1     -42.071  14.131   4.763  1.00 20.00    -0.107 C 
HETATM    3  C5  UNL     1     -40.424  12.659   5.980  1.00 20.00     0.033 A 
HETATM    4  C6  UNL     1     -40.442  13.992   6.681  1.00 20.00     0.030 A 
HETATM    5  C7  UNL     1     -41.697  13.474   5.991  1.00 20.00     0.027 A 
HETATM    6  C10 UNL     1     -42.856  12.950   6.799  1.00 20.00     0.030 C 
ENDROOT
BRANCH   4   7
HETATM    7  C3  UNL     1     -40.346  14.029   8.132  1.00 20.00    -0.018 C 
HETATM    8  C4  UNL     1     -40.432  15.105   8.937  1.00 20.00    -0.091 C 
HETATM    9  C8  UNL     1     -40.311  14.974  10.429  1.00 20.00     0.042 C 
HETATM   10  C9  UNL     1     -40.651  16.506   8.438  1.00 20.00     0.042 C 
ENDBRANCH   4   7
TORSDOF 1
ENDMDL
MODEL 8
REMARK VINA RESULT:      -3.5     11.457     12.593
REMARK  1 active torsions:
REMARK  status: ('A' for Active; 'I' for Inactive)
REMARK    1  A    between atoms: C3_3  and  C6_6 
ROOT
HETATM    1  C1  UNL     1     -34.830  16.007  -5.276  1.00 20.00     0.013 C 
HETATM    2  C2  UNL     1     -34.415  16.862  -4.543  1.00 20.00    -0.107 C 
HETATM    3  C5  UNL     1     -34.792  18.291  -2.499  1.00 20.00     0.033 A 
HETATM    4  C6  UNL     1     -33.565  17.457  -2.246  1.00 20.00     0.030 A 
HETATM    5  C7  UNL     1     -33.915  17.890  -3.663  1.00 20.00     0.027 A 
HETATM    6  C10 UNL     1     -33.127  18.974  -4.351  1.00 20.00     0.030 C 
ENDROOT
BRANCH   4   7
HETATM    7  C3  UNL     1     -32.441  18.050  -1.538  1.00 20.00    -0.018 C 
HETATM    8  C4  UNL     1     -32.390  18.436  -0.249  1.00 20.00    -0.091 C 
HETATM    9  C8  UNL     1     -31.142  19.036   0.336  1.00 20.00     0.042 C 
HETATM   10  C9  UNL     1     -33.543  18.310   0.707  1.00 20.00     0.042 C 
ENDBRANCH   4   7
TORSDOF 1
ENDMDL
MODEL 9
REMARK VINA RESULT:      -3.5      1.145      4.274
REMARK  1 active torsions:
REMARK  status: ('A' for Active; 'I' for Inactive)
REMARK    1  A    between atoms: C3_3  and  C6_6 
ROOT
HETATM    1  C1  UNL     1     -34.413   4.982   6.810  1.00 20.00     0.013 C 
HETATM    2  C2  UNL     1     -34.359   5.938   6.086  1.00 20.00    -0.107 C 
HETATM    3  C5  UNL     1     -33.848   8.395   5.828  1.00 20.00     0.033 A 
HETATM    4  C6  UNL     1     -32.904   7.640   4.930  1.00 20.00     0.030 A 
HETATM    5  C7  UNL     1     -34.293   7.086   5.216  1.00 20.00     0.027 A 
HETATM    6  C10 UNL     1     -35.371   7.136   4.164  1.00 20.00     0.030 C 
ENDROOT
BRANCH   4   7
HETATM    7  C3  UNL     1     -32.572   8.196   3.627  1.00 20.00    -0.018 C 
HETATM    8  C4  UNL     1     -32.350   7.528   2.479  1.00 20.00    -0.091 C 
HETATM    9  C8  UNL     1     -32.015   8.256   1.207  1.00 20.00     0.042 C 
HETATM   10  C9  UNL     1     -32.410   6.032   2.357  1.00 20.00     0.042 C 
ENDBRANCH   4   7
TORSDOF 1
ENDMDL
