MODEL 1
REMARK VINA RESULT:      -3.9      0.000      0.000
REMARK  1 active torsions:
REMARK  status: ('A' for Active; 'I' for Inactive)
REMARK    1  A    between atoms: C1_1  and  C5_5 
ROOT
HETATM    1  C1  UNL     1     -41.011  12.703   5.965  1.00 20.00    -0.097 C 
HETATM    2  C2  UNL     1     -40.083  12.271   5.336  1.00 20.00    -0.110 C 
HETATM    3  C7  UNL     1     -38.953  11.746   4.571  1.00 20.00     0.112 C 
ENDROOT
BRANCH   1   4
HETATM    4  C5  UNL     1     -42.141  13.227   6.729  1.00 20.00     0.027 C 
HETATM    5  C3  UNL     1     -42.896  14.371   5.981  1.00 20.00     0.024 C 
HETATM    6  C4  UNL     1     -42.036  15.399   6.743  1.00 20.00     0.012 C 
HETATM    7  C6  UNL     1     -41.768  14.318   7.833  1.00 20.00    -0.029 C 
HETATM    8  C9  UNL     1     -42.738  14.444   9.017  1.00 20.00     0.016 C 
HETATM    9  C10 UNL     1     -40.326  14.323   8.348  1.00 20.00     0.016 C 
HETATM   10  C8  UNL     1     -43.041  12.071   7.157  1.00 20.00     0.030 C 
ENDBRANCH   1   4
TORSDOF 1
ENDMDL
MODEL 2
REMARK VINA RESULT:      -3.8     17.493     19.092
REMARK  1 active torsions:
REMARK  status: ('A' for Active; 'I' for Inactive)
REMARK    1  A    between atoms: C1_1  and  C5_5 
ROOT
HETATM    1  C1  UNL     1     -22.510  17.796   9.943  1.00 20.00    -0.097 C 
HETATM    2  C2  UNL     1     -21.962  17.623   8.888  1.00 20.00    -0.110 C 
HETATM    3  C7  UNL     1     -21.296  17.413   7.604  1.00 20.00     0.112 C 
ENDROOT
BRANCH   1   4
HETATM    4  C5  UNL     1     -23.176  18.007  11.227  1.00 20.00     0.027 C 
HETATM    5  C3  UNL     1     -23.708  16.681  11.856  1.00 20.00     0.024 C 
HETATM    6  C4  UNL     1     -25.081  16.960  11.214  1.00 20.00     0.012 C 
HETATM    7  C6  UNL     1     -24.701  18.469  11.134  1.00 20.00    -0.029 C 
HETATM    8  C9  UNL     1     -25.244  19.262  12.332  1.00 20.00     0.016 C 
HETATM    9  C10 UNL     1     -25.149  19.138   9.831  1.00 20.00     0.016 C 
HETATM   10  C8  UNL     1     -22.255  18.800  12.150  1.00 20.00     0.030 C 
ENDBRANCH   1   4
TORSDOF 1
ENDMDL
MODEL 3
REMARK VINA RESULT:      -3.8      1.089      2.382
REMARK  1 active torsions:
REMARK  status: ('A' for Active; 'I' for Inactive)
REMARK    1  A    between atoms: C1_1  and  C5_5 
ROOT
HETATM    1  C1  UNL     1     -40.489  12.905   5.715  1.00 20.00    -0.097 C 
HETATM    2  C2  UNL     1     -39.795  12.281   4.959  1.00 20.00    -0.110 C 
HETATM    3  C7  UNL     1     -38.950  11.521   4.039  1.00 20.00     0.112 C 
ENDROOT
BRANCH   1   4
HETATM    4  C5  UNL     1     -41.334  13.665   6.634  1.00 20.00     0.027 C 
HETATM    5  C3  UNL     1     -42.414  12.781   7.334  1.00 20.00     0.024 C 
HETATM    6  C4  UNL     1     -43.417  13.190   6.237  1.00 20.00     0.012 C 
HETATM    7  C6  UNL     1     -42.546  14.450   5.954  1.00 20.00    -0.029 C 
HETATM    8  C9  UNL     1     -43.062  15.685   6.707  1.00 20.00     0.016 C 
HETATM    9  C10 UNL     1     -42.417  14.775   4.463  1.00 20.00     0.016 C 
HETATM   10  C8  UNL     1     -40.449  14.441   7.607  1.00 20.00     0.030 C 
ENDBRANCH   1   4
TORSDOF 1
ENDMDL
MODEL 4
REMARK VINA RESULT:      -3.3      1.495      2.827
REMARK  1 active torsions:
REMARK  status: ('A' for Active; 'I' for Inactive)
REMARK    1  A    between atoms: C1_1  and  C5_5 
ROOT
HETATM    1  C1  UNL     1     -41.917  14.134   4.934  1.00 20.00    -0.097 C 
HETATM    2  C2  UNL     1     -42.370  14.616   3.932  1.00 20.00    -0.110 C 
HETATM    3  C7  UNL     1     -42.920  15.204   2.712  1.00 20.00     0.112 C 
ENDROOT
BRANCH   1   4
HETATM    4  C5  UNL     1     -41.366  13.547   6.154  1.00 20.00     0.027 C 
HETATM    5  C3  UNL     1     -42.403  12.668   6.923  1.00 20.00     0.024 C 
HETATM    6  C4  UNL     1     -42.753  13.892   7.793  1.00 20.00     0.012 C 
HETATM    7  C6  UNL     1     -41.367  14.505   7.431  1.00 20.00    -0.029 C 
HETATM    8  C9  UNL     1     -40.310  14.207   8.505  1.00 20.00     0.016 C 
HETATM    9  C10 UNL     1     -41.422  16.013   7.171  1.00 20.00     0.016 C 
HETATM   10  C8  UNL     1     -40.067  12.818   5.822  1.00 20.00     0.030 C 
ENDBRANCH   1   4
TORSDOF 1
ENDMDL
MODEL 5
REMARK VINA RESULT:      -3.2     13.023     14.653
REMARK  1 active torsions:
REMARK  status: ('A' for Active; 'I' for Inactive)
REMARK    1  A    between atoms: C1_1  and  C5_5 
ROOT
HETATM    1  C1  UNL     1     -34.340  16.053  -4.530  1.00 20.00    -0.097 C 
HETATM    2  C2  UNL     1     -33.787  16.442  -3.538  1.00 20.00    -0.110 C 
HETATM    3  C7  UNL     1     -33.114  16.915  -2.330  1.00 20.00     0.112 C 
ENDROOT
BRANCH   1   4
HETATM    4  C5  UNL     1     -35.014  15.580  -5.738  1.00 20.00     0.027 C 
HETATM    5  C3  UNL     1     -34.026  15.319  -6.918  1.00 20.00     0.024 C 
HETATM    6  C4  UNL     1     -34.315  16.742  -7.437  1.00 20.00     0.012 C 
HETATM    7  C6  UNL     1     -35.659  16.721  -6.649  1.00 20.00    -0.029 C 
HETATM    8  C9  UNL     1     -36.838  16.297  -7.536  1.00 20.00     0.016 C 
HETATM    9  C10 UNL     1     -35.982  18.055  -5.970  1.00 20.00     0.016 C 
HETATM   10  C8  UNL     1     -35.889  14.378  -5.390  1.00 20.00     0.030 C 
ENDBRANCH   1   4
TORSDOF 1
ENDMDL
MODEL 6
REMARK VINA RESULT:      -3.2     17.291     18.901
REMARK  1 active torsions:
REMARK  status: ('A' for Active; 'I' for Inactive)
REMARK    1  A    between atoms: C1_1  and  C5_5 
ROOT
HETATM    1  C1  UNL     1     -22.980  18.004   9.387  1.00 20.00    -0.097 C 
HETATM    2  C2  UNL     1     -22.233  17.723   8.490  1.00 20.00    -0.110 C 
HETATM    3  C7  UNL     1     -21.323  17.382   7.397  1.00 20.00     0.112 C 
ENDROOT
BRANCH   1   4
HETATM    4  C5  UNL     1     -23.889  18.345  10.479  1.00 20.00     0.027 C 
HETATM    5  C3  UNL     1     -23.148  18.930  11.722  1.00 20.00     0.024 C 
HETATM    6  C4  UNL     1     -23.111  17.514  12.331  1.00 20.00     0.012 C 
HETATM    7  C6  UNL     1     -24.312  17.125  11.418  1.00 20.00    -0.029 C 
HETATM    8  C9  UNL     1     -25.656  17.264  12.148  1.00 20.00     0.016 C 
HETATM    9  C10 UNL     1     -24.192  15.717  10.829  1.00 20.00     0.016 C 
HETATM   10  C8  UNL     1     -25.003  19.243   9.947  1.00 20.00     0.030 C 
ENDBRANCH   1   4
TORSDOF 1
ENDMDL
MODEL 7
REMARK VINA RESULT:      -3.2      1.091      2.320
REMARK  1 active torsions:
REMARK  status: ('A' for Active; 'I' for Inactive)
REMARK    1  A    between atoms: C1_1  and  C5_5 
ROOT
HETATM    1  C1  UNL     1     -40.569  13.347   6.626  1.00 20.00    -0.097 C 
HETATM    2  C2  UNL     1     -39.988  12.640   5.849  1.00 20.00    -0.110 C 
HETATM    3  C7  UNL     1     -39.282  11.778   4.903  1.00 20.00     0.112 C 
ENDROOT
BRANCH   1   4
HETATM    4  C5  UNL     1     -41.275  14.210   7.572  1.00 20.00     0.027 C 
HETATM    5  C3  UNL     1     -42.401  13.458   8.350  1.00 20.00     0.024 C 
HETATM    6  C4  UNL     1     -43.417  13.951   7.299  1.00 20.00     0.012 C 
HETATM    7  C6  UNL     1     -42.435  15.106   6.940  1.00 20.00    -0.029 C 
HETATM    8  C9  UNL     1     -42.775  16.403   7.689  1.00 20.00     0.016 C 
HETATM    9  C10 UNL     1     -42.357  15.388   5.437  1.00 20.00     0.016 C 
HETATM   10  C8  UNL     1     -40.261  14.905   8.476  1.00 20.00     0.030 C 
ENDBRANCH   1   4
TORSDOF 1
ENDMDL
MODEL 8
REMARK VINA RESULT:      -3.2     21.411     23.322
REMARK  1 active torsions:
REMARK  status: ('A' for Active; 'I' for Inactive)
REMARK    1  A    between atoms: C1_1  and  C5_5 
ROOT
HETATM    1  C1  UNL     1     -24.385  -2.862  10.119  1.00 20.00    -0.097 C 
HETATM    2  C2  UNL     1     -23.836  -3.143   9.088  1.00 20.00    -0.110 C 
HETATM    3  C7  UNL     1     -23.168  -3.486   7.834  1.00 20.00     0.112 C 
ENDROOT
BRANCH   1   4
HETATM    4  C5  UNL     1     -25.052  -2.519  11.373  1.00 20.00     0.027 C 
HETATM    5  C3  UNL     1     -25.286  -3.760  12.292  1.00 20.00     0.024 C 
HETATM    6  C4  UNL     1     -26.701  -3.898  11.696  1.00 20.00     0.012 C 
HETATM    7  C6  UNL     1     -26.641  -2.396  11.287  1.00 20.00    -0.029 C 
HETATM    8  C9  UNL     1     -27.309  -1.490  12.332  1.00 20.00     0.016 C 
HETATM    9  C10 UNL     1     -27.245  -2.119   9.908  1.00 20.00     0.016 C 
HETATM   10  C8  UNL     1     -24.293  -1.382  12.054  1.00 20.00     0.030 C 
ENDBRANCH   1   4
TORSDOF 1
ENDMDL
MODEL 9
REMARK VINA RESULT:      -3.2      1.428      2.733
REMARK  1 active torsions:
REMARK  status: ('A' for Active; 'I' for Inactive)
REMARK    1  A    between atoms: C1_1  and  C5_5 
ROOT
HETATM    1  C1  UNL     1     -40.531  13.800   7.135  1.00 20.00    -0.097 C 
HETATM    2  C2  UNL     1     -40.124  12.896   6.458  1.00 20.00    -0.110 C 
HETATM    3  C7  UNL     1     -39.629  11.794   5.634  1.00 20.00     0.112 C 
ENDROOT
BRANCH   1   4
HETATM    4  C5  UNL     1     -41.026  14.901   7.959  1.00 20.00     0.027 C 
HETATM    5  C3  UNL     1     -40.113  15.190   9.193  1.00 20.00     0.024 C 
HETATM    6  C4  UNL     1     -41.024  14.281  10.042  1.00 20.00     0.012 C 
HETATM    7  C6  UNL     1     -42.165  14.510   9.006  1.00 20.00    -0.029 C 
HETATM    8  C9  UNL     1     -43.111  15.641   9.435  1.00 20.00     0.016 C 
HETATM    9  C10 UNL     1     -42.977  13.246   8.712  1.00 20.00     0.016 C 
HETATM   10  C8  UNL     1     -41.271  16.122   7.075  1.00 20.00     0.030 C 
ENDBRANCH   1   4
TORSDOF 1
ENDMDL
