MODEL 1
REMARK VINA RESULT:      -5.2      0.000      0.000
REMARK  0 active torsions:
REMARK  status: ('A' for Active; 'I' for Inactive)
ROOT
HETATM    1  C1  UNL     1     -32.885   8.455   4.812  1.00 20.00     0.009 A 
HETATM    2  C2  UNL     1     -32.439   8.812   3.537  1.00 20.00     0.019 A 
HETATM    3  C3  UNL     1     -32.985   6.607   2.707  1.00 20.00     0.032 A 
HETATM    4  C4  UNL     1     -33.440   6.267   3.979  1.00 20.00    -0.011 A 
HETATM    5  C5  UNL     1     -33.398   7.177   5.037  1.00 20.00    -0.045 A 
HETATM    6  C6  UNL     1     -32.488   7.890   2.489  1.00 20.00     0.011 A 
HETATM    7  C7  UNL     1     -33.946   4.921   4.260  1.00 20.00     0.122 C 
HETATM    8  C8  UNL     1     -33.833   6.713   6.394  1.00 20.00     0.061 C 
HETATM    9  C9  UNL     1     -34.944   5.675   6.257  1.00 20.00     0.153 C 
HETATM   10  N10 UNL     1     -34.603   4.593   5.322  1.00 20.00    -0.300 NA
HETATM   11 BR11 UNL     1     -31.871   8.384   0.771  1.00 20.00    -0.051 Br
ENDROOT
TORSDOF 0
ENDMDL
MODEL 2
REMARK VINA RESULT:      -4.2      1.200      2.216
REMARK  0 active torsions:
REMARK  status: ('A' for Active; 'I' for Inactive)
ROOT
HETATM    1  C1  UNL     1     -33.429   5.181   2.994  1.00 20.00     0.009 A 
HETATM    2  C2  UNL     1     -32.793   5.988   2.049  1.00 20.00     0.019 A 
HETATM    3  C3  UNL     1     -32.955   7.891   3.534  1.00 20.00     0.032 A 
HETATM    4  C4  UNL     1     -33.576   7.072   4.475  1.00 20.00    -0.011 A 
HETATM    5  C5  UNL     1     -33.818   5.721   4.221  1.00 20.00    -0.045 A 
HETATM    6  C6  UNL     1     -32.557   7.339   2.318  1.00 20.00     0.011 A 
HETATM    7  C7  UNL     1     -34.035   7.615   5.756  1.00 20.00     0.122 C 
HETATM    8  C8  UNL     1     -34.560   4.923   5.250  1.00 20.00     0.061 C 
HETATM    9  C9  UNL     1     -34.231   5.442   6.647  1.00 20.00     0.153 C 
HETATM   10  N10 UNL     1     -34.392   6.899   6.769  1.00 20.00    -0.300 NA
HETATM   11 BR11 UNL     1     -31.704   8.423   1.025  1.00 20.00    -0.051 Br
ENDROOT
TORSDOF 0
ENDMDL
MODEL 3
REMARK VINA RESULT:      -4.2     12.728     13.154
REMARK  0 active torsions:
REMARK  status: ('A' for Active; 'I' for Inactive)
ROOT
HETATM    1  C1  UNL     1     -31.021  18.476  -0.103  1.00 20.00     0.009 A 
HETATM    2  C2  UNL     1     -30.754  18.649   1.258  1.00 20.00     0.019 A 
HETATM    3  C3  UNL     1     -33.070  19.225   1.659  1.00 20.00     0.032 A 
HETATM    4  C4  UNL     1     -33.326  19.035   0.303  1.00 20.00    -0.011 A 
HETATM    5  C5  UNL     1     -32.317  18.662  -0.586  1.00 20.00    -0.045 A 
HETATM    6  C6  UNL     1     -31.776  19.023   2.135  1.00 20.00     0.011 A 
HETATM    7  C7  UNL     1     -34.665  19.263  -0.246  1.00 20.00     0.122 C 
HETATM    8  C8  UNL     1     -32.654  18.553  -2.043  1.00 20.00     0.061 C 
HETATM    9  C9  UNL     1     -34.098  18.089  -2.209  1.00 20.00     0.153 C 
HETATM   10  N10 UNL     1     -35.049  18.885  -1.420  1.00 20.00    -0.300 NA
HETATM   11 BR11 UNL     1     -31.398  19.263   3.972  1.00 20.00    -0.051 Br
ENDROOT
TORSDOF 0
ENDMDL
MODEL 4
REMARK VINA RESULT:      -4.1     12.125     13.227
REMARK  0 active torsions:
REMARK  status: ('A' for Active; 'I' for Inactive)
ROOT
HETATM    1  C1  UNL     1     -35.235  18.344  -3.636  1.00 20.00     0.009 A 
HETATM    2  C2  UNL     1     -34.680  18.698  -2.404  1.00 20.00     0.019 A 
HETATM    3  C3  UNL     1     -33.314  16.701  -2.423  1.00 20.00     0.032 A 
HETATM    4  C4  UNL     1     -33.865  16.366  -3.658  1.00 20.00    -0.011 A 
HETATM    5  C5  UNL     1     -34.821  17.175  -4.275  1.00 20.00    -0.045 A 
HETATM    6  C6  UNL     1     -33.723  17.878  -1.800  1.00 20.00     0.011 A 
HETATM    7  C7  UNL     1     -33.485  15.125  -4.338  1.00 20.00     0.122 C 
HETATM    8  C8  UNL     1     -35.423  16.709  -5.566  1.00 20.00     0.061 C 
HETATM    9  C9  UNL     1     -34.393  15.914  -6.364  1.00 20.00     0.153 C 
HETATM   10  N10 UNL     1     -33.750  14.855  -5.572  1.00 20.00    -0.300 NA
HETATM   11 BR11 UNL     1     -32.988  18.364  -0.127  1.00 20.00    -0.051 Br
ENDROOT
TORSDOF 0
ENDMDL
MODEL 5
REMARK VINA RESULT:      -4.0     12.458     13.574
REMARK  0 active torsions:
REMARK  status: ('A' for Active; 'I' for Inactive)
ROOT
HETATM    1  C1  UNL     1     -33.309  15.856  -3.428  1.00 20.00     0.009 A 
HETATM    2  C2  UNL     1     -33.372  16.805  -2.404  1.00 20.00     0.019 A 
HETATM    3  C3  UNL     1     -35.007  18.076  -3.655  1.00 20.00     0.032 A 
HETATM    4  C4  UNL     1     -34.946  17.116  -4.662  1.00 20.00    -0.011 A 
HETATM    5  C5  UNL     1     -34.106  16.005  -4.564  1.00 20.00    -0.045 A 
HETATM    6  C6  UNL     1     -34.218  17.911  -2.518  1.00 20.00     0.011 A 
HETATM    7  C7  UNL     1     -35.738  17.262  -5.887  1.00 20.00     0.122 C 
HETATM    8  C8  UNL     1     -34.038  15.057  -5.723  1.00 20.00     0.061 C 
HETATM    9  C9  UNL     1     -35.393  14.993  -6.423  1.00 20.00     0.153 C 
HETATM   10  N10 UNL     1     -35.930  16.322  -6.751  1.00 20.00    -0.300 NA
HETATM   11 BR11 UNL     1     -34.285  19.192  -1.130  1.00 20.00    -0.051 Br
ENDROOT
TORSDOF 0
ENDMDL
MODEL 6
REMARK VINA RESULT:      -4.0     12.266     13.397
REMARK  0 active torsions:
REMARK  status: ('A' for Active; 'I' for Inactive)
ROOT
HETATM    1  C1  UNL     1     -33.590  15.219  -3.808  1.00 20.00     0.009 A 
HETATM    2  C2  UNL     1     -34.037  14.927  -5.098  1.00 20.00     0.019 A 
HETATM    3  C3  UNL     1     -34.728  17.225  -5.403  1.00 20.00     0.032 A 
HETATM    4  C4  UNL     1     -34.265  17.508  -4.120  1.00 20.00    -0.011 A 
HETATM    5  C5  UNL     1     -33.695  16.521  -3.314  1.00 20.00    -0.045 A 
HETATM    6  C6  UNL     1     -34.604  15.927  -5.893  1.00 20.00     0.011 A 
HETATM    7  C7  UNL     1     -34.398  18.853  -3.553  1.00 20.00     0.122 C 
HETATM    8  C8  UNL     1     -33.292  16.884  -1.917  1.00 20.00     0.061 C 
HETATM    9  C9  UNL     1     -32.831  18.338  -1.870  1.00 20.00     0.153 C 
HETATM   10  N10 UNL     1     -33.792  19.263  -2.490  1.00 20.00    -0.300 NA
HETATM   11 BR11 UNL     1     -35.215  15.514  -7.634  1.00 20.00    -0.051 Br
ENDROOT
TORSDOF 0
ENDMDL
MODEL 7
REMARK VINA RESULT:      -3.9     12.471     12.803
REMARK  0 active torsions:
REMARK  status: ('A' for Active; 'I' for Inactive)
ROOT
HETATM    1  C1  UNL     1     -30.869  18.383  -0.077  1.00 20.00     0.009 A 
HETATM    2  C2  UNL     1     -32.007  18.580  -0.863  1.00 20.00     0.019 A 
HETATM    3  C3  UNL     1     -33.290  19.164   1.103  1.00 20.00     0.032 A 
HETATM    4  C4  UNL     1     -32.145  18.979   1.875  1.00 20.00    -0.011 A 
HETATM    5  C5  UNL     1     -30.932  18.591   1.302  1.00 20.00    -0.045 A 
HETATM    6  C6  UNL     1     -33.213  18.969  -0.274  1.00 20.00     0.011 A 
HETATM    7  C7  UNL     1     -32.186  19.147   3.330  1.00 20.00     0.122 C 
HETATM    8  C8  UNL     1     -29.765  18.336   2.207  1.00 20.00     0.061 C 
HETATM    9  C9  UNL     1     -29.833  19.263   3.417  1.00 20.00     0.153 C 
HETATM   10  N10 UNL     1     -31.143  19.235   4.086  1.00 20.00    -0.300 NA
HETATM   11 BR11 UNL     1     -34.747  19.222  -1.350  1.00 20.00    -0.051 Br
ENDROOT
TORSDOF 0
ENDMDL
MODEL 8
REMARK VINA RESULT:      -3.7     12.250     12.926
REMARK  0 active torsions:
REMARK  status: ('A' for Active; 'I' for Inactive)
ROOT
HETATM    1  C1  UNL     1     -34.626  19.038  -0.139  1.00 20.00     0.009 A 
HETATM    2  C2  UNL     1     -35.007  18.759  -1.454  1.00 20.00     0.019 A 
HETATM    3  C3  UNL     1     -32.711  18.267  -2.037  1.00 20.00     0.032 A 
HETATM    4  C4  UNL     1     -32.345  18.533  -0.719  1.00 20.00    -0.011 A 
HETATM    5  C5  UNL     1     -33.287  18.917   0.237  1.00 20.00    -0.045 A 
HETATM    6  C6  UNL     1     -34.052  18.376  -2.399  1.00 20.00     0.011 A 
HETATM    7  C7  UNL     1     -30.943  18.458  -0.299  1.00 20.00     0.122 C 
HETATM    8  C8  UNL     1     -32.806  19.262   1.614  1.00 20.00     0.061 C 
HETATM    9  C9  UNL     1     -31.588  18.414   1.967  1.00 20.00     0.153 C 
HETATM   10  N10 UNL     1     -30.547  18.448   0.929  1.00 20.00    -0.300 NA
HETATM   11 BR11 UNL     1     -34.580  18.012  -4.178  1.00 20.00    -0.051 Br
ENDROOT
TORSDOF 0
ENDMDL
MODEL 9
REMARK VINA RESULT:      -3.6     12.326     13.111
REMARK  0 active torsions:
REMARK  status: ('A' for Active; 'I' for Inactive)
ROOT
HETATM    1  C1  UNL     1     -35.674  18.189  -3.776  1.00 20.00     0.009 A 
HETATM    2  C2  UNL     1     -35.477  17.256  -4.797  1.00 20.00     0.019 A 
HETATM    3  C3  UNL     1     -33.482  16.443  -3.696  1.00 20.00     0.032 A 
HETATM    4  C4  UNL     1     -33.697  17.368  -2.677  1.00 20.00    -0.011 A 
HETATM    5  C5  UNL     1     -34.784  18.244  -2.702  1.00 20.00    -0.045 A 
HETATM    6  C6  UNL     1     -34.384  16.386  -4.756  1.00 20.00     0.011 A 
HETATM    7  C7  UNL     1     -32.760  17.482  -1.556  1.00 20.00     0.122 C 
HETATM    8  C8  UNL     1     -34.905  19.263  -1.610  1.00 20.00     0.061 C 
HETATM    9  C9  UNL     1     -34.346  18.698  -0.307  1.00 20.00     0.153 C 
HETATM   10  N10 UNL     1     -33.001  18.126  -0.463  1.00 20.00    -0.300 NA
HETATM   11 BR11 UNL     1     -34.124  15.135  -6.149  1.00 20.00    -0.051 Br
ENDROOT
TORSDOF 0
ENDMDL
