MODEL 1
REMARK VINA RESULT:      -3.7      0.000      0.000
REMARK  0 active torsions:
REMARK  status: ('A' for Active; 'I' for Inactive)
ROOT
HETATM    1  C1  UNL     1     -33.925   6.719   6.534  1.00 20.00    -0.027 A 
HETATM    2  C2  UNL     1     -34.008   7.261   5.306  1.00 20.00    -0.010 A 
HETATM    3  C3  UNL     1     -34.425   5.363   6.086  1.00 20.00     0.051 A 
HETATM    4  C4  UNL     1     -34.537   5.988   4.664  1.00 20.00     0.035 A 
HETATM    5  C5  UNL     1     -35.946   6.075   4.095  1.00 20.00     0.032 C 
HETATM    6 BR6  UNL     1     -33.269   5.268   3.361  1.00 20.00    -0.081 Br
ENDROOT
TORSDOF 0
ENDMDL
MODEL 2
REMARK VINA RESULT:      -3.6      0.873      1.785
REMARK  0 active torsions:
REMARK  status: ('A' for Active; 'I' for Inactive)
ROOT
HETATM    1  C1  UNL     1     -34.917   5.364   6.015  1.00 20.00    -0.027 A 
HETATM    2  C2  UNL     1     -33.639   5.760   5.885  1.00 20.00    -0.010 A 
HETATM    3  C3  UNL     1     -35.362   6.015   4.724  1.00 20.00     0.051 A 
HETATM    4  C4  UNL     1     -33.887   6.489   4.573  1.00 20.00     0.035 A 
HETATM    5  C5  UNL     1     -33.675   7.996   4.610  1.00 20.00     0.032 C 
HETATM    6 BR6  UNL     1     -32.913   5.653   3.098  1.00 20.00    -0.081 Br
ENDROOT
TORSDOF 0
ENDMDL
MODEL 3
REMARK VINA RESULT:      -3.4      1.628      2.133
REMARK  0 active torsions:
REMARK  status: ('A' for Active; 'I' for Inactive)
ROOT
HETATM    1  C1  UNL     1     -35.165   5.224   5.752  1.00 20.00    -0.027 A 
HETATM    2  C2  UNL     1     -35.305   5.952   4.630  1.00 20.00    -0.010 A 
HETATM    3  C3  UNL     1     -33.654   5.312   5.748  1.00 20.00     0.051 A 
HETATM    4  C4  UNL     1     -33.808   6.143   4.441  1.00 20.00     0.035 A 
HETATM    5  C5  UNL     1     -33.218   5.512   3.188  1.00 20.00     0.032 C 
HETATM    6 BR6  UNL     1     -33.303   8.025   4.613  1.00 20.00    -0.081 Br
ENDROOT
TORSDOF 0
ENDMDL
MODEL 4
REMARK VINA RESULT:      -3.2      1.674      2.231
REMARK  0 active torsions:
REMARK  status: ('A' for Active; 'I' for Inactive)
ROOT
HETATM    1  C1  UNL     1     -32.807   7.737   4.125  1.00 20.00    -0.027 A 
HETATM    2  C2  UNL     1     -33.132   6.449   3.921  1.00 20.00    -0.010 A 
HETATM    3  C3  UNL     1     -33.948   7.984   5.088  1.00 20.00     0.051 A 
HETATM    4  C4  UNL     1     -34.339   6.497   4.845  1.00 20.00     0.035 A 
HETATM    5  C5  UNL     1     -35.688   6.274   4.175  1.00 20.00     0.032 C 
HETATM    6 BR6  UNL     1     -34.095   5.331   6.395  1.00 20.00    -0.081 Br
ENDROOT
TORSDOF 0
ENDMDL
MODEL 5
REMARK VINA RESULT:      -3.1     16.242     17.184
REMARK  0 active torsions:
REMARK  status: ('A' for Active; 'I' for Inactive)
ROOT
HETATM    1  C1  UNL     1     -22.506  18.480  10.732  1.00 20.00    -0.027 A 
HETATM    2  C2  UNL     1     -22.868  18.193  11.995  1.00 20.00    -0.010 A 
HETATM    3  C3  UNL     1     -23.828  18.044  10.141  1.00 20.00     0.051 A 
HETATM    4  C4  UNL     1     -24.250  17.696  11.598  1.00 20.00     0.035 A 
HETATM    5  C5  UNL     1     -24.521  16.223  11.869  1.00 20.00     0.032 C 
HETATM    6 BR6  UNL     1     -25.656  18.842  12.330  1.00 20.00    -0.081 Br
ENDROOT
TORSDOF 0
ENDMDL
MODEL 6
REMARK VINA RESULT:      -3.0     16.355     17.279
REMARK  0 active torsions:
REMARK  status: ('A' for Active; 'I' for Inactive)
ROOT
HETATM    1  C1  UNL     1     -22.886  18.425   8.728  1.00 20.00    -0.027 A 
HETATM    2  C2  UNL     1     -22.367  17.486   9.538  1.00 20.00    -0.010 A 
HETATM    3  C3  UNL     1     -23.939  18.856   9.725  1.00 20.00     0.051 A 
HETATM    4  C4  UNL     1     -23.352  17.761  10.663  1.00 20.00     0.035 A 
HETATM    5  C5  UNL     1     -24.295  16.615  11.006  1.00 20.00     0.032 C 
HETATM    6 BR6  UNL     1     -22.444  18.455  12.250  1.00 20.00    -0.081 Br
ENDROOT
TORSDOF 0
ENDMDL
MODEL 7
REMARK VINA RESULT:      -3.0      8.414      9.401
REMARK  0 active torsions:
REMARK  status: ('A' for Active; 'I' for Inactive)
ROOT
HETATM    1  C1  UNL     1     -40.746   5.911  -0.419  1.00 20.00    -0.027 A 
HETATM    2  C2  UNL     1     -42.072   5.818  -0.621  1.00 20.00    -0.010 A 
HETATM    3  C3  UNL     1     -40.877   6.955   0.668  1.00 20.00     0.051 A 
HETATM    4  C4  UNL     1     -42.413   6.864   0.430  1.00 20.00     0.035 A 
HETATM    5  C5  UNL     1     -43.073   8.131  -0.094  1.00 20.00     0.032 C 
HETATM    6 BR6  UNL     1     -43.417   6.080   1.914  1.00 20.00    -0.081 Br
ENDROOT
TORSDOF 0
ENDMDL
MODEL 8
REMARK VINA RESULT:      -3.0     16.992     17.364
REMARK  0 active torsions:
REMARK  status: ('A' for Active; 'I' for Inactive)
ROOT
HETATM    1  C1  UNL     1     -23.454  18.765   9.222  1.00 20.00    -0.027 A 
HETATM    2  C2  UNL     1     -24.200  18.861  10.337  1.00 20.00    -0.010 A 
HETATM    3  C3  UNL     1     -22.474  17.788   9.833  1.00 20.00     0.051 A 
HETATM    4  C4  UNL     1     -23.324  17.905  11.132  1.00 20.00     0.035 A 
HETATM    5  C5  UNL     1     -22.610  18.511  12.332  1.00 20.00     0.032 C 
HETATM    6 BR6  UNL     1     -24.299  16.278  11.611  1.00 20.00    -0.081 Br
ENDROOT
TORSDOF 0
ENDMDL
MODEL 9
REMARK VINA RESULT:      -3.0      1.719      2.719
REMARK  0 active torsions:
REMARK  status: ('A' for Active; 'I' for Inactive)
ROOT
HETATM    1  C1  UNL     1     -32.836   8.467   3.793  1.00 20.00    -0.027 A 
HETATM    2  C2  UNL     1     -33.869   8.491   4.653  1.00 20.00    -0.010 A 
HETATM    3  C3  UNL     1     -32.568   6.991   3.990  1.00 20.00     0.051 A 
HETATM    4  C4  UNL     1     -33.754   7.014   4.998  1.00 20.00     0.035 A 
HETATM    5  C5  UNL     1     -33.393   6.704   6.444  1.00 20.00     0.032 C 
HETATM    6 BR6  UNL     1     -35.334   6.021   4.413  1.00 20.00    -0.081 Br
ENDROOT
TORSDOF 0
ENDMDL
