MODEL 1
REMARK VINA RESULT:      -5.7      0.000      0.000
REMARK  0 active torsions:
REMARK  status: ('A' for Active; 'I' for Inactive)
ROOT
HETATM    1  C1  UNL     1     -32.465   6.002   2.522  1.00 20.00     0.001 C 
HETATM    2  C2  UNL     1     -34.299   5.122   6.627  1.00 20.00     0.001 C 
HETATM    3  C3  UNL     1     -33.876   5.516   2.833  1.00 20.00     0.005 C 
HETATM    4  C4  UNL     1     -33.792   4.626   5.267  1.00 20.00     0.005 C 
HETATM    5  C5  UNL     1     -32.318   7.512   2.683  1.00 20.00     0.005 C 
HETATM    6  C6  UNL     1     -34.874   6.527   6.386  1.00 20.00     0.005 C 
HETATM    7  C7  UNL     1     -32.685   8.972   4.816  1.00 20.00     0.010 A 
HETATM    8  C8  UNL     1     -34.388   5.617   4.269  1.00 20.00    -0.010 C 
HETATM    9  C9  UNL     1     -31.985   7.859   4.090  1.00 20.00    -0.010 A 
HETATM   10  C10 UNL     1     -34.316   6.958   5.016  1.00 20.00    -0.006 C 
HETATM   11  C11 UNL     1     -32.934   7.537   5.213  1.00 20.00    -0.006 A 
ENDROOT
TORSDOF 0
ENDMDL
MODEL 2
REMARK VINA RESULT:      -5.6      0.779      3.356
REMARK  0 active torsions:
REMARK  status: ('A' for Active; 'I' for Inactive)
ROOT
HETATM    1  C1  UNL     1     -33.862   5.111   2.987  1.00 20.00     0.001 C 
HETATM    2  C2  UNL     1     -32.735   9.528   3.437  1.00 20.00     0.001 C 
HETATM    3  C3  UNL     1     -32.488   5.749   2.816  1.00 20.00     0.005 C 
HETATM    4  C4  UNL     1     -32.923   8.291   2.550  1.00 20.00     0.005 C 
HETATM    5  C5  UNL     1     -34.202   4.836   4.448  1.00 20.00     0.005 C 
HETATM    6  C6  UNL     1     -32.284   9.008   4.811  1.00 20.00     0.005 C 
HETATM    7  C7  UNL     1     -34.400   6.528   6.427  1.00 20.00     0.010 A 
HETATM    8  C8  UNL     1     -32.265   7.165   3.346  1.00 20.00    -0.010 C 
HETATM    9  C9  UNL     1     -34.826   6.031   5.075  1.00 20.00    -0.010 A 
HETATM   10  C10 UNL     1     -32.622   7.505   4.800  1.00 20.00    -0.006 C 
HETATM   11  C11 UNL     1     -34.073   7.329   5.189  1.00 20.00    -0.006 A 
ENDROOT
TORSDOF 0
ENDMDL
MODEL 3
REMARK VINA RESULT:      -5.2      1.030      2.166
REMARK  0 active torsions:
REMARK  status: ('A' for Active; 'I' for Inactive)
ROOT
HETATM    1  C1  UNL     1     -33.739   4.425   3.785  1.00 20.00     0.001 C 
HETATM    2  C2  UNL     1     -33.597   7.906   6.759  1.00 20.00     0.001 C 
HETATM    3  C3  UNL     1     -34.910   5.116   4.475  1.00 20.00     0.005 C 
HETATM    4  C4  UNL     1     -33.880   6.429   6.459  1.00 20.00     0.005 C 
HETATM    5  C5  UNL     1     -33.252   5.184   2.556  1.00 20.00     0.005 C 
HETATM    6  C6  UNL     1     -33.940   8.680   5.476  1.00 20.00     0.005 C 
HETATM    7  C7  UNL     1     -32.307   7.614   2.405  1.00 20.00     0.010 A 
HETATM    8  C8  UNL     1     -34.670   6.465   5.152  1.00 20.00    -0.010 C 
HETATM    9  C9  UNL     1     -32.247   6.212   2.939  1.00 20.00    -0.010 A 
HETATM   10  C10 UNL     1     -34.008   7.609   4.370  1.00 20.00    -0.006 C 
HETATM   11  C11 UNL     1     -32.610   7.346   3.860  1.00 20.00    -0.006 A 
ENDROOT
TORSDOF 0
ENDMDL
MODEL 4
REMARK VINA RESULT:      -4.8      1.022      3.537
REMARK  0 active torsions:
REMARK  status: ('A' for Active; 'I' for Inactive)
ROOT
HETATM    1  C1  UNL     1     -34.302   5.003   5.761  1.00 20.00     0.001 C 
HETATM    2  C2  UNL     1     -32.119   8.914   4.803  1.00 20.00     0.001 C 
HETATM    3  C3  UNL     1     -34.864   6.419   5.784  1.00 20.00     0.005 C 
HETATM    4  C4  UNL     1     -32.804   7.992   5.820  1.00 20.00     0.005 C 
HETATM    5  C5  UNL     1     -34.277   4.405   4.358  1.00 20.00     0.005 C 
HETATM    6  C6  UNL     1     -32.837   8.689   3.464  1.00 20.00     0.005 C 
HETATM    7  C7  UNL     1     -33.026   5.269   2.235  1.00 20.00     0.010 A 
HETATM    8  C8  UNL     1     -34.073   7.535   5.103  1.00 20.00    -0.010 C 
HETATM    9  C9  UNL     1     -33.021   4.774   3.653  1.00 20.00    -0.010 A 
HETATM   10  C10 UNL     1     -33.617   7.371   3.646  1.00 20.00    -0.006 C 
HETATM   11  C11 UNL     1     -32.688   6.213   3.365  1.00 20.00    -0.006 A 
ENDROOT
TORSDOF 0
ENDMDL
MODEL 5
REMARK VINA RESULT:      -4.1      1.021      4.008
REMARK  0 active torsions:
REMARK  status: ('A' for Active; 'I' for Inactive)
ROOT
HETATM    1  C1  UNL     1     -34.221   6.776   6.720  1.00 20.00     0.001 C 
HETATM    2  C2  UNL     1     -31.478   7.965   3.250  1.00 20.00     0.001 C 
HETATM    3  C3  UNL     1     -34.332   7.997   5.814  1.00 20.00     0.005 C 
HETATM    4  C4  UNL     1     -32.022   8.226   4.660  1.00 20.00     0.005 C 
HETATM    5  C5  UNL     1     -34.819   5.523   6.089  1.00 20.00     0.005 C 
HETATM    6  C6  UNL     1     -32.624   7.317   2.458  1.00 20.00     0.005 C 
HETATM    7  C7  UNL     1     -34.137   4.325   3.871  1.00 20.00     0.010 A 
HETATM    8  C8  UNL     1     -33.529   8.023   4.514  1.00 20.00    -0.010 C 
HETATM    9  C9  UNL     1     -33.809   4.826   5.248  1.00 20.00    -0.010 A 
HETATM   10  C10 UNL     1     -33.634   6.852   3.525  1.00 20.00    -0.006 C 
HETATM   11  C11 UNL     1     -33.204   5.500   4.046  1.00 20.00    -0.006 A 
ENDROOT
TORSDOF 0
ENDMDL
MODEL 6
REMARK VINA RESULT:      -4.1      1.043      3.023
REMARK  0 active torsions:
REMARK  status: ('A' for Active; 'I' for Inactive)
ROOT
HETATM    1  C1  UNL     1     -32.526   6.721   2.309  1.00 20.00     0.001 C 
HETATM    2  C2  UNL     1     -34.264   8.985   5.891  1.00 20.00     0.001 C 
HETATM    3  C3  UNL     1     -31.773   7.505   3.377  1.00 20.00     0.005 C 
HETATM    4  C4  UNL     1     -33.547   8.997   4.536  1.00 20.00     0.005 C 
HETATM    5  C5  UNL     1     -32.886   5.310   2.763  1.00 20.00     0.005 C 
HETATM    6  C6  UNL     1     -33.838   7.686   6.593  1.00 20.00     0.005 C 
HETATM    7  C7  UNL     1     -34.361   4.571   4.787  1.00 20.00     0.010 A 
HETATM    8  C8  UNL     1     -32.505   7.887   4.662  1.00 20.00    -0.010 C 
HETATM    9  C9  UNL     1     -34.183   5.309   3.491  1.00 20.00    -0.010 A 
HETATM   10  C10 UNL     1     -33.234   6.810   5.478  1.00 20.00    -0.006 C 
HETATM   11  C11 UNL     1     -34.354   6.082   4.771  1.00 20.00    -0.006 A 
ENDROOT
TORSDOF 0
ENDMDL
MODEL 7
REMARK VINA RESULT:      -4.0     12.121     13.666
REMARK  0 active torsions:
REMARK  status: ('A' for Active; 'I' for Inactive)
ROOT
HETATM    1  C1  UNL     1     -35.404  17.140  -5.730  1.00 20.00     0.001 C 
HETATM    2  C2  UNL     1     -34.186  18.021  -1.403  1.00 20.00     0.001 C 
HETATM    3  C3  UNL     1     -34.660  18.359  -5.196  1.00 20.00     0.005 C 
HETATM    4  C4  UNL     1     -35.044  18.347  -2.633  1.00 20.00     0.005 C 
HETATM    5  C5  UNL     1     -34.481  15.948  -5.964  1.00 20.00     0.005 C 
HETATM    6  C6  UNL     1     -32.850  17.485  -1.940  1.00 20.00     0.005 C 
HETATM    7  C7  UNL     1     -32.992  14.670  -4.241  1.00 20.00     0.010 A 
HETATM    8  C8  UNL     1     -34.055  18.294  -3.795  1.00 20.00    -0.010 C 
HETATM    9  C9  UNL     1     -34.333  15.147  -4.720  1.00 20.00    -0.010 A 
HETATM   10  C10 UNL     1     -33.125  17.132  -3.415  1.00 20.00    -0.006 C 
HETATM   11  C11 UNL     1     -33.728  15.747  -3.480  1.00 20.00    -0.006 A 
ENDROOT
TORSDOF 0
ENDMDL
MODEL 8
REMARK VINA RESULT:      -3.9     12.246     13.791
REMARK  0 active torsions:
REMARK  status: ('A' for Active; 'I' for Inactive)
ROOT
HETATM    1  C1  UNL     1     -33.404  16.436  -2.706  1.00 20.00     0.001 C 
HETATM    2  C2  UNL     1     -35.957  14.474  -5.963  1.00 20.00     0.001 C 
HETATM    3  C3  UNL     1     -32.941  15.529  -3.839  1.00 20.00     0.005 C 
HETATM    4  C4  UNL     1     -35.078  14.350  -4.713  1.00 20.00     0.005 C 
HETATM    5  C5  UNL     1     -33.582  17.884  -3.150  1.00 20.00     0.005 C 
HETATM    6  C6  UNL     1     -35.417  15.677  -6.753  1.00 20.00     0.005 C 
HETATM    7  C7  UNL     1     -35.170  18.848  -4.986  1.00 20.00     0.010 A 
HETATM    8  C8  UNL     1     -33.892  15.267  -5.006  1.00 20.00    -0.010 C 
HETATM    9  C9  UNL     1     -34.946  18.100  -3.703  1.00 20.00    -0.010 A 
HETATM   10  C10 UNL     1     -34.533  16.446  -5.752  1.00 20.00    -0.006 C 
HETATM   11  C11 UNL     1     -35.412  17.358  -4.927  1.00 20.00    -0.006 A 
ENDROOT
TORSDOF 0
ENDMDL
MODEL 9
REMARK VINA RESULT:      -3.9     12.286     14.357
REMARK  0 active torsions:
REMARK  status: ('A' for Active; 'I' for Inactive)
ROOT
HETATM    1  C1  UNL     1     -33.296  17.900  -3.054  1.00 20.00     0.001 C 
HETATM    2  C2  UNL     1     -35.020  17.557  -7.284  1.00 20.00     0.001 C 
HETATM    3  C3  UNL     1     -34.610  18.466  -3.579  1.00 20.00     0.005 C 
HETATM    4  C4  UNL     1     -34.416  18.413  -6.163  1.00 20.00     0.005 C 
HETATM    5  C5  UNL     1     -33.404  16.428  -2.668  1.00 20.00     0.005 C 
HETATM    6  C6  UNL     1     -35.817  16.440  -6.593  1.00 20.00     0.005 C 
HETATM    7  C7  UNL     1     -34.042  14.388  -4.168  1.00 20.00     0.010 A 
HETATM    8  C8  UNL     1     -35.154  17.948  -4.909  1.00 20.00    -0.010 C 
HETATM    9  C9  UNL     1     -33.156  15.557  -3.848  1.00 20.00    -0.010 A 
HETATM   10  C10 UNL     1     -35.318  16.437  -5.134  1.00 20.00    -0.006 C 
HETATM   11  C11 UNL     1     -34.055  15.611  -5.054  1.00 20.00    -0.006 A 
ENDROOT
TORSDOF 0
ENDMDL
