MODEL 1
REMARK VINA RESULT:      -4.6      0.000      0.000
REMARK  0 active torsions:
REMARK  status: ('A' for Active; 'I' for Inactive)
ROOT
HETATM    1  C1  UNL     1     -33.699   6.137   3.750  1.00 20.00    -0.064 A 
HETATM    2  C2  UNL     1     -33.032   5.343   2.935  1.00 20.00     0.016 C 
HETATM    3  C3  UNL     1     -33.571   8.401   5.351  1.00 20.00     0.017 A 
HETATM    4  C4  UNL     1     -32.428   7.972   4.540  1.00 20.00     0.017 A 
HETATM    5  C5  UNL     1     -34.733   6.170   4.671  1.00 20.00     0.099 A 
HETATM    6  C6  UNL     1     -33.838   7.477   4.180  1.00 20.00     0.000 A 
HETATM    7 BR7  UNL     1     -34.393   5.277   6.320  1.00 20.00    -0.085 Br
ENDROOT
TORSDOF 0
ENDMDL
MODEL 2
REMARK VINA RESULT:      -4.3      1.765      2.789
REMARK  0 active torsions:
REMARK  status: ('A' for Active; 'I' for Inactive)
ROOT
HETATM    1  C1  UNL     1     -33.450   7.459   4.686  1.00 20.00    -0.064 A 
HETATM    2  C2  UNL     1     -32.541   8.394   4.888  1.00 20.00     0.016 C 
HETATM    3  C3  UNL     1     -34.771   5.278   5.783  1.00 20.00     0.017 A 
HETATM    4  C4  UNL     1     -33.803   6.058   6.562  1.00 20.00     0.017 A 
HETATM    5  C5  UNL     1     -34.041   6.675   3.708  1.00 20.00     0.099 A 
HETATM    6  C6  UNL     1     -34.451   6.684   5.316  1.00 20.00     0.000 A 
HETATM    7 BR7  UNL     1     -32.929   5.321   2.959  1.00 20.00    -0.085 Br
ENDROOT
TORSDOF 0
ENDMDL
MODEL 3
REMARK VINA RESULT:      -4.0      1.890      3.165
REMARK  0 active torsions:
REMARK  status: ('A' for Active; 'I' for Inactive)
ROOT
HETATM    1  C1  UNL     1     -34.321   6.534   5.366  1.00 20.00    -0.064 A 
HETATM    2  C2  UNL     1     -34.490   6.404   6.668  1.00 20.00     0.016 C 
HETATM    3  C3  UNL     1     -33.509   5.277   3.028  1.00 20.00     0.017 A 
HETATM    4  C4  UNL     1     -33.551   4.561   4.307  1.00 20.00     0.017 A 
HETATM    5  C5  UNL     1     -34.031   7.450   4.368  1.00 20.00     0.099 A 
HETATM    6  C6  UNL     1     -34.378   5.845   4.132  1.00 20.00     0.000 A 
HETATM    7 BR7  UNL     1     -32.242   8.107   4.353  1.00 20.00    -0.085 Br
ENDROOT
TORSDOF 0
ENDMDL
MODEL 4
REMARK VINA RESULT:      -3.4      2.402      2.784
REMARK  0 active torsions:
REMARK  status: ('A' for Active; 'I' for Inactive)
ROOT
HETATM    1  C1  UNL     1     -32.688   6.508   3.282  1.00 20.00    -0.064 A 
HETATM    2  C2  UNL     1     -32.956   5.390   2.634  1.00 20.00     0.016 C 
HETATM    3  C3  UNL     1     -33.585   8.319   5.185  1.00 20.00     0.017 A 
HETATM    4  C4  UNL     1     -34.338   7.099   4.875  1.00 20.00     0.017 A 
HETATM    5  C5  UNL     1     -32.033   7.724   3.178  1.00 20.00     0.099 A 
HETATM    6  C6  UNL     1     -32.845   7.177   4.518  1.00 20.00     0.000 A 
HETATM    7 BR7  UNL     1     -32.811   8.975   1.969  1.00 20.00    -0.085 Br
ENDROOT
TORSDOF 0
ENDMDL
MODEL 5
REMARK VINA RESULT:      -3.3      2.137      2.638
REMARK  0 active torsions:
REMARK  status: ('A' for Active; 'I' for Inactive)
ROOT
HETATM    1  C1  UNL     1     -35.327   5.784   4.583  1.00 20.00    -0.064 A 
HETATM    2  C2  UNL     1     -36.383   6.283   3.969  1.00 20.00     0.016 C 
HETATM    3  C3  UNL     1     -33.290   6.284   6.401  1.00 20.00     0.017 A 
HETATM    4  C4  UNL     1     -34.324   7.284   6.117  1.00 20.00     0.017 A 
HETATM    5  C5  UNL     1     -34.291   4.874   4.452  1.00 20.00     0.099 A 
HETATM    6  C6  UNL     1     -34.592   5.805   5.791  1.00 20.00     0.000 A 
HETATM    7 BR7  UNL     1     -32.947   5.338   3.182  1.00 20.00    -0.085 Br
ENDROOT
TORSDOF 0
ENDMDL
MODEL 6
REMARK VINA RESULT:      -3.2      1.437      2.651
REMARK  0 active torsions:
REMARK  status: ('A' for Active; 'I' for Inactive)
ROOT
HETATM    1  C1  UNL     1     -33.432   8.019   5.330  1.00 20.00    -0.064 A 
HETATM    2  C2  UNL     1     -33.983   9.042   5.954  1.00 20.00     0.016 C 
HETATM    3  C3  UNL     1     -32.319   7.121   2.951  1.00 20.00     0.017 A 
HETATM    4  C4  UNL     1     -32.754   8.512   3.115  1.00 20.00     0.017 A 
HETATM    5  C5  UNL     1     -33.409   6.635   5.267  1.00 20.00     0.099 A 
HETATM    6  C6  UNL     1     -32.467   7.657   4.361  1.00 20.00     0.000 A 
HETATM    7 BR7  UNL     1     -34.981   5.820   4.561  1.00 20.00    -0.085 Br
ENDROOT
TORSDOF 0
ENDMDL
MODEL 7
REMARK VINA RESULT:      -3.2      9.204     10.143
REMARK  0 active torsions:
REMARK  status: ('A' for Active; 'I' for Inactive)
ROOT
HETATM    1  C1  UNL     1     -41.519  13.828   5.378  1.00 20.00    -0.064 A 
HETATM    2  C2  UNL     1     -42.108  14.348   4.319  1.00 20.00     0.016 C 
HETATM    3  C3  UNL     1     -39.697  11.941   6.286  1.00 20.00     0.017 A 
HETATM    4  C4  UNL     1     -39.938  12.144   4.854  1.00 20.00     0.017 A 
HETATM    5  C5  UNL     1     -41.689  13.561   6.727  1.00 20.00     0.099 A 
HETATM    6  C6  UNL     1     -40.315  13.253   5.849  1.00 20.00     0.000 A 
HETATM    7 BR7  UNL     1     -42.949  12.192   7.140  1.00 20.00    -0.085 Br
ENDROOT
TORSDOF 0
ENDMDL
MODEL 8
REMARK VINA RESULT:      -3.2     15.664     16.526
REMARK  0 active torsions:
REMARK  status: ('A' for Active; 'I' for Inactive)
ROOT
HETATM    1  C1  UNL     1     -24.263  19.005   9.554  1.00 20.00    -0.064 A 
HETATM    2  C2  UNL     1     -25.283  19.263   8.758  1.00 20.00     0.016 C 
HETATM    3  C3  UNL     1     -21.599  18.235   9.681  1.00 20.00     0.017 A 
HETATM    4  C4  UNL     1     -22.275  18.443   8.396  1.00 20.00     0.017 A 
HETATM    5  C5  UNL     1     -23.925  18.541  10.814  1.00 20.00     0.099 A 
HETATM    6  C6  UNL     1     -22.855  19.083   9.668  1.00 20.00     0.000 A 
HETATM    7 BR7  UNL     1     -24.228  16.683  11.113  1.00 20.00    -0.085 Br
ENDROOT
TORSDOF 0
ENDMDL
MODEL 9
REMARK VINA RESULT:      -3.2     16.050     16.487
REMARK  0 active torsions:
REMARK  status: ('A' for Active; 'I' for Inactive)
ROOT
HETATM    1  C1  UNL     1     -22.680  17.518   9.668  1.00 20.00    -0.064 A 
HETATM    2  C2  UNL     1     -21.586  17.385   8.942  1.00 20.00     0.016 C 
HETATM    3  C3  UNL     1     -25.011  18.976  10.046  1.00 20.00     0.017 A 
HETATM    4  C4  UNL     1     -24.101  19.263   8.932  1.00 20.00     0.017 A 
HETATM    5  C5  UNL     1     -23.204  17.324  10.936  1.00 20.00     0.099 A 
HETATM    6  C6  UNL     1     -24.043  17.890   9.622  1.00 20.00     0.000 A 
HETATM    7 BR7  UNL     1     -22.538  18.492  12.287  1.00 20.00    -0.085 Br
ENDROOT
TORSDOF 0
ENDMDL
