MODEL 1
REMARK VINA RESULT:      -4.5      0.000      0.000
REMARK  1 active torsions:
REMARK  status: ('A' for Active; 'I' for Inactive)
REMARK    1  A    between atoms: C3_3  and  C6_6 
ROOT
HETATM    1  C1  UNL     1     -32.891   9.831   1.116  1.00 20.00     0.013 C 
HETATM    2  C2  UNL     1     -32.757   9.189   2.121  1.00 20.00    -0.107 C 
HETATM    3  C5  UNL     1     -32.083   7.003   3.185  1.00 20.00     0.033 A 
HETATM    4  C6  UNL     1     -33.535   7.233   3.505  1.00 20.00     0.030 A 
HETATM    5  C7  UNL     1     -32.596   8.418   3.330  1.00 20.00     0.027 A 
HETATM    6  C10 UNL     1     -32.130   9.212   4.522  1.00 20.00     0.030 C 
ENDROOT
BRANCH   4   7
HETATM    7  C3  UNL     1     -34.036   6.863   4.821  1.00 20.00    -0.018 C 
HETATM    8  C4  UNL     1     -34.328   5.628   5.275  1.00 20.00    -0.091 C 
HETATM    9  C8  UNL     1     -34.840   5.414   6.672  1.00 20.00     0.042 C 
HETATM   10  C9  UNL     1     -34.177   4.379   4.454  1.00 20.00     0.042 C 
ENDBRANCH   4   7
TORSDOF 1
ENDMDL
MODEL 2
REMARK VINA RESULT:      -4.0     11.469     12.300
REMARK  1 active torsions:
REMARK  status: ('A' for Active; 'I' for Inactive)
REMARK    1  A    between atoms: C3_3  and  C6_6 
ROOT
HETATM    1  C1  UNL     1     -34.170  19.263   1.647  1.00 20.00     0.013 C 
HETATM    2  C2  UNL     1     -33.627  18.911   0.636  1.00 20.00    -0.107 C 
HETATM    3  C5  UNL     1     -33.425  19.138  -1.868  1.00 20.00     0.033 A 
HETATM    4  C6  UNL     1     -33.831  17.719  -1.574  1.00 20.00     0.030 A 
HETATM    5  C7  UNL     1     -32.974  18.489  -0.579  1.00 20.00     0.027 A 
HETATM    6  C10 UNL     1     -31.508  18.180  -0.427  1.00 20.00     0.030 C 
ENDROOT
BRANCH   4   7
HETATM    7  C3  UNL     1     -33.265  16.642  -2.373  1.00 20.00    -0.018 C 
HETATM    8  C4  UNL     1     -33.645  16.239  -3.601  1.00 20.00    -0.091 C 
HETATM    9  C8  UNL     1     -32.951  15.101  -4.295  1.00 20.00     0.042 C 
HETATM   10  C9  UNL     1     -34.767  16.869  -4.377  1.00 20.00     0.042 C 
ENDBRANCH   4   7
TORSDOF 1
ENDMDL
MODEL 3
REMARK VINA RESULT:      -4.0     10.660     12.265
REMARK  1 active torsions:
REMARK  status: ('A' for Active; 'I' for Inactive)
REMARK    1  A    between atoms: C3_3  and  C6_6 
ROOT
HETATM    1  C1  UNL     1     -31.123  18.396  -0.187  1.00 20.00     0.013 C 
HETATM    2  C2  UNL     1     -31.919  18.248  -1.072  1.00 20.00    -0.107 C 
HETATM    3  C5  UNL     1     -34.116  17.262  -1.826  1.00 20.00     0.033 A 
HETATM    4  C6  UNL     1     -33.033  16.655  -2.676  1.00 20.00     0.030 A 
HETATM    5  C7  UNL     1     -32.876  18.070  -2.137  1.00 20.00     0.027 A 
HETATM    6  C10 UNL     1     -33.027  19.261  -3.048  1.00 20.00     0.030 C 
ENDROOT
BRANCH   4   7
HETATM    7  C3  UNL     1     -33.293  16.417  -4.088  1.00 20.00    -0.018 C 
HETATM    8  C4  UNL     1     -33.831  15.318  -4.654  1.00 20.00    -0.091 C 
HETATM    9  C8  UNL     1     -34.035  15.229  -6.140  1.00 20.00     0.042 C 
HETATM   10  C9  UNL     1     -34.268  14.108  -3.877  1.00 20.00     0.042 C 
ENDBRANCH   4   7
TORSDOF 1
ENDMDL
MODEL 4
REMARK VINA RESULT:      -3.8      9.799     10.597
REMARK  1 active torsions:
REMARK  status: ('A' for Active; 'I' for Inactive)
REMARK    1  A    between atoms: C3_3  and  C6_6 
ROOT
HETATM    1  C1  UNL     1     -41.472  15.831   8.793  1.00 20.00     0.013 C 
HETATM    2  C2  UNL     1     -41.652  15.111   7.851  1.00 20.00    -0.107 C 
HETATM    3  C5  UNL     1     -42.427  12.867   6.996  1.00 20.00     0.033 A 
HETATM    4  C6  UNL     1     -40.977  13.016   6.625  1.00 20.00     0.030 A 
HETATM    5  C7  UNL     1     -41.870  14.245   6.718  1.00 20.00     0.027 A 
HETATM    6  C10 UNL     1     -42.338  14.950   5.472  1.00 20.00     0.030 C 
ENDROOT
BRANCH   4   7
HETATM    7  C3  UNL     1     -40.522  12.516   5.336  1.00 20.00    -0.018 C 
HETATM    8  C4  UNL     1     -39.282  12.111   4.999  1.00 20.00    -0.091 C 
HETATM    9  C8  UNL     1     -38.974  11.617   3.614  1.00 20.00     0.042 C 
HETATM   10  C9  UNL     1     -38.116  12.113   5.948  1.00 20.00     0.042 C 
ENDBRANCH   4   7
TORSDOF 1
ENDMDL
MODEL 5
REMARK VINA RESULT:      -3.8      9.687     10.470
REMARK  1 active torsions:
REMARK  status: ('A' for Active; 'I' for Inactive)
REMARK    1  A    between atoms: C3_3  and  C6_6 
ROOT
HETATM    1  C1  UNL     1     -39.037  11.659   3.539  1.00 20.00     0.013 C 
HETATM    2  C2  UNL     1     -39.381  12.000   4.637  1.00 20.00    -0.107 C 
HETATM    3  C5  UNL     1     -41.269  12.311   6.281  1.00 20.00     0.033 A 
HETATM    4  C6  UNL     1     -40.655  13.663   6.037  1.00 20.00     0.030 A 
HETATM    5  C7  UNL     1     -39.796  12.409   5.957  1.00 20.00     0.027 A 
HETATM    6  C10 UNL     1     -38.815  12.077   7.051  1.00 20.00     0.030 C 
ENDROOT
BRANCH   4   7
HETATM    7  C3  UNL     1     -40.523  14.590   7.151  1.00 20.00    -0.018 C 
HETATM    8  C4  UNL     1     -41.147  15.772   7.318  1.00 20.00    -0.091 C 
HETATM    9  C8  UNL     1     -40.900  16.618   8.536  1.00 20.00     0.042 C 
HETATM   10  C9  UNL     1     -42.126  16.347   6.333  1.00 20.00     0.042 C 
ENDBRANCH   4   7
TORSDOF 1
ENDMDL
MODEL 6
REMARK VINA RESULT:      -3.7     10.728     11.480
REMARK  1 active torsions:
REMARK  status: ('A' for Active; 'I' for Inactive)
REMARK    1  A    between atoms: C3_3  and  C6_6 
ROOT
HETATM    1  C1  UNL     1     -39.468  11.645   5.401  1.00 20.00     0.013 C 
HETATM    2  C2  UNL     1     -40.410  12.298   5.756  1.00 20.00    -0.107 C 
HETATM    3  C5  UNL     1     -42.031  14.162   5.242  1.00 20.00     0.033 A 
HETATM    4  C6  UNL     1     -41.273  14.552   6.481  1.00 20.00     0.030 A 
HETATM    5  C7  UNL     1     -41.542  13.084   6.183  1.00 20.00     0.027 A 
HETATM    6  C10 UNL     1     -42.576  12.317   6.966  1.00 20.00     0.030 C 
ENDROOT
BRANCH   4   7
HETATM    7  C3  UNL     1     -41.977  15.239   7.554  1.00 20.00    -0.018 C 
HETATM    8  C4  UNL     1     -41.534  15.494   8.801  1.00 20.00    -0.091 C 
HETATM    9  C8  UNL     1     -42.392  16.221   9.798  1.00 20.00     0.042 C 
HETATM   10  C9  UNL     1     -40.177  15.088   9.304  1.00 20.00     0.042 C 
ENDBRANCH   4   7
TORSDOF 1
ENDMDL
MODEL 7
REMARK VINA RESULT:      -3.6     10.649     11.484
REMARK  1 active torsions:
REMARK  status: ('A' for Active; 'I' for Inactive)
REMARK    1  A    between atoms: C3_3  and  C6_6 
ROOT
HETATM    1  C1  UNL     1     -39.492  11.768   4.691  1.00 20.00     0.013 C 
HETATM    2  C2  UNL     1     -40.275  12.388   5.356  1.00 20.00    -0.107 C 
HETATM    3  C5  UNL     1     -41.660  14.479   5.628  1.00 20.00     0.033 A 
HETATM    4  C6  UNL     1     -40.700  14.419   6.785  1.00 20.00     0.030 A 
HETATM    5  C7  UNL     1     -41.216  13.133   6.156  1.00 20.00     0.027 A 
HETATM    6  C10 UNL     1     -42.241  12.287   6.866  1.00 20.00     0.030 C 
ENDROOT
BRANCH   4   7
HETATM    7  C3  UNL     1     -41.153  14.842   8.102  1.00 20.00    -0.018 C 
HETATM    8  C4  UNL     1     -41.193  16.095   8.597  1.00 20.00    -0.091 C 
HETATM    9  C8  UNL     1     -41.693  16.366   9.988  1.00 20.00     0.042 C 
HETATM   10  C9  UNL     1     -40.754  17.310   7.830  1.00 20.00     0.042 C 
ENDBRANCH   4   7
TORSDOF 1
ENDMDL
MODEL 8
REMARK VINA RESULT:      -3.6     12.643     14.335
REMARK  1 active torsions:
REMARK  status: ('A' for Active; 'I' for Inactive)
REMARK    1  A    between atoms: C3_3  and  C6_6 
ROOT
HETATM    1  C1  UNL     1     -23.159  -3.294   7.832  1.00 20.00     0.013 C 
HETATM    2  C2  UNL     1     -23.683  -3.231   8.909  1.00 20.00    -0.107 C 
HETATM    3  C5  UNL     1     -25.325  -4.225  10.547  1.00 20.00     0.033 A 
HETATM    4  C6  UNL     1     -25.802  -2.838  10.215  1.00 20.00     0.030 A 
HETATM    5  C7  UNL     1     -24.313  -3.155  10.205  1.00 20.00     0.027 A 
HETATM    6  C10 UNL     1     -23.415  -2.663  11.310  1.00 20.00     0.030 C 
ENDROOT
BRANCH   4   7
HETATM    7  C3  UNL     1     -26.386  -2.020  11.269  1.00 20.00    -0.018 C 
HETATM    8  C4  UNL     1     -27.239  -0.986  11.133  1.00 20.00    -0.091 C 
HETATM    9  C8  UNL     1     -27.754  -0.240  12.331  1.00 20.00     0.042 C 
HETATM   10  C9  UNL     1     -27.745  -0.489   9.808  1.00 20.00     0.042 C 
ENDBRANCH   4   7
TORSDOF 1
ENDMDL
MODEL 9
REMARK VINA RESULT:      -3.5      1.144      4.754
REMARK  1 active torsions:
REMARK  status: ('A' for Active; 'I' for Inactive)
REMARK    1  A    between atoms: C3_3  and  C6_6 
ROOT
HETATM    1  C1  UNL     1     -34.780   5.389   7.081  1.00 20.00     0.013 C 
HETATM    2  C2  UNL     1     -34.674   5.454   5.888  1.00 20.00    -0.107 C 
HETATM    3  C5  UNL     1     -33.955   4.334   3.744  1.00 20.00     0.033 A 
HETATM    4  C6  UNL     1     -33.129   5.582   3.901  1.00 20.00     0.030 A 
HETATM    5  C7  UNL     1     -34.547   5.532   4.453  1.00 20.00     0.027 A 
HETATM    6  C10 UNL     1     -35.666   6.269   3.764  1.00 20.00     0.030 C 
ENDROOT
BRANCH   4   7
HETATM    7  C3  UNL     1     -32.812   6.373   2.722  1.00 20.00    -0.018 C 
HETATM    8  C4  UNL     1     -32.403   7.656   2.675  1.00 20.00    -0.091 C 
HETATM    9  C8  UNL     1     -32.114   8.333   1.365  1.00 20.00     0.042 C 
HETATM   10  C9  UNL     1     -32.201   8.513   3.893  1.00 20.00     0.042 C 
ENDBRANCH   4   7
TORSDOF 1
ENDMDL
