MODEL 1
REMARK VINA RESULT:      -3.9      0.000      0.000
REMARK  0 active torsions:
REMARK  status: ('A' for Active; 'I' for Inactive)
ROOT
HETATM    1  C1  UNL     1     -34.292   6.011   5.767  1.00 20.00    -0.087 C 
HETATM    2  C2  UNL     1     -34.921   5.051   6.446  1.00 20.00     0.014 C 
HETATM    3  C3  UNL     1     -33.610   7.296   6.182  1.00 20.00     0.049 C 
HETATM    4  C4  UNL     1     -33.985   6.210   4.299  1.00 20.00     0.049 C 
HETATM    5  C5  UNL     1     -33.809   7.698   4.699  1.00 20.00     0.065 C 
HETATM    6 BR6  UNL     1     -32.309   8.609   3.875  1.00 20.00    -0.091 Br
ENDROOT
TORSDOF 0
ENDMDL
MODEL 2
REMARK VINA RESULT:      -3.9      2.251      3.365
REMARK  0 active torsions:
REMARK  status: ('A' for Active; 'I' for Inactive)
ROOT
HETATM    1  C1  UNL     1     -32.781   8.142   4.869  1.00 20.00    -0.087 C 
HETATM    2  C2  UNL     1     -32.086   9.279   4.877  1.00 20.00     0.014 C 
HETATM    3  C3  UNL     1     -32.973   7.052   3.837  1.00 20.00     0.049 C 
HETATM    4  C4  UNL     1     -33.661   7.458   5.893  1.00 20.00     0.049 C 
HETATM    5  C5  UNL     1     -34.235   6.703   4.666  1.00 20.00     0.065 C 
HETATM    6 BR6  UNL     1     -34.560   4.810   4.931  1.00 20.00    -0.091 Br
ENDROOT
TORSDOF 0
ENDMDL
MODEL 3
REMARK VINA RESULT:      -3.8      2.311      3.493
REMARK  0 active torsions:
REMARK  status: ('A' for Active; 'I' for Inactive)
ROOT
HETATM    1  C1  UNL     1     -32.780   7.465   3.747  1.00 20.00    -0.087 C 
HETATM    2  C2  UNL     1     -32.073   8.150   2.848  1.00 20.00     0.014 C 
HETATM    3  C3  UNL     1     -33.442   6.105   3.726  1.00 20.00     0.049 C 
HETATM    4  C4  UNL     1     -33.207   7.756   5.170  1.00 20.00     0.049 C 
HETATM    5  C5  UNL     1     -34.277   6.664   4.906  1.00 20.00     0.065 C 
HETATM    6 BR6  UNL     1     -34.582   5.428   6.368  1.00 20.00    -0.091 Br
ENDROOT
TORSDOF 0
ENDMDL
MODEL 4
REMARK VINA RESULT:      -3.7      0.855      1.517
REMARK  0 active torsions:
REMARK  status: ('A' for Active; 'I' for Inactive)
ROOT
HETATM    1  C1  UNL     1     -34.126   6.502   5.422  1.00 20.00    -0.087 C 
HETATM    2  C2  UNL     1     -34.734   5.733   6.325  1.00 20.00     0.014 C 
HETATM    3  C3  UNL     1     -33.678   6.268   3.996  1.00 20.00     0.049 C 
HETATM    4  C4  UNL     1     -33.641   7.935   5.439  1.00 20.00     0.049 C 
HETATM    5  C5  UNL     1     -32.753   7.485   4.251  1.00 20.00     0.065 C 
HETATM    6 BR6  UNL     1     -32.618   8.749   2.787  1.00 20.00    -0.091 Br
ENDROOT
TORSDOF 0
ENDMDL
MODEL 5
REMARK VINA RESULT:      -3.4      2.135      3.088
REMARK  0 active torsions:
REMARK  status: ('A' for Active; 'I' for Inactive)
ROOT
HETATM    1  C1  UNL     1     -33.337   5.467   3.230  1.00 20.00    -0.087 C 
HETATM    2  C2  UNL     1     -32.945   4.935   2.072  1.00 20.00     0.014 C 
HETATM    3  C3  UNL     1     -34.193   4.956   4.368  1.00 20.00     0.049 C 
HETATM    4  C4  UNL     1     -33.082   6.802   3.896  1.00 20.00     0.049 C 
HETATM    5  C5  UNL     1     -34.350   6.457   4.719  1.00 20.00     0.065 C 
HETATM    6 BR6  UNL     1     -34.257   6.884   6.608  1.00 20.00    -0.091 Br
ENDROOT
TORSDOF 0
ENDMDL
MODEL 6
REMARK VINA RESULT:      -3.3      2.266      3.328
REMARK  0 active torsions:
REMARK  status: ('A' for Active; 'I' for Inactive)
ROOT
HETATM    1  C1  UNL     1     -33.016   8.158   4.033  1.00 20.00    -0.087 C 
HETATM    2  C2  UNL     1     -32.484   9.075   3.224  1.00 20.00     0.014 C 
HETATM    3  C3  UNL     1     -33.698   8.238   5.382  1.00 20.00     0.049 C 
HETATM    4  C4  UNL     1     -33.173   6.656   3.936  1.00 20.00     0.049 C 
HETATM    5  C5  UNL     1     -33.344   6.732   5.475  1.00 20.00     0.065 C 
HETATM    6 BR6  UNL     1     -34.730   5.596   6.215  1.00 20.00    -0.091 Br
ENDROOT
TORSDOF 0
ENDMDL
MODEL 7
REMARK VINA RESULT:      -3.2      1.828      2.182
REMARK  0 active torsions:
REMARK  status: ('A' for Active; 'I' for Inactive)
ROOT
HETATM    1  C1  UNL     1     -34.187   6.405   5.768  1.00 20.00    -0.087 C 
HETATM    2  C2  UNL     1     -34.535   6.880   6.964  1.00 20.00     0.014 C 
HETATM    3  C3  UNL     1     -33.496   7.020   4.571  1.00 20.00     0.049 C 
HETATM    4  C4  UNL     1     -34.325   5.049   5.111  1.00 20.00     0.049 C 
HETATM    5  C5  UNL     1     -34.135   5.842   3.792  1.00 20.00     0.065 C 
HETATM    6 BR6  UNL     1     -32.991   5.001   2.472  1.00 20.00    -0.091 Br
ENDROOT
TORSDOF 0
ENDMDL
MODEL 8
REMARK VINA RESULT:      -3.2      8.474      9.010
REMARK  0 active torsions:
REMARK  status: ('A' for Active; 'I' for Inactive)
ROOT
HETATM    1  C1  UNL     1     -39.621  12.152   4.849  1.00 20.00    -0.087 C 
HETATM    2  C2  UNL     1     -38.955  11.575   3.848  1.00 20.00     0.014 C 
HETATM    3  C3  UNL     1     -39.479  12.100   6.354  1.00 20.00     0.049 C 
HETATM    4  C4  UNL     1     -40.791  13.111   4.898  1.00 20.00     0.049 C 
HETATM    5  C5  UNL     1     -40.945  12.604   6.355  1.00 20.00     0.065 C 
HETATM    6 BR6  UNL     1     -41.356  13.966   7.671  1.00 20.00    -0.091 Br
ENDROOT
TORSDOF 0
ENDMDL
MODEL 9
REMARK VINA RESULT:      -3.0     12.941     13.470
REMARK  0 active torsions:
REMARK  status: ('A' for Active; 'I' for Inactive)
ROOT
HETATM    1  C1  UNL     1     -33.593  16.521  -3.254  1.00 20.00    -0.087 C 
HETATM    2  C2  UNL     1     -33.303  16.954  -2.027  1.00 20.00     0.014 C 
HETATM    3  C3  UNL     1     -34.377  17.115  -4.403  1.00 20.00     0.049 C 
HETATM    4  C4  UNL     1     -33.251  15.259  -4.015  1.00 20.00     0.049 C 
HETATM    5  C5  UNL     1     -34.464  15.649  -4.899  1.00 20.00     0.065 C 
HETATM    6 BR6  UNL     1     -34.220  15.399  -6.805  1.00 20.00    -0.091 Br
ENDROOT
TORSDOF 0
ENDMDL
