MODEL 1
REMARK VINA RESULT:      -4.3      0.000      0.000
REMARK  0 active torsions:
REMARK  status: ('A' for Active; 'I' for Inactive)
ROOT
HETATM    1  C1  UNL     1     -24.358  18.525   9.583  1.00 20.00    -0.059 A 
HETATM    2  C2  UNL     1     -24.812  18.518  10.853  1.00 20.00    -0.055 A 
HETATM    3  C3  UNL     1     -23.289  17.482   9.852  1.00 20.00     0.138 A 
HETATM    4  C4  UNL     1     -23.727  17.553  11.351  1.00 20.00     0.077 A 
HETATM    5  C5  UNL     1     -24.804  19.263   8.305  1.00 20.00     0.045 C 
HETATM    6  C6  UNL     1     -25.960  19.262  11.571  1.00 20.00     0.046 C 
HETATM    7  C7  UNL     1     -22.748  18.210  12.332  1.00 20.00     0.039 C 
HETATM    8 CL8  UNL     1     -21.581  17.867   9.376  1.00 20.00    -0.118 Cl
HETATM    9 CL9  UNL     1     -24.335  15.990  12.042  1.00 20.00    -0.113 Cl
ENDROOT
TORSDOF 0
ENDMDL
MODEL 2
REMARK VINA RESULT:      -3.8     16.181     16.665
REMARK  0 active torsions:
REMARK  status: ('A' for Active; 'I' for Inactive)
ROOT
HETATM    1  C1  UNL     1     -33.012   7.209   4.143  1.00 20.00    -0.059 A 
HETATM    2  C2  UNL     1     -33.877   6.973   5.150  1.00 20.00    -0.055 A 
HETATM    3  C3  UNL     1     -33.655   6.193   3.216  1.00 20.00     0.138 A 
HETATM    4  C4  UNL     1     -34.588   5.827   4.417  1.00 20.00     0.077 A 
HETATM    5  C5  UNL     1     -31.842   8.197   3.963  1.00 20.00     0.045 C 
HETATM    6  C6  UNL     1     -34.051   7.580   6.559  1.00 20.00     0.046 C 
HETATM    7  C7  UNL     1     -34.364   4.463   5.081  1.00 20.00     0.039 C 
HETATM    8 CL8  UNL     1     -32.593   4.931   2.462  1.00 20.00    -0.118 Cl
HETATM    9 CL9  UNL     1     -36.357   6.080   4.111  1.00 20.00    -0.113 Cl
ENDROOT
TORSDOF 0
ENDMDL
MODEL 3
REMARK VINA RESULT:      -3.4     15.832     16.488
REMARK  0 active torsions:
REMARK  status: ('A' for Active; 'I' for Inactive)
ROOT
HETATM    1  C1  UNL     1     -32.692   7.198   3.973  1.00 20.00    -0.059 A 
HETATM    2  C2  UNL     1     -33.273   6.022   3.659  1.00 20.00    -0.055 A 
HETATM    3  C3  UNL     1     -33.483   7.362   5.258  1.00 20.00     0.138 A 
HETATM    4  C4  UNL     1     -34.248   6.062   4.844  1.00 20.00     0.077 A 
HETATM    5  C5  UNL     1     -31.578   8.037   3.314  1.00 20.00     0.045 C 
HETATM    6  C6  UNL     1     -33.083   5.026   2.494  1.00 20.00     0.046 C 
HETATM    7  C7  UNL     1     -35.709   6.224   4.409  1.00 20.00     0.039 C 
HETATM    8 CL8  UNL     1     -34.386   8.915   5.512  1.00 20.00    -0.118 Cl
HETATM    9 CL9  UNL     1     -34.102   4.687   6.017  1.00 20.00    -0.113 Cl
ENDROOT
TORSDOF 0
ENDMDL
MODEL 4
REMARK VINA RESULT:      -3.3     17.863     19.592
REMARK  0 active torsions:
REMARK  status: ('A' for Active; 'I' for Inactive)
ROOT
HETATM    1  C1  UNL     1     -34.040  16.088  -4.355  1.00 20.00    -0.059 A 
HETATM    2  C2  UNL     1     -34.346  16.945  -5.351  1.00 20.00    -0.055 A 
HETATM    3  C3  UNL     1     -34.377  14.855  -5.174  1.00 20.00     0.138 A 
HETATM    4  C4  UNL     1     -34.847  15.841  -6.293  1.00 20.00     0.077 A 
HETATM    5  C5  UNL     1     -33.482  16.278  -2.930  1.00 20.00     0.045 C 
HETATM    6  C6  UNL     1     -34.285  18.482  -5.480  1.00 20.00     0.046 C 
HETATM    7  C7  UNL     1     -36.355  15.923  -6.560  1.00 20.00     0.039 C 
HETATM    8 CL8  UNL     1     -35.534  13.650  -4.468  1.00 20.00    -0.118 Cl
HETATM    9 CL9  UNL     1     -33.951  15.694  -7.863  1.00 20.00    -0.113 Cl
ENDROOT
TORSDOF 0
ENDMDL
MODEL 5
REMARK VINA RESULT:      -3.2     16.739     18.438
REMARK  0 active torsions:
REMARK  status: ('A' for Active; 'I' for Inactive)
ROOT
HETATM    1  C1  UNL     1     -34.036  15.918  -4.277  1.00 20.00    -0.059 A 
HETATM    2  C2  UNL     1     -33.804  16.938  -3.426  1.00 20.00    -0.055 A 
HETATM    3  C3  UNL     1     -34.452  16.828  -5.418  1.00 20.00     0.138 A 
HETATM    4  C4  UNL     1     -34.302  18.011  -4.406  1.00 20.00     0.077 A 
HETATM    5  C5  UNL     1     -33.870  14.388  -4.164  1.00 20.00     0.045 C 
HETATM    6  C6  UNL     1     -33.293  17.008  -1.971  1.00 20.00     0.046 C 
HETATM    7  C7  UNL     1     -35.592  18.694  -3.938  1.00 20.00     0.039 C 
HETATM    8 CL8  UNL     1     -36.044  16.510  -6.228  1.00 20.00    -0.118 Cl
HETATM    9 CL9  UNL     1     -33.077  19.263  -4.874  1.00 20.00    -0.113 Cl
ENDROOT
TORSDOF 0
ENDMDL
MODEL 6
REMARK VINA RESULT:      -3.2     17.103     18.820
REMARK  0 active torsions:
REMARK  status: ('A' for Active; 'I' for Inactive)
ROOT
HETATM    1  C1  UNL     1     -33.921  16.866  -3.598  1.00 20.00    -0.059 A 
HETATM    2  C2  UNL     1     -34.712  17.693  -4.311  1.00 20.00    -0.055 A 
HETATM    3  C3  UNL     1     -33.937  15.775  -4.653  1.00 20.00     0.138 A 
HETATM    4  C4  UNL     1     -34.950  16.675  -5.435  1.00 20.00     0.077 A 
HETATM    5  C5  UNL     1     -33.200  17.000  -2.241  1.00 20.00     0.045 C 
HETATM    6  C6  UNL     1     -35.248  19.120  -4.062  1.00 20.00     0.046 C 
HETATM    7  C7  UNL     1     -36.402  16.189  -5.503  1.00 20.00     0.039 C 
HETATM    8 CL8  UNL     1     -34.405  14.098  -4.142  1.00 20.00    -0.118 Cl
HETATM    9 CL9  UNL     1     -34.394  17.192  -7.082  1.00 20.00    -0.113 Cl
ENDROOT
TORSDOF 0
ENDMDL
MODEL 7
REMARK VINA RESULT:      -3.1     17.242     18.183
REMARK  0 active torsions:
REMARK  status: ('A' for Active; 'I' for Inactive)
ROOT
HETATM    1  C1  UNL     1     -39.993  12.391   4.787  1.00 20.00    -0.059 A 
HETATM    2  C2  UNL     1     -41.017  13.246   4.982  1.00 20.00    -0.055 A 
HETATM    3  C3  UNL     1     -39.989  11.905   6.225  1.00 20.00     0.138 A 
HETATM    4  C4  UNL     1     -41.096  12.978   6.491  1.00 20.00     0.077 A 
HETATM    5  C5  UNL     1     -39.170  11.991   3.545  1.00 20.00     0.045 C 
HETATM    6  C6  UNL     1     -41.788  14.203   4.048  1.00 20.00     0.046 C 
HETATM    7  C7  UNL     1     -40.697  14.194   7.335  1.00 20.00     0.039 C 
HETATM    8 CL8  UNL     1     -38.424  11.956   7.141  1.00 20.00    -0.118 Cl
HETATM    9 CL9  UNL     1     -42.677  12.312   7.080  1.00 20.00    -0.113 Cl
ENDROOT
TORSDOF 0
ENDMDL
MODEL 8
REMARK VINA RESULT:      -3.1     17.238     18.916
REMARK  0 active torsions:
REMARK  status: ('A' for Active; 'I' for Inactive)
ROOT
HETATM    1  C1  UNL     1     -34.040  16.760  -3.594  1.00 20.00    -0.059 A 
HETATM    2  C2  UNL     1     -34.058  15.732  -4.467  1.00 20.00    -0.055 A 
HETATM    3  C3  UNL     1     -35.109  17.542  -4.335  1.00 20.00     0.138 A 
HETATM    4  C4  UNL     1     -35.053  16.414  -5.417  1.00 20.00     0.077 A 
HETATM    5  C5  UNL     1     -33.273  17.019  -2.282  1.00 20.00     0.045 C 
HETATM    6  C6  UNL     1     -33.302  14.388  -4.535  1.00 20.00     0.046 C 
HETATM    7  C7  UNL     1     -34.432  16.780  -6.771  1.00 20.00     0.039 C 
HETATM    8 CL8  UNL     1     -34.752  19.263  -4.785  1.00 20.00    -0.118 Cl
HETATM    9 CL9  UNL     1     -36.613  15.527  -5.674  1.00 20.00    -0.113 Cl
ENDROOT
TORSDOF 0
ENDMDL
MODEL 9
REMARK VINA RESULT:      -3.1     17.813     19.217
REMARK  0 active torsions:
REMARK  status: ('A' for Active; 'I' for Inactive)
ROOT
HETATM    1  C1  UNL     1     -35.306  17.412  -4.528  1.00 20.00    -0.059 A 
HETATM    2  C2  UNL     1     -35.841  16.479  -5.342  1.00 20.00    -0.055 A 
HETATM    3  C3  UNL     1     -33.982  16.682  -4.392  1.00 20.00     0.138 A 
HETATM    4  C4  UNL     1     -34.633  15.537  -5.236  1.00 20.00     0.077 A 
HETATM    5  C5  UNL     1     -35.817  18.764  -3.989  1.00 20.00     0.045 C 
HETATM    6  C6  UNL     1     -37.201  16.359  -6.063  1.00 20.00     0.046 C 
HETATM    7  C7  UNL     1     -34.957  14.231  -4.503  1.00 20.00     0.039 C 
HETATM    8 CL8  UNL     1     -33.358  16.348  -2.722  1.00 20.00    -0.118 Cl
HETATM    9 CL9  UNL     1     -33.793  15.174  -6.801  1.00 20.00    -0.113 Cl
ENDROOT
TORSDOF 0
ENDMDL
