MODEL 1
REMARK VINA RESULT:      -5.1      0.000      0.000
REMARK  2 active torsions:
REMARK  status: ('A' for Active; 'I' for Inactive)
REMARK    1  A    between atoms: C4_4  and  C10_10 
REMARK    2  A    between atoms: C5_5  and  C11_11 
ROOT
HETATM    1  C1  UNL     1     -33.343   8.093   4.811  1.00 20.00     0.004 A 
HETATM    2  C2  UNL     1     -32.518   8.713   3.955  1.00 20.00    -0.017 A 
HETATM    3  C3  UNL     1     -33.028   6.580   3.142  1.00 20.00    -0.011 A 
HETATM    4  C4  UNL     1     -33.660   6.776   4.310  1.00 20.00    -0.058 A 
HETATM    5  C5  UNL     1     -32.226   7.806   2.788  1.00 20.00     0.034 A 
ENDROOT
BRANCH   4   6
HETATM    6  C10 UNL     1     -34.551   5.842   5.040  1.00 20.00     0.010 C 
HETATM    7  C6  UNL     1     -34.243   4.390   4.663  1.00 20.00     0.015 C 
HETATM    8  C7  UNL     1     -34.440   6.033   6.555  1.00 20.00     0.015 C 
ENDBRANCH   4   6
BRANCH   5   9
HETATM    9  C11 UNL     1     -32.659   8.415   1.461  1.00 20.00    -0.012 C 
HETATM   10  C8  UNL     1     -32.878   9.921   1.603  1.00 20.00     0.010 C 
HETATM   11  C9  UNL     1     -31.626   8.128   0.371  1.00 20.00     0.010 C 
ENDBRANCH   5   9
TORSDOF 2
ENDMDL
MODEL 2
REMARK VINA RESULT:      -4.2     11.034     12.328
REMARK  2 active torsions:
REMARK  status: ('A' for Active; 'I' for Inactive)
REMARK    1  A    between atoms: C4_4  and  C10_10 
REMARK    2  A    between atoms: C5_5  and  C11_11 
ROOT
HETATM    1  C1  UNL     1     -34.870  18.421  -2.679  1.00 20.00     0.004 A 
HETATM    2  C2  UNL     1     -34.827  18.876  -1.420  1.00 20.00    -0.017 A 
HETATM    3  C3  UNL     1     -33.285  17.136  -1.675  1.00 20.00    -0.011 A 
HETATM    4  C4  UNL     1     -33.919  17.347  -2.839  1.00 20.00    -0.058 A 
HETATM    5  C5  UNL     1     -33.802  18.098  -0.636  1.00 20.00     0.034 A 
ENDROOT
BRANCH   4   6
HETATM    6  C10 UNL     1     -33.734  16.633  -4.126  1.00 20.00     0.010 C 
HETATM    7  C6  UNL     1     -33.625  15.123  -3.901  1.00 20.00     0.015 C 
HETATM    8  C7  UNL     1     -34.871  16.943  -5.105  1.00 20.00     0.015 C 
ENDBRANCH   4   6
BRANCH   5   9
HETATM    9  C11 UNL     1     -32.701  18.991  -0.079  1.00 20.00    -0.012 C 
HETATM   10  C8  UNL     1     -32.848  19.153   1.434  1.00 20.00     0.010 C 
HETATM   11  C9  UNL     1     -31.322  18.429  -0.424  1.00 20.00     0.010 C 
ENDBRANCH   5   9
TORSDOF 2
ENDMDL
MODEL 3
REMARK VINA RESULT:      -4.2     10.708     12.147
REMARK  2 active torsions:
REMARK  status: ('A' for Active; 'I' for Inactive)
REMARK    1  A    between atoms: C4_4  and  C10_10 
REMARK    2  A    between atoms: C5_5  and  C11_11 
ROOT
HETATM    1  C1  UNL     1     -34.812  18.317  -2.768  1.00 20.00     0.004 A 
HETATM    2  C2  UNL     1     -34.974  17.950  -4.046  1.00 20.00    -0.017 A 
HETATM    3  C3  UNL     1     -33.203  16.745  -3.106  1.00 20.00    -0.011 A 
HETATM    4  C4  UNL     1     -33.719  17.574  -2.185  1.00 20.00    -0.058 A 
HETATM    5  C5  UNL     1     -33.955  16.898  -4.404  1.00 20.00     0.034 A 
ENDROOT
BRANCH   4   6
HETATM    6  C10 UNL     1     -33.292  17.761  -0.777  1.00 20.00     0.010 C 
HETATM    7  C6  UNL     1     -31.878  18.344  -0.711  1.00 20.00     0.015 C 
HETATM    8  C7  UNL     1     -34.271  18.653  -0.010  1.00 20.00     0.015 C 
ENDBRANCH   4   6
BRANCH   5   9
HETATM    9  C11 UNL     1     -34.604  15.595  -4.851  1.00 20.00    -0.012 C 
HETATM   10  C8  UNL     1     -34.435  15.396  -6.357  1.00 20.00     0.010 C 
HETATM   11  C9  UNL     1     -34.018  14.408  -4.087  1.00 20.00     0.010 C 
ENDBRANCH   5   9
TORSDOF 2
ENDMDL
MODEL 4
REMARK VINA RESULT:      -4.1      1.033      4.513
REMARK  2 active torsions:
REMARK  status: ('A' for Active; 'I' for Inactive)
REMARK    1  A    between atoms: C4_4  and  C10_10 
REMARK    2  A    between atoms: C5_5  and  C11_11 
ROOT
HETATM    1  C1  UNL     1     -32.881   8.152   5.384  1.00 20.00     0.004 A 
HETATM    2  C2  UNL     1     -33.785   7.505   6.131  1.00 20.00    -0.017 A 
HETATM    3  C3  UNL     1     -34.203   7.091   3.868  1.00 20.00    -0.011 A 
HETATM    4  C4  UNL     1     -33.137   7.897   3.986  1.00 20.00    -0.058 A 
HETATM    5  C5  UNL     1     -34.736   6.752   5.237  1.00 20.00     0.034 A 
ENDROOT
BRANCH   4   6
HETATM    6  C10 UNL     1     -32.304   8.480   2.906  1.00 20.00     0.010 C 
HETATM    7  C6  UNL     1     -32.036   7.448   1.808  1.00 20.00     0.015 C 
HETATM    8  C7  UNL     1     -32.957   9.731   2.311  1.00 20.00     0.015 C 
ENDBRANCH   4   6
BRANCH   5   9
HETATM    9  C11 UNL     1     -34.718   5.253   5.507  1.00 20.00    -0.012 C 
HETATM   10  C8  UNL     1     -34.119   4.496   4.322  1.00 20.00     0.010 C 
HETATM   11  C9  UNL     1     -33.939   4.944   6.786  1.00 20.00     0.010 C 
ENDBRANCH   5   9
TORSDOF 2
ENDMDL
MODEL 5
REMARK VINA RESULT:      -4.1      0.905      4.717
REMARK  2 active torsions:
REMARK  status: ('A' for Active; 'I' for Inactive)
REMARK    1  A    between atoms: C4_4  and  C10_10 
REMARK    2  A    between atoms: C5_5  and  C11_11 
ROOT
HETATM    1  C1  UNL     1     -32.621   6.382   2.113  1.00 20.00     0.004 A 
HETATM    2  C2  UNL     1     -32.913   5.780   3.274  1.00 20.00    -0.017 A 
HETATM    3  C3  UNL     1     -32.673   8.080   3.626  1.00 20.00    -0.011 A 
HETATM    4  C4  UNL     1     -32.472   7.802   2.329  1.00 20.00    -0.058 A 
HETATM    5  C5  UNL     1     -32.978   6.807   4.375  1.00 20.00     0.034 A 
ENDROOT
BRANCH   4   6
HETATM    6  C10 UNL     1     -32.143   8.743   1.230  1.00 20.00     0.010 C 
HETATM    7  C6  UNL     1     -32.361   8.083  -0.134  1.00 20.00     0.015 C 
HETATM    8  C7  UNL     1     -32.962  10.032   1.334  1.00 20.00     0.015 C 
ENDBRANCH   4   6
BRANCH   5   9
HETATM    9  C11 UNL     1     -34.344   6.847   5.047  1.00 20.00    -0.012 C 
HETATM   10  C8  UNL     1     -35.195   5.652   4.616  1.00 20.00     0.010 C 
HETATM   11  C9  UNL     1     -34.198   6.877   6.568  1.00 20.00     0.010 C 
ENDBRANCH   5   9
TORSDOF 2
ENDMDL
MODEL 6
REMARK VINA RESULT:      -4.1      9.704     10.892
REMARK  2 active torsions:
REMARK  status: ('A' for Active; 'I' for Inactive)
REMARK    1  A    between atoms: C4_4  and  C10_10 
REMARK    2  A    between atoms: C5_5  and  C11_11 
ROOT
HETATM    1  C1  UNL     1     -42.269  13.333   7.612  1.00 20.00     0.004 A 
HETATM    2  C2  UNL     1     -42.124  12.474   6.594  1.00 20.00    -0.017 A 
HETATM    3  C3  UNL     1     -40.459  14.114   6.477  1.00 20.00    -0.011 A 
HETATM    4  C4  UNL     1     -41.242  14.346   7.542  1.00 20.00    -0.058 A 
HETATM    5  C5  UNL     1     -40.943  12.883   5.751  1.00 20.00     0.034 A 
ENDROOT
BRANCH   4   6
HETATM    6  C10 UNL     1     -41.140  15.445   8.533  1.00 20.00     0.010 C 
HETATM    7  C6  UNL     1     -40.137  15.093   9.634  1.00 20.00     0.015 C 
HETATM    8  C7  UNL     1     -40.753  16.766   7.863  1.00 20.00     0.015 C 
ENDBRANCH   4   6
BRANCH   5   9
HETATM    9  C11 UNL     1     -39.878  11.797   5.684  1.00 20.00    -0.012 C 
HETATM   10  C8  UNL     1     -39.309  11.683   4.270  1.00 20.00     0.010 C 
HETATM   11  C9  UNL     1     -38.759  12.074   6.688  1.00 20.00     0.010 C 
ENDBRANCH   5   9
TORSDOF 2
ENDMDL
MODEL 7
REMARK VINA RESULT:      -4.0     11.111     12.677
REMARK  2 active torsions:
REMARK  status: ('A' for Active; 'I' for Inactive)
REMARK    1  A    between atoms: C4_4  and  C10_10 
REMARK    2  A    between atoms: C5_5  and  C11_11 
ROOT
HETATM    1  C1  UNL     1     -33.349  15.352  -3.864  1.00 20.00     0.004 A 
HETATM    2  C2  UNL     1     -34.133  14.905  -4.854  1.00 20.00    -0.017 A 
HETATM    3  C3  UNL     1     -34.674  17.129  -4.374  1.00 20.00    -0.011 A 
HETATM    4  C4  UNL     1     -33.681  16.726  -3.566  1.00 20.00    -0.058 A 
HETATM    5  C5  UNL     1     -35.072  16.000  -5.290  1.00 20.00     0.034 A 
ENDROOT
BRANCH   4   6
HETATM    6  C10 UNL     1     -32.987  17.501  -2.510  1.00 20.00     0.010 C 
HETATM    7  C6  UNL     1     -32.842  18.969  -2.918  1.00 20.00     0.015 C 
HETATM    8  C7  UNL     1     -33.716  17.392  -1.167  1.00 20.00     0.015 C 
ENDBRANCH   4   6
BRANCH   5   9
HETATM    9  C11 UNL     1     -34.896  16.359  -6.760  1.00 20.00    -0.012 C 
HETATM   10  C8  UNL     1     -34.496  17.826  -6.913  1.00 20.00     0.010 C 
HETATM   11  C9  UNL     1     -33.857  15.452  -7.418  1.00 20.00     0.010 C 
ENDBRANCH   5   9
TORSDOF 2
ENDMDL
MODEL 8
REMARK VINA RESULT:      -4.0      9.618     10.750
REMARK  2 active torsions:
REMARK  status: ('A' for Active; 'I' for Inactive)
REMARK    1  A    between atoms: C4_4  and  C10_10 
REMARK    2  A    between atoms: C5_5  and  C11_11 
ROOT
HETATM    1  C1  UNL     1     -41.163  13.510   4.548  1.00 20.00     0.004 A 
HETATM    2  C2  UNL     1     -42.107  14.286   5.099  1.00 20.00    -0.017 A 
HETATM    3  C3  UNL     1     -41.034  13.053   6.772  1.00 20.00    -0.011 A 
HETATM    4  C4  UNL     1     -40.499  12.749   5.579  1.00 20.00    -0.058 A 
HETATM    5  C5  UNL     1     -42.127  14.076   6.591  1.00 20.00     0.034 A 
ENDROOT
BRANCH   4   6
HETATM    6  C10 UNL     1     -39.405  11.793   5.281  1.00 20.00     0.010 C 
HETATM    7  C6  UNL     1     -39.150  11.710   3.774  1.00 20.00     0.015 C 
HETATM    8  C7  UNL     1     -38.117  12.170   6.018  1.00 20.00     0.015 C 
ENDBRANCH   4   6
BRANCH   5   9
HETATM    9  C11 UNL     1     -41.847  15.361   7.359  1.00 20.00    -0.012 C 
HETATM   10  C8  UNL     1     -40.403  15.388   7.860  1.00 20.00     0.010 C 
HETATM   11  C9  UNL     1     -42.132  16.584   6.489  1.00 20.00     0.010 C 
ENDBRANCH   5   9
TORSDOF 2
ENDMDL
MODEL 9
REMARK VINA RESULT:      -3.9     11.250     12.609
REMARK  2 active torsions:
REMARK  status: ('A' for Active; 'I' for Inactive)
REMARK    1  A    between atoms: C4_4  and  C10_10 
REMARK    2  A    between atoms: C5_5  and  C11_11 
ROOT
HETATM    1  C1  UNL     1     -33.974  15.283  -4.495  1.00 20.00     0.004 A 
HETATM    2  C2  UNL     1     -33.101  15.710  -3.574  1.00 20.00    -0.017 A 
HETATM    3  C3  UNL     1     -34.407  17.507  -4.304  1.00 20.00    -0.011 A 
HETATM    4  C4  UNL     1     -34.782  16.391  -4.947  1.00 20.00    -0.058 A 
HETATM    5  C5  UNL     1     -33.284  17.189  -3.350  1.00 20.00     0.034 A 
ENDROOT
BRANCH   4   6
HETATM    6  C10 UNL     1     -35.842  16.235  -5.974  1.00 20.00     0.010 C 
HETATM    7  C6  UNL     1     -35.763  14.856  -6.633  1.00 20.00     0.015 C 
HETATM    8  C7  UNL     1     -37.234  16.461  -5.378  1.00 20.00     0.015 C 
ENDBRANCH   4   6
BRANCH   5   9
HETATM    9  C11 UNL     1     -33.644  17.515  -1.906  1.00 20.00    -0.012 C 
HETATM   10  C8  UNL     1     -32.425  18.046  -1.152  1.00 20.00     0.010 C 
HETATM   11  C9  UNL     1     -34.789  18.525  -1.849  1.00 20.00     0.010 C 
ENDBRANCH   5   9
TORSDOF 2
ENDMDL
