MODEL 1
REMARK VINA RESULT:      -4.1      0.000      0.000
REMARK  1 active torsions:
REMARK  status: ('A' for Active; 'I' for Inactive)
REMARK    1  A    between atoms: C7_7  and  C11_11 
ROOT
HETATM    1  C1  UNL     1     -25.163  18.356  11.761  1.00 20.00    -0.084 C 
HETATM    2  C2  UNL     1     -26.341  18.635  12.332  1.00 20.00     0.014 C 
HETATM    3  C3  UNL     1     -24.554  19.134  10.615  1.00 20.00     0.044 C 
HETATM    4  C4  UNL     1     -22.185  18.904  11.686  1.00 20.00     0.016 A 
HETATM    5  C5  UNL     1     -24.185  17.288  12.224  1.00 20.00     0.014 C 
HETATM    6  C6  UNL     1     -22.886  17.583  11.501  1.00 20.00     0.003 A 
HETATM    7  C7  UNL     1     -23.110  18.685  10.509  1.00 20.00    -0.029 A 
HETATM    8  C8  UNL     1     -24.690  15.886  11.889  1.00 20.00     0.015 C 
ENDROOT
BRANCH   7   9
HETATM    9  C11 UNL     1     -22.525  18.592   9.137  1.00 20.00    -0.014 C 
HETATM   10  C9  UNL     1     -22.190  17.138   8.759  1.00 20.00     0.010 C 
HETATM   11  C10 UNL     1     -23.464  19.191   8.076  1.00 20.00     0.010 C 
ENDBRANCH   7   9
TORSDOF 1
ENDMDL
MODEL 2
REMARK VINA RESULT:      -3.9     15.510     17.557
REMARK  1 active torsions:
REMARK  status: ('A' for Active; 'I' for Inactive)
REMARK    1  A    between atoms: C7_7  and  C11_11 
ROOT
HETATM    1  C1  UNL     1     -33.669  16.172  -3.808  1.00 20.00    -0.084 C 
HETATM    2  C2  UNL     1     -33.392  14.930  -4.221  1.00 20.00     0.014 C 
HETATM    3  C3  UNL     1     -33.341  16.717  -2.435  1.00 20.00     0.044 C 
HETATM    4  C4  UNL     1     -32.684  19.018  -3.479  1.00 20.00     0.016 A 
HETATM    5  C5  UNL     1     -34.258  17.281  -4.665  1.00 20.00     0.014 C 
HETATM    6  C6  UNL     1     -34.064  18.558  -3.872  1.00 20.00     0.003 A 
HETATM    7  C7  UNL     1     -33.530  18.220  -2.512  1.00 20.00    -0.029 A 
HETATM    8  C8  UNL     1     -35.738  17.037  -4.954  1.00 20.00     0.015 C 
ENDROOT
BRANCH   7   9
HETATM    9  C11 UNL     1     -34.078  18.900  -1.298  1.00 20.00    -0.014 C 
HETATM   10  C9  UNL     1     -35.571  19.236  -1.460  1.00 20.00     0.010 C 
HETATM   11  C10 UNL     1     -33.881  18.049  -0.032  1.00 20.00     0.010 C 
ENDBRANCH   7   9
TORSDOF 1
ENDMDL
MODEL 3
REMARK VINA RESULT:      -3.6     16.971     18.817
REMARK  1 active torsions:
REMARK  status: ('A' for Active; 'I' for Inactive)
REMARK    1  A    between atoms: C7_7  and  C11_11 
ROOT
HETATM    1  C1  UNL     1     -41.553  15.399   7.020  1.00 20.00    -0.084 C 
HETATM    2  C2  UNL     1     -41.509  16.575   7.658  1.00 20.00     0.014 C 
HETATM    3  C3  UNL     1     -40.564  14.272   7.222  1.00 20.00     0.044 C 
HETATM    4  C4  UNL     1     -42.493  12.520   7.064  1.00 20.00     0.016 A 
HETATM    5  C5  UNL     1     -42.649  14.947   6.069  1.00 20.00     0.014 C 
HETATM    6  C6  UNL     1     -42.440  13.456   5.884  1.00 20.00     0.003 A 
HETATM    7  C7  UNL     1     -41.166  13.047   6.562  1.00 20.00    -0.029 A 
HETATM    8  C8  UNL     1     -42.566  15.679   4.732  1.00 20.00     0.015 C 
ENDROOT
BRANCH   7   9
HETATM    9  C11 UNL     1     -40.223  12.105   5.884  1.00 20.00    -0.014 C 
HETATM   10  C9  UNL     1     -39.967  12.512   4.422  1.00 20.00     0.010 C 
HETATM   11  C10 UNL     1     -38.881  12.010   6.630  1.00 20.00     0.010 C 
ENDBRANCH   7   9
TORSDOF 1
ENDMDL
MODEL 4
REMARK VINA RESULT:      -3.6     17.554     19.514
REMARK  1 active torsions:
REMARK  status: ('A' for Active; 'I' for Inactive)
REMARK    1  A    between atoms: C7_7  and  C11_11 
ROOT
HETATM    1  C1  UNL     1     -35.779  16.092  -6.207  1.00 20.00    -0.084 C 
HETATM    2  C2  UNL     1     -36.934  16.256  -6.861  1.00 20.00     0.014 C 
HETATM    3  C3  UNL     1     -35.462  16.688  -4.853  1.00 20.00     0.044 C 
HETATM    4  C4  UNL     1     -34.230  14.497  -4.149  1.00 20.00     0.016 A 
HETATM    5  C5  UNL     1     -34.629  15.200  -6.649  1.00 20.00     0.014 C 
HETATM    6  C6  UNL     1     -33.720  15.078  -5.442  1.00 20.00     0.003 A 
HETATM    7  C7  UNL     1     -34.208  15.995  -4.359  1.00 20.00    -0.029 A 
HETATM    8  C8  UNL     1     -33.882  15.801  -7.837  1.00 20.00     0.015 C 
ENDROOT
BRANCH   7   9
HETATM    9  C11 UNL     1     -33.236  16.821  -3.579  1.00 20.00    -0.014 C 
HETATM   10  C9  UNL     1     -33.218  18.283  -4.058  1.00 20.00     0.010 C 
HETATM   11  C10 UNL     1     -33.539  16.782  -2.071  1.00 20.00     0.010 C 
ENDBRANCH   7   9
TORSDOF 1
ENDMDL
MODEL 5
REMARK VINA RESULT:      -3.5     17.385     19.279
REMARK  1 active torsions:
REMARK  status: ('A' for Active; 'I' for Inactive)
REMARK    1  A    between atoms: C7_7  and  C11_11 
ROOT
HETATM    1  C1  UNL     1     -40.399  12.992   6.255  1.00 20.00    -0.084 C 
HETATM    2  C2  UNL     1     -39.339  12.177   6.293  1.00 20.00     0.014 C 
HETATM    3  C3  UNL     1     -41.176  13.338   5.003  1.00 20.00     0.044 C 
HETATM    4  C4  UNL     1     -43.417  13.238   6.339  1.00 20.00     0.016 A 
HETATM    5  C5  UNL     1     -41.073  13.626   7.461  1.00 20.00     0.014 C 
HETATM    6  C6  UNL     1     -42.398  14.162   6.954  1.00 20.00     0.003 A 
HETATM    7  C7  UNL     1     -42.455  14.010   5.463  1.00 20.00    -0.029 A 
HETATM    8  C8  UNL     1     -40.222  14.747   8.052  1.00 20.00     0.015 C 
ENDROOT
BRANCH   7   9
HETATM    9  C11 UNL     1     -42.983  15.122   4.614  1.00 20.00    -0.014 C 
HETATM   10  C9  UNL     1     -42.687  16.500   5.232  1.00 20.00     0.010 C 
HETATM   11  C10 UNL     1     -42.411  15.069   3.187  1.00 20.00     0.010 C 
ENDBRANCH   7   9
TORSDOF 1
ENDMDL
MODEL 6
REMARK VINA RESULT:      -3.4     16.784     18.952
REMARK  1 active torsions:
REMARK  status: ('A' for Active; 'I' for Inactive)
REMARK    1  A    between atoms: C7_7  and  C11_11 
ROOT
HETATM    1  C1  UNL     1     -41.004  12.895   6.540  1.00 20.00    -0.084 C 
HETATM    2  C2  UNL     1     -40.309  11.997   5.833  1.00 20.00     0.014 C 
HETATM    3  C3  UNL     1     -40.390  13.940   7.446  1.00 20.00     0.044 C 
HETATM    4  C4  UNL     1     -42.155  15.695   6.657  1.00 20.00     0.016 A 
HETATM    5  C5  UNL     1     -42.510  13.098   6.481  1.00 20.00     0.014 C 
HETATM    6  C6  UNL     1     -42.772  14.421   7.174  1.00 20.00     0.003 A 
HETATM    7  C7  UNL     1     -41.495  14.924   7.779  1.00 20.00    -0.029 A 
HETATM    8  C8  UNL     1     -43.254  11.960   7.178  1.00 20.00     0.015 C 
ENDROOT
BRANCH   7   9
HETATM    9  C11 UNL     1     -41.495  15.508   9.156  1.00 20.00    -0.014 C 
HETATM   10  C9  UNL     1     -42.577  14.869  10.045  1.00 20.00     0.010 C 
HETATM   11  C10 UNL     1     -40.123  15.359   9.836  1.00 20.00     0.010 C 
ENDBRANCH   7   9
TORSDOF 1
ENDMDL
MODEL 7
REMARK VINA RESULT:      -3.4     16.989     18.872
REMARK  1 active torsions:
REMARK  status: ('A' for Active; 'I' for Inactive)
REMARK    1  A    between atoms: C7_7  and  C11_11 
ROOT
HETATM    1  C1  UNL     1     -36.567  17.790  -4.905  1.00 20.00    -0.084 C 
HETATM    2  C2  UNL     1     -37.701  17.633  -5.597  1.00 20.00     0.014 C 
HETATM    3  C3  UNL     1     -35.374  16.863  -4.982  1.00 20.00     0.044 C 
HETATM    4  C4  UNL     1     -33.750  18.904  -4.865  1.00 20.00     0.016 A 
HETATM    5  C5  UNL     1     -36.233  18.971  -4.008  1.00 20.00     0.014 C 
HETATM    6  C6  UNL     1     -34.745  18.869  -3.734  1.00 20.00     0.003 A 
HETATM    7  C7  UNL     1     -34.225  17.582  -4.303  1.00 20.00    -0.029 A 
HETATM    8  C8  UNL     1     -37.032  18.928  -2.707  1.00 20.00     0.015 C 
ENDROOT
BRANCH   7   9
HETATM    9  C11 UNL     1     -33.268  16.745  -3.516  1.00 20.00    -0.014 C 
HETATM   10  C9  UNL     1     -33.519  16.865  -2.002  1.00 20.00     0.010 C 
HETATM   11  C10 UNL     1     -33.335  15.264  -3.929  1.00 20.00     0.010 C 
ENDBRANCH   7   9
TORSDOF 1
ENDMDL
MODEL 8
REMARK VINA RESULT:      -3.3     17.395     19.271
REMARK  1 active torsions:
REMARK  status: ('A' for Active; 'I' for Inactive)
REMARK    1  A    between atoms: C7_7  and  C11_11 
ROOT
HETATM    1  C1  UNL     1     -33.906  17.739  -4.441  1.00 20.00    -0.084 C 
HETATM    2  C2  UNL     1     -33.507  19.007  -4.291  1.00 20.00     0.014 C 
HETATM    3  C3  UNL     1     -35.003  17.286  -5.380  1.00 20.00     0.044 C 
HETATM    4  C4  UNL     1     -33.625  15.157  -6.000  1.00 20.00     0.016 A 
HETATM    5  C5  UNL     1     -33.266  16.525  -3.786  1.00 20.00     0.014 C 
HETATM    6  C6  UNL     1     -33.830  15.322  -4.517  1.00 20.00     0.003 A 
HETATM    7  C7  UNL     1     -34.898  15.776  -5.467  1.00 20.00    -0.029 A 
HETATM    8  C8  UNL     1     -33.591  16.460  -2.295  1.00 20.00     0.015 C 
ENDROOT
BRANCH   7   9
HETATM    9  C11 UNL     1     -36.177  15.010  -5.581  1.00 20.00    -0.014 C 
HETATM   10  C9  UNL     1     -36.223  13.828  -4.596  1.00 20.00     0.010 C 
HETATM   11  C10 UNL     1     -37.402  15.912  -5.351  1.00 20.00     0.010 C 
ENDBRANCH   7   9
TORSDOF 1
ENDMDL
MODEL 9
REMARK VINA RESULT:      -3.3     16.958     18.698
REMARK  1 active torsions:
REMARK  status: ('A' for Active; 'I' for Inactive)
REMARK    1  A    between atoms: C7_7  and  C11_11 
ROOT
HETATM    1  C1  UNL     1     -42.417  12.820   7.411  1.00 20.00    -0.084 C 
HETATM    2  C2  UNL     1     -43.417  12.334   8.156  1.00 20.00     0.014 C 
HETATM    3  C3  UNL     1     -41.574  12.000   6.458  1.00 20.00     0.044 C 
HETATM    4  C4  UNL     1     -41.565  13.964   4.739  1.00 20.00     0.016 A 
HETATM    5  C5  UNL     1     -42.020  14.284   7.307  1.00 20.00     0.014 C 
HETATM    6  C6  UNL     1     -41.093  14.371   6.111  1.00 20.00     0.003 A 
HETATM    7  C7  UNL     1     -40.802  12.988   5.607  1.00 20.00    -0.029 A 
HETATM    8  C8  UNL     1     -41.320  14.764   8.576  1.00 20.00     0.015 C 
ENDROOT
BRANCH   7   9
HETATM    9  C11 UNL     1     -39.410  12.608   5.216  1.00 20.00    -0.014 C 
HETATM   10  C9  UNL     1     -38.573  12.180   6.435  1.00 20.00     0.010 C 
HETATM   11  C10 UNL     1     -39.401  11.480   4.170  1.00 20.00     0.010 C 
ENDBRANCH   7   9
TORSDOF 1
ENDMDL
