MODEL 1
REMARK VINA RESULT:      -3.9      0.000      0.000
REMARK  1 active torsions:
REMARK  status: ('A' for Active; 'I' for Inactive)
REMARK    1  A    between atoms: C8_8  and  N9_9 
ROOT
HETATM    1  C1  UNL     1     -33.460  15.521  -3.739  1.00 20.00     0.050 C 
HETATM    2  C2  UNL     1     -33.591  14.705  -4.789  1.00 20.00     0.136 C 
HETATM    3  C3  UNL     1     -34.022  16.885  -3.864  1.00 20.00     0.033 C 
HETATM    4  C4  UNL     1     -34.563  17.279  -5.215  1.00 20.00     0.085 C 
HETATM    5  C7  UNL     1     -35.189  16.051  -5.856  1.00 20.00     0.180 C 
HETATM    6  N9  UNL     1     -34.023  17.746  -2.900  1.00 20.00    -0.289 NA
HETATM    7  O10 UNL     1     -34.266  14.961  -5.955  1.00 20.00    -0.363 OA
ENDROOT
BRANCH   6   8
HETATM    8  C8  UNL     1     -33.421  17.266  -1.665  1.00 20.00     0.108 A 
HETATM    9  C5  UNL     1     -32.374  18.124  -1.015  1.00 20.00     0.029 A 
HETATM   10  C6  UNL     1     -33.738  18.009  -0.399  1.00 20.00     0.029 A 
ENDBRANCH   6   8
TORSDOF 1
ENDMDL
MODEL 2
REMARK VINA RESULT:      -3.9      0.922      1.810
REMARK  1 active torsions:
REMARK  status: ('A' for Active; 'I' for Inactive)
REMARK    1  A    between atoms: C8_8  and  N9_9 
ROOT
HETATM    1  C1  UNL     1     -34.683  17.224  -4.446  1.00 20.00     0.050 C 
HETATM    2  C2  UNL     1     -35.266  16.922  -5.611  1.00 20.00     0.136 C 
HETATM    3  C3  UNL     1     -33.842  16.180  -3.817  1.00 20.00     0.033 C 
HETATM    4  C4  UNL     1     -33.835  14.823  -4.473  1.00 20.00     0.085 C 
HETATM    5  C7  UNL     1     -33.947  15.016  -5.976  1.00 20.00     0.180 C 
HETATM    6  N9  UNL     1     -33.170  16.368  -2.730  1.00 20.00    -0.289 NA
HETATM    7  O10 UNL     1     -35.108  15.772  -6.341  1.00 20.00    -0.363 OA
ENDROOT
BRANCH   6   8
HETATM    8  C8  UNL     1     -33.304  17.701  -2.163  1.00 20.00     0.108 A 
HETATM    9  C5  UNL     1     -33.731  17.813  -0.727  1.00 20.00     0.029 A 
HETATM   10  C6  UNL     1     -32.312  18.117  -1.113  1.00 20.00     0.029 A 
ENDBRANCH   6   8
TORSDOF 1
ENDMDL
MODEL 3
REMARK VINA RESULT:      -3.8      3.026      5.359
REMARK  1 active torsions:
REMARK  status: ('A' for Active; 'I' for Inactive)
REMARK    1  A    between atoms: C8_8  and  N9_9 
ROOT
HETATM    1  C1  UNL     1     -31.779  18.171  -0.840  1.00 20.00     0.050 C 
HETATM    2  C2  UNL     1     -31.131  18.640   0.231  1.00 20.00     0.136 C 
HETATM    3  C3  UNL     1     -33.237  17.949  -0.707  1.00 20.00     0.033 C 
HETATM    4  C4  UNL     1     -33.834  18.136   0.664  1.00 20.00     0.085 C 
HETATM    5  C7  UNL     1     -33.090  19.263   1.361  1.00 20.00     0.180 C 
HETATM    6  N9  UNL     1     -33.990  17.566  -1.685  1.00 20.00    -0.289 NA
HETATM    7  O10 UNL     1     -31.679  19.022   1.428  1.00 20.00    -0.363 OA
ENDROOT
BRANCH   6   8
HETATM    8  C8  UNL     1     -33.287  17.365  -2.943  1.00 20.00     0.108 A 
HETATM    9  C5  UNL     1     -33.289  15.985  -3.536  1.00 20.00     0.029 A 
HETATM   10  C6  UNL     1     -34.111  17.073  -4.165  1.00 20.00     0.029 A 
ENDBRANCH   6   8
TORSDOF 1
ENDMDL
MODEL 4
REMARK VINA RESULT:      -3.5     12.523     14.112
REMARK  1 active torsions:
REMARK  status: ('A' for Active; 'I' for Inactive)
REMARK    1  A    between atoms: C8_8  and  N9_9 
ROOT
HETATM    1  C1  UNL     1     -40.471  15.705   7.503  1.00 20.00     0.050 C 
HETATM    2  C2  UNL     1     -40.749  16.876   8.084  1.00 20.00     0.136 C 
HETATM    3  C3  UNL     1     -40.362  14.519   8.382  1.00 20.00     0.033 C 
HETATM    4  C4  UNL     1     -40.433  14.763   9.868  1.00 20.00     0.085 C 
HETATM    5  C7  UNL     1     -41.399  15.909  10.120  1.00 20.00     0.180 C 
HETATM    6  N9  UNL     1     -40.167  13.321   7.940  1.00 20.00    -0.289 NA
HETATM    7  O10 UNL     1     -41.030  17.096   9.408  1.00 20.00    -0.363 OA
ENDROOT
BRANCH   6   8
HETATM    8  C8  UNL     1     -40.059  13.225   6.492  1.00 20.00     0.108 A 
HETATM    9  C5  UNL     1     -39.044  12.274   5.926  1.00 20.00     0.029 A 
HETATM   10  C6  UNL     1     -40.506  11.946   5.842  1.00 20.00     0.029 A 
ENDBRANCH   6   8
TORSDOF 1
ENDMDL
MODEL 5
REMARK VINA RESULT:      -3.4      2.012      3.035
REMARK  1 active torsions:
REMARK  status: ('A' for Active; 'I' for Inactive)
REMARK    1  A    between atoms: C8_8  and  N9_9 
ROOT
HETATM    1  C1  UNL     1     -34.299  18.693  -1.973  1.00 20.00     0.050 C 
HETATM    2  C2  UNL     1     -35.241  18.549  -2.911  1.00 20.00     0.136 C 
HETATM    3  C3  UNL     1     -33.191  17.712  -1.967  1.00 20.00     0.033 C 
HETATM    4  C4  UNL     1     -33.298  16.556  -2.928  1.00 20.00     0.085 C 
HETATM    5  C7  UNL     1     -33.977  17.047  -4.196  1.00 20.00     0.180 C 
HETATM    6  N9  UNL     1     -32.184  17.781  -1.160  1.00 20.00    -0.289 NA
HETATM    7  O10 UNL     1     -35.256  17.635  -3.933  1.00 20.00    -0.363 OA
ENDROOT
BRANCH   6   8
HETATM    8  C8  UNL     1     -32.225  18.910  -0.243  1.00 20.00     0.108 A 
HETATM    9  C5  UNL     1     -32.338  18.618   1.225  1.00 20.00     0.029 A 
HETATM   10  C6  UNL     1     -31.042  19.120   0.659  1.00 20.00     0.029 A 
ENDBRANCH   6   8
TORSDOF 1
ENDMDL
MODEL 6
REMARK VINA RESULT:      -3.4      2.559      4.714
REMARK  1 active torsions:
REMARK  status: ('A' for Active; 'I' for Inactive)
REMARK    1  A    between atoms: C8_8  and  N9_9 
ROOT
HETATM    1  C1  UNL     1     -33.781  17.232  -1.306  1.00 20.00     0.050 C 
HETATM    2  C2  UNL     1     -33.719  17.971  -0.193  1.00 20.00     0.136 C 
HETATM    3  C3  UNL     1     -33.036  17.720  -2.488  1.00 20.00     0.033 C 
HETATM    4  C4  UNL     1     -32.391  19.078  -2.375  1.00 20.00     0.085 C 
HETATM    5  C7  UNL     1     -31.910  19.263  -0.945  1.00 20.00     0.180 C 
HETATM    6  N9  UNL     1     -32.958  17.066  -3.600  1.00 20.00    -0.289 NA
HETATM    7  O10 UNL     1     -32.968  19.100   0.008  1.00 20.00    -0.363 OA
ENDROOT
BRANCH   6   8
HETATM    8  C8  UNL     1     -33.669  15.797  -3.602  1.00 20.00     0.108 A 
HETATM    9  C5  UNL     1     -34.476  15.447  -4.820  1.00 20.00     0.029 A 
HETATM   10  C6  UNL     1     -33.188  14.728  -4.541  1.00 20.00     0.029 A 
ENDBRANCH   6   8
TORSDOF 1
ENDMDL
MODEL 7
REMARK VINA RESULT:      -3.4     12.302     13.922
REMARK  1 active torsions:
REMARK  status: ('A' for Active; 'I' for Inactive)
REMARK    1  A    between atoms: C8_8  and  N9_9 
ROOT
HETATM    1  C1  UNL     1     -40.418  15.112   7.557  1.00 20.00     0.050 C 
HETATM    2  C2  UNL     1     -40.769  16.144   8.332  1.00 20.00     0.136 C 
HETATM    3  C3  UNL     1     -41.283  13.912   7.591  1.00 20.00     0.033 C 
HETATM    4  C4  UNL     1     -42.401  13.905   8.601  1.00 20.00     0.085 C 
HETATM    5  C7  UNL     1     -42.929  15.323   8.743  1.00 20.00     0.180 C 
HETATM    6  N9  UNL     1     -41.094  12.877   6.840  1.00 20.00    -0.289 NA
HETATM    7  O10 UNL     1     -41.898  16.251   9.102  1.00 20.00    -0.363 OA
ENDROOT
BRANCH   6   8
HETATM    8  C8  UNL     1     -39.949  12.983   5.948  1.00 20.00     0.108 A 
HETATM    9  C5  UNL     1     -38.846  11.975   6.100  1.00 20.00     0.029 A 
HETATM   10  C6  UNL     1     -39.767  11.907   4.916  1.00 20.00     0.029 A 
ENDBRANCH   6   8
TORSDOF 1
ENDMDL
MODEL 8
REMARK VINA RESULT:      -3.4     11.924     12.756
REMARK  1 active torsions:
REMARK  status: ('A' for Active; 'I' for Inactive)
REMARK    1  A    between atoms: C8_8  and  N9_9 
ROOT
HETATM    1  C1  UNL     1     -33.162   7.523   4.960  1.00 20.00     0.050 C 
HETATM    2  C2  UNL     1     -33.760   7.263   6.128  1.00 20.00     0.136 C 
HETATM    3  C3  UNL     1     -33.318   6.522   3.881  1.00 20.00     0.033 C 
HETATM    4  C4  UNL     1     -34.015   5.235   4.238  1.00 20.00     0.085 C 
HETATM    5  C7  UNL     1     -35.098   5.543   5.258  1.00 20.00     0.180 C 
HETATM    6  N9  UNL     1     -32.850   6.686   2.687  1.00 20.00    -0.289 NA
HETATM    7  O10 UNL     1     -34.579   6.203   6.419  1.00 20.00    -0.363 OA
ENDROOT
BRANCH   6   8
HETATM    8  C8  UNL     1     -32.149   7.944   2.483  1.00 20.00     0.108 A 
HETATM    9  C5  UNL     1     -31.849   8.359   1.071  1.00 20.00     0.029 A 
HETATM   10  C6  UNL     1     -32.912   9.075   1.853  1.00 20.00     0.029 A 
ENDBRANCH   6   8
TORSDOF 1
ENDMDL
MODEL 9
REMARK VINA RESULT:      -3.4      3.785      6.159
REMARK  1 active torsions:
REMARK  status: ('A' for Active; 'I' for Inactive)
REMARK    1  A    between atoms: C8_8  and  N9_9 
ROOT
HETATM    1  C1  UNL     1     -33.242  18.890   0.600  1.00 20.00     0.050 C 
HETATM    2  C2  UNL     1     -33.190  19.146   1.911  1.00 20.00     0.136 C 
HETATM    3  C3  UNL     1     -31.955  18.810  -0.128  1.00 20.00     0.033 C 
HETATM    4  C4  UNL     1     -30.711  19.165   0.645  1.00 20.00     0.085 C 
HETATM    5  C7  UNL     1     -30.892  18.706   2.083  1.00 20.00     0.180 C 
HETATM    6  N9  UNL     1     -31.864  18.501  -1.379  1.00 20.00    -0.289 NA
HETATM    7  O10 UNL     1     -32.065  19.263   2.687  1.00 20.00    -0.363 OA
ENDROOT
BRANCH   6   8
HETATM    8  C8  UNL     1     -33.139  18.236  -2.028  1.00 20.00     0.108 A 
HETATM    9  C5  UNL     1     -33.198  18.335  -3.525  1.00 20.00     0.029 A 
HETATM   10  C6  UNL     1     -33.253  16.990  -2.860  1.00 20.00     0.029 A 
ENDBRANCH   6   8
TORSDOF 1
ENDMDL
