MODEL 1
REMARK VINA RESULT:      -4.3      0.000      0.000
REMARK  1 active torsions:
REMARK  status: ('A' for Active; 'I' for Inactive)
REMARK    1  A    between atoms: C3_3  and  C8_8 
ROOT
HETATM    1  C1  UNL     1     -31.758   8.309   4.510  1.00 20.00    -0.025 C 
HETATM    2  C2  UNL     1     -32.788   8.710   5.269  1.00 20.00    -0.024 C 
HETATM    3  C4  UNL     1     -33.618   8.349   3.155  1.00 20.00     0.018 C 
HETATM    4  C5  UNL     1     -32.335   7.536   3.347  1.00 20.00     0.013 C 
HETATM    5  C6  UNL     1     -34.055   8.194   4.618  1.00 20.00     0.024 C 
HETATM    6  C7  UNL     1     -32.876   6.183   3.897  1.00 20.00     0.004 C 
HETATM    7  C8  UNL     1     -34.120   6.640   4.759  1.00 20.00     0.020 C 
HETATM    8  C9  UNL     1     -33.170   5.196   2.770  1.00 20.00     0.012 C 
HETATM    9  C10 UNL     1     -35.481   6.097   4.307  1.00 20.00     0.024 C 
ENDROOT
BRANCH   7  10
HETATM   10  C3  UNL     1     -33.958   6.212   6.196  1.00 20.00     0.241 C 
HETATM   11  O11 UNL     1     -34.207   5.080   6.597  1.00 20.00    -0.306 OA
ENDBRANCH   7  10
TORSDOF 1
ENDMDL
MODEL 2
REMARK VINA RESULT:      -3.6      1.892      3.631
REMARK  1 active torsions:
REMARK  status: ('A' for Active; 'I' for Inactive)
REMARK    1  A    between atoms: C3_3  and  C8_8 
ROOT
HETATM    1  C1  UNL     1     -33.822   4.309   4.747  1.00 20.00    -0.025 C 
HETATM    2  C2  UNL     1     -33.786   4.858   3.526  1.00 20.00    -0.024 C 
HETATM    3  C4  UNL     1     -35.577   5.793   4.625  1.00 20.00     0.018 C 
HETATM    4  C5  UNL     1     -34.566   5.268   5.647  1.00 20.00     0.013 C 
HETATM    5  C6  UNL     1     -34.496   6.194   3.612  1.00 20.00     0.024 C 
HETATM    6  C7  UNL     1     -33.651   6.508   5.879  1.00 20.00     0.004 C 
HETATM    7  C8  UNL     1     -33.637   7.191   4.453  1.00 20.00     0.020 C 
HETATM    8  C9  UNL     1     -34.160   7.373   7.030  1.00 20.00     0.012 C 
HETATM    9  C10 UNL     1     -34.210   8.612   4.389  1.00 20.00     0.024 C 
ENDROOT
BRANCH   7  10
HETATM   10  C3  UNL     1     -32.229   7.285   3.922  1.00 20.00     0.241 C 
HETATM   11  O11 UNL     1     -31.957   7.681   2.794  1.00 20.00    -0.306 OA
ENDBRANCH   7  10
TORSDOF 1
ENDMDL
MODEL 3
REMARK VINA RESULT:      -3.6     12.221     13.858
REMARK  1 active torsions:
REMARK  status: ('A' for Active; 'I' for Inactive)
REMARK    1  A    between atoms: C3_3  and  C8_8 
ROOT
HETATM    1  C1  UNL     1     -36.466  16.543  -7.414  1.00 20.00    -0.025 C 
HETATM    2  C2  UNL     1     -36.063  15.287  -7.649  1.00 20.00    -0.024 C 
HETATM    3  C4  UNL     1     -34.179  16.510  -7.154  1.00 20.00     0.018 C 
HETATM    4  C5  UNL     1     -35.409  17.198  -6.556  1.00 20.00     0.013 C 
HETATM    5  C6  UNL     1     -34.740  15.097  -6.937  1.00 20.00     0.024 C 
HETATM    6  C7  UNL     1     -35.489  16.562  -5.135  1.00 20.00     0.004 C 
HETATM    7  C8  UNL     1     -34.973  15.090  -5.392  1.00 20.00     0.020 C 
HETATM    8  C9  UNL     1     -34.704  17.377  -4.111  1.00 20.00     0.012 C 
HETATM    9  C10 UNL     1     -33.699  14.689  -4.638  1.00 20.00     0.024 C 
ENDROOT
BRANCH   7  10
HETATM   10  C3  UNL     1     -36.023  14.081  -5.000  1.00 20.00     0.241 C 
HETATM   11  O11 UNL     1     -35.783  13.079  -4.335  1.00 20.00    -0.306 OA
ENDBRANCH   7  10
TORSDOF 1
ENDMDL
MODEL 4
REMARK VINA RESULT:      -3.4     11.903     13.118
REMARK  1 active torsions:
REMARK  status: ('A' for Active; 'I' for Inactive)
REMARK    1  A    between atoms: C3_3  and  C8_8 
ROOT
HETATM    1  C1  UNL     1     -27.663  -0.297  10.430  1.00 20.00    -0.025 C 
HETATM    2  C2  UNL     1     -26.783  -0.408  11.434  1.00 20.00    -0.024 C 
HETATM    3  C4  UNL     1     -28.690  -1.510  12.095  1.00 20.00     0.018 C 
HETATM    4  C5  UNL     1     -28.642  -1.439  10.566  1.00 20.00     0.013 C 
HETATM    5  C6  UNL     1     -27.166  -1.634  12.236  1.00 20.00     0.024 C 
HETATM    6  C7  UNL     1     -27.894  -2.755  10.195  1.00 20.00     0.004 C 
HETATM    7  C8  UNL     1     -26.880  -2.920  11.397  1.00 20.00     0.020 C 
HETATM    8  C9  UNL     1     -28.866  -3.911   9.975  1.00 20.00     0.012 C 
HETATM    9  C10 UNL     1     -27.051  -4.187  12.244  1.00 20.00     0.024 C 
ENDROOT
BRANCH   7  10
HETATM   10  C3  UNL     1     -25.459  -2.943  10.896  1.00 20.00     0.241 C 
HETATM   11  O11 UNL     1     -25.161  -2.986   9.706  1.00 20.00    -0.306 OA
ENDBRANCH   7  10
TORSDOF 1
ENDMDL
MODEL 5
REMARK VINA RESULT:      -3.4     10.183     11.327
REMARK  1 active torsions:
REMARK  status: ('A' for Active; 'I' for Inactive)
REMARK    1  A    between atoms: C3_3  and  C8_8 
ROOT
HETATM    1  C1  UNL     1     -40.753  16.281   7.469  1.00 20.00    -0.025 C 
HETATM    2  C2  UNL     1     -40.311  15.266   8.224  1.00 20.00    -0.024 C 
HETATM    3  C4  UNL     1     -42.607  15.133   8.207  1.00 20.00     0.018 C 
HETATM    4  C5  UNL     1     -42.128  15.902   6.972  1.00 20.00     0.013 C 
HETATM    5  C6  UNL     1     -41.388  14.200   8.222  1.00 20.00     0.024 C 
HETATM    6  C7  UNL     1     -41.957  14.767   5.918  1.00 20.00     0.004 C 
HETATM    7  C8  UNL     1     -41.478  13.549   6.805  1.00 20.00     0.020 C 
HETATM    8  C9  UNL     1     -43.238  14.547   5.117  1.00 20.00     0.012 C 
HETATM    9  C10 UNL     1     -42.401  12.324   6.813  1.00 20.00     0.024 C 
ENDROOT
BRANCH   7  10
HETATM   10  C3  UNL     1     -40.131  13.052   6.343  1.00 20.00     0.241 C 
HETATM   11  O11 UNL     1     -39.666  11.962   6.663  1.00 20.00    -0.306 OA
ENDBRANCH   7  10
TORSDOF 1
ENDMDL
MODEL 6
REMARK VINA RESULT:      -3.3     10.313     11.528
REMARK  1 active torsions:
REMARK  status: ('A' for Active; 'I' for Inactive)
REMARK    1  A    between atoms: C3_3  and  C8_8 
ROOT
HETATM    1  C1  UNL     1     -42.319  15.848   8.003  1.00 20.00    -0.025 C 
HETATM    2  C2  UNL     1     -41.255  15.988   7.201  1.00 20.00    -0.024 C 
HETATM    3  C4  UNL     1     -40.843  14.168   8.545  1.00 20.00     0.018 C 
HETATM    4  C5  UNL     1     -42.353  14.407   8.454  1.00 20.00     0.013 C 
HETATM    5  C6  UNL     1     -40.582  14.634   7.106  1.00 20.00     0.024 C 
HETATM    6  C7  UNL     1     -42.756  13.534   7.228  1.00 20.00     0.004 C 
HETATM    7  C8  UNL     1     -41.488  13.655   6.293  1.00 20.00     0.020 C 
HETATM    8  C9  UNL     1     -43.144  12.119   7.651  1.00 20.00     0.012 C 
HETATM    9  C10 UNL     1     -40.755  12.342   5.989  1.00 20.00     0.024 C 
ENDROOT
BRANCH   7  10
HETATM   10  C3  UNL     1     -41.866  14.239   4.955  1.00 20.00     0.241 C 
HETATM   11  O11 UNL     1     -41.435  13.819   3.887  1.00 20.00    -0.306 OA
ENDBRANCH   7  10
TORSDOF 1
ENDMDL
MODEL 7
REMARK VINA RESULT:      -3.3     12.471     13.519
REMARK  1 active torsions:
REMARK  status: ('A' for Active; 'I' for Inactive)
REMARK    1  A    between atoms: C3_3  and  C8_8 
ROOT
HETATM    1  C1  UNL     1     -34.044  18.000  -0.695  1.00 20.00    -0.025 C 
HETATM    2  C2  UNL     1     -34.511  19.129  -1.244  1.00 20.00    -0.024 C 
HETATM    3  C4  UNL     1     -32.499  18.677  -2.261  1.00 20.00     0.018 C 
HETATM    4  C5  UNL     1     -33.085  17.384  -1.687  1.00 20.00     0.013 C 
HETATM    5  C6  UNL     1     -33.874  19.263  -2.612  1.00 20.00     0.024 C 
HETATM    6  C7  UNL     1     -33.923  16.838  -2.882  1.00 20.00     0.004 C 
HETATM    7  C8  UNL     1     -34.444  18.165  -3.566  1.00 20.00     0.020 C 
HETATM    8  C9  UNL     1     -33.096  15.910  -3.768  1.00 20.00     0.012 C 
HETATM    9  C10 UNL     1     -33.990  18.394  -5.013  1.00 20.00     0.024 C 
ENDROOT
BRANCH   7  10
HETATM   10  C3  UNL     1     -35.952  18.192  -3.594  1.00 20.00     0.241 C 
HETATM   11  O11 UNL     1     -36.618  17.782  -4.539  1.00 20.00    -0.306 OA
ENDBRANCH   7  10
TORSDOF 1
ENDMDL
MODEL 8
REMARK VINA RESULT:      -3.3     12.641     14.192
REMARK  1 active torsions:
REMARK  status: ('A' for Active; 'I' for Inactive)
REMARK    1  A    between atoms: C3_3  and  C8_8 
ROOT
HETATM    1  C1  UNL     1     -36.345  17.729  -4.625  1.00 20.00    -0.025 C 
HETATM    2  C2  UNL     1     -36.581  17.533  -5.929  1.00 20.00    -0.024 C 
HETATM    3  C4  UNL     1     -34.355  18.073  -5.728  1.00 20.00     0.018 C 
HETATM    4  C5  UNL     1     -34.868  17.509  -4.400  1.00 20.00     0.013 C 
HETATM    5  C6  UNL     1     -35.260  17.169  -6.576  1.00 20.00     0.024 C 
HETATM    6  C7  UNL     1     -34.585  15.984  -4.553  1.00 20.00     0.004 C 
HETATM    7  C8  UNL     1     -34.817  15.749  -6.099  1.00 20.00     0.020 C 
HETATM    8  C9  UNL     1     -33.203  15.614  -4.020  1.00 20.00     0.012 C 
HETATM    9  C10 UNL     1     -33.599  15.252  -6.888  1.00 20.00     0.024 C 
ENDROOT
BRANCH   7  10
HETATM   10  C3  UNL     1     -35.904  14.730  -6.325  1.00 20.00     0.241 C 
HETATM   11  O11 UNL     1     -36.185  14.274  -7.429  1.00 20.00    -0.306 OA
ENDBRANCH   7  10
TORSDOF 1
ENDMDL
MODEL 9
REMARK VINA RESULT:      -3.3     10.404     11.731
REMARK  1 active torsions:
REMARK  status: ('A' for Active; 'I' for Inactive)
REMARK    1  A    between atoms: C3_3  and  C8_8 
ROOT
HETATM    1  C1  UNL     1     -42.450  12.445   6.707  1.00 20.00    -0.025 C 
HETATM    2  C2  UNL     1     -41.121  12.542   6.566  1.00 20.00    -0.024 C 
HETATM    3  C4  UNL     1     -42.039  14.364   5.504  1.00 20.00     0.018 C 
HETATM    4  C5  UNL     1     -43.019  13.836   6.557  1.00 20.00     0.013 C 
HETATM    5  C6  UNL     1     -40.798  14.004   6.334  1.00 20.00     0.024 C 
HETATM    6  C7  UNL     1     -42.620  14.652   7.823  1.00 20.00     0.004 C 
HETATM    7  C8  UNL     1     -41.057  14.813   7.645  1.00 20.00     0.020 C 
HETATM    8  C9  UNL     1     -43.417  15.949   7.929  1.00 20.00     0.012 C 
HETATM    9  C10 UNL     1     -40.544  16.253   7.522  1.00 20.00     0.024 C 
ENDROOT
BRANCH   7  10
HETATM   10  C3  UNL     1     -40.323  14.208   8.816  1.00 20.00     0.241 C 
HETATM   11  O11 UNL     1     -40.887  13.732   9.795  1.00 20.00    -0.306 OA
ENDBRANCH   7  10
TORSDOF 1
ENDMDL
