MODEL 1
REMARK VINA RESULT:      -3.8      0.000      0.000
REMARK  1 active torsions:
REMARK  status: ('A' for Active; 'I' for Inactive)
REMARK    1  A    between atoms: C1_1  and  C5_5 
ROOT
HETATM    1  C1  UNL     1     -33.609  16.083  -3.142  1.00 20.00    -0.097 C 
HETATM    2  C2  UNL     1     -33.591  16.795  -2.175  1.00 20.00    -0.110 C 
HETATM    3  C7  UNL     1     -33.570  17.660  -0.997  1.00 20.00     0.112 C 
ENDROOT
BRANCH   1   4
HETATM    4  C5  UNL     1     -33.631  15.217  -4.319  1.00 20.00     0.027 C 
HETATM    5  C3  UNL     1     -34.797  14.180  -4.284  1.00 20.00     0.024 C 
HETATM    6  C4  UNL     1     -35.652  15.156  -5.115  1.00 20.00     0.012 C 
HETATM    7  C6  UNL     1     -34.341  15.836  -5.608  1.00 20.00    -0.029 C 
HETATM    8  C9  UNL     1     -34.441  17.362  -5.683  1.00 20.00     0.016 C 
HETATM    9  C10 UNL     1     -33.882  15.284  -6.966  1.00 20.00     0.016 C 
HETATM   10  C8  UNL     1     -32.253  14.587  -4.509  1.00 20.00     0.030 C 
ENDBRANCH   1   4
TORSDOF 1
ENDMDL
MODEL 2
REMARK VINA RESULT:      -3.8     12.078     14.068
REMARK  1 active torsions:
REMARK  status: ('A' for Active; 'I' for Inactive)
REMARK    1  A    between atoms: C1_1  and  C5_5 
ROOT
HETATM    1  C1  UNL     1     -40.546  13.140   6.117  1.00 20.00    -0.097 C 
HETATM    2  C2  UNL     1     -39.939  12.455   5.340  1.00 20.00    -0.110 C 
HETATM    3  C7  UNL     1     -39.199  11.622   4.394  1.00 20.00     0.112 C 
ENDROOT
BRANCH   1   4
HETATM    4  C5  UNL     1     -41.285  13.974   7.063  1.00 20.00     0.027 C 
HETATM    5  C3  UNL     1     -41.944  15.218   6.387  1.00 20.00     0.024 C 
HETATM    6  C4  UNL     1     -43.248  14.411   6.238  1.00 20.00     0.012 C 
HETATM    7  C6  UNL     1     -42.768  13.481   7.393  1.00 20.00    -0.029 C 
HETATM    8  C9  UNL     1     -43.081  12.002   7.149  1.00 20.00     0.016 C 
HETATM    9  C10 UNL     1     -43.340  13.911   8.752  1.00 20.00     0.016 C 
HETATM   10  C8  UNL     1     -40.381  14.322   8.244  1.00 20.00     0.030 C 
ENDBRANCH   1   4
TORSDOF 1
ENDMDL
MODEL 3
REMARK VINA RESULT:      -3.6     11.630     13.589
REMARK  1 active torsions:
REMARK  status: ('A' for Active; 'I' for Inactive)
REMARK    1  A    between atoms: C1_1  and  C5_5 
ROOT
HETATM    1  C1  UNL     1     -40.971  13.098   5.398  1.00 20.00    -0.097 C 
HETATM    2  C2  UNL     1     -40.020  12.466   5.027  1.00 20.00    -0.110 C 
HETATM    3  C7  UNL     1     -38.863  11.695   4.576  1.00 20.00     0.112 C 
ENDROOT
BRANCH   1   4
HETATM    4  C5  UNL     1     -42.129  13.868   5.849  1.00 20.00     0.027 C 
HETATM    5  C3  UNL     1     -43.125  13.019   6.700  1.00 20.00     0.024 C 
HETATM    6  C4  UNL     1     -42.423  13.524   7.975  1.00 20.00     0.012 C 
HETATM    7  C6  UNL     1     -41.895  14.744   7.163  1.00 20.00    -0.029 C 
HETATM    8  C9  UNL     1     -40.450  15.119   7.503  1.00 20.00     0.016 C 
HETATM    9  C10 UNL     1     -42.798  15.977   7.326  1.00 20.00     0.016 C 
HETATM   10  C8  UNL     1     -42.777  14.556   4.650  1.00 20.00     0.030 C 
ENDBRANCH   1   4
TORSDOF 1
ENDMDL
MODEL 4
REMARK VINA RESULT:      -3.6     11.489     13.432
REMARK  1 active torsions:
REMARK  status: ('A' for Active; 'I' for Inactive)
REMARK    1  A    between atoms: C1_1  and  C5_5 
ROOT
HETATM    1  C1  UNL     1     -40.620  12.671   5.768  1.00 20.00    -0.097 C 
HETATM    2  C2  UNL     1     -39.871  12.168   4.976  1.00 20.00    -0.110 C 
HETATM    3  C7  UNL     1     -38.958  11.555   4.012  1.00 20.00     0.112 C 
ENDROOT
BRANCH   1   4
HETATM    4  C5  UNL     1     -41.532  13.284   6.732  1.00 20.00     0.027 C 
HETATM    5  C3  UNL     1     -40.785  13.976   7.915  1.00 20.00     0.024 C 
HETATM    6  C4  UNL     1     -40.866  15.310   7.148  1.00 20.00     0.012 C 
HETATM    7  C6  UNL     1     -42.066  14.736   6.338  1.00 20.00    -0.029 C 
HETATM    8  C9  UNL     1     -42.031  15.113   4.855  1.00 20.00     0.016 C 
HETATM    9  C10 UNL     1     -43.417  15.149   6.942  1.00 20.00     0.016 C 
HETATM   10  C8  UNL     1     -42.566  12.251   7.177  1.00 20.00     0.030 C 
ENDBRANCH   1   4
TORSDOF 1
ENDMDL
MODEL 5
REMARK VINA RESULT:      -3.2      1.421      1.970
REMARK  1 active torsions:
REMARK  status: ('A' for Active; 'I' for Inactive)
REMARK    1  A    between atoms: C1_1  and  C5_5 
ROOT
HETATM    1  C1  UNL     1     -34.276  16.101  -4.502  1.00 20.00    -0.097 C 
HETATM    2  C2  UNL     1     -33.754  16.483  -3.490  1.00 20.00    -0.110 C 
HETATM    3  C7  UNL     1     -33.119  16.947  -2.258  1.00 20.00     0.112 C 
ENDROOT
BRANCH   1   4
HETATM    4  C5  UNL     1     -34.911  15.636  -5.734  1.00 20.00     0.027 C 
HETATM    5  C3  UNL     1     -36.025  14.573  -5.475  1.00 20.00     0.024 C 
HETATM    6  C4  UNL     1     -37.070  15.706  -5.485  1.00 20.00     0.012 C 
HETATM    7  C6  UNL     1     -36.069  16.579  -6.300  1.00 20.00    -0.029 C 
HETATM    8  C9  UNL     1     -36.051  18.046  -5.863  1.00 20.00     0.016 C 
HETATM    9  C10 UNL     1     -36.333  16.496  -7.812  1.00 20.00     0.016 C 
HETATM   10  C8  UNL     1     -33.836  15.175  -6.715  1.00 20.00     0.030 C 
ENDBRANCH   1   4
TORSDOF 1
ENDMDL
MODEL 6
REMARK VINA RESULT:      -3.2     24.156     25.592
REMARK  1 active torsions:
REMARK  status: ('A' for Active; 'I' for Inactive)
REMARK    1  A    between atoms: C1_1  and  C5_5 
ROOT
HETATM    1  C1  UNL     1     -24.532  -3.111  10.115  1.00 20.00    -0.097 C 
HETATM    2  C2  UNL     1     -23.917  -3.167   9.085  1.00 20.00    -0.110 C 
HETATM    3  C7  UNL     1     -23.168  -3.236   7.832  1.00 20.00     0.112 C 
ENDROOT
BRANCH   1   4
HETATM    4  C5  UNL     1     -25.281  -3.042  11.369  1.00 20.00     0.027 C 
HETATM    5  C3  UNL     1     -24.750  -1.932  12.329  1.00 20.00     0.024 C 
HETATM    6  C4  UNL     1     -25.813  -0.971  11.762  1.00 20.00     0.012 C 
HETATM    7  C6  UNL     1     -26.642  -2.209  11.305  1.00 20.00    -0.029 C 
HETATM    8  C9  UNL     1     -27.286  -2.031   9.928  1.00 20.00     0.016 C 
HETATM    9  C10 UNL     1     -27.719  -2.590  12.332  1.00 20.00     0.016 C 
HETATM   10  C8  UNL     1     -25.334  -4.430  12.002  1.00 20.00     0.030 C 
ENDBRANCH   1   4
TORSDOF 1
ENDMDL
MODEL 7
REMARK VINA RESULT:      -3.0      1.373      2.764
REMARK  1 active torsions:
REMARK  status: ('A' for Active; 'I' for Inactive)
REMARK    1  A    between atoms: C1_1  and  C5_5 
ROOT
HETATM    1  C1  UNL     1     -34.223  17.403  -4.138  1.00 20.00    -0.097 C 
HETATM    2  C2  UNL     1     -33.510  17.958  -3.346  1.00 20.00    -0.110 C 
HETATM    3  C7  UNL     1     -32.643  18.633  -2.382  1.00 20.00     0.112 C 
ENDROOT
BRANCH   1   4
HETATM    4  C5  UNL     1     -35.090  16.727  -5.101  1.00 20.00     0.027 C 
HETATM    5  C3  UNL     1     -34.578  16.858  -6.570  1.00 20.00     0.024 C 
HETATM    6  C4  UNL     1     -33.867  15.500  -6.414  1.00 20.00     0.012 C 
HETATM    7  C6  UNL     1     -34.846  15.156  -5.252  1.00 20.00    -0.029 C 
HETATM    8  C9  UNL     1     -34.167  14.440  -4.081  1.00 20.00     0.016 C 
HETATM    9  C10 UNL     1     -36.044  14.327  -5.737  1.00 20.00     0.016 C 
HETATM   10  C8  UNL     1     -36.528  17.200  -4.906  1.00 20.00     0.030 C 
ENDBRANCH   1   4
TORSDOF 1
ENDMDL
MODEL 8
REMARK VINA RESULT:      -3.0     24.301     25.725
REMARK  1 active torsions:
REMARK  status: ('A' for Active; 'I' for Inactive)
REMARK    1  A    between atoms: C1_1  and  C5_5 
ROOT
HETATM    1  C1  UNL     1     -26.108  -2.406  10.422  1.00 20.00    -0.097 C 
HETATM    2  C2  UNL     1     -26.983  -1.593  10.299  1.00 20.00    -0.110 C 
HETATM    3  C7  UNL     1     -28.047  -0.603  10.148  1.00 20.00     0.112 C 
ENDROOT
BRANCH   1   4
HETATM    4  C5  UNL     1     -25.043  -3.396  10.571  1.00 20.00     0.027 C 
HETATM    5  C3  UNL     1     -24.114  -3.479   9.319  1.00 20.00     0.024 C 
HETATM    6  C4  UNL     1     -23.150  -2.491  10.004  1.00 20.00     0.012 C 
HETATM    7  C6  UNL     1     -23.758  -2.899  11.379  1.00 20.00    -0.029 C 
HETATM    8  C9  UNL     1     -23.949  -1.716  12.332  1.00 20.00     0.016 C 
HETATM    9  C10 UNL     1     -22.929  -3.990  12.073  1.00 20.00     0.016 C 
HETATM   10  C8  UNL     1     -25.652  -4.737  10.975  1.00 20.00     0.030 C 
ENDBRANCH   1   4
TORSDOF 1
ENDMDL
MODEL 9
REMARK VINA RESULT:      -3.0      1.335      1.954
REMARK  1 active torsions:
REMARK  status: ('A' for Active; 'I' for Inactive)
REMARK    1  A    between atoms: C1_1  and  C5_5 
ROOT
HETATM    1  C1  UNL     1     -34.142  16.626  -4.127  1.00 20.00    -0.097 C 
HETATM    2  C2  UNL     1     -33.692  16.902  -3.048  1.00 20.00    -0.110 C 
HETATM    3  C7  UNL     1     -33.144  17.237  -1.735  1.00 20.00     0.112 C 
ENDROOT
BRANCH   1   4
HETATM    4  C5  UNL     1     -34.691  16.290  -5.439  1.00 20.00     0.027 C 
HETATM    5  C3  UNL     1     -36.241  16.107  -5.418  1.00 20.00     0.024 C 
HETATM    6  C4  UNL     1     -36.393  17.579  -5.846  1.00 20.00     0.012 C 
HETATM    7  C6  UNL     1     -34.941  17.532  -6.411  1.00 20.00    -0.029 C 
HETATM    8  C9  UNL     1     -34.141  18.807  -6.133  1.00 20.00     0.016 C 
HETATM    9  C10 UNL     1     -34.921  17.229  -7.917  1.00 20.00     0.016 C 
HETATM   10  C8  UNL     1     -33.937  15.090  -6.010  1.00 20.00     0.030 C 
ENDBRANCH   1   4
TORSDOF 1
ENDMDL
