MODEL 1
REMARK VINA RESULT:      -6.5      0.000      0.000
REMARK  0 active torsions:
REMARK  status: ('A' for Active; 'I' for Inactive)
ROOT
HETATM    1  C1  UNL     1     -33.725   7.226   6.315  1.00 20.00     0.019 A 
HETATM    2  C2  UNL     1     -34.521   6.183   6.040  1.00 20.00     0.054 A 
HETATM    3  C3  UNL     1     -33.684   6.169   3.669  1.00 20.00     0.096 A 
HETATM    4  C4  UNL     1     -32.888   7.212   3.945  1.00 20.00     0.133 A 
HETATM    5  C5  UNL     1     -32.819   7.857   5.298  1.00 20.00     0.254 A 
HETATM    6  C6  UNL     1     -34.589   5.538   4.686  1.00 20.00     0.282 A 
HETATM    7  F7  UNL     1     -32.110   7.708   2.958  1.00 20.00    -0.207 F 
HETATM    8  F8  UNL     1     -33.120   9.182   5.183  1.00 20.00    -0.238 F 
HETATM    9  F9  UNL     1     -34.284   4.213   4.802  1.00 20.00    -0.197 F 
HETATM   10  F10 UNL     1     -35.874   5.575   4.231  1.00 20.00    -0.197 F 
ENDROOT
TORSDOF 0
ENDMDL
MODEL 2
REMARK VINA RESULT:      -6.4      1.279      3.699
REMARK  0 active torsions:
REMARK  status: ('A' for Active; 'I' for Inactive)
ROOT
HETATM    1  C1  UNL     1     -33.617   5.630   3.467  1.00 20.00     0.019 A 
HETATM    2  C2  UNL     1     -32.768   6.573   3.035  1.00 20.00     0.054 A 
HETATM    3  C3  UNL     1     -33.155   7.889   5.142  1.00 20.00     0.096 A 
HETATM    4  C4  UNL     1     -34.004   6.944   5.574  1.00 20.00     0.133 A 
HETATM    5  C5  UNL     1     -34.329   5.710   4.786  1.00 20.00     0.254 A 
HETATM    6  C6  UNL     1     -32.443   7.808   3.824  1.00 20.00     0.282 A 
HETATM    7  F7  UNL     1     -34.596   7.112   6.777  1.00 20.00    -0.207 F 
HETATM    8  F8  UNL     1     -35.675   5.648   4.579  1.00 20.00    -0.238 F 
HETATM    9  F9  UNL     1     -31.096   7.867   4.034  1.00 20.00    -0.197 F 
HETATM   10  F10 UNL     1     -32.742   8.911   3.082  1.00 20.00    -0.197 F 
ENDROOT
TORSDOF 0
ENDMDL
MODEL 3
REMARK VINA RESULT:      -6.4      1.400      3.487
REMARK  0 active torsions:
REMARK  status: ('A' for Active; 'I' for Inactive)
ROOT
HETATM    1  C1  UNL     1     -34.425   6.544   5.033  1.00 20.00     0.019 A 
HETATM    2  C2  UNL     1     -33.706   7.672   4.930  1.00 20.00     0.054 A 
HETATM    3  C3  UNL     1     -32.458   6.699   2.977  1.00 20.00     0.096 A 
HETATM    4  C4  UNL     1     -33.177   5.572   3.081  1.00 20.00     0.133 A 
HETATM    5  C5  UNL     1     -34.241   5.369   4.118  1.00 20.00     0.254 A 
HETATM    6  C6  UNL     1     -32.642   7.874   3.891  1.00 20.00     0.282 A 
HETATM    7  F7  UNL     1     -32.933   4.569   2.208  1.00 20.00    -0.207 F 
HETATM    8  F8  UNL     1     -33.946   4.262   4.857  1.00 20.00    -0.238 F 
HETATM    9  F9  UNL     1     -32.941   8.980   3.150  1.00 20.00    -0.197 F 
HETATM   10  F10 UNL     1     -31.459   8.159   4.505  1.00 20.00    -0.197 F 
ENDROOT
TORSDOF 0
ENDMDL
MODEL 4
REMARK VINA RESULT:      -6.2      0.855      2.373
REMARK  0 active torsions:
REMARK  status: ('A' for Active; 'I' for Inactive)
ROOT
HETATM    1  C1  UNL     1     -32.807   6.200   2.958  1.00 20.00     0.019 A 
HETATM    2  C2  UNL     1     -33.711   5.392   3.529  1.00 20.00     0.054 A 
HETATM    3  C3  UNL     1     -34.101   7.101   5.331  1.00 20.00     0.096 A 
HETATM    4  C4  UNL     1     -33.197   7.909   4.759  1.00 20.00     0.133 A 
HETATM    5  C5  UNL     1     -32.450   7.551   3.508  1.00 20.00     0.254 A 
HETATM    6  C6  UNL     1     -34.459   5.752   4.780  1.00 20.00     0.282 A 
HETATM    7  F7  UNL     1     -32.945   9.105   5.335  1.00 20.00    -0.207 F 
HETATM    8  F8  UNL     1     -31.109   7.600   3.753  1.00 20.00    -0.238 F 
HETATM    9  F9  UNL     1     -35.799   5.706   4.533  1.00 20.00    -0.197 F 
HETATM   10  F10 UNL     1     -34.233   4.802   5.731  1.00 20.00    -0.197 F 
ENDROOT
TORSDOF 0
ENDMDL
MODEL 5
REMARK VINA RESULT:      -6.0      1.613      2.976
REMARK  0 active torsions:
REMARK  status: ('A' for Active; 'I' for Inactive)
ROOT
HETATM    1  C1  UNL     1     -34.385   5.409   4.215  1.00 20.00     0.019 A 
HETATM    2  C2  UNL     1     -34.458   6.045   5.394  1.00 20.00     0.054 A 
HETATM    3  C3  UNL     1     -32.748   7.710   4.602  1.00 20.00     0.096 A 
HETATM    4  C4  UNL     1     -32.677   7.073   3.424  1.00 20.00     0.133 A 
HETATM    5  C5  UNL     1     -33.487   5.854   3.098  1.00 20.00     0.254 A 
HETATM    6  C6  UNL     1     -33.647   7.266   5.718  1.00 20.00     0.282 A 
HETATM    7  F7  UNL     1     -31.834   7.554   2.483  1.00 20.00    -0.207 F 
HETATM    8  F8  UNL     1     -32.650   4.833   2.756  1.00 20.00    -0.238 F 
HETATM    9  F9  UNL     1     -34.486   8.287   6.056  1.00 20.00    -0.197 F 
HETATM   10  F10 UNL     1     -32.899   7.028   6.833  1.00 20.00    -0.197 F 
ENDROOT
TORSDOF 0
ENDMDL
MODEL 6
REMARK VINA RESULT:      -5.5      1.742      2.965
REMARK  0 active torsions:
REMARK  status: ('A' for Active; 'I' for Inactive)
ROOT
HETATM    1  C1  UNL     1     -32.788   7.708   4.293  1.00 20.00     0.019 A 
HETATM    2  C2  UNL     1     -32.524   6.950   3.218  1.00 20.00     0.054 A 
HETATM    3  C3  UNL     1     -34.124   5.202   4.057  1.00 20.00     0.096 A 
HETATM    4  C4  UNL     1     -34.387   5.960   5.131  1.00 20.00     0.133 A 
HETATM    5  C5  UNL     1     -33.751   7.297   5.369  1.00 20.00     0.254 A 
HETATM    6  C6  UNL     1     -33.163   5.613   2.981  1.00 20.00     0.282 A 
HETATM    7  F7  UNL     1     -35.270   5.499   6.045  1.00 20.00    -0.207 F 
HETATM    8  F8  UNL     1     -33.107   7.284   6.571  1.00 20.00    -0.238 F 
HETATM    9  F9  UNL     1     -33.809   5.628   1.780  1.00 20.00    -0.197 F 
HETATM   10  F10 UNL     1     -32.192   4.664   2.857  1.00 20.00    -0.197 F 
ENDROOT
TORSDOF 0
ENDMDL
MODEL 7
REMARK VINA RESULT:      -5.4      1.269      1.777
REMARK  0 active torsions:
REMARK  status: ('A' for Active; 'I' for Inactive)
ROOT
HETATM    1  C1  UNL     1     -34.407   5.611   6.374  1.00 20.00     0.019 A 
HETATM    2  C2  UNL     1     -34.583   5.009   5.188  1.00 20.00     0.054 A 
HETATM    3  C3  UNL     1     -33.393   6.906   4.046  1.00 20.00     0.096 A 
HETATM    4  C4  UNL     1     -33.217   7.507   5.232  1.00 20.00     0.133 A 
HETATM    5  C5  UNL     1     -33.702   6.927   6.527  1.00 20.00     0.254 A 
HETATM    6  C6  UNL     1     -34.096   5.590   3.893  1.00 20.00     0.282 A 
HETATM    7  F7  UNL     1     -32.570   8.694   5.263  1.00 20.00    -0.207 F 
HETATM    8  F8  UNL     1     -34.535   7.818   7.137  1.00 20.00    -0.238 F 
HETATM    9  F9  UNL     1     -33.260   4.699   3.286  1.00 20.00    -0.197 F 
HETATM   10  F10 UNL     1     -35.149   5.737   3.040  1.00 20.00    -0.197 F 
ENDROOT
TORSDOF 0
ENDMDL
MODEL 8
REMARK VINA RESULT:      -5.3      1.470      3.647
REMARK  0 active torsions:
REMARK  status: ('A' for Active; 'I' for Inactive)
ROOT
HETATM    1  C1  UNL     1     -32.225   6.695   2.719  1.00 20.00     0.019 A 
HETATM    2  C2  UNL     1     -32.439   7.770   3.491  1.00 20.00     0.054 A 
HETATM    3  C3  UNL     1     -34.080   6.455   4.869  1.00 20.00     0.096 A 
HETATM    4  C4  UNL     1     -33.865   5.380   4.096  1.00 20.00     0.133 A 
HETATM    5  C5  UNL     1     -32.914   5.379   2.936  1.00 20.00     0.254 A 
HETATM    6  C6  UNL     1     -33.390   7.769   4.652  1.00 20.00     0.282 A 
HETATM    7  F7  UNL     1     -34.538   4.241   4.375  1.00 20.00    -0.207 F 
HETATM    8  F8  UNL     1     -33.584   5.026   1.803  1.00 20.00    -0.238 F 
HETATM    9  F9  UNL     1     -32.717   8.120   5.786  1.00 20.00    -0.197 F 
HETATM   10  F10 UNL     1     -34.326   8.745   4.471  1.00 20.00    -0.197 F 
ENDROOT
TORSDOF 0
ENDMDL
MODEL 9
REMARK VINA RESULT:      -4.4      1.189      3.536
REMARK  0 active torsions:
REMARK  status: ('A' for Active; 'I' for Inactive)
ROOT
HETATM    1  C1  UNL     1     -33.774   5.892   6.625  1.00 20.00     0.019 A 
HETATM    2  C2  UNL     1     -33.215   7.100   6.467  1.00 20.00     0.054 A 
HETATM    3  C3  UNL     1     -34.626   7.487   4.422  1.00 20.00     0.096 A 
HETATM    4  C4  UNL     1     -35.184   6.278   4.581  1.00 20.00     0.133 A 
HETATM    5  C5  UNL     1     -34.823   5.346   5.699  1.00 20.00     0.254 A 
HETATM    6  C6  UNL     1     -33.579   8.032   5.348  1.00 20.00     0.282 A 
HETATM    7  F7  UNL     1     -36.120   5.879   3.690  1.00 20.00    -0.207 F 
HETATM    8  F8  UNL     1     -34.396   4.161   5.179  1.00 20.00    -0.238 F 
HETATM    9  F9  UNL     1     -34.009   9.217   5.870  1.00 20.00    -0.197 F 
HETATM   10  F10 UNL     1     -32.459   8.338   4.633  1.00 20.00    -0.197 F 
ENDROOT
TORSDOF 0
ENDMDL
