MODEL 1
REMARK VINA RESULT:      -4.3      0.000      0.000
REMARK  2 active torsions:
REMARK  status: ('A' for Active; 'I' for Inactive)
REMARK    1  A    between atoms: C6_6  and  C10_10 
REMARK    2  A    between atoms: C7_7  and  C11_11 
ROOT
HETATM    1  C1  UNL     1     -34.060   5.418   6.419  1.00 20.00    -0.025 C 
HETATM    2  C2  UNL     1     -34.483   4.752   5.334  1.00 20.00    -0.025 C 
HETATM    3  C3  UNL     1     -35.331   6.893   5.184  1.00 20.00     0.017 C 
HETATM    4  C4  UNL     1     -34.085   6.891   6.079  1.00 20.00     0.013 C 
HETATM    5  C5  UNL     1     -34.797   5.780   4.272  1.00 20.00     0.013 C 
HETATM    6  C6  UNL     1     -32.938   7.142   5.059  1.00 20.00    -0.002 C 
HETATM    7  C7  UNL     1     -33.489   6.446   3.764  1.00 20.00    -0.002 C 
ENDROOT
BRANCH   6   8
HETATM    8  C10 UNL     1     -32.666   8.627   4.840  1.00 20.00     0.001 C 
HETATM    9  C8  UNL     1     -32.585   8.965   3.386  1.00 20.00     0.005 C 
ENDBRANCH   6   8
BRANCH   7  10
HETATM   10  C11 UNL     1     -32.493   5.485   3.130  1.00 20.00     0.001 C 
HETATM   11  C9  UNL     1     -33.086   4.757   1.966  1.00 20.00     0.005 C 
ENDBRANCH   7  10
TORSDOF 2
ENDMDL
MODEL 2
REMARK VINA RESULT:      -4.2      1.015      3.687
REMARK  2 active torsions:
REMARK  status: ('A' for Active; 'I' for Inactive)
REMARK    1  A    between atoms: C6_6  and  C10_10 
REMARK    2  A    between atoms: C7_7  and  C11_11 
ROOT
HETATM    1  C1  UNL     1     -31.479   8.186   4.269  1.00 20.00    -0.025 C 
HETATM    2  C2  UNL     1     -32.324   8.900   5.027  1.00 20.00    -0.025 C 
HETATM    3  C3  UNL     1     -33.401   8.482   3.030  1.00 20.00     0.017 C 
HETATM    4  C4  UNL     1     -32.313   7.425   3.263  1.00 20.00     0.013 C 
HETATM    5  C5  UNL     1     -33.721   8.622   4.525  1.00 20.00     0.013 C 
HETATM    6  C6  UNL     1     -33.078   6.322   4.049  1.00 20.00    -0.002 C 
HETATM    7  C7  UNL     1     -34.131   7.161   4.856  1.00 20.00    -0.002 C 
ENDROOT
BRANCH   6   8
HETATM    8  C10 UNL     1     -33.741   5.303   3.127  1.00 20.00     0.001 C 
HETATM    9  C8  UNL     1     -32.783   4.771   2.111  1.00 20.00     0.005 C 
ENDBRANCH   6   8
BRANCH   7  10
HETATM   10  C11 UNL     1     -34.150   6.829   6.342  1.00 20.00     0.001 C 
HETATM   11  C9  UNL     1     -34.560   5.413   6.591  1.00 20.00     0.005 C 
ENDBRANCH   7  10
TORSDOF 2
ENDMDL
MODEL 3
REMARK VINA RESULT:      -4.2      0.997      1.197
REMARK  2 active torsions:
REMARK  status: ('A' for Active; 'I' for Inactive)
REMARK    1  A    between atoms: C6_6  and  C10_10 
REMARK    2  A    between atoms: C7_7  and  C11_11 
ROOT
HETATM    1  C1  UNL     1     -33.819   4.762   5.938  1.00 20.00    -0.025 C 
HETATM    2  C2  UNL     1     -34.097   4.383   4.681  1.00 20.00    -0.025 C 
HETATM    3  C3  UNL     1     -35.502   6.143   5.180  1.00 20.00     0.017 C 
HETATM    4  C4  UNL     1     -34.262   6.201   6.081  1.00 20.00     0.013 C 
HETATM    5  C5  UNL     1     -34.729   5.566   3.987  1.00 20.00     0.013 C 
HETATM    6  C6  UNL     1     -33.277   7.064   5.243  1.00 20.00    -0.002 C 
HETATM    7  C7  UNL     1     -33.678   6.690   3.772  1.00 20.00    -0.002 C 
ENDROOT
BRANCH   6   8
HETATM    8  C10 UNL     1     -33.431   8.557   5.517  1.00 20.00     0.001 C 
HETATM    9  C8  UNL     1     -32.240   9.330   5.050  1.00 20.00     0.005 C 
ENDBRANCH   6   8
BRANCH   7  10
HETATM   10  C11 UNL     1     -32.490   6.289   2.909  1.00 20.00     0.001 C 
HETATM   11  C9  UNL     1     -32.049   7.404   2.016  1.00 20.00     0.005 C 
ENDBRANCH   7  10
TORSDOF 2
ENDMDL
MODEL 4
REMARK VINA RESULT:      -4.0      1.005      3.269
REMARK  2 active torsions:
REMARK  status: ('A' for Active; 'I' for Inactive)
REMARK    1  A    between atoms: C6_6  and  C10_10 
REMARK    2  A    between atoms: C7_7  and  C11_11 
ROOT
HETATM    1  C1  UNL     1     -33.438   9.320   3.414  1.00 20.00    -0.025 C 
HETATM    2  C2  UNL     1     -32.639   8.554   2.656  1.00 20.00    -0.025 C 
HETATM    3  C3  UNL     1     -31.826   8.447   4.812  1.00 20.00     0.017 C 
HETATM    4  C4  UNL     1     -33.311   8.828   4.838  1.00 20.00     0.013 C 
HETATM    5  C5  UNL     1     -31.976   7.554   3.574  1.00 20.00     0.013 C 
HETATM    6  C6  UNL     1     -34.013   7.441   4.903  1.00 20.00    -0.002 C 
HETATM    7  C7  UNL     1     -33.020   6.530   4.099  1.00 20.00    -0.002 C 
ENDROOT
BRANCH   6   8
HETATM    8  C10 UNL     1     -34.208   6.953   6.335  1.00 20.00     0.001 C 
HETATM    9  C8  UNL     1     -34.478   5.483   6.385  1.00 20.00     0.005 C 
ENDBRANCH   6   8
BRANCH   7  10
HETATM   10  C11 UNL     1     -33.703   5.709   3.015  1.00 20.00     0.001 C 
HETATM   11  C9  UNL     1     -32.787   4.679   2.436  1.00 20.00     0.005 C 
ENDBRANCH   7  10
TORSDOF 2
ENDMDL
MODEL 5
REMARK VINA RESULT:      -4.0     15.494     16.562
REMARK  2 active torsions:
REMARK  status: ('A' for Active; 'I' for Inactive)
REMARK    1  A    between atoms: C6_6  and  C10_10 
REMARK    2  A    between atoms: C7_7  and  C11_11 
ROOT
HETATM    1  C1  UNL     1     -24.454  16.531  11.609  1.00 20.00    -0.025 C 
HETATM    2  C2  UNL     1     -25.310  17.529  11.876  1.00 20.00    -0.025 C 
HETATM    3  C3  UNL     1     -23.192  18.320  12.332  1.00 20.00     0.017 C 
HETATM    4  C4  UNL     1     -23.107  17.160  11.332  1.00 20.00     0.013 C 
HETATM    5  C5  UNL     1     -24.535  18.821  11.785  1.00 20.00     0.013 C 
HETATM    6  C6  UNL     1     -23.218  17.887   9.962  1.00 20.00    -0.002 C 
HETATM    7  C7  UNL     1     -24.140  19.109  10.310  1.00 20.00    -0.002 C 
ENDROOT
BRANCH   6   8
HETATM    8  C10 UNL     1     -21.860  18.328   9.424  1.00 20.00     0.001 C 
HETATM    9  C8  UNL     1     -21.476  17.564   8.198  1.00 20.00     0.005 C 
ENDBRANCH   6   8
BRANCH   7  10
HETATM   10  C11 UNL     1     -25.317  19.262   9.357  1.00 20.00     0.001 C 
HETATM   11  C9  UNL     1     -24.881  19.249   7.927  1.00 20.00     0.005 C 
ENDBRANCH   7  10
TORSDOF 2
ENDMDL
MODEL 6
REMARK VINA RESULT:      -3.9      9.381     11.254
REMARK  2 active torsions:
REMARK  status: ('A' for Active; 'I' for Inactive)
REMARK    1  A    between atoms: C6_6  and  C10_10 
REMARK    2  A    between atoms: C7_7  and  C11_11 
ROOT
HETATM    1  C1  UNL     1     -42.515  14.523   5.441  1.00 20.00    -0.025 C 
HETATM    2  C2  UNL     1     -42.874  14.910   6.674  1.00 20.00    -0.025 C 
HETATM    3  C3  UNL     1     -42.570  12.625   6.748  1.00 20.00     0.017 C 
HETATM    4  C4  UNL     1     -41.768  13.216   5.582  1.00 20.00     0.013 C 
HETATM    5  C5  UNL     1     -42.374  13.860   7.637  1.00 20.00     0.013 C 
HETATM    6  C6  UNL     1     -40.400  13.544   6.246  1.00 20.00    -0.002 C 
HETATM    7  C7  UNL     1     -40.822  13.898   7.716  1.00 20.00    -0.002 C 
ENDROOT
BRANCH   6   8
HETATM    8  C10 UNL     1     -39.430  12.367   6.196  1.00 20.00     0.001 C 
HETATM    9  C8  UNL     1     -39.350  11.775   4.825  1.00 20.00     0.005 C 
ENDBRANCH   6   8
BRANCH   7  10
HETATM   10  C11 UNL     1     -40.244  15.219   8.204  1.00 20.00     0.001 C 
HETATM   11  C9  UNL     1     -40.171  15.276   9.696  1.00 20.00     0.005 C 
ENDBRANCH   7  10
TORSDOF 2
ENDMDL
MODEL 7
REMARK VINA RESULT:      -3.7     12.046     13.780
REMARK  2 active torsions:
REMARK  status: ('A' for Active; 'I' for Inactive)
REMARK    1  A    between atoms: C6_6  and  C10_10 
REMARK    2  A    between atoms: C7_7  and  C11_11 
ROOT
HETATM    1  C1  UNL     1     -34.419  18.068  -1.083  1.00 20.00    -0.025 C 
HETATM    2  C2  UNL     1     -34.105  19.263  -1.606  1.00 20.00    -0.025 C 
HETATM    3  C3  UNL     1     -32.196  17.969  -1.686  1.00 20.00     0.017 C 
HETATM    4  C4  UNL     1     -33.433  17.063  -1.635  1.00 20.00     0.013 C 
HETATM    5  C5  UNL     1     -32.907  19.057  -2.503  1.00 20.00     0.013 C 
HETATM    6  C6  UNL     1     -33.774  16.873  -3.140  1.00 20.00    -0.002 C 
HETATM    7  C7  UNL     1     -33.309  18.238  -3.760  1.00 20.00    -0.002 C 
ENDROOT
BRANCH   6   8
HETATM    8  C10 UNL     1     -33.043  15.684  -3.757  1.00 20.00     0.001 C 
HETATM    9  C8  UNL     1     -33.992  14.604  -4.167  1.00 20.00     0.005 C 
ENDBRANCH   6   8
BRANCH   7  10
HETATM   10  C11 UNL     1     -34.371  18.894  -4.631  1.00 20.00     0.001 C 
HETATM   11  C9  UNL     1     -35.599  18.047  -4.744  1.00 20.00     0.005 C 
ENDBRANCH   7  10
TORSDOF 2
ENDMDL
MODEL 8
REMARK VINA RESULT:      -3.7      9.594     11.024
REMARK  2 active torsions:
REMARK  status: ('A' for Active; 'I' for Inactive)
REMARK    1  A    between atoms: C6_6  and  C10_10 
REMARK    2  A    between atoms: C7_7  and  C11_11 
ROOT
HETATM    1  C1  UNL     1     -42.899  12.892   8.087  1.00 20.00    -0.025 C 
HETATM    2  C2  UNL     1     -42.756  12.244   6.921  1.00 20.00    -0.025 C 
HETATM    3  C3  UNL     1     -42.939  14.489   6.425  1.00 20.00     0.017 C 
HETATM    4  C4  UNL     1     -42.444  14.317   7.866  1.00 20.00     0.013 C 
HETATM    5  C5  UNL     1     -42.211  13.236   5.921  1.00 20.00     0.013 C 
HETATM    6  C6  UNL     1     -40.899  14.277   7.689  1.00 20.00    -0.002 C 
HETATM    7  C7  UNL     1     -40.745  13.608   6.277  1.00 20.00    -0.002 C 
ENDROOT
BRANCH   6   8
HETATM    8  C10 UNL     1     -40.270  15.666   7.737  1.00 20.00     0.001 C 
HETATM    9  C8  UNL     1     -40.832  16.489   8.852  1.00 20.00     0.005 C 
ENDBRANCH   6   8
BRANCH   7  10
HETATM   10  C11 UNL     1     -39.774  12.436   6.271  1.00 20.00     0.001 C 
HETATM   11  C9  UNL     1     -39.545  11.910   4.890  1.00 20.00     0.005 C 
ENDBRANCH   7  10
TORSDOF 2
ENDMDL
MODEL 9
REMARK VINA RESULT:      -3.7     11.987     13.782
REMARK  2 active torsions:
REMARK  status: ('A' for Active; 'I' for Inactive)
REMARK    1  A    between atoms: C6_6  and  C10_10 
REMARK    2  A    between atoms: C7_7  and  C11_11 
ROOT
HETATM    1  C1  UNL     1     -35.908  14.717  -5.148  1.00 20.00    -0.025 C 
HETATM    2  C2  UNL     1     -34.923  14.076  -4.501  1.00 20.00    -0.025 C 
HETATM    3  C3  UNL     1     -33.961  15.138  -6.310  1.00 20.00     0.017 C 
HETATM    4  C4  UNL     1     -35.270  15.842  -5.933  1.00 20.00     0.013 C 
HETATM    5  C5  UNL     1     -33.628  14.768  -4.858  1.00 20.00     0.013 C 
HETATM    6  C6  UNL     1     -34.797  16.904  -4.901  1.00 20.00    -0.002 C 
HETATM    7  C7  UNL     1     -33.581  16.183  -4.218  1.00 20.00    -0.002 C 
ENDROOT
BRANCH   6   8
HETATM    8  C10 UNL     1     -34.388  18.217  -5.561  1.00 20.00     0.001 C 
HETATM    9  C8  UNL     1     -35.352  18.622  -6.629  1.00 20.00     0.005 C 
ENDBRANCH   6   8
BRANCH   7  10
HETATM   10  C11 UNL     1     -33.652  16.194  -2.698  1.00 20.00     0.001 C 
HETATM   11  C9  UNL     1     -33.085  17.453  -2.123  1.00 20.00     0.005 C 
ENDBRANCH   7  10
TORSDOF 2
ENDMDL
