MODEL 1
REMARK VINA RESULT:      -3.9      0.000      0.000
REMARK  1 active torsions:
REMARK  status: ('A' for Active; 'I' for Inactive)
REMARK    1  A    between atoms: C6_6  and  C10_10 
ROOT
HETATM    1  C1  UNL     1     -34.395  14.912  -3.986  1.00 20.00     0.142 A 
HETATM    2  C2  UNL     1     -34.123  18.118  -4.039  1.00 20.00     0.006 C 
HETATM    3  C3  UNL     1     -35.255  17.256  -4.612  1.00 20.00     0.019 C 
HETATM    4  C4  UNL     1     -33.313  15.858  -4.140  1.00 20.00     0.076 A 
HETATM    5  C5  UNL     1     -33.162  17.132  -3.348  1.00 20.00    -0.006 C 
HETATM    6  C6  UNL     1     -34.573  15.956  -4.982  1.00 20.00     0.034 A 
HETATM    7  C7  UNL     1     -33.488  16.939  -1.872  1.00 20.00     0.011 C 
HETATM    8  O11 UNL     1     -34.445  13.701  -4.036  1.00 20.00    -0.297 OA
ENDROOT
BRANCH   6   9
HETATM    9  C10 UNL     1     -34.489  15.657  -6.449  1.00 20.00    -0.006 C 
HETATM   10  C8  UNL     1     -35.718  14.876  -6.938  1.00 20.00     0.011 C 
HETATM   11  C9  UNL     1     -34.333  16.941  -7.278  1.00 20.00     0.011 C 
ENDBRANCH   6   9
TORSDOF 1
ENDMDL
MODEL 2
REMARK VINA RESULT:      -3.8     11.719     13.476
REMARK  1 active torsions:
REMARK  status: ('A' for Active; 'I' for Inactive)
REMARK    1  A    between atoms: C6_6  and  C10_10 
ROOT
HETATM    1  C1  UNL     1     -33.560   8.275   4.511  1.00 20.00     0.142 A 
HETATM    2  C2  UNL     1     -32.925   5.716   2.667  1.00 20.00     0.006 C 
HETATM    3  C3  UNL     1     -34.185   5.995   3.496  1.00 20.00     0.019 C 
HETATM    4  C4  UNL     1     -32.389   7.486   4.202  1.00 20.00     0.076 A 
HETATM    5  C5  UNL     1     -32.038   6.965   2.831  1.00 20.00    -0.006 C 
HETATM    6  C6  UNL     1     -33.685   6.834   4.652  1.00 20.00     0.034 A 
HETATM    7  C7  UNL     1     -32.282   7.999   1.738  1.00 20.00     0.011 C 
HETATM    8  O11 UNL     1     -33.753   9.203   5.269  1.00 20.00    -0.297 OA
ENDROOT
BRANCH   6   9
HETATM    9  C10 UNL     1     -33.737   6.184   6.003  1.00 20.00    -0.006 C 
HETATM   10  C8  UNL     1     -34.440   7.081   7.034  1.00 20.00     0.011 C 
HETATM   11  C9  UNL     1     -34.441   4.820   5.944  1.00 20.00     0.011 C 
ENDBRANCH   6   9
TORSDOF 1
ENDMDL
MODEL 3
REMARK VINA RESULT:      -3.7      3.924      5.631
REMARK  1 active torsions:
REMARK  status: ('A' for Active; 'I' for Inactive)
REMARK    1  A    between atoms: C6_6  and  C10_10 
ROOT
HETATM    1  C1  UNL     1     -33.836  19.114   0.741  1.00 20.00     0.142 A 
HETATM    2  C2  UNL     1     -30.883  18.504  -0.382  1.00 20.00     0.006 C 
HETATM    3  C3  UNL     1     -32.030  19.241  -1.087  1.00 20.00     0.019 C 
HETATM    4  C4  UNL     1     -32.896  18.021   0.839  1.00 20.00     0.076 A 
HETATM    5  C5  UNL     1     -31.408  18.178   1.029  1.00 20.00    -0.006 C 
HETATM    6  C6  UNL     1     -33.279  18.615  -0.505  1.00 20.00     0.034 A 
HETATM    7  C7  UNL     1     -31.065  19.263   2.043  1.00 20.00     0.011 C 
HETATM    8  O11 UNL     1     -34.973  19.263   1.140  1.00 20.00    -0.297 OA
ENDROOT
BRANCH   6   9
HETATM    9  C10 UNL     1     -34.101  17.792  -1.453  1.00 20.00    -0.006 C 
HETATM   10  C8  UNL     1     -35.034  18.670  -2.301  1.00 20.00     0.011 C 
HETATM   11  C9  UNL     1     -33.213  16.943  -2.377  1.00 20.00     0.011 C 
ENDBRANCH   6   9
TORSDOF 1
ENDMDL
MODEL 4
REMARK VINA RESULT:      -3.6      2.506      5.039
REMARK  1 active torsions:
REMARK  status: ('A' for Active; 'I' for Inactive)
REMARK    1  A    between atoms: C6_6  and  C10_10 
ROOT
HETATM    1  C1  UNL     1     -35.340  18.496  -2.165  1.00 20.00     0.142 A 
HETATM    2  C2  UNL     1     -33.015  16.684  -3.455  1.00 20.00     0.006 C 
HETATM    3  C3  UNL     1     -33.574  16.629  -2.028  1.00 20.00     0.019 C 
HETATM    4  C4  UNL     1     -34.260  18.709  -3.101  1.00 20.00     0.076 A 
HETATM    5  C5  UNL     1     -33.859  17.744  -4.188  1.00 20.00    -0.006 C 
HETATM    6  C6  UNL     1     -34.019  18.050  -1.754  1.00 20.00     0.034 A 
HETATM    7  C7  UNL     1     -35.063  17.140  -4.900  1.00 20.00     0.011 C 
HETATM    8  O11 UNL     1     -36.157  19.241  -1.664  1.00 20.00    -0.297 OA
ENDROOT
BRANCH   6   9
HETATM    9  C10 UNL     1     -33.233  18.793  -0.715  1.00 20.00    -0.006 C 
HETATM   10  C8  UNL     1     -33.777  18.532   0.698  1.00 20.00     0.011 C 
HETATM   11  C9  UNL     1     -31.742  18.425  -0.767  1.00 20.00     0.011 C 
ENDBRANCH   6   9
TORSDOF 1
ENDMDL
MODEL 5
REMARK VINA RESULT:      -3.6     11.750     13.315
REMARK  1 active torsions:
REMARK  status: ('A' for Active; 'I' for Inactive)
REMARK    1  A    between atoms: C6_6  and  C10_10 
ROOT
HETATM    1  C1  UNL     1     -41.740  14.139   4.845  1.00 20.00     0.142 A 
HETATM    2  C2  UNL     1     -41.501  14.127   8.054  1.00 20.00     0.006 C 
HETATM    3  C3  UNL     1     -40.372  14.245   7.022  1.00 20.00     0.019 C 
HETATM    4  C4  UNL     1     -42.405  13.455   5.931  1.00 20.00     0.076 A 
HETATM    5  C5  UNL     1     -42.806  14.096   7.236  1.00 20.00    -0.006 C 
HETATM    6  C6  UNL     1     -40.890  13.481   5.823  1.00 20.00     0.034 A 
HETATM    7  C7  UNL     1     -43.404  15.484   7.041  1.00 20.00     0.011 C 
HETATM    8  O11 UNL     1     -41.834  14.057   3.638  1.00 20.00    -0.297 OA
ENDROOT
BRANCH   6   9
HETATM    9  C10 UNL     1     -40.167  12.208   5.496  1.00 20.00    -0.006 C 
HETATM   10  C8  UNL     1     -39.496  12.278   4.116  1.00 20.00     0.011 C 
HETATM   11  C9  UNL     1     -39.115  11.868   6.563  1.00 20.00     0.011 C 
ENDBRANCH   6   9
TORSDOF 1
ENDMDL
MODEL 6
REMARK VINA RESULT:      -3.6      1.878      2.841
REMARK  1 active torsions:
REMARK  status: ('A' for Active; 'I' for Inactive)
REMARK    1  A    between atoms: C6_6  and  C10_10 
ROOT
HETATM    1  C1  UNL     1     -34.089  18.059  -4.919  1.00 20.00     0.142 A 
HETATM    2  C2  UNL     1     -33.529  16.714  -2.050  1.00 20.00     0.006 C 
HETATM    3  C3  UNL     1     -32.968  16.297  -3.416  1.00 20.00     0.019 C 
HETATM    4  C4  UNL     1     -34.865  17.797  -3.728  1.00 20.00     0.076 A 
HETATM    5  C5  UNL     1     -34.366  17.979  -2.317  1.00 20.00    -0.006 C 
HETATM    6  C6  UNL     1     -34.048  16.704  -4.395  1.00 20.00     0.034 A 
HETATM    7  C7  UNL     1     -33.556  19.259  -2.149  1.00 20.00     0.011 C 
HETATM    8  O11 UNL     1     -34.374  18.520  -6.005  1.00 20.00    -0.297 OA
ENDROOT
BRANCH   6   9
HETATM    9  C10 UNL     1     -34.767  15.580  -5.081  1.00 20.00    -0.006 C 
HETATM   10  C8  UNL     1     -34.241  15.361  -6.508  1.00 20.00     0.011 C 
HETATM   11  C9  UNL     1     -34.654  14.271  -4.285  1.00 20.00     0.011 C 
ENDBRANCH   6   9
TORSDOF 1
ENDMDL
MODEL 7
REMARK VINA RESULT:      -3.5      1.530      3.399
REMARK  1 active torsions:
REMARK  status: ('A' for Active; 'I' for Inactive)
REMARK    1  A    between atoms: C6_6  and  C10_10 
ROOT
HETATM    1  C1  UNL     1     -34.674  15.894  -6.219  1.00 20.00     0.142 A 
HETATM    2  C2  UNL     1     -35.663  18.477  -4.575  1.00 20.00     0.006 C 
HETATM    3  C3  UNL     1     -34.227  17.977  -4.776  1.00 20.00     0.019 C 
HETATM    4  C4  UNL     1     -35.804  16.216  -5.377  1.00 20.00     0.076 A 
HETATM    5  C5  UNL     1     -36.551  17.525  -5.400  1.00 20.00    -0.006 C 
HETATM    6  C6  UNL     1     -34.378  16.478  -4.922  1.00 20.00     0.034 A 
HETATM    7  C7  UNL     1     -36.788  18.032  -6.818  1.00 20.00     0.011 C 
HETATM    8  O11 UNL     1     -34.320  14.871  -6.769  1.00 20.00    -0.297 OA
ENDROOT
BRANCH   6   9
HETATM    9  C10 UNL     1     -33.812  15.652  -3.805  1.00 20.00    -0.006 C 
HETATM   10  C8  UNL     1     -32.589  14.844  -4.266  1.00 20.00     0.011 C 
HETATM   11  C9  UNL     1     -33.428  16.523  -2.599  1.00 20.00     0.011 C 
ENDBRANCH   6   9
TORSDOF 1
ENDMDL
MODEL 8
REMARK VINA RESULT:      -3.4      3.313      5.844
REMARK  1 active torsions:
REMARK  status: ('A' for Active; 'I' for Inactive)
REMARK    1  A    between atoms: C6_6  and  C10_10 
ROOT
HETATM    1  C1  UNL     1     -32.006  18.478  -1.243  1.00 20.00     0.142 A 
HETATM    2  C2  UNL     1     -35.047  18.204  -2.259  1.00 20.00     0.006 C 
HETATM    3  C3  UNL     1     -34.456  19.263  -1.319  1.00 20.00     0.019 C 
HETATM    4  C4  UNL     1     -32.911  17.386  -1.521  1.00 20.00     0.076 A 
HETATM    5  C5  UNL     1     -33.857  17.327  -2.694  1.00 20.00    -0.006 C 
HETATM    6  C6  UNL     1     -33.320  18.543  -0.625  1.00 20.00     0.034 A 
HETATM    7  C7  UNL     1     -33.212  17.819  -3.984  1.00 20.00     0.011 C 
HETATM    8  O11 UNL     1     -30.877  18.522  -0.799  1.00 20.00    -0.297 OA
ENDROOT
BRANCH   6   9
HETATM    9  C10 UNL     1     -33.504  18.291   0.842  1.00 20.00    -0.006 C 
HETATM   10  C8  UNL     1     -32.334  18.853   1.663  1.00 20.00     0.011 C 
HETATM   11  C9  UNL     1     -34.824  18.889   1.354  1.00 20.00     0.011 C 
ENDBRANCH   6   9
TORSDOF 1
ENDMDL
MODEL 9
REMARK VINA RESULT:      -3.4     11.867     13.377
REMARK  1 active torsions:
REMARK  status: ('A' for Active; 'I' for Inactive)
REMARK    1  A    between atoms: C6_6  and  C10_10 
ROOT
HETATM    1  C1  UNL     1     -33.698   5.773   3.696  1.00 20.00     0.142 A 
HETATM    2  C2  UNL     1     -34.283   7.360   6.433  1.00 20.00     0.006 C 
HETATM    3  C3  UNL     1     -34.381   7.887   4.995  1.00 20.00     0.019 C 
HETATM    4  C4  UNL     1     -33.126   5.795   5.024  1.00 20.00     0.076 A 
HETATM    5  C5  UNL     1     -33.920   5.869   6.303  1.00 20.00    -0.006 C 
HETATM    6  C6  UNL     1     -33.351   7.076   4.238  1.00 20.00     0.034 A 
HETATM    7  C7  UNL     1     -35.151   4.971   6.274  1.00 20.00     0.011 C 
HETATM    8  O11 UNL     1     -33.392   5.191   2.676  1.00 20.00    -0.297 OA
ENDROOT
BRANCH   6   9
HETATM    9  C10 UNL     1     -32.158   7.836   3.738  1.00 20.00    -0.006 C 
HETATM   10  C8  UNL     1     -32.265   8.125   2.232  1.00 20.00     0.011 C 
HETATM   11  C9  UNL     1     -31.971   9.156   4.502  1.00 20.00     0.011 C 
ENDBRANCH   6   9
TORSDOF 1
ENDMDL
