MODEL 1
REMARK VINA RESULT:      -4.2      0.000      0.000
REMARK  2 active torsions:
REMARK  status: ('A' for Active; 'I' for Inactive)
REMARK    1  A    between atoms: C4_4  and  C12_12 
REMARK    2  A    between atoms: C5_5  and  C11_11 
ROOT
HETATM    1  C1  UNL     1     -33.293  15.641  -3.418  1.00 20.00     0.004 A 
HETATM    2  C2  UNL     1     -33.544  14.760  -4.396  1.00 20.00    -0.017 A 
HETATM    3  C3  UNL     1     -34.476  16.832  -4.952  1.00 20.00    -0.010 A 
HETATM    4  C4  UNL     1     -33.867  16.921  -3.759  1.00 20.00    -0.054 A 
HETATM    5  C5  UNL     1     -34.333  15.432  -5.492  1.00 20.00     0.034 A 
ENDROOT
BRANCH   4   6
HETATM    6  C12 UNL     1     -33.755  18.105  -2.873  1.00 20.00    -0.024 C 
HETATM    7  C8  UNL     1     -35.158  18.663  -2.563  1.00 20.00     0.019 C 
HETATM    8  C9  UNL     1     -32.919  19.209  -3.555  1.00 20.00     0.019 C 
HETATM    9  C10 UNL     1     -33.067  17.718  -1.546  1.00 20.00     0.019 C 
ENDBRANCH   4   6
BRANCH   5  10
HETATM   10  C11 UNL     1     -35.681  14.763  -5.724  1.00 20.00    -0.012 C 
HETATM   11  C6  UNL     1     -35.917  13.654  -4.699  1.00 20.00     0.010 C 
HETATM   12  C7  UNL     1     -36.813  15.789  -5.668  1.00 20.00     0.010 C 
ENDBRANCH   5  10
TORSDOF 2
ENDMDL
MODEL 2
REMARK VINA RESULT:      -4.2      0.010      1.255
REMARK  2 active torsions:
REMARK  status: ('A' for Active; 'I' for Inactive)
REMARK    1  A    between atoms: C4_4  and  C12_12 
REMARK    2  A    between atoms: C5_5  and  C11_11 
ROOT
HETATM    1  C1  UNL     1     -33.293  15.640  -3.418  1.00 20.00     0.004 A 
HETATM    2  C2  UNL     1     -33.545  14.759  -4.396  1.00 20.00    -0.017 A 
HETATM    3  C3  UNL     1     -34.469  16.833  -4.956  1.00 20.00    -0.010 A 
HETATM    4  C4  UNL     1     -33.863  16.922  -3.762  1.00 20.00    -0.054 A 
HETATM    5  C5  UNL     1     -34.329  15.432  -5.494  1.00 20.00     0.034 A 
ENDROOT
BRANCH   4   6
HETATM    6  C12 UNL     1     -33.748  18.106  -2.877  1.00 20.00    -0.024 C 
HETATM    7  C8  UNL     1     -33.055  17.710  -1.558  1.00 20.00     0.019 C 
HETATM    8  C9  UNL     1     -35.146  18.673  -2.555  1.00 20.00     0.019 C 
HETATM    9  C10 UNL     1     -32.918  19.211  -3.564  1.00 20.00     0.019 C 
ENDBRANCH   4   6
BRANCH   5  10
HETATM   10  C11 UNL     1     -35.679  14.767  -5.728  1.00 20.00    -0.012 C 
HETATM   11  C6  UNL     1     -35.918  13.654  -4.708  1.00 20.00     0.010 C 
HETATM   12  C7  UNL     1     -36.808  15.796  -5.668  1.00 20.00     0.010 C 
ENDBRANCH   5  10
TORSDOF 2
ENDMDL
MODEL 3
REMARK VINA RESULT:      -4.1      0.984      4.615
REMARK  2 active torsions:
REMARK  status: ('A' for Active; 'I' for Inactive)
REMARK    1  A    between atoms: C4_4  and  C12_12 
REMARK    2  A    between atoms: C5_5  and  C11_11 
ROOT
HETATM    1  C1  UNL     1     -34.247  17.799  -4.580  1.00 20.00     0.004 A 
HETATM    2  C2  UNL     1     -33.539  18.462  -3.656  1.00 20.00    -0.017 A 
HETATM    3  C3  UNL     1     -33.395  16.163  -3.249  1.00 20.00    -0.010 A 
HETATM    4  C4  UNL     1     -34.159  16.378  -4.330  1.00 20.00    -0.054 A 
HETATM    5  C5  UNL     1     -32.911  17.481  -2.698  1.00 20.00     0.034 A 
ENDROOT
BRANCH   4   6
HETATM    6  C12 UNL     1     -34.838  15.377  -5.187  1.00 20.00    -0.024 C 
HETATM    7  C8  UNL     1     -34.981  14.045  -4.425  1.00 20.00     0.019 C 
HETATM    8  C9  UNL     1     -34.022  15.130  -6.474  1.00 20.00     0.019 C 
HETATM    9  C10 UNL     1     -36.243  15.877  -5.587  1.00 20.00     0.019 C 
ENDBRANCH   4   6
BRANCH   5  10
HETATM   10  C11 UNL     1     -33.365  17.708  -1.262  1.00 20.00    -0.012 C 
HETATM   11  C6  UNL     1     -32.223  18.274  -0.418  1.00 20.00     0.010 C 
HETATM   12  C7  UNL     1     -34.574  18.642  -1.217  1.00 20.00     0.010 C 
ENDBRANCH   5  10
TORSDOF 2
ENDMDL
MODEL 4
REMARK VINA RESULT:      -4.0      1.006      4.658
REMARK  2 active torsions:
REMARK  status: ('A' for Active; 'I' for Inactive)
REMARK    1  A    between atoms: C4_4  and  C12_12 
REMARK    2  A    between atoms: C5_5  and  C11_11 
ROOT
HETATM    1  C1  UNL     1     -34.735  17.830  -4.481  1.00 20.00     0.004 A 
HETATM    2  C2  UNL     1     -34.022  18.588  -3.637  1.00 20.00    -0.017 A 
HETATM    3  C3  UNL     1     -33.298  16.368  -3.496  1.00 20.00    -0.010 A 
HETATM    4  C4  UNL     1     -34.290  16.459  -4.395  1.00 20.00    -0.054 A 
HETATM    5  C5  UNL     1     -33.017  17.730  -2.911  1.00 20.00     0.034 A 
ENDROOT
BRANCH   4   6
HETATM    6  C12 UNL     1     -34.887  15.376  -5.213  1.00 20.00    -0.024 C 
HETATM    7  C8  UNL     1     -36.338  15.740  -5.585  1.00 20.00     0.019 C 
HETATM    8  C9  UNL     1     -34.892  14.049  -4.426  1.00 20.00     0.019 C 
HETATM    9  C10 UNL     1     -34.075  15.173  -6.510  1.00 20.00     0.019 C 
ENDBRANCH   4   6
BRANCH   5  10
HETATM   10  C11 UNL     1     -33.217  17.762  -1.402  1.00 20.00    -0.012 C 
HETATM   11  C6  UNL     1     -31.960  18.278  -0.701  1.00 20.00     0.010 C 
HETATM   12  C7  UNL     1     -34.424  18.624  -1.032  1.00 20.00     0.010 C 
ENDBRANCH   5  10
TORSDOF 2
ENDMDL
MODEL 5
REMARK VINA RESULT:      -3.8     11.775     12.900
REMARK  2 active torsions:
REMARK  status: ('A' for Active; 'I' for Inactive)
REMARK    1  A    between atoms: C4_4  and  C12_12 
REMARK    2  A    between atoms: C5_5  and  C11_11 
ROOT
HETATM    1  C1  UNL     1     -41.740  14.638   5.876  1.00 20.00     0.004 A 
HETATM    2  C2  UNL     1     -41.477  13.583   5.094  1.00 20.00    -0.017 A 
HETATM    3  C3  UNL     1     -40.328  13.360   7.119  1.00 20.00    -0.010 A 
HETATM    4  C4  UNL     1     -41.031  14.502   7.128  1.00 20.00    -0.054 A 
HETATM    5  C5  UNL     1     -40.539  12.644   5.808  1.00 20.00     0.034 A 
ENDROOT
BRANCH   4   6
HETATM    6  C12 UNL     1     -41.123  15.514   8.208  1.00 20.00    -0.024 C 
HETATM    7  C8  UNL     1     -40.176  15.136   9.363  1.00 20.00     0.019 C 
HETATM    8  C9  UNL     1     -42.566  15.591   8.750  1.00 20.00     0.019 C 
HETATM    9  C10 UNL     1     -40.726  16.907   7.673  1.00 20.00     0.019 C 
ENDBRANCH   4   6
BRANCH   5  10
HETATM   10  C11 UNL     1     -39.236  12.439   5.046  1.00 20.00    -0.012 C 
HETATM   11  C6  UNL     1     -38.084  12.161   6.011  1.00 20.00     0.010 C 
HETATM   12  C7  UNL     1     -39.372  11.299   4.037  1.00 20.00     0.010 C 
ENDBRANCH   5  10
TORSDOF 2
ENDMDL
MODEL 6
REMARK VINA RESULT:      -3.8      1.190      4.420
REMARK  2 active torsions:
REMARK  status: ('A' for Active; 'I' for Inactive)
REMARK    1  A    between atoms: C4_4  and  C12_12 
REMARK    2  A    between atoms: C5_5  and  C11_11 
ROOT
HETATM    1  C1  UNL     1     -33.525  15.758  -3.868  1.00 20.00     0.004 A 
HETATM    2  C2  UNL     1     -33.291  16.291  -2.662  1.00 20.00    -0.017 A 
HETATM    3  C3  UNL     1     -34.784  17.652  -3.840  1.00 20.00    -0.010 A 
HETATM    4  C4  UNL     1     -34.447  16.597  -4.598  1.00 20.00    -0.054 A 
HETATM    5  C5  UNL     1     -34.077  17.569  -2.511  1.00 20.00     0.034 A 
ENDROOT
BRANCH   4   6
HETATM    6  C12 UNL     1     -34.904  16.270  -5.970  1.00 20.00    -0.024 C 
HETATM    7  C8  UNL     1     -36.375  15.812  -5.937  1.00 20.00     0.019 C 
HETATM    8  C9  UNL     1     -34.042  15.138  -6.568  1.00 20.00     0.019 C 
HETATM    9  C10 UNL     1     -34.788  17.509  -6.884  1.00 20.00     0.019 C 
ENDBRANCH   4   6
BRANCH   5  10
HETATM   10  C11 UNL     1     -33.179  18.772  -2.259  1.00 20.00    -0.012 C 
HETATM   11  C6  UNL     1     -32.090  18.430  -1.242  1.00 20.00     0.010 C 
HETATM   12  C7  UNL     1     -32.551  19.263  -3.564  1.00 20.00     0.010 C 
ENDBRANCH   5  10
TORSDOF 2
ENDMDL
MODEL 7
REMARK VINA RESULT:      -3.7     10.947     12.508
REMARK  2 active torsions:
REMARK  status: ('A' for Active; 'I' for Inactive)
REMARK    1  A    between atoms: C4_4  and  C12_12 
REMARK    2  A    between atoms: C5_5  and  C11_11 
ROOT
HETATM    1  C1  UNL     1     -32.848   5.878   3.020  1.00 20.00     0.004 A 
HETATM    2  C2  UNL     1     -32.153   6.728   2.252  1.00 20.00    -0.017 A 
HETATM    3  C3  UNL     1     -33.216   7.913   3.966  1.00 20.00    -0.010 A 
HETATM    4  C4  UNL     1     -33.506   6.608   4.079  1.00 20.00    -0.054 A 
HETATM    5  C5  UNL     1     -32.313   8.132   2.778  1.00 20.00     0.034 A 
ENDROOT
BRANCH   4   6
HETATM    6  C12 UNL     1     -34.352   5.941   5.097  1.00 20.00    -0.024 C 
HETATM    7  C8  UNL     1     -35.816   5.899   4.617  1.00 20.00     0.019 C 
HETATM    8  C9  UNL     1     -34.288   6.708   6.435  1.00 20.00     0.019 C 
HETATM    9  C10 UNL     1     -33.864   4.496   5.337  1.00 20.00     0.019 C 
ENDBRANCH   4   6
BRANCH   5  10
HETATM   10  C11 UNL     1     -32.932   9.067   1.747  1.00 20.00    -0.012 C 
HETATM   11  C6  UNL     1     -32.816  10.522   2.199  1.00 20.00     0.010 C 
HETATM   12  C7  UNL     1     -32.272   8.879   0.381  1.00 20.00     0.010 C 
ENDBRANCH   5  10
TORSDOF 2
ENDMDL
MODEL 8
REMARK VINA RESULT:      -3.7     13.011     14.694
REMARK  2 active torsions:
REMARK  status: ('A' for Active; 'I' for Inactive)
REMARK    1  A    between atoms: C4_4  and  C12_12 
REMARK    2  A    between atoms: C5_5  and  C11_11 
ROOT
HETATM    1  C1  UNL     1     -41.131  15.704   7.166  1.00 20.00     0.004 A 
HETATM    2  C2  UNL     1     -40.690  16.385   8.232  1.00 20.00    -0.017 A 
HETATM    3  C3  UNL     1     -40.349  14.096   8.571  1.00 20.00    -0.010 A 
HETATM    4  C4  UNL     1     -40.922  14.289   7.374  1.00 20.00    -0.054 A 
HETATM    5  C5  UNL     1     -40.136  15.424   9.254  1.00 20.00     0.034 A 
ENDROOT
BRANCH   4   6
HETATM    6  C12 UNL     1     -41.306  13.272   6.366  1.00 20.00    -0.024 C 
HETATM    7  C8  UNL     1     -40.109  12.347   6.072  1.00 20.00     0.019 C 
HETATM    8  C9  UNL     1     -41.743  13.955   5.053  1.00 20.00     0.019 C 
HETATM    9  C10 UNL     1     -42.481  12.418   6.887  1.00 20.00     0.019 C 
ENDBRANCH   4   6
BRANCH   5  10
HETATM   10  C11 UNL     1     -40.870  15.512  10.585  1.00 20.00    -0.012 C 
HETATM   11  C6  UNL     1     -39.936  15.155  11.741  1.00 20.00     0.010 C 
HETATM   12  C7  UNL     1     -41.459  16.909  10.788  1.00 20.00     0.010 C 
ENDBRANCH   5  10
TORSDOF 2
ENDMDL
MODEL 9
REMARK VINA RESULT:      -3.7     13.045     14.687
REMARK  2 active torsions:
REMARK  status: ('A' for Active; 'I' for Inactive)
REMARK    1  A    between atoms: C4_4  and  C12_12 
REMARK    2  A    between atoms: C5_5  and  C11_11 
ROOT
HETATM    1  C1  UNL     1     -41.271  15.668   7.213  1.00 20.00     0.004 A 
HETATM    2  C2  UNL     1     -40.783  16.345   8.261  1.00 20.00    -0.017 A 
HETATM    3  C3  UNL     1     -40.273  14.075   8.493  1.00 20.00    -0.010 A 
HETATM    4  C4  UNL     1     -40.956  14.265   7.354  1.00 20.00    -0.054 A 
HETATM    5  C5  UNL     1     -40.086  15.393   9.200  1.00 20.00     0.034 A 
ENDROOT
BRANCH   4   6
HETATM    6  C12 UNL     1     -41.362  13.254   6.348  1.00 20.00    -0.024 C 
HETATM    7  C8  UNL     1     -42.533  12.413   6.891  1.00 20.00     0.019 C 
HETATM    8  C9  UNL     1     -40.181  12.315   6.025  1.00 20.00     0.019 C 
HETATM    9  C10 UNL     1     -41.808  13.947   5.042  1.00 20.00     0.019 C 
ENDBRANCH   4   6
BRANCH   5  10
HETATM   10  C11 UNL     1     -40.708  15.396  10.590  1.00 20.00    -0.012 C 
HETATM   11  C6  UNL     1     -41.762  16.496  10.708  1.00 20.00     0.010 C 
HETATM   12  C7  UNL     1     -41.323  14.033  10.911  1.00 20.00     0.010 C 
ENDBRANCH   5  10
TORSDOF 2
ENDMDL
