MODEL 1
REMARK VINA RESULT:      -6.0      0.000      0.000
REMARK  0 active torsions:
REMARK  status: ('A' for Active; 'I' for Inactive)
ROOT
HETATM    1  C1  UNL     1     -32.542   7.337   3.497  1.00 20.00     0.129 C 
HETATM    2  C2  UNL     1     -33.310   6.244   3.590  1.00 20.00     0.136 C 
HETATM    3  C3  UNL     1     -32.516   8.422   4.528  1.00 20.00     0.073 C 
HETATM    4  C4  UNL     1     -33.681   8.341   5.515  1.00 20.00     0.008 C 
HETATM    5  C5  UNL     1     -33.928   6.897   5.955  1.00 20.00     0.016 C 
HETATM    6  C6  UNL     1     -34.228   5.956   4.760  1.00 20.00     0.009 C 
HETATM    7  C7  UNL     1     -35.683   6.137   4.290  1.00 20.00     0.022 C 
HETATM    8  C8  UNL     1     -34.036   4.501   5.219  1.00 20.00     0.022 C 
HETATM    9  F9  UNL     1     -31.758   7.479   2.404  1.00 20.00    -0.208 F 
HETATM   10  F10 UNL     1     -33.258   5.347   2.578  1.00 20.00    -0.207 F 
ENDROOT
TORSDOF 0
ENDMDL
MODEL 2
REMARK VINA RESULT:      -5.5      1.249      1.641
REMARK  0 active torsions:
REMARK  status: ('A' for Active; 'I' for Inactive)
ROOT
HETATM    1  C1  UNL     1     -32.803   5.662   3.099  1.00 20.00     0.129 C 
HETATM    2  C2  UNL     1     -33.751   5.228   3.941  1.00 20.00     0.136 C 
HETATM    3  C3  UNL     1     -32.308   7.074   3.066  1.00 20.00     0.073 C 
HETATM    4  C4  UNL     1     -33.207   8.044   3.831  1.00 20.00     0.008 C 
HETATM    5  C5  UNL     1     -33.658   7.442   5.163  1.00 20.00     0.016 C 
HETATM    6  C6  UNL     1     -34.420   6.104   4.980  1.00 20.00     0.009 C 
HETATM    7  C7  UNL     1     -35.868   6.370   4.531  1.00 20.00     0.022 C 
HETATM    8  C8  UNL     1     -34.451   5.367   6.331  1.00 20.00     0.022 C 
HETATM    9  F9  UNL     1     -32.277   4.780   2.218  1.00 20.00    -0.208 F 
HETATM   10  F10 UNL     1     -34.127   3.930   3.855  1.00 20.00    -0.207 F 
ENDROOT
TORSDOF 0
ENDMDL
MODEL 3
REMARK VINA RESULT:      -5.1      1.874      2.727
REMARK  0 active torsions:
REMARK  status: ('A' for Active; 'I' for Inactive)
ROOT
HETATM    1  C1  UNL     1     -32.830   7.914   4.601  1.00 20.00     0.129 C 
HETATM    2  C2  UNL     1     -33.792   7.147   5.132  1.00 20.00     0.136 C 
HETATM    3  C3  UNL     1     -32.122   7.588   3.323  1.00 20.00     0.073 C 
HETATM    4  C4  UNL     1     -32.349   6.149   2.860  1.00 20.00     0.008 C 
HETATM    5  C5  UNL     1     -33.814   5.742   3.027  1.00 20.00     0.016 C 
HETATM    6  C6  UNL     1     -34.301   5.871   4.494  1.00 20.00     0.009 C 
HETATM    7  C7  UNL     1     -33.802   4.678   5.329  1.00 20.00     0.022 C 
HETATM    8  C8  UNL     1     -35.839   5.869   4.503  1.00 20.00     0.022 C 
HETATM    9  F9  UNL     1     -32.465   9.035   5.264  1.00 20.00    -0.208 F 
HETATM   10  F10 UNL     1     -34.338   7.542   6.306  1.00 20.00    -0.207 F 
ENDROOT
TORSDOF 0
ENDMDL
MODEL 4
REMARK VINA RESULT:      -4.6      2.321      3.777
REMARK  0 active torsions:
REMARK  status: ('A' for Active; 'I' for Inactive)
ROOT
HETATM    1  C1  UNL     1     -34.363   5.630   5.609  1.00 20.00     0.129 C 
HETATM    2  C2  UNL     1     -34.018   6.925   5.615  1.00 20.00     0.136 C 
HETATM    3  C3  UNL     1     -34.081   4.702   4.469  1.00 20.00     0.073 C 
HETATM    4  C4  UNL     1     -33.676   5.431   3.188  1.00 20.00     0.008 C 
HETATM    5  C5  UNL     1     -32.696   6.566   3.487  1.00 20.00     0.016 C 
HETATM    6  C6  UNL     1     -33.278   7.604   4.482  1.00 20.00     0.009 C 
HETATM    7  C7  UNL     1     -34.257   8.546   3.758  1.00 20.00     0.022 C 
HETATM    8  C8  UNL     1     -32.120   8.442   5.052  1.00 20.00     0.022 C 
HETATM    9  F9  UNL     1     -35.018   5.137   6.685  1.00 20.00    -0.208 F 
HETATM   10  F10 UNL     1     -34.352   7.663   6.699  1.00 20.00    -0.207 F 
ENDROOT
TORSDOF 0
ENDMDL
MODEL 5
REMARK VINA RESULT:      -4.6      1.076      3.038
REMARK  0 active torsions:
REMARK  status: ('A' for Active; 'I' for Inactive)
ROOT
HETATM    1  C1  UNL     1     -33.971   5.529   4.431  1.00 20.00     0.129 C 
HETATM    2  C2  UNL     1     -33.272   6.337   3.623  1.00 20.00     0.136 C 
HETATM    3  C3  UNL     1     -34.506   5.950   5.763  1.00 20.00     0.073 C 
HETATM    4  C4  UNL     1     -33.902   7.261   6.266  1.00 20.00     0.008 C 
HETATM    5  C5  UNL     1     -33.807   8.291   5.140  1.00 20.00     0.016 C 
HETATM    6  C6  UNL     1     -32.960   7.784   3.944  1.00 20.00     0.009 C 
HETATM    7  C7  UNL     1     -31.459   7.896   4.268  1.00 20.00     0.022 C 
HETATM    8  C8  UNL     1     -33.265   8.661   2.717  1.00 20.00     0.022 C 
HETATM    9  F9  UNL     1     -34.190   4.256   4.030  1.00 20.00    -0.208 F 
HETATM   10  F10 UNL     1     -32.824   5.826   2.452  1.00 20.00    -0.207 F 
ENDROOT
TORSDOF 0
ENDMDL
MODEL 6
REMARK VINA RESULT:      -4.3      0.915      3.067
REMARK  0 active torsions:
REMARK  status: ('A' for Active; 'I' for Inactive)
ROOT
HETATM    1  C1  UNL     1     -33.259   5.740   3.276  1.00 20.00     0.129 C 
HETATM    2  C2  UNL     1     -32.670   6.927   3.078  1.00 20.00     0.136 C 
HETATM    3  C3  UNL     1     -34.247   5.477   4.369  1.00 20.00     0.073 C 
HETATM    4  C4  UNL     1     -34.267   6.571   5.437  1.00 20.00     0.008 C 
HETATM    5  C5  UNL     1     -34.209   7.960   4.801  1.00 20.00     0.016 C 
HETATM    6  C6  UNL     1     -32.949   8.156   3.918  1.00 20.00     0.009 C 
HETATM    7  C7  UNL     1     -31.717   8.431   4.800  1.00 20.00     0.022 C 
HETATM    8  C8  UNL     1     -33.176   9.368   2.998  1.00 20.00     0.022 C 
HETATM    9  F9  UNL     1     -32.931   4.717   2.454  1.00 20.00    -0.208 F 
HETATM   10  F10 UNL     1     -31.777   7.028   2.067  1.00 20.00    -0.207 F 
ENDROOT
TORSDOF 0
ENDMDL
MODEL 7
REMARK VINA RESULT:      -4.1      1.146      2.788
REMARK  0 active torsions:
REMARK  status: ('A' for Active; 'I' for Inactive)
ROOT
HETATM    1  C1  UNL     1     -32.550   6.701   3.110  1.00 20.00     0.129 C 
HETATM    2  C2  UNL     1     -32.745   7.496   4.170  1.00 20.00     0.136 C 
HETATM    3  C3  UNL     1     -33.347   5.461   2.845  1.00 20.00     0.073 C 
HETATM    4  C4  UNL     1     -34.162   5.002   4.054  1.00 20.00     0.008 C 
HETATM    5  C5  UNL     1     -34.834   6.189   4.746  1.00 20.00     0.016 C 
HETATM    6  C6  UNL     1     -33.812   7.256   5.218  1.00 20.00     0.009 C 
HETATM    7  C7  UNL     1     -33.123   6.799   6.516  1.00 20.00     0.022 C 
HETATM    8  C8  UNL     1     -34.565   8.569   5.496  1.00 20.00     0.022 C 
HETATM    9  F9  UNL     1     -31.567   7.024   2.239  1.00 20.00    -0.208 F 
HETATM   10  F10 UNL     1     -31.941   8.576   4.306  1.00 20.00    -0.207 F 
ENDROOT
TORSDOF 0
ENDMDL
MODEL 8
REMARK VINA RESULT:      -3.9     12.217     13.230
REMARK  0 active torsions:
REMARK  status: ('A' for Active; 'I' for Inactive)
ROOT
HETATM    1  C1  UNL     1     -33.649  16.515  -3.615  1.00 20.00     0.129 C 
HETATM    2  C2  UNL     1     -34.003  15.444  -4.339  1.00 20.00     0.136 C 
HETATM    3  C3  UNL     1     -34.054  17.915  -3.954  1.00 20.00     0.073 C 
HETATM    4  C4  UNL     1     -34.615  18.052  -5.370  1.00 20.00     0.008 C 
HETATM    5  C5  UNL     1     -35.564  16.900  -5.699  1.00 20.00     0.016 C 
HETATM    6  C6  UNL     1     -34.880  15.514  -5.573  1.00 20.00     0.009 C 
HETATM    7  C7  UNL     1     -34.002  15.237  -6.807  1.00 20.00     0.022 C 
HETATM    8  C8  UNL     1     -35.970  14.432  -5.491  1.00 20.00     0.022 C 
HETATM    9  F9  UNL     1     -32.866  16.322  -2.529  1.00 20.00    -0.208 F 
HETATM   10  F10 UNL     1     -33.552  14.233  -3.938  1.00 20.00    -0.207 F 
ENDROOT
TORSDOF 0
ENDMDL
MODEL 9
REMARK VINA RESULT:      -3.8     15.741     16.440
REMARK  0 active torsions:
REMARK  status: ('A' for Active; 'I' for Inactive)
ROOT
HETATM    1  C1  UNL     1     -24.745  18.827   9.253  1.00 20.00     0.129 C 
HETATM    2  C2  UNL     1     -24.780  18.374  10.513  1.00 20.00     0.136 C 
HETATM    3  C3  UNL     1     -23.496  18.898   8.432  1.00 20.00     0.073 C 
HETATM    4  C4  UNL     1     -22.222  18.730   9.260  1.00 20.00     0.008 C 
HETATM    5  C5  UNL     1     -22.378  17.608  10.288  1.00 20.00     0.016 C 
HETATM    6  C6  UNL     1     -23.567  17.852  11.254  1.00 20.00     0.009 C 
HETATM    7  C7  UNL     1     -23.177  18.880  12.332  1.00 20.00     0.022 C 
HETATM    8  C8  UNL     1     -23.918  16.523  11.946  1.00 20.00     0.022 C 
HETATM    9  F9  UNL     1     -25.899  19.263   8.697  1.00 20.00    -0.208 F 
HETATM   10  F10 UNL     1     -25.972  18.383  11.155  1.00 20.00    -0.207 F 
ENDROOT
TORSDOF 0
ENDMDL
