MODEL 1
REMARK VINA RESULT:      -4.4      0.000      0.000
REMARK  2 active torsions:
REMARK  status: ('A' for Active; 'I' for Inactive)
REMARK    1  A    between atoms: C1_1  and  C6_6 
REMARK    2  A    between atoms: C2_2  and  C8_8 
ROOT
HETATM    1  C1  UNL     1     -33.669  17.196  -1.348  1.00 20.00    -0.100 C 
HETATM    2  C2  UNL     1     -33.683  16.721  -2.451  1.00 20.00    -0.088 C 
ENDROOT
BRANCH   1   3
HETATM    3  C6  UNL     1     -33.652  17.762  -0.031  1.00 20.00     0.069 A 
HETATM    4  C5  UNL     1     -33.634  19.263   0.113  1.00 20.00     0.023 A 
HETATM    5  C7  UNL     1     -32.420  18.462   0.494  1.00 20.00    -0.002 A 
HETATM    6  C9  UNL     1     -31.164  18.587  -0.301  1.00 20.00     0.011 C 
ENDBRANCH   1   3
BRANCH   2   7
HETATM    7  C8  UNL     1     -33.699  16.144  -3.793  1.00 20.00     0.055 A 
HETATM    8  C3  UNL     1     -33.995  14.738  -4.019  1.00 20.00    -0.003 A 
HETATM    9  C4  UNL     1     -32.738  15.133  -4.205  1.00 20.00    -0.003 A 
HETATM   10  C10 UNL     1     -34.162  17.123  -4.840  1.00 20.00     0.038 C 
ENDBRANCH   2   7
TORSDOF 2
ENDMDL
MODEL 2
REMARK VINA RESULT:      -4.1      1.200      5.061
REMARK  2 active torsions:
REMARK  status: ('A' for Active; 'I' for Inactive)
REMARK    1  A    between atoms: C1_1  and  C6_6 
REMARK    2  A    between atoms: C2_2  and  C8_8 
ROOT
HETATM    1  C1  UNL     1     -33.617  15.928  -3.096  1.00 20.00    -0.100 C 
HETATM    2  C2  UNL     1     -33.359  16.791  -2.301  1.00 20.00    -0.088 C 
ENDROOT
BRANCH   1   3
HETATM    3  C6  UNL     1     -33.925  14.899  -4.044  1.00 20.00     0.069 A 
HETATM    4  C5  UNL     1     -33.520  15.095  -5.483  1.00 20.00     0.023 A 
HETATM    5  C7  UNL     1     -34.975  15.119  -5.109  1.00 20.00    -0.002 A 
HETATM    6  C9  UNL     1     -35.755  16.386  -5.224  1.00 20.00     0.011 C 
ENDBRANCH   1   3
BRANCH   2   7
HETATM    7  C8  UNL     1     -33.045  17.840  -1.333  1.00 20.00     0.055 A 
HETATM    8  C3  UNL     1     -32.454  19.105  -1.739  1.00 20.00    -0.003 A 
HETATM    9  C4  UNL     1     -31.677  18.257  -1.070  1.00 20.00    -0.003 A 
HETATM   10  C10 UNL     1     -34.009  17.869  -0.176  1.00 20.00     0.038 C 
ENDBRANCH   2   7
TORSDOF 2
ENDMDL
MODEL 3
REMARK VINA RESULT:      -4.0      0.932      1.574
REMARK  2 active torsions:
REMARK  status: ('A' for Active; 'I' for Inactive)
REMARK    1  A    between atoms: C1_1  and  C6_6 
REMARK    2  A    between atoms: C2_2  and  C8_8 
ROOT
HETATM    1  C1  UNL     1     -32.883  17.837  -2.516  1.00 20.00    -0.100 C 
HETATM    2  C2  UNL     1     -33.296  16.993  -3.263  1.00 20.00    -0.088 C 
ENDROOT
BRANCH   1   3
HETATM    3  C6  UNL     1     -32.390  18.845  -1.624  1.00 20.00     0.069 A 
HETATM    4  C5  UNL     1     -31.482  18.431  -0.493  1.00 20.00     0.023 A 
HETATM    5  C7  UNL     1     -32.874  18.916  -0.194  1.00 20.00    -0.002 A 
HETATM    6  C9  UNL     1     -33.888  17.974   0.362  1.00 20.00     0.011 C 
ENDBRANCH   1   3
BRANCH   2   7
HETATM    7  C8  UNL     1     -33.800  15.965  -4.172  1.00 20.00     0.055 A 
HETATM    8  C3  UNL     1     -34.084  14.613  -3.719  1.00 20.00    -0.003 A 
HETATM    9  C4  UNL     1     -33.020  14.783  -4.501  1.00 20.00    -0.003 A 
HETATM   10  C10 UNL     1     -34.684  16.530  -5.253  1.00 20.00     0.038 C 
ENDBRANCH   2   7
TORSDOF 2
ENDMDL
MODEL 4
REMARK VINA RESULT:      -4.0      1.424      5.121
REMARK  2 active torsions:
REMARK  status: ('A' for Active; 'I' for Inactive)
REMARK    1  A    between atoms: C1_1  and  C6_6 
REMARK    2  A    between atoms: C2_2  and  C8_8 
ROOT
HETATM    1  C1  UNL     1     -33.679  15.891  -3.421  1.00 20.00    -0.100 C 
HETATM    2  C2  UNL     1     -33.532  16.845  -2.707  1.00 20.00    -0.088 C 
ENDROOT
BRANCH   1   3
HETATM    3  C6  UNL     1     -33.855  14.752  -4.272  1.00 20.00     0.069 A 
HETATM    4  C5  UNL     1     -33.640  14.916  -5.756  1.00 20.00     0.023 A 
HETATM    5  C7  UNL     1     -35.025  14.673  -5.225  1.00 20.00    -0.002 A 
HETATM    6  C9  UNL     1     -36.060  15.743  -5.323  1.00 20.00     0.011 C 
ENDBRANCH   1   3
BRANCH   2   7
HETATM    7  C8  UNL     1     -33.353  18.007  -1.839  1.00 20.00     0.055 A 
HETATM    8  C3  UNL     1     -32.183  18.156  -0.989  1.00 20.00    -0.003 A 
HETATM    9  C4  UNL     1     -33.341  17.886  -0.389  1.00 20.00    -0.003 A 
HETATM   10  C10 UNL     1     -33.947  19.263  -2.421  1.00 20.00     0.038 C 
ENDBRANCH   2   7
TORSDOF 2
ENDMDL
MODEL 5
REMARK VINA RESULT:      -3.8      1.895      2.804
REMARK  2 active torsions:
REMARK  status: ('A' for Active; 'I' for Inactive)
REMARK    1  A    between atoms: C1_1  and  C6_6 
REMARK    2  A    between atoms: C2_2  and  C8_8 
ROOT
HETATM    1  C1  UNL     1     -33.676  16.321  -3.524  1.00 20.00    -0.100 C 
HETATM    2  C2  UNL     1     -34.131  15.933  -4.565  1.00 20.00    -0.088 C 
ENDROOT
BRANCH   1   3
HETATM    3  C6  UNL     1     -33.133  16.783  -2.281  1.00 20.00     0.069 A 
HETATM    4  C5  UNL     1     -33.965  17.703  -1.424  1.00 20.00     0.023 A 
HETATM    5  C7  UNL     1     -32.731  18.229  -2.103  1.00 20.00    -0.002 A 
HETATM    6  C9  UNL     1     -32.853  19.240  -3.194  1.00 20.00     0.011 C 
ENDBRANCH   1   3
BRANCH   2   7
HETATM    7  C8  UNL     1     -34.684  15.461  -5.833  1.00 20.00     0.055 A 
HETATM    8  C3  UNL     1     -33.848  15.248  -7.003  1.00 20.00    -0.003 A 
HETATM    9  C4  UNL     1     -34.678  16.289  -7.029  1.00 20.00    -0.003 A 
HETATM   10  C10 UNL     1     -35.855  14.532  -5.644  1.00 20.00     0.038 C 
ENDBRANCH   2   7
TORSDOF 2
ENDMDL
MODEL 6
REMARK VINA RESULT:      -3.8      1.912      2.733
REMARK  2 active torsions:
REMARK  status: ('A' for Active; 'I' for Inactive)
REMARK    1  A    between atoms: C1_1  and  C6_6 
REMARK    2  A    between atoms: C2_2  and  C8_8 
ROOT
HETATM    1  C1  UNL     1     -33.684  16.256  -3.416  1.00 20.00    -0.100 C 
HETATM    2  C2  UNL     1     -34.214  15.836  -4.408  1.00 20.00    -0.088 C 
ENDROOT
BRANCH   1   3
HETATM    3  C6  UNL     1     -33.051  16.758  -2.232  1.00 20.00     0.069 A 
HETATM    4  C5  UNL     1     -33.848  17.638  -1.302  1.00 20.00     0.023 A 
HETATM    5  C7  UNL     1     -32.715  18.225  -2.098  1.00 20.00    -0.002 A 
HETATM    6  C9  UNL     1     -32.996  19.219  -3.174  1.00 20.00     0.011 C 
ENDBRANCH   1   3
BRANCH   2   7
HETATM    7  C8  UNL     1     -34.859  15.323  -5.615  1.00 20.00     0.055 A 
HETATM    8  C3  UNL     1     -36.257  15.593  -5.911  1.00 20.00    -0.003 A 
HETATM    9  C4  UNL     1     -35.939  14.351  -5.554  1.00 20.00    -0.003 A 
HETATM   10  C10 UNL     1     -33.913  15.229  -6.783  1.00 20.00     0.038 C 
ENDBRANCH   2   7
TORSDOF 2
ENDMDL
MODEL 7
REMARK VINA RESULT:      -3.8      1.654      3.056
REMARK  2 active torsions:
REMARK  status: ('A' for Active; 'I' for Inactive)
REMARK    1  A    between atoms: C1_1  and  C6_6 
REMARK    2  A    between atoms: C2_2  and  C8_8 
ROOT
HETATM    1  C1  UNL     1     -31.731  18.555  -0.487  1.00 20.00    -0.100 C 
HETATM    2  C2  UNL     1     -32.499  18.247  -1.357  1.00 20.00    -0.088 C 
ENDROOT
BRANCH   1   3
HETATM    3  C6  UNL     1     -30.814  18.923   0.552  1.00 20.00     0.069 A 
HETATM    4  C5  UNL     1     -30.593  17.965   1.696  1.00 20.00     0.023 A 
HETATM    5  C7  UNL     1     -31.313  19.263   1.937  1.00 20.00    -0.002 A 
HETATM    6  C9  UNL     1     -32.761  19.258   2.298  1.00 20.00     0.011 C 
ENDBRANCH   1   3
BRANCH   2   7
HETATM    7  C8  UNL     1     -33.434  17.872  -2.417  1.00 20.00     0.055 A 
HETATM    8  C3  UNL     1     -33.892  18.831  -3.408  1.00 20.00    -0.003 A 
HETATM    9  C4  UNL     1     -34.772  18.435  -2.492  1.00 20.00    -0.003 A 
HETATM   10  C10 UNL     1     -33.259  16.445  -2.866  1.00 20.00     0.038 C 
ENDBRANCH   2   7
TORSDOF 2
ENDMDL
MODEL 8
REMARK VINA RESULT:      -3.7     10.140     11.500
REMARK  2 active torsions:
REMARK  status: ('A' for Active; 'I' for Inactive)
REMARK    1  A    between atoms: C1_1  and  C6_6 
REMARK    2  A    between atoms: C2_2  and  C8_8 
ROOT
HETATM    1  C1  UNL     1     -41.184  13.163   5.342  1.00 20.00    -0.100 C 
HETATM    2  C2  UNL     1     -41.844  14.022   4.825  1.00 20.00    -0.088 C 
ENDROOT
BRANCH   1   3
HETATM    3  C6  UNL     1     -40.396  12.137   5.959  1.00 20.00     0.069 A 
HETATM    4  C5  UNL     1     -38.951  12.426   6.278  1.00 20.00     0.023 A 
HETATM    5  C7  UNL     1     -39.293  11.444   5.192  1.00 20.00    -0.002 A 
HETATM    6  C9  UNL     1     -38.975  11.762   3.770  1.00 20.00     0.011 C 
ENDBRANCH   1   3
BRANCH   2   7
HETATM    7  C8  UNL     1     -42.648  15.068   4.195  1.00 20.00     0.055 A 
HETATM    8  C3  UNL     1     -43.417  14.821   2.987  1.00 20.00    -0.003 A 
HETATM    9  C4  UNL     1     -42.333  15.586   2.873  1.00 20.00    -0.003 A 
HETATM   10  C10 UNL     1     -43.226  16.035   5.195  1.00 20.00     0.038 C 
ENDBRANCH   2   7
TORSDOF 2
ENDMDL
MODEL 9
REMARK VINA RESULT:      -3.7      1.226      4.988
REMARK  2 active torsions:
REMARK  status: ('A' for Active; 'I' for Inactive)
REMARK    1  A    between atoms: C1_1  and  C6_6 
REMARK    2  A    between atoms: C2_2  and  C8_8 
ROOT
HETATM    1  C1  UNL     1     -33.446  17.605  -1.369  1.00 20.00    -0.100 C 
HETATM    2  C2  UNL     1     -32.940  18.077  -0.388  1.00 20.00    -0.088 C 
ENDROOT
BRANCH   1   3
HETATM    3  C6  UNL     1     -34.051  17.041  -2.540  1.00 20.00     0.069 A 
HETATM    4  C5  UNL     1     -33.167  16.365  -3.557  1.00 20.00     0.023 A 
HETATM    5  C7  UNL     1     -33.836  17.667  -3.898  1.00 20.00    -0.002 A 
HETATM    6  C9  UNL     1     -33.016  18.897  -4.099  1.00 20.00     0.011 C 
ENDBRANCH   1   3
BRANCH   2   7
HETATM    7  C8  UNL     1     -32.325  18.652   0.807  1.00 20.00     0.055 A 
HETATM    8  C3  UNL     1     -31.000  19.251   0.774  1.00 20.00    -0.003 A 
HETATM    9  C4  UNL     1     -31.125  18.083   1.401  1.00 20.00    -0.003 A 
HETATM   10  C10 UNL     1     -33.335  19.263   1.742  1.00 20.00     0.038 C 
ENDBRANCH   2   7
TORSDOF 2
ENDMDL
