MODEL 1
REMARK VINA RESULT:      -5.4      0.000      0.000
REMARK  0 active torsions:
REMARK  status: ('A' for Active; 'I' for Inactive)
ROOT
HETATM    1  C1  UNL     1     -32.545   7.687   3.927  1.00 20.00    -0.012 C 
HETATM    2  C2  UNL     1     -32.788   7.952   5.225  1.00 20.00    -0.016 C 
HETATM    3  C3  UNL     1     -33.204   5.424   3.433  1.00 20.00    -0.010 C 
HETATM    4  C4  UNL     1     -33.847   4.398   4.343  1.00 20.00     0.014 C 
HETATM    5  C5  UNL     1     -33.587   6.736   3.564  1.00 20.00     0.051 C 
HETATM    6  C6  UNL     1     -34.028   7.270   5.630  1.00 20.00     0.034 C 
HETATM    7  C7  UNL     1     -34.750   6.974   4.508  1.00 20.00     0.224 C 
HETATM    8  C8  UNL     1     -34.675   4.925   5.306  1.00 20.00     0.216 C 
HETATM    9  C9  UNL     1     -33.995   5.910   6.368  1.00 20.00     0.066 C 
HETATM   10  N10 UNL     1     -35.564   5.851   4.704  1.00 20.00     0.115 N 
HETATM   11  H17 UNL     1     -36.419   6.026   5.224  1.00 20.00     0.318 HD
ENDROOT
TORSDOF 0
ENDMDL
MODEL 2
REMARK VINA RESULT:      -4.6      1.078      3.120
REMARK  0 active torsions:
REMARK  status: ('A' for Active; 'I' for Inactive)
ROOT
HETATM    1  C1  UNL     1     -34.456   5.064   6.205  1.00 20.00    -0.012 C 
HETATM    2  C2  UNL     1     -34.209   4.569   4.977  1.00 20.00    -0.016 C 
HETATM    3  C3  UNL     1     -33.423   7.229   6.419  1.00 20.00    -0.010 C 
HETATM    4  C4  UNL     1     -32.645   8.020   5.389  1.00 20.00     0.014 C 
HETATM    5  C5  UNL     1     -34.510   6.505   5.995  1.00 20.00     0.051 C 
HETATM    6  C6  UNL     1     -34.225   5.670   4.002  1.00 20.00     0.034 C 
HETATM    7  C7  UNL     1     -34.902   6.726   4.546  1.00 20.00     0.224 C 
HETATM    8  C8  UNL     1     -33.052   7.824   4.089  1.00 20.00     0.216 C 
HETATM    9  C9  UNL     1     -32.914   6.336   3.518  1.00 20.00     0.066 C 
HETATM   10  N10 UNL     1     -34.462   7.945   4.016  1.00 20.00     0.115 N 
HETATM   11  H17 UNL     1     -34.827   8.170   3.095  1.00 20.00     0.318 HD
ENDROOT
TORSDOF 0
ENDMDL
MODEL 3
REMARK VINA RESULT:      -4.4     12.510     13.757
REMARK  0 active torsions:
REMARK  status: ('A' for Active; 'I' for Inactive)
ROOT
HETATM    1  C1  UNL     1     -36.129  16.993  -5.603  1.00 20.00    -0.012 C 
HETATM    2  C2  UNL     1     -36.679  15.766  -5.660  1.00 20.00    -0.016 C 
HETATM    3  C3  UNL     1     -34.088  16.900  -4.328  1.00 20.00    -0.010 C 
HETATM    4  C4  UNL     1     -33.414  15.701  -3.694  1.00 20.00     0.014 C 
HETATM    5  C5  UNL     1     -34.697  16.731  -5.547  1.00 20.00     0.051 C 
HETATM    6  C6  UNL     1     -35.607  14.763  -5.757  1.00 20.00     0.034 C 
HETATM    7  C7  UNL     1     -34.469  15.380  -6.197  1.00 20.00     0.224 C 
HETATM    8  C8  UNL     1     -33.596  14.517  -4.372  1.00 20.00     0.216 C 
HETATM    9  C9  UNL     1     -35.103  13.999  -4.508  1.00 20.00     0.066 C 
HETATM   10  N10 UNL     1     -33.320  14.718  -5.747  1.00 20.00     0.115 N 
HETATM   11  H17 UNL     1     -33.079  13.877  -6.265  1.00 20.00     0.318 HD
ENDROOT
TORSDOF 0
ENDMDL
MODEL 4
REMARK VINA RESULT:      -4.2      0.889      2.898
REMARK  0 active torsions:
REMARK  status: ('A' for Active; 'I' for Inactive)
ROOT
HETATM    1  C1  UNL     1     -34.097   4.370   4.424  1.00 20.00    -0.012 C 
HETATM    2  C2  UNL     1     -33.326   4.921   3.468  1.00 20.00    -0.016 C 
HETATM    3  C3  UNL     1     -34.189   5.842   6.328  1.00 20.00    -0.010 C 
HETATM    4  C4  UNL     1     -33.564   7.210   6.506  1.00 20.00     0.014 C 
HETATM    5  C5  UNL     1     -34.696   5.517   5.093  1.00 20.00     0.051 C 
HETATM    6  C6  UNL     1     -33.531   6.378   3.465  1.00 20.00     0.034 C 
HETATM    7  C7  UNL     1     -34.716   6.654   4.089  1.00 20.00     0.224 C 
HETATM    8  C8  UNL     1     -33.462   7.948   5.350  1.00 20.00     0.216 C 
HETATM    9  C9  UNL     1     -32.549   7.330   4.190  1.00 20.00     0.066 C 
HETATM   10  N10 UNL     1     -34.704   7.928   4.669  1.00 20.00     0.115 N 
HETATM   11  H17 UNL     1     -34.853   8.697   4.022  1.00 20.00     0.318 HD
ENDROOT
TORSDOF 0
ENDMDL
MODEL 5
REMARK VINA RESULT:      -4.0     12.882     14.031
REMARK  0 active torsions:
REMARK  status: ('A' for Active; 'I' for Inactive)
ROOT
HETATM    1  C1  UNL     1     -33.600  17.332  -1.331  1.00 20.00    -0.012 C 
HETATM    2  C2  UNL     1     -34.487  18.327  -1.527  1.00 20.00    -0.016 C 
HETATM    3  C3  UNL     1     -33.503  15.944  -3.295  1.00 20.00    -0.010 C 
HETATM    4  C4  UNL     1     -34.235  16.102  -4.612  1.00 20.00     0.014 C 
HETATM    5  C5  UNL     1     -33.061  17.077  -2.660  1.00 20.00     0.051 C 
HETATM    6  C6  UNL     1     -34.415  18.763  -2.930  1.00 20.00     0.034 C 
HETATM    7  C7  UNL     1     -33.218  18.361  -3.453  1.00 20.00     0.224 C 
HETATM    8  C8  UNL     1     -34.489  17.404  -4.973  1.00 20.00     0.216 C 
HETATM    9  C9  UNL     1     -35.424  18.247  -3.986  1.00 20.00     0.066 C 
HETATM   10  N10 UNL     1     -33.303  18.168  -4.838  1.00 20.00     0.115 N 
HETATM   11  H17 UNL     1     -33.273  19.018  -5.393  1.00 20.00     0.318 HD
ENDROOT
TORSDOF 0
ENDMDL
MODEL 6
REMARK VINA RESULT:      -3.9     12.782     14.007
REMARK  0 active torsions:
REMARK  status: ('A' for Active; 'I' for Inactive)
ROOT
HETATM    1  C1  UNL     1     -32.354  19.230  -1.544  1.00 20.00    -0.012 C 
HETATM    2  C2  UNL     1     -32.356  17.964  -1.086  1.00 20.00    -0.016 C 
HETATM    3  C3  UNL     1     -33.147  19.262  -3.817  1.00 20.00    -0.010 C 
HETATM    4  C4  UNL     1     -33.642  18.113  -4.670  1.00 20.00     0.014 C 
HETATM    5  C5  UNL     1     -33.468  19.263  -2.482  1.00 20.00     0.051 C 
HETATM    6  C6  UNL     1     -33.520  17.254  -1.639  1.00 20.00     0.034 C 
HETATM    7  C7  UNL     1     -34.438  18.178  -2.055  1.00 20.00     0.224 C 
HETATM    8  C8  UNL     1     -34.272  17.110  -3.971  1.00 20.00     0.216 C 
HETATM    9  C9  UNL     1     -33.390  16.340  -2.881  1.00 20.00     0.066 C 
HETATM   10  N10 UNL     1     -35.231  17.680  -3.096  1.00 20.00     0.115 N 
HETATM   11  H17 UNL     1     -35.976  17.052  -2.807  1.00 20.00     0.318 HD
ENDROOT
TORSDOF 0
ENDMDL
MODEL 7
REMARK VINA RESULT:      -3.8      8.906      9.911
REMARK  0 active torsions:
REMARK  status: ('A' for Active; 'I' for Inactive)
ROOT
HETATM    1  C1  UNL     1     -43.413   5.902   2.244  1.00 20.00    -0.012 C 
HETATM    2  C2  UNL     1     -43.043   7.127   1.826  1.00 20.00    -0.016 C 
HETATM    3  C3  UNL     1     -43.417   4.383   0.376  1.00 20.00    -0.010 C 
HETATM    4  C4  UNL     1     -43.032   4.644  -1.066  1.00 20.00     0.014 C 
HETATM    5  C5  UNL     1     -42.687   4.998   1.362  1.00 20.00     0.051 C 
HETATM    6  C6  UNL     1     -42.016   6.988   0.782  1.00 20.00     0.034 C 
HETATM    7  C7  UNL     1     -41.457   5.745   0.881  1.00 20.00     0.224 C 
HETATM    8  C8  UNL     1     -42.045   5.587  -1.233  1.00 20.00     0.216 C 
HETATM    9  C9  UNL     1     -42.380   7.066  -0.721  1.00 20.00     0.066 C 
HETATM   10  N10 UNL     1     -40.970   5.302  -0.355  1.00 20.00     0.115 N 
HETATM   11  H17 UNL     1     -40.074   5.696  -0.630  1.00 20.00     0.318 HD
ENDROOT
TORSDOF 0
ENDMDL
MODEL 8
REMARK VINA RESULT:      -3.8      8.422      9.318
REMARK  0 active torsions:
REMARK  status: ('A' for Active; 'I' for Inactive)
ROOT
HETATM    1  C1  UNL     1     -42.183   8.592  -0.418  1.00 20.00    -0.012 C 
HETATM    2  C2  UNL     1     -40.890   8.333  -0.146  1.00 20.00    -0.016 C 
HETATM    3  C3  UNL     1     -43.417   6.526  -0.490  1.00 20.00    -0.010 C 
HETATM    4  C4  UNL     1     -42.930   5.115  -0.234  1.00 20.00     0.014 C 
HETATM    5  C5  UNL     1     -42.904   7.538   0.283  1.00 20.00     0.051 C 
HETATM    6  C6  UNL     1     -40.814   7.210   0.801  1.00 20.00     0.034 C 
HETATM    7  C7  UNL     1     -42.021   7.086   1.430  1.00 20.00     0.224 C 
HETATM    8  C8  UNL     1     -41.912   5.019   0.686  1.00 20.00     0.216 C 
HETATM    9  C9  UNL     1     -40.546   5.764   0.316  1.00 20.00     0.066 C 
HETATM   10  N10 UNL     1     -42.251   5.767   1.841  1.00 20.00     0.115 N 
HETATM   11  H17 UNL     1     -41.767   5.491   2.690  1.00 20.00     0.318 HD
ENDROOT
TORSDOF 0
ENDMDL
MODEL 9
REMARK VINA RESULT:      -3.8     12.330     13.510
REMARK  0 active torsions:
REMARK  status: ('A' for Active; 'I' for Inactive)
ROOT
HETATM    1  C1  UNL     1     -33.293  15.888  -3.463  1.00 20.00    -0.012 C 
HETATM    2  C2  UNL     1     -33.883  17.034  -3.854  1.00 20.00    -0.016 C 
HETATM    3  C3  UNL     1     -34.632  14.015  -4.167  1.00 20.00    -0.010 C 
HETATM    4  C4  UNL     1     -35.917  14.010  -4.968  1.00 20.00     0.014 C 
HETATM    5  C5  UNL     1     -33.666  14.933  -4.498  1.00 20.00     0.051 C 
HETATM    6  C6  UNL     1     -34.514  16.826  -5.166  1.00 20.00     0.034 C 
HETATM    7  C7  UNL     1     -33.945  15.733  -5.757  1.00 20.00     0.224 C 
HETATM    8  C8  UNL     1     -36.026  15.031  -5.883  1.00 20.00     0.216 C 
HETATM    9  C9  UNL     1     -36.026  16.518  -5.293  1.00 20.00     0.066 C 
HETATM   10  N10 UNL     1     -34.832  15.109  -6.643  1.00 20.00     0.115 N 
HETATM   11  H17 UNL     1     -34.927  15.563  -7.547  1.00 20.00     0.318 HD
ENDROOT
TORSDOF 0
ENDMDL
