MODEL 1
REMARK VINA RESULT:      -4.9      0.000      0.000
REMARK  1 active torsions:
REMARK  status: ('A' for Active; 'I' for Inactive)
REMARK    1  A    between atoms: C4_4  and  C6_6 
ROOT
HETATM    1  C1  UNL     1     -32.546   9.351   0.668  1.00 20.00     0.012 C 
HETATM    2  C2  UNL     1     -32.396   8.451   1.447  1.00 20.00    -0.109 C 
HETATM    3  C3  UNL     1     -32.728   7.761   3.757  1.00 20.00    -0.003 C 
HETATM    4  C4  UNL     1     -33.487   6.972   4.537  1.00 20.00    -0.061 C 
HETATM    5  C7  UNL     1     -33.867   5.568   4.134  1.00 20.00     0.038 C 
HETATM    6  C8  UNL     1     -33.031   5.028   2.972  1.00 20.00     0.006 C 
HETATM    7  C9  UNL     1     -32.885   6.073   1.871  1.00 20.00     0.021 C 
HETATM    8  C10 UNL     1     -32.211   7.346   2.404  1.00 20.00     0.087 C 
ENDROOT
BRANCH   4   9
HETATM    9  C6  UNL     1     -33.971   7.424   5.819  1.00 20.00    -0.004 C 
HETATM   10  C5  UNL     1     -34.469   6.531   6.690  1.00 20.00     0.012 C 
ENDBRANCH   4   9
TORSDOF 1
ENDMDL
MODEL 2
REMARK VINA RESULT:      -4.8      2.051      3.647
REMARK  1 active torsions:
REMARK  status: ('A' for Active; 'I' for Inactive)
REMARK    1  A    between atoms: C4_4  and  C6_6 
ROOT
HETATM    1  C1  UNL     1     -31.879   9.469   4.986  1.00 20.00     0.012 C 
HETATM    2  C2  UNL     1     -32.791   8.691   5.019  1.00 20.00    -0.109 C 
HETATM    3  C3  UNL     1     -33.720   6.692   3.987  1.00 20.00    -0.003 C 
HETATM    4  C4  UNL     1     -33.910   5.376   4.187  1.00 20.00    -0.061 C 
HETATM    5  C7  UNL     1     -34.366   4.822   5.514  1.00 20.00     0.038 C 
HETATM    6  C8  UNL     1     -34.924   5.892   6.454  1.00 20.00     0.006 C 
HETATM    7  C9  UNL     1     -34.033   7.129   6.465  1.00 20.00     0.021 C 
HETATM    8  C10 UNL     1     -33.911   7.735   5.059  1.00 20.00     0.087 C 
ENDROOT
BRANCH   4   9
HETATM    9  C6  UNL     1     -33.697   4.417   3.131  1.00 20.00    -0.004 C 
HETATM   10  C5  UNL     1     -32.901   4.737   2.098  1.00 20.00     0.012 C 
ENDBRANCH   4   9
TORSDOF 1
ENDMDL
MODEL 3
REMARK VINA RESULT:      -4.6      1.488      3.903
REMARK  1 active torsions:
REMARK  status: ('A' for Active; 'I' for Inactive)
REMARK    1  A    between atoms: C4_4  and  C6_6 
ROOT
HETATM    1  C1  UNL     1     -34.935   5.010   6.981  1.00 20.00     0.012 C 
HETATM    2  C2  UNL     1     -34.733   5.375   5.856  1.00 20.00    -0.109 C 
HETATM    3  C3  UNL     1     -33.836   7.184   4.499  1.00 20.00    -0.003 C 
HETATM    4  C4  UNL     1     -32.789   7.522   3.726  1.00 20.00    -0.061 C 
HETATM    5  C7  UNL     1     -32.182   6.564   2.730  1.00 20.00     0.038 C 
HETATM    6  C8  UNL     1     -33.073   5.355   2.438  1.00 20.00     0.006 C 
HETATM    7  C9  UNL     1     -33.651   4.777   3.725  1.00 20.00     0.021 C 
HETATM    8  C10 UNL     1     -34.486   5.825   4.476  1.00 20.00     0.087 C 
ENDROOT
BRANCH   4   9
HETATM    9  C6  UNL     1     -32.192   8.833   3.799  1.00 20.00    -0.004 C 
HETATM   10  C5  UNL     1     -32.072   9.440   4.991  1.00 20.00     0.012 C 
ENDBRANCH   4   9
TORSDOF 1
ENDMDL
MODEL 4
REMARK VINA RESULT:      -4.5      1.312      2.782
REMARK  1 active torsions:
REMARK  status: ('A' for Active; 'I' for Inactive)
REMARK    1  A    between atoms: C4_4  and  C6_6 
ROOT
HETATM    1  C1  UNL     1     -32.557   4.088   1.898  1.00 20.00     0.012 C 
HETATM    2  C2  UNL     1     -32.900   5.147   2.345  1.00 20.00    -0.109 C 
HETATM    3  C3  UNL     1     -33.995   6.236   4.225  1.00 20.00    -0.003 C 
HETATM    4  C4  UNL     1     -33.754   6.994   5.309  1.00 20.00    -0.061 C 
HETATM    5  C7  UNL     1     -32.796   8.159   5.279  1.00 20.00     0.038 C 
HETATM    6  C8  UNL     1     -32.428   8.600   3.861  1.00 20.00     0.006 C 
HETATM    7  C9  UNL     1     -32.118   7.397   2.977  1.00 20.00     0.021 C 
HETATM    8  C10 UNL     1     -33.322   6.447   2.893  1.00 20.00     0.087 C 
ENDROOT
BRANCH   4   9
HETATM    9  C6  UNL     1     -34.414   6.739   6.566  1.00 20.00    -0.004 C 
HETATM   10  C5  UNL     1     -34.867   5.504   6.837  1.00 20.00     0.012 C 
ENDBRANCH   4   9
TORSDOF 1
ENDMDL
MODEL 5
REMARK VINA RESULT:      -4.5      1.173      4.535
REMARK  1 active torsions:
REMARK  status: ('A' for Active; 'I' for Inactive)
REMARK    1  A    between atoms: C4_4  and  C6_6 
ROOT
HETATM    1  C1  UNL     1     -35.244   5.072   4.907  1.00 20.00     0.012 C 
HETATM    2  C2  UNL     1     -34.296   5.800   4.798  1.00 20.00    -0.109 C 
HETATM    3  C3  UNL     1     -32.765   6.824   3.208  1.00 20.00    -0.003 C 
HETATM    4  C4  UNL     1     -32.461   7.994   2.620  1.00 20.00    -0.061 C 
HETATM    5  C7  UNL     1     -32.430   9.294   3.384  1.00 20.00     0.038 C 
HETATM    6  C8  UNL     1     -32.417   9.101   4.902  1.00 20.00     0.006 C 
HETATM    7  C9  UNL     1     -33.431   8.045   5.328  1.00 20.00     0.021 C 
HETATM    8  C10 UNL     1     -33.133   6.693   4.664  1.00 20.00     0.087 C 
ENDROOT
BRANCH   4   9
HETATM    9  C6  UNL     1     -32.132   8.067   1.218  1.00 20.00    -0.004 C 
HETATM   10  C5  UNL     1     -32.586   9.097   0.485  1.00 20.00     0.012 C 
ENDBRANCH   4   9
TORSDOF 1
ENDMDL
MODEL 6
REMARK VINA RESULT:      -4.1     10.974     12.514
REMARK  1 active torsions:
REMARK  status: ('A' for Active; 'I' for Inactive)
REMARK    1  A    between atoms: C4_4  and  C6_6 
ROOT
HETATM    1  C1  UNL     1     -33.805  18.075   0.440  1.00 20.00     0.012 C 
HETATM    2  C2  UNL     1     -33.479  17.990  -0.711  1.00 20.00    -0.109 C 
HETATM    3  C3  UNL     1     -33.244  16.461  -2.590  1.00 20.00    -0.003 C 
HETATM    4  C4  UNL     1     -33.798  16.123  -3.767  1.00 20.00    -0.061 C 
HETATM    5  C7  UNL     1     -34.282  17.155  -4.755  1.00 20.00     0.038 C 
HETATM    6  C8  UNL     1     -33.763  18.563  -4.457  1.00 20.00     0.006 C 
HETATM    7  C9  UNL     1     -33.878  18.886  -2.972  1.00 20.00     0.021 C 
HETATM    8  C10 UNL     1     -33.078  17.885  -2.125  1.00 20.00     0.087 C 
ENDROOT
BRANCH   4   9
HETATM    9  C6  UNL     1     -33.948  14.742  -4.158  1.00 20.00    -0.004 C 
HETATM   10  C5  UNL     1     -35.011  14.375  -4.891  1.00 20.00     0.012 C 
ENDBRANCH   4   9
TORSDOF 1
ENDMDL
MODEL 7
REMARK VINA RESULT:      -4.1     11.223     12.466
REMARK  1 active torsions:
REMARK  status: ('A' for Active; 'I' for Inactive)
REMARK    1  A    between atoms: C4_4  and  C6_6 
ROOT
HETATM    1  C1  UNL     1     -30.301  18.203   2.095  1.00 20.00     0.012 C 
HETATM    2  C2  UNL     1     -31.089  18.615   1.290  1.00 20.00    -0.109 C 
HETATM    3  C3  UNL     1     -31.940  18.317  -0.970  1.00 20.00    -0.003 C 
HETATM    4  C4  UNL     1     -33.000  17.862  -1.661  1.00 20.00    -0.061 C 
HETATM    5  C7  UNL     1     -34.420  18.144  -1.236  1.00 20.00     0.038 C 
HETATM    6  C8  UNL     1     -34.525  19.263  -0.197  1.00 20.00     0.006 C 
HETATM    7  C9  UNL     1     -33.472  19.099   0.893  1.00 20.00     0.021 C 
HETATM    8  C10 UNL     1     -32.055  19.120   0.300  1.00 20.00     0.087 C 
ENDROOT
BRANCH   4   9
HETATM    9  C6  UNL     1     -32.835  17.082  -2.864  1.00 20.00    -0.004 C 
HETATM   10  C5  UNL     1     -33.611  16.005  -3.065  1.00 20.00     0.012 C 
ENDBRANCH   4   9
TORSDOF 1
ENDMDL
MODEL 8
REMARK VINA RESULT:      -4.1      9.811     11.158
REMARK  1 active torsions:
REMARK  status: ('A' for Active; 'I' for Inactive)
REMARK    1  A    between atoms: C4_4  and  C6_6 
ROOT
HETATM    1  C1  UNL     1     -39.054  11.675   4.606  1.00 20.00     0.012 C 
HETATM    2  C2  UNL     1     -39.943  12.243   5.176  1.00 20.00    -0.109 C 
HETATM    3  C3  UNL     1     -40.483  13.652   7.085  1.00 20.00    -0.003 C 
HETATM    4  C4  UNL     1     -40.816  14.910   7.424  1.00 20.00    -0.061 C 
HETATM    5  C7  UNL     1     -41.811  15.720   6.631  1.00 20.00     0.038 C 
HETATM    6  C8  UNL     1     -42.641  14.874   5.663  1.00 20.00     0.006 C 
HETATM    7  C9  UNL     1     -41.762  13.884   4.909  1.00 20.00     0.021 C 
HETATM    8  C10 UNL     1     -41.035  12.940   5.878  1.00 20.00     0.087 C 
ENDROOT
BRANCH   4   9
HETATM    9  C6  UNL     1     -40.245  15.553   8.582  1.00 20.00    -0.004 C 
HETATM   10  C5  UNL     1     -40.259  14.917   9.765  1.00 20.00     0.012 C 
ENDBRANCH   4   9
TORSDOF 1
ENDMDL
MODEL 9
REMARK VINA RESULT:      -4.1     14.803     15.699
REMARK  1 active torsions:
REMARK  status: ('A' for Active; 'I' for Inactive)
REMARK    1  A    between atoms: C4_4  and  C6_6 
ROOT
HETATM    1  C1  UNL     1     -26.386  19.123   6.977  1.00 20.00     0.012 C 
HETATM    2  C2  UNL     1     -25.509  19.186   7.793  1.00 20.00    -0.109 C 
HETATM    3  C3  UNL     1     -24.756  18.352   9.952  1.00 20.00    -0.003 C 
HETATM    4  C4  UNL     1     -23.859  17.532  10.526  1.00 20.00    -0.061 C 
HETATM    5  C7  UNL     1     -22.420  17.471  10.077  1.00 20.00     0.038 C 
HETATM    6  C8  UNL     1     -22.016  18.652   9.191  1.00 20.00     0.006 C 
HETATM    7  C9  UNL     1     -23.082  18.937   8.140  1.00 20.00     0.021 C 
HETATM    8  C10 UNL     1     -24.432  19.263   8.795  1.00 20.00     0.087 C 
ENDROOT
BRANCH   4   9
HETATM    9  C6  UNL     1     -24.225  16.667  11.621  1.00 20.00    -0.004 C 
HETATM   10  C5  UNL     1     -25.356  16.908  12.305  1.00 20.00     0.012 C 
ENDBRANCH   4   9
TORSDOF 1
ENDMDL
