MODEL 1
REMARK VINA RESULT:      -4.5      0.000      0.000
REMARK  0 active torsions:
REMARK  status: ('A' for Active; 'I' for Inactive)
ROOT
HETATM    1  C1  UNL     1     -32.265   7.953   1.908  1.00 20.00     0.012 C 
HETATM    2  C2  UNL     1     -32.495   7.366   2.929  1.00 20.00    -0.112 C 
HETATM    3  C3  UNL     1     -35.629   6.218   4.280  1.00 20.00    -0.026 C 
HETATM    4  C4  UNL     1     -35.122   7.443   4.492  1.00 20.00    -0.024 C 
HETATM    5  C5  UNL     1     -34.400   5.270   6.196  1.00 20.00     0.009 C 
HETATM    6  C6  UNL     1     -33.836   6.689   6.446  1.00 20.00     0.010 C 
HETATM    7  C7  UNL     1     -33.396   5.244   3.902  1.00 20.00     0.026 C 
HETATM    8  C8  UNL     1     -32.776   6.643   4.183  1.00 20.00     0.072 C 
HETATM    9  C9  UNL     1     -34.716   5.084   4.694  1.00 20.00     0.009 C 
HETATM   10  C10 UNL     1     -33.733   7.453   5.104  1.00 20.00     0.023 C 
ENDROOT
TORSDOF 0
ENDMDL
MODEL 2
REMARK VINA RESULT:      -3.8     12.076     13.549
REMARK  0 active torsions:
REMARK  status: ('A' for Active; 'I' for Inactive)
ROOT
HETATM    1  C1  UNL     1     -33.482  16.764  -2.187  1.00 20.00     0.012 C 
HETATM    2  C2  UNL     1     -33.760  16.669  -3.351  1.00 20.00    -0.112 C 
HETATM    3  C3  UNL     1     -36.067  14.455  -5.003  1.00 20.00    -0.026 C 
HETATM    4  C4  UNL     1     -34.783  14.153  -4.753  1.00 20.00    -0.024 C 
HETATM    5  C5  UNL     1     -35.499  15.538  -7.144  1.00 20.00     0.009 C 
HETATM    6  C6  UNL     1     -34.024  15.168  -6.858  1.00 20.00     0.010 C 
HETATM    7  C7  UNL     1     -35.603  16.875  -5.029  1.00 20.00     0.026 C 
HETATM    8  C8  UNL     1     -34.102  16.555  -4.780  1.00 20.00     0.072 C 
HETATM    9  C9  UNL     1     -36.266  15.717  -5.814  1.00 20.00     0.009 C 
HETATM   10  C10 UNL     1     -33.781  15.136  -5.330  1.00 20.00     0.023 C 
ENDROOT
TORSDOF 0
ENDMDL
MODEL 3
REMARK VINA RESULT:      -3.6      9.312     10.801
REMARK  0 active torsions:
REMARK  status: ('A' for Active; 'I' for Inactive)
ROOT
HETATM    1  C1  UNL     1     -39.442  11.810   4.566  1.00 20.00     0.012 C 
HETATM    2  C2  UNL     1     -40.079  12.293   5.461  1.00 20.00    -0.112 C 
HETATM    3  C3  UNL     1     -43.265  13.968   5.385  1.00 20.00    -0.026 C 
HETATM    4  C4  UNL     1     -42.086  14.584   5.199  1.00 20.00    -0.024 C 
HETATM    5  C5  UNL     1     -43.129  14.232   7.833  1.00 20.00     0.009 C 
HETATM    6  C6  UNL     1     -41.782  14.959   7.609  1.00 20.00     0.010 C 
HETATM    7  C7  UNL     1     -42.235  12.172   6.723  1.00 20.00     0.026 C 
HETATM    8  C8  UNL     1     -40.862  12.885   6.560  1.00 20.00     0.072 C 
HETATM    9  C9  UNL     1     -43.378  13.216   6.694  1.00 20.00     0.009 C 
HETATM   10  C10 UNL     1     -41.097  14.407   6.336  1.00 20.00     0.023 C 
ENDROOT
TORSDOF 0
ENDMDL
MODEL 4
REMARK VINA RESULT:      -3.6      9.506     11.110
REMARK  0 active torsions:
REMARK  status: ('A' for Active; 'I' for Inactive)
ROOT
HETATM    1  C1  UNL     1     -39.539  11.572   5.398  1.00 20.00     0.012 C 
HETATM    2  C2  UNL     1     -40.091  12.579   5.747  1.00 20.00    -0.112 C 
HETATM    3  C3  UNL     1     -42.817  13.039   8.054  1.00 20.00    -0.026 C 
HETATM    4  C4  UNL     1     -42.974  12.791   6.743  1.00 20.00    -0.024 C 
HETATM    5  C5  UNL     1     -42.661  15.471   7.677  1.00 20.00     0.009 C 
HETATM    6  C6  UNL     1     -42.863  15.179   6.172  1.00 20.00     0.010 C 
HETATM    7  C7  UNL     1     -40.597  14.052   7.704  1.00 20.00     0.026 C 
HETATM    8  C8  UNL     1     -40.768  13.816   6.176  1.00 20.00     0.072 C 
HETATM    9  C9  UNL     1     -41.982  14.263   8.363  1.00 20.00     0.009 C 
HETATM   10  C10 UNL     1     -42.284  13.785   5.827  1.00 20.00     0.023 C 
ENDROOT
TORSDOF 0
ENDMDL
MODEL 5
REMARK VINA RESULT:      -3.6      9.741     11.379
REMARK  0 active torsions:
REMARK  status: ('A' for Active; 'I' for Inactive)
ROOT
HETATM    1  C1  UNL     1     -40.482  14.427   9.828  1.00 20.00     0.012 C 
HETATM    2  C2  UNL     1     -40.540  14.426   8.630  1.00 20.00    -0.112 C 
HETATM    3  C3  UNL     1     -43.232  13.456   6.445  1.00 20.00    -0.026 C 
HETATM    4  C4  UNL     1     -42.305  12.608   6.919  1.00 20.00    -0.024 C 
HETATM    5  C5  UNL     1     -41.826  14.076   4.517  1.00 20.00     0.009 C 
HETATM    6  C6  UNL     1     -40.771  13.082   5.058  1.00 20.00     0.010 C 
HETATM    7  C7  UNL     1     -41.718  15.391   6.646  1.00 20.00     0.026 C 
HETATM    8  C8  UNL     1     -40.610  14.427   7.157  1.00 20.00     0.072 C 
HETATM    9  C9  UNL     1     -42.670  14.637   5.685  1.00 20.00     0.009 C 
HETATM   10  C10 UNL     1     -40.873  12.999   6.600  1.00 20.00     0.023 C 
ENDROOT
TORSDOF 0
ENDMDL
MODEL 6
REMARK VINA RESULT:      -3.5     12.326     13.719
REMARK  0 active torsions:
REMARK  status: ('A' for Active; 'I' for Inactive)
ROOT
HETATM    1  C1  UNL     1     -34.769  14.863  -4.899  1.00 20.00     0.012 C 
HETATM    2  C2  UNL     1     -34.117  15.735  -4.396  1.00 20.00    -0.112 C 
HETATM    3  C3  UNL     1     -35.138  18.444  -2.255  1.00 20.00    -0.026 C 
HETATM    4  C4  UNL     1     -35.135  18.505  -3.597  1.00 20.00    -0.024 C 
HETATM    5  C5  UNL     1     -32.783  19.159  -2.117  1.00 20.00     0.009 C 
HETATM    6  C6  UNL     1     -32.793  19.247  -3.662  1.00 20.00     0.010 C 
HETATM    7  C7  UNL     1     -33.370  16.726  -2.224  1.00 20.00     0.026 C 
HETATM    8  C8  UNL     1     -33.314  16.805  -3.776  1.00 20.00     0.072 C 
HETATM    9  C9  UNL     1     -33.800  18.095  -1.642  1.00 20.00     0.009 C 
HETATM   10  C10 UNL     1     -33.791  18.212  -4.237  1.00 20.00     0.023 C 
ENDROOT
TORSDOF 0
ENDMDL
MODEL 7
REMARK VINA RESULT:      -3.4     12.450     14.515
REMARK  0 active torsions:
REMARK  status: ('A' for Active; 'I' for Inactive)
ROOT
HETATM    1  C1  UNL     1     -33.239  16.282  -3.059  1.00 20.00     0.012 C 
HETATM    2  C2  UNL     1     -33.946  15.943  -3.968  1.00 20.00    -0.112 C 
HETATM    3  C3  UNL     1     -34.311  17.352  -7.261  1.00 20.00    -0.026 C 
HETATM    4  C4  UNL     1     -35.009  17.757  -6.188  1.00 20.00    -0.024 C 
HETATM    5  C5  UNL     1     -35.948  15.584  -7.783  1.00 20.00     0.009 C 
HETATM    6  C6  UNL     1     -36.757  16.070  -6.557  1.00 20.00     0.010 C 
HETATM    7  C7  UNL     1     -33.973  15.098  -6.322  1.00 20.00     0.026 C 
HETATM    8  C8  UNL     1     -34.813  15.525  -5.085  1.00 20.00     0.072 C 
HETATM    9  C9  UNL     1     -34.445  15.877  -7.574  1.00 20.00     0.009 C 
HETATM   10  C10 UNL     1     -35.795  16.659  -5.497  1.00 20.00     0.023 C 
ENDROOT
TORSDOF 0
ENDMDL
MODEL 8
REMARK VINA RESULT:      -3.2     12.768     14.134
REMARK  0 active torsions:
REMARK  status: ('A' for Active; 'I' for Inactive)
ROOT
HETATM    1  C1  UNL     1     -33.220  19.237  -4.602  1.00 20.00     0.012 C 
HETATM    2  C2  UNL     1     -33.922  18.264  -4.566  1.00 20.00    -0.112 C 
HETATM    3  C3  UNL     1     -33.997  15.388  -6.730  1.00 20.00    -0.026 C 
HETATM    4  C4  UNL     1     -34.689  16.516  -6.954  1.00 20.00    -0.024 C 
HETATM    5  C5  UNL     1     -35.795  14.444  -5.332  1.00 20.00     0.009 C 
HETATM    6  C6  UNL     1     -36.595  15.738  -5.612  1.00 20.00     0.010 C 
HETATM    7  C7  UNL     1     -33.946  15.778  -4.296  1.00 20.00     0.026 C 
HETATM    8  C8  UNL     1     -34.783  17.069  -4.520  1.00 20.00     0.072 C 
HETATM    9  C9  UNL     1     -34.279  14.737  -5.393  1.00 20.00     0.009 C 
HETATM   10  C10 UNL     1     -35.619  16.920  -5.824  1.00 20.00     0.023 C 
ENDROOT
TORSDOF 0
ENDMDL
MODEL 9
REMARK VINA RESULT:      -3.2      1.340      2.354
REMARK  0 active torsions:
REMARK  status: ('A' for Active; 'I' for Inactive)
ROOT
HETATM    1  C1  UNL     1     -31.936   9.090   4.809  1.00 20.00     0.012 C 
HETATM    2  C2  UNL     1     -32.886   8.382   5.000  1.00 20.00    -0.112 C 
HETATM    3  C3  UNL     1     -33.263   4.836   4.506  1.00 20.00    -0.026 C 
HETATM    4  C4  UNL     1     -33.488   5.757   3.554  1.00 20.00    -0.024 C 
HETATM    5  C5  UNL     1     -35.569   5.011   5.361  1.00 20.00     0.009 C 
HETATM    6  C6  UNL     1     -35.826   6.056   4.249  1.00 20.00     0.010 C 
HETATM    7  C7  UNL     1     -33.745   6.437   6.317  1.00 20.00     0.026 C 
HETATM    8  C8  UNL     1     -34.053   7.513   5.237  1.00 20.00     0.072 C 
HETATM    9  C9  UNL     1     -34.077   5.028   5.767  1.00 20.00     0.009 C 
HETATM   10  C10 UNL     1     -34.514   6.811   3.928  1.00 20.00     0.023 C 
ENDROOT
TORSDOF 0
ENDMDL
