MODEL 1
REMARK VINA RESULT:      -4.7      0.000      0.000
REMARK  2 active torsions:
REMARK  status: ('A' for Active; 'I' for Inactive)
REMARK    1  A    between atoms: C8_8  and  C10_10 
REMARK    2  A    between atoms: C10_10  and  C11_11 
ROOT
HETATM    1  C1  UNL     1     -30.302  18.508   2.562  1.00 20.00     0.012 C 
HETATM    2  C2  UNL     1     -31.076  18.748   1.677  1.00 20.00    -0.113 C 
HETATM    3  C3  UNL     1     -31.439  18.730  -0.815  1.00 20.00     0.017 C 
HETATM    4  C4  UNL     1     -33.371  18.282   0.750  1.00 20.00     0.017 C 
HETATM    5  C5  UNL     1     -32.421  18.983  -1.961  1.00 20.00     0.006 C 
HETATM    6  C6  UNL     1     -34.357  18.534  -0.392  1.00 20.00     0.006 C 
HETATM    7  C7  UNL     1     -32.060  19.054   0.548  1.00 20.00     0.064 C 
HETATM    8  C8  UNL     1     -33.758  18.255  -1.776  1.00 20.00    -0.014 C 
ENDROOT
BRANCH   8   9
HETATM    9  C10 UNL     1     -33.606  16.804  -2.004  1.00 20.00     0.004 C 
BRANCH   9  10
HETATM   10  C11 UNL     1     -33.219  16.511  -3.449  1.00 20.00    -0.004 C 
HETATM   11  C9  UNL     1     -33.611  15.097  -3.848  1.00 20.00     0.005 C 
ENDBRANCH   9  10
ENDBRANCH   8   9
TORSDOF 2
ENDMDL
MODEL 2
REMARK VINA RESULT:      -4.1     10.820     12.058
REMARK  2 active torsions:
REMARK  status: ('A' for Active; 'I' for Inactive)
REMARK    1  A    between atoms: C8_8  and  C10_10 
REMARK    2  A    between atoms: C10_10  and  C11_11 
ROOT
HETATM    1  C1  UNL     1     -32.777   9.266  -0.324  1.00 20.00     0.012 C 
HETATM    2  C2  UNL     1     -32.528   8.798   0.752  1.00 20.00    -0.113 C 
HETATM    3  C3  UNL     1     -32.704   9.127   3.243  1.00 20.00     0.017 C 
HETATM    4  C4  UNL     1     -32.824   6.803   2.260  1.00 20.00     0.017 C 
HETATM    5  C5  UNL     1     -32.441   8.532   4.628  1.00 20.00     0.006 C 
HETATM    6  C6  UNL     1     -32.561   6.203   3.642  1.00 20.00     0.006 C 
HETATM    7  C7  UNL     1     -32.211   8.203   2.124  1.00 20.00     0.064 C 
HETATM    8  C8  UNL     1     -33.009   7.116   4.790  1.00 20.00    -0.014 C 
ENDROOT
BRANCH   8   9
HETATM    9  C10 UNL     1     -34.481   7.146   4.898  1.00 20.00     0.004 C 
BRANCH   9  10
HETATM   10  C11 UNL     1     -35.041   5.755   5.173  1.00 20.00    -0.004 C 
HETATM   11  C9  UNL     1     -34.504   5.194   6.480  1.00 20.00     0.005 C 
ENDBRANCH   9  10
ENDBRANCH   8   9
TORSDOF 2
ENDMDL
MODEL 3
REMARK VINA RESULT:      -4.1     10.686     11.518
REMARK  2 active torsions:
REMARK  status: ('A' for Active; 'I' for Inactive)
REMARK    1  A    between atoms: C8_8  and  C10_10 
REMARK    2  A    between atoms: C10_10  and  C11_11 
ROOT
HETATM    1  C1  UNL     1     -35.186   5.394   6.368  1.00 20.00     0.012 C 
HETATM    2  C2  UNL     1     -34.306   6.006   5.829  1.00 20.00    -0.113 C 
HETATM    3  C3  UNL     1     -33.111   6.426   3.652  1.00 20.00     0.017 C 
HETATM    4  C4  UNL     1     -33.379   8.294   5.332  1.00 20.00     0.017 C 
HETATM    5  C5  UNL     1     -32.026   7.227   2.929  1.00 20.00     0.006 C 
HETATM    6  C6  UNL     1     -32.295   9.099   4.613  1.00 20.00     0.006 C 
HETATM    7  C7  UNL     1     -33.185   6.784   5.141  1.00 20.00     0.064 C 
HETATM    8  C8  UNL     1     -32.167   8.742   3.127  1.00 20.00    -0.014 C 
ENDROOT
BRANCH   8   9
HETATM    9  C10 UNL     1     -33.308   9.272   2.356  1.00 20.00     0.004 C 
BRANCH   9  10
HETATM   10  C11 UNL     1     -32.845   9.887   1.039  1.00 20.00    -0.004 C 
HETATM   11  C9  UNL     1     -32.886   8.869  -0.089  1.00 20.00     0.005 C 
ENDBRANCH   9  10
ENDBRANCH   8   9
TORSDOF 2
ENDMDL
MODEL 4
REMARK VINA RESULT:      -4.0     11.650     12.849
REMARK  2 active torsions:
REMARK  status: ('A' for Active; 'I' for Inactive)
REMARK    1  A    between atoms: C8_8  and  C10_10 
REMARK    2  A    between atoms: C10_10  and  C11_11 
ROOT
HETATM    1  C1  UNL     1     -42.440  13.792  11.302  1.00 20.00     0.012 C 
HETATM    2  C2  UNL     1     -42.287  13.963  10.124  1.00 20.00    -0.113 C 
HETATM    3  C3  UNL     1     -40.600  14.243   8.275  1.00 20.00     0.017 C 
HETATM    4  C4  UNL     1     -42.796  13.080   7.821  1.00 20.00     0.017 C 
HETATM    5  C5  UNL     1     -40.375  14.414   6.772  1.00 20.00     0.006 C 
HETATM    6  C6  UNL     1     -42.576  13.248   6.317  1.00 20.00     0.006 C 
HETATM    7  C7  UNL     1     -42.091  14.181   8.624  1.00 20.00     0.064 C 
HETATM    8  C8  UNL     1     -41.095  13.351   5.933  1.00 20.00    -0.014 C 
ENDROOT
BRANCH   8   9
HETATM    9  C10 UNL     1     -40.426  12.040   6.053  1.00 20.00     0.004 C 
BRANCH   9  10
HETATM   10  C11 UNL     1     -39.013  12.088   5.483  1.00 20.00    -0.004 C 
HETATM   11  C9  UNL     1     -38.995  11.668   4.021  1.00 20.00     0.005 C 
ENDBRANCH   9  10
ENDBRANCH   8   9
TORSDOF 2
ENDMDL
MODEL 5
REMARK VINA RESULT:      -4.0      2.639      5.140
REMARK  2 active torsions:
REMARK  status: ('A' for Active; 'I' for Inactive)
REMARK    1  A    between atoms: C8_8  and  C10_10 
REMARK    2  A    between atoms: C10_10  and  C11_11 
ROOT
HETATM    1  C1  UNL     1     -33.618  17.391  -0.985  1.00 20.00     0.012 C 
HETATM    2  C2  UNL     1     -33.559  17.083  -2.143  1.00 20.00    -0.113 C 
HETATM    3  C3  UNL     1     -33.727  15.186  -3.791  1.00 20.00     0.017 C 
HETATM    4  C4  UNL     1     -34.482  17.506  -4.448  1.00 20.00     0.017 C 
HETATM    5  C5  UNL     1     -33.702  14.773  -5.264  1.00 20.00     0.006 C 
HETATM    6  C6  UNL     1     -34.459  17.098  -5.922  1.00 20.00     0.006 C 
HETATM    7  C7  UNL     1     -33.482  16.690  -3.618  1.00 20.00     0.064 C 
HETATM    8  C8  UNL     1     -34.664  15.593  -6.133  1.00 20.00    -0.014 C 
ENDROOT
BRANCH   8   9
HETATM    9  C10 UNL     1     -36.066  15.210  -5.875  1.00 20.00     0.004 C 
BRANCH   9  10
HETATM   10  C11 UNL     1     -37.033  16.247  -6.437  1.00 20.00    -0.004 C 
HETATM   11  C9  UNL     1     -38.082  16.635  -5.407  1.00 20.00     0.005 C 
ENDBRANCH   9  10
ENDBRANCH   8   9
TORSDOF 2
ENDMDL
MODEL 6
REMARK VINA RESULT:      -3.9     10.568     11.745
REMARK  2 active torsions:
REMARK  status: ('A' for Active; 'I' for Inactive)
REMARK    1  A    between atoms: C8_8  and  C10_10 
REMARK    2  A    between atoms: C10_10  and  C11_11 
ROOT
HETATM    1  C1  UNL     1     -40.415  18.726   7.103  1.00 20.00     0.012 C 
HETATM    2  C2  UNL     1     -40.867  17.618   7.199  1.00 20.00    -0.113 C 
HETATM    3  C3  UNL     1     -42.234  15.836   6.060  1.00 20.00     0.017 C 
HETATM    4  C4  UNL     1     -40.327  15.189   7.586  1.00 20.00     0.017 C 
HETATM    5  C5  UNL     1     -42.782  14.409   6.135  1.00 20.00     0.006 C 
HETATM    6  C6  UNL     1     -40.871  13.762   7.664  1.00 20.00     0.006 C 
HETATM    7  C7  UNL     1     -41.443  16.208   7.319  1.00 20.00     0.064 C 
HETATM    8  C8  UNL     1     -41.699  13.365   6.436  1.00 20.00    -0.014 C 
ENDROOT
BRANCH   8   9
HETATM    9  C10 UNL     1     -40.832  13.149   5.261  1.00 20.00     0.004 C 
BRANCH   9  10
HETATM   10  C11 UNL     1     -39.828  12.030   5.516  1.00 20.00    -0.004 C 
HETATM   11  C9  UNL     1     -39.069  11.673   4.248  1.00 20.00     0.005 C 
ENDBRANCH   9  10
ENDBRANCH   8   9
TORSDOF 2
ENDMDL
MODEL 7
REMARK VINA RESULT:      -3.8     10.530     12.398
REMARK  2 active torsions:
REMARK  status: ('A' for Active; 'I' for Inactive)
REMARK    1  A    between atoms: C8_8  and  C10_10 
REMARK    2  A    between atoms: C10_10  and  C11_11 
ROOT
HETATM    1  C1  UNL     1     -38.961  11.694   4.119  1.00 20.00     0.012 C 
HETATM    2  C2  UNL     1     -39.794  12.160   4.847  1.00 20.00    -0.113 C 
HETATM    3  C3  UNL     1     -40.197  13.427   6.985  1.00 20.00     0.017 C 
HETATM    4  C4  UNL     1     -41.743  13.745   5.013  1.00 20.00     0.017 C 
HETATM    5  C5  UNL     1     -41.235  14.072   7.907  1.00 20.00     0.006 C 
HETATM    6  C6  UNL     1     -42.784  14.390   5.930  1.00 20.00     0.006 C 
HETATM    7  C7  UNL     1     -40.853  12.754   5.774  1.00 20.00     0.064 C 
HETATM    8  C8  UNL     1     -42.168  15.043   7.173  1.00 20.00    -0.014 C 
ENDROOT
BRANCH   8   9
HETATM    9  C10 UNL     1     -41.461  16.290   6.820  1.00 20.00     0.004 C 
BRANCH   9  10
HETATM   10  C11 UNL     1     -40.839  16.939   8.052  1.00 20.00    -0.004 C 
HETATM   11  C9  UNL     1     -40.743  18.448   7.890  1.00 20.00     0.005 C 
ENDBRANCH   9  10
ENDBRANCH   8   9
TORSDOF 2
ENDMDL
MODEL 8
REMARK VINA RESULT:      -3.8      2.090      3.900
REMARK  2 active torsions:
REMARK  status: ('A' for Active; 'I' for Inactive)
REMARK    1  A    between atoms: C8_8  and  C10_10 
REMARK    2  A    between atoms: C10_10  and  C11_11 
ROOT
HETATM    1  C1  UNL     1     -33.765  18.048   0.283  1.00 20.00     0.012 C 
HETATM    2  C2  UNL     1     -33.587  17.856  -0.889  1.00 20.00    -0.113 C 
HETATM    3  C3  UNL     1     -33.634  16.143  -2.735  1.00 20.00     0.017 C 
HETATM    4  C4  UNL     1     -34.237  18.547  -3.221  1.00 20.00     0.017 C 
HETATM    5  C5  UNL     1     -33.460  15.880  -4.232  1.00 20.00     0.006 C 
HETATM    6  C6  UNL     1     -34.066  18.290  -4.719  1.00 20.00     0.006 C 
HETATM    7  C7  UNL     1     -33.362  17.610  -2.380  1.00 20.00     0.064 C 
HETATM    8  C8  UNL     1     -34.294  16.824  -5.107  1.00 20.00    -0.014 C 
ENDROOT
BRANCH   8   9
HETATM    9  C10 UNL     1     -35.728  16.477  -5.042  1.00 20.00     0.004 C 
BRANCH   9  10
HETATM   10  C11 UNL     1     -35.993  15.110  -5.664  1.00 20.00    -0.004 C 
HETATM   11  C9  UNL     1     -35.738  15.129  -7.162  1.00 20.00     0.005 C 
ENDBRANCH   9  10
ENDBRANCH   8   9
TORSDOF 2
ENDMDL
MODEL 9
REMARK VINA RESULT:      -3.8      2.155      5.889
REMARK  2 active torsions:
REMARK  status: ('A' for Active; 'I' for Inactive)
REMARK    1  A    between atoms: C8_8  and  C10_10 
REMARK    2  A    between atoms: C10_10  and  C11_11 
ROOT
HETATM    1  C1  UNL     1     -37.112  16.339  -6.365  1.00 20.00     0.012 C 
HETATM    2  C2  UNL     1     -36.044  16.538  -5.853  1.00 20.00    -0.113 C 
HETATM    3  C3  UNL     1     -34.695  18.115  -4.427  1.00 20.00     0.017 C 
HETATM    4  C4  UNL     1     -34.299  15.624  -4.285  1.00 20.00     0.017 C 
HETATM    5  C5  UNL     1     -33.359  18.371  -3.726  1.00 20.00     0.006 C 
HETATM    6  C6  UNL     1     -32.963  15.875  -3.583  1.00 20.00     0.006 C 
HETATM    7  C7  UNL     1     -34.686  16.792  -5.201  1.00 20.00     0.064 C 
HETATM    8  C8  UNL     1     -32.921  17.208  -2.827  1.00 20.00    -0.014 C 
ENDROOT
BRANCH   8   9
HETATM    9  C10 UNL     1     -33.744  17.147  -1.602  1.00 20.00     0.004 C 
BRANCH   9  10
HETATM   10  C11 UNL     1     -33.256  18.148  -0.561  1.00 20.00    -0.004 C 
HETATM   11  C9  UNL     1     -31.746  18.309  -0.617  1.00 20.00     0.005 C 
ENDBRANCH   9  10
ENDBRANCH   8   9
TORSDOF 2
ENDMDL
