MODEL 1
REMARK VINA RESULT:      -5.0      0.000      0.000
REMARK  0 active torsions:
REMARK  status: ('A' for Active; 'I' for Inactive)
ROOT
HETATM    1  C1  UNL     1     -33.011   8.405   5.109  1.00 20.00     0.013 C 
HETATM    2  C2  UNL     1     -33.612   7.369   5.191  1.00 20.00    -0.106 C 
HETATM    3  C3  UNL     1     -35.442   5.896   4.284  1.00 20.00     0.041 A 
HETATM    4  C4  UNL     1     -34.186   5.075   4.208  1.00 20.00     0.079 A 
HETATM    5  C5  UNL     1     -34.336   6.126   5.290  1.00 20.00     0.033 A 
HETATM    6  C6  UNL     1     -34.559   5.646   6.699  1.00 20.00     0.030 C 
HETATM    7 BR7  UNL     1     -33.029   5.344   2.710  1.00 20.00    -0.089 Br
ENDROOT
TORSDOF 0
ENDMDL
MODEL 2
REMARK VINA RESULT:      -4.3      2.091      3.139
REMARK  0 active torsions:
REMARK  status: ('A' for Active; 'I' for Inactive)
ROOT
HETATM    1  C1  UNL     1     -32.950   5.468   2.686  1.00 20.00     0.013 C 
HETATM    2  C2  UNL     1     -33.040   6.357   3.488  1.00 20.00    -0.106 C 
HETATM    3  C3  UNL     1     -34.539   7.947   4.739  1.00 20.00     0.041 A 
HETATM    4  C4  UNL     1     -33.804   7.170   5.794  1.00 20.00     0.079 A 
HETATM    5  C5  UNL     1     -33.149   7.425   4.451  1.00 20.00     0.033 A 
HETATM    6  C6  UNL     1     -32.021   8.422   4.406  1.00 20.00     0.030 C 
HETATM    7 BR7  UNL     1     -34.474   5.442   6.263  1.00 20.00    -0.089 Br
ENDROOT
TORSDOF 0
ENDMDL
MODEL 3
REMARK VINA RESULT:      -4.3      1.747      2.840
REMARK  0 active torsions:
REMARK  status: ('A' for Active; 'I' for Inactive)
ROOT
HETATM    1  C1  UNL     1     -32.805   5.176   2.683  1.00 20.00     0.013 C 
HETATM    2  C2  UNL     1     -33.482   5.659   3.548  1.00 20.00    -0.106 C 
HETATM    3  C3  UNL     1     -33.683   6.323   5.969  1.00 20.00     0.041 A 
HETATM    4  C4  UNL     1     -33.921   7.582   5.183  1.00 20.00     0.079 A 
HETATM    5  C5  UNL     1     -34.296   6.238   4.588  1.00 20.00     0.033 A 
HETATM    6  C6  UNL     1     -35.761   5.906   4.491  1.00 20.00     0.030 C 
HETATM    7 BR7  UNL     1     -32.395   8.554   4.565  1.00 20.00    -0.089 Br
ENDROOT
TORSDOF 0
ENDMDL
MODEL 4
REMARK VINA RESULT:      -3.5     15.639     17.255
REMARK  0 active torsions:
REMARK  status: ('A' for Active; 'I' for Inactive)
ROOT
HETATM    1  C1  UNL     1     -24.560  16.243  11.741  1.00 20.00     0.013 C 
HETATM    2  C2  UNL     1     -23.728  17.064  11.467  1.00 20.00    -0.106 C 
HETATM    3  C3  UNL     1     -22.047  17.909   9.793  1.00 20.00     0.041 A 
HETATM    4  C4  UNL     1     -22.990  19.055  10.034  1.00 20.00     0.079 A 
HETATM    5  C5  UNL     1     -22.728  18.048  11.138  1.00 20.00     0.033 A 
HETATM    6  C6  UNL     1     -21.890  18.499  12.304  1.00 20.00     0.030 C 
HETATM    7 BR7  UNL     1     -24.643  19.071   9.073  1.00 20.00    -0.089 Br
ENDROOT
TORSDOF 0
ENDMDL
MODEL 5
REMARK VINA RESULT:      -3.4      2.142      3.459
REMARK  0 active torsions:
REMARK  status: ('A' for Active; 'I' for Inactive)
ROOT
HETATM    1  C1  UNL     1     -32.910   5.042   2.580  1.00 20.00     0.013 C 
HETATM    2  C2  UNL     1     -32.948   6.088   3.167  1.00 20.00    -0.106 C 
HETATM    3  C3  UNL     1     -31.685   8.091   4.024  1.00 20.00     0.041 A 
HETATM    4  C4  UNL     1     -32.758   8.642   3.126  1.00 20.00     0.079 A 
HETATM    5  C5  UNL     1     -32.993   7.343   3.874  1.00 20.00     0.033 A 
HETATM    6  C6  UNL     1     -33.954   7.373   5.032  1.00 20.00     0.030 C 
HETATM    7 BR7  UNL     1     -32.427   8.661   1.243  1.00 20.00    -0.089 Br
ENDROOT
TORSDOF 0
ENDMDL
MODEL 6
REMARK VINA RESULT:      -3.3     12.757     13.535
REMARK  0 active torsions:
REMARK  status: ('A' for Active; 'I' for Inactive)
ROOT
HETATM    1  C1  UNL     1     -33.275  16.452  -2.679  1.00 20.00     0.013 C 
HETATM    2  C2  UNL     1     -33.630  17.319  -1.928  1.00 20.00    -0.106 C 
HETATM    3  C3  UNL     1     -34.013  18.043   0.453  1.00 20.00     0.041 A 
HETATM    4  C4  UNL     1     -33.049  19.041  -0.124  1.00 20.00     0.079 A 
HETATM    5  C5  UNL     1     -34.058  18.359  -1.026  1.00 20.00     0.033 A 
HETATM    6  C6  UNL     1     -35.210  19.187  -1.531  1.00 20.00     0.030 C 
HETATM    7 BR7  UNL     1     -31.196  18.573  -0.169  1.00 20.00    -0.089 Br
ENDROOT
TORSDOF 0
ENDMDL
MODEL 7
REMARK VINA RESULT:      -3.3     16.526     17.393
REMARK  0 active torsions:
REMARK  status: ('A' for Active; 'I' for Inactive)
ROOT
HETATM    1  C1  UNL     1     -24.669  19.186   9.173  1.00 20.00     0.013 C 
HETATM    2  C2  UNL     1     -23.810  18.848   9.939  1.00 20.00    -0.106 C 
HETATM    3  C3  UNL     1     -22.998  18.767  12.321  1.00 20.00     0.041 A 
HETATM    4  C4  UNL     1     -23.046  17.337  11.861  1.00 20.00     0.079 A 
HETATM    5  C5  UNL     1     -22.777  18.443  10.860  1.00 20.00     0.033 A 
HETATM    6  C6  UNL     1     -21.377  18.565  10.320  1.00 20.00     0.030 C 
HETATM    7 BR7  UNL     1     -24.730  16.434  11.919  1.00 20.00    -0.089 Br
ENDROOT
TORSDOF 0
ENDMDL
MODEL 8
REMARK VINA RESULT:      -3.2     16.419     17.174
REMARK  0 active torsions:
REMARK  status: ('A' for Active; 'I' for Inactive)
ROOT
HETATM    1  C1  UNL     1     -21.493  17.723   8.568  1.00 20.00     0.013 C 
HETATM    2  C2  UNL     1     -22.514  17.963   9.151  1.00 20.00    -0.106 C 
HETATM    3  C3  UNL     1     -24.235  17.201  10.823  1.00 20.00     0.041 A 
HETATM    4  C4  UNL     1     -23.718  18.512  11.344  1.00 20.00     0.079 A 
HETATM    5  C5  UNL     1     -23.741  18.250   9.851  1.00 20.00     0.033 A 
HETATM    6  C6  UNL     1     -24.769  18.986   9.033  1.00 20.00     0.030 C 
HETATM    7 BR7  UNL     1     -22.081  18.500  12.332  1.00 20.00    -0.089 Br
ENDROOT
TORSDOF 0
ENDMDL
MODEL 9
REMARK VINA RESULT:      -3.2      8.888      9.594
REMARK  0 active torsions:
REMARK  status: ('A' for Active; 'I' for Inactive)
ROOT
HETATM    1  C1  UNL     1     -40.797   5.166  -0.786  1.00 20.00     0.013 C 
HETATM    2  C2  UNL     1     -41.241   6.178  -0.316  1.00 20.00    -0.106 C 
HETATM    3  C3  UNL     1     -43.233   7.688  -0.018  1.00 20.00     0.041 A 
HETATM    4  C4  UNL     1     -42.788   7.326   1.371  1.00 20.00     0.079 A 
HETATM    5  C5  UNL     1     -41.773   7.394   0.247  1.00 20.00     0.033 A 
HETATM    6  C6  UNL     1     -40.813   8.554   0.247  1.00 20.00     0.030 C 
HETATM    7 BR7  UNL     1     -43.369   5.652   2.089  1.00 20.00    -0.089 Br
ENDROOT
TORSDOF 0
ENDMDL
