MODEL 1
REMARK VINA RESULT:      -5.1      0.000      0.000
REMARK  0 active torsions:
REMARK  status: ('A' for Active; 'I' for Inactive)
ROOT
HETATM    1  C1  UNL     1     -33.668   7.177   6.231  1.00 20.00    -0.011 A 
HETATM    2  C2  UNL     1     -33.483   7.152   4.901  1.00 20.00    -0.011 A 
HETATM    3  C3  UNL     1     -34.492   5.980   6.638  1.00 20.00     0.033 A 
HETATM    4  C4  UNL     1     -35.591   5.817   4.240  1.00 20.00     0.016 A 
HETATM    5  C5  UNL     1     -34.099   6.001   4.226  1.00 20.00     0.030 A 
HETATM    6  C6  UNL     1     -34.765   5.227   5.350  1.00 20.00    -0.002 A 
HETATM    7 BR7  UNL     1     -32.572   8.393   3.893  1.00 20.00    -0.056 Br
ENDROOT
TORSDOF 0
ENDMDL
MODEL 2
REMARK VINA RESULT:      -4.9      0.834      1.954
REMARK  0 active torsions:
REMARK  status: ('A' for Active; 'I' for Inactive)
ROOT
HETATM    1  C1  UNL     1     -33.154   6.161   3.603  1.00 20.00    -0.011 A 
HETATM    2  C2  UNL     1     -33.353   7.131   4.509  1.00 20.00    -0.011 A 
HETATM    3  C3  UNL     1     -34.122   5.033   3.863  1.00 20.00     0.033 A 
HETATM    4  C4  UNL     1     -34.324   5.687   6.416  1.00 20.00     0.016 A 
HETATM    5  C5  UNL     1     -34.430   6.850   5.469  1.00 20.00     0.030 A 
HETATM    6  C6  UNL     1     -34.941   5.479   5.059  1.00 20.00    -0.002 A 
HETATM    7 BR7  UNL     1     -32.422   8.711   4.655  1.00 20.00    -0.056 Br
ENDROOT
TORSDOF 0
ENDMDL
MODEL 3
REMARK VINA RESULT:      -4.6      1.562      2.368
REMARK  0 active torsions:
REMARK  status: ('A' for Active; 'I' for Inactive)
ROOT
HETATM    1  C1  UNL     1     -34.304   4.813   5.076  1.00 20.00    -0.011 A 
HETATM    2  C2  UNL     1     -33.801   5.673   4.177  1.00 20.00    -0.011 A 
HETATM    3  C3  UNL     1     -34.775   5.581   6.287  1.00 20.00     0.033 A 
HETATM    4  C4  UNL     1     -33.084   7.552   5.795  1.00 20.00     0.016 A 
HETATM    5  C5  UNL     1     -33.854   7.082   4.592  1.00 20.00     0.030 A 
HETATM    6  C6  UNL     1     -34.486   7.036   5.972  1.00 20.00    -0.002 A 
HETATM    7 BR7  UNL     1     -33.069   5.254   2.541  1.00 20.00    -0.056 Br
ENDROOT
TORSDOF 0
ENDMDL
MODEL 4
REMARK VINA RESULT:      -4.4      2.132      3.437
REMARK  0 active torsions:
REMARK  status: ('A' for Active; 'I' for Inactive)
ROOT
HETATM    1  C1  UNL     1     -33.127   6.316   3.315  1.00 20.00    -0.011 A 
HETATM    2  C2  UNL     1     -33.672   6.376   4.540  1.00 20.00    -0.011 A 
HETATM    3  C3  UNL     1     -32.183   7.480   3.136  1.00 20.00     0.033 A 
HETATM    4  C4  UNL     1     -33.491   8.922   4.923  1.00 20.00     0.016 A 
HETATM    5  C5  UNL     1     -33.210   7.510   5.354  1.00 20.00     0.030 A 
HETATM    6  C6  UNL     1     -32.237   8.242   4.447  1.00 20.00    -0.002 A 
HETATM    7 BR7  UNL     1     -34.908   5.214   5.254  1.00 20.00    -0.056 Br
ENDROOT
TORSDOF 0
ENDMDL
MODEL 5
REMARK VINA RESULT:      -4.3      2.132      3.074
REMARK  0 active torsions:
REMARK  status: ('A' for Active; 'I' for Inactive)
ROOT
HETATM    1  C1  UNL     1     -33.317   7.705   5.837  1.00 20.00    -0.011 A 
HETATM    2  C2  UNL     1     -33.799   6.809   4.962  1.00 20.00    -0.011 A 
HETATM    3  C3  UNL     1     -32.579   8.785   5.083  1.00 20.00     0.033 A 
HETATM    4  C4  UNL     1     -32.081   7.151   3.066  1.00 20.00     0.016 A 
HETATM    5  C5  UNL     1     -33.502   7.116   3.556  1.00 20.00     0.030 A 
HETATM    6  C6  UNL     1     -32.702   8.405   3.620  1.00 20.00    -0.002 A 
HETATM    7 BR7  UNL     1     -34.751   5.285   5.359  1.00 20.00    -0.056 Br
ENDROOT
TORSDOF 0
ENDMDL
MODEL 6
REMARK VINA RESULT:      -4.1      1.599      2.152
REMARK  0 active torsions:
REMARK  status: ('A' for Active; 'I' for Inactive)
ROOT
HETATM    1  C1  UNL     1     -33.295   7.707   4.212  1.00 20.00    -0.011 A 
HETATM    2  C2  UNL     1     -33.339   6.367   4.135  1.00 20.00    -0.011 A 
HETATM    3  C3  UNL     1     -33.672   8.134   5.610  1.00 20.00     0.033 A 
HETATM    4  C4  UNL     1     -35.071   5.925   5.996  1.00 20.00     0.016 A 
HETATM    5  C5  UNL     1     -33.714   5.700   5.389  1.00 20.00     0.030 A 
HETATM    6  C6  UNL     1     -33.938   6.844   6.363  1.00 20.00    -0.002 A 
HETATM    7 BR7  UNL     1     -32.993   5.339   2.648  1.00 20.00    -0.056 Br
ENDROOT
TORSDOF 0
ENDMDL
MODEL 7
REMARK VINA RESULT:      -3.4     12.481     13.247
REMARK  0 active torsions:
REMARK  status: ('A' for Active; 'I' for Inactive)
ROOT
HETATM    1  C1  UNL     1     -33.914  17.736  -0.082  1.00 20.00    -0.011 A 
HETATM    2  C2  UNL     1     -33.131  17.698  -1.171  1.00 20.00    -0.011 A 
HETATM    3  C3  UNL     1     -33.333  18.712   0.912  1.00 20.00     0.033 A 
HETATM    4  C4  UNL     1     -30.901  18.393  -0.073  1.00 20.00     0.016 A 
HETATM    5  C5  UNL     1     -31.968  18.595  -1.112  1.00 20.00     0.030 A 
HETATM    6  C6  UNL     1     -32.086  19.263   0.246  1.00 20.00    -0.002 A 
HETATM    7 BR7  UNL     1     -33.373  16.653  -2.666  1.00 20.00    -0.056 Br
ENDROOT
TORSDOF 0
ENDMDL
MODEL 8
REMARK VINA RESULT:      -3.4     15.866     16.603
REMARK  0 active torsions:
REMARK  status: ('A' for Active; 'I' for Inactive)
ROOT
HETATM    1  C1  UNL     1     -24.760  18.539  10.031  1.00 20.00    -0.011 A 
HETATM    2  C2  UNL     1     -24.023  17.487  10.422  1.00 20.00    -0.011 A 
HETATM    3  C3  UNL     1     -24.038  19.263   8.920  1.00 20.00     0.033 A 
HETATM    4  C4  UNL     1     -21.693  18.374   9.755  1.00 20.00     0.016 A 
HETATM    5  C5  UNL     1     -22.764  17.322   9.683  1.00 20.00     0.030 A 
HETATM    6  C6  UNL     1     -22.759  18.478   8.699  1.00 20.00    -0.002 A 
HETATM    7 BR7  UNL     1     -24.434  16.292  11.760  1.00 20.00    -0.056 Br
ENDROOT
TORSDOF 0
ENDMDL
MODEL 9
REMARK VINA RESULT:      -3.4     15.939     16.876
REMARK  0 active torsions:
REMARK  status: ('A' for Active; 'I' for Inactive)
ROOT
HETATM    1  C1  UNL     1     -21.841  18.562  11.009  1.00 20.00    -0.011 A 
HETATM    2  C2  UNL     1     -22.475  17.899  10.028  1.00 20.00    -0.011 A 
HETATM    3  C3  UNL     1     -22.525  18.274  12.323  1.00 20.00     0.033 A 
HETATM    4  C4  UNL     1     -24.813  17.746  11.110  1.00 20.00     0.016 A 
HETATM    5  C5  UNL     1     -23.615  17.090  10.483  1.00 20.00     0.030 A 
HETATM    6  C6  UNL     1     -23.661  17.328  11.982  1.00 20.00    -0.002 A 
HETATM    7 BR7  UNL     1     -22.062  17.926   8.235  1.00 20.00    -0.056 Br
ENDROOT
TORSDOF 0
ENDMDL
