MODEL 1
REMARK VINA RESULT:      -4.1      0.000      0.000
REMARK  1 active torsions:
REMARK  status: ('A' for Active; 'I' for Inactive)
REMARK    1  A    between atoms: C8_8  and  C11_11 
ROOT
HETATM    1  C1  UNL     1     -41.249  14.457   6.884  1.00 20.00    -0.081 C 
HETATM    2  C2  UNL     1     -40.581  15.337   7.629  1.00 20.00     0.015 C 
HETATM    3  C3  UNL     1     -43.416  13.893   6.300  1.00 20.00     0.010 C 
HETATM    4  C4  UNL     1     -42.781  12.746   7.113  1.00 20.00     0.010 C 
HETATM    5  C5  UNL     1     -41.507  13.827   4.672  1.00 20.00     0.014 C 
HETATM    6  C6  UNL     1     -42.206  14.665   5.754  1.00 20.00     0.014 C 
HETATM    7  C7  UNL     1     -41.271  12.959   6.924  1.00 20.00     0.018 C 
HETATM    8  C8  UNL     1     -40.897  12.638   5.460  1.00 20.00    -0.002 C 
ENDROOT
BRANCH   8   9
HETATM    9  C11 UNL     1     -39.389  12.527   5.247  1.00 20.00    -0.018 C 
HETATM   10  C9  UNL     1     -38.707  11.988   6.503  1.00 20.00     0.010 C 
HETATM   11  C10 UNL     1     -39.080  11.637   4.045  1.00 20.00     0.010 C 
ENDBRANCH   8   9
TORSDOF 1
ENDMDL
MODEL 2
REMARK VINA RESULT:      -4.1      8.846     10.302
REMARK  1 active torsions:
REMARK  status: ('A' for Active; 'I' for Inactive)
REMARK    1  A    between atoms: C8_8  and  C11_11 
ROOT
HETATM    1  C1  UNL     1     -35.290   6.133   4.459  1.00 20.00    -0.081 C 
HETATM    2  C2  UNL     1     -36.466   6.371   3.880  1.00 20.00     0.015 C 
HETATM    3  C3  UNL     1     -34.300   4.674   5.958  1.00 20.00     0.010 C 
HETATM    4  C4  UNL     1     -34.323   6.096   6.554  1.00 20.00     0.010 C 
HETATM    5  C5  UNL     1     -33.125   5.526   3.910  1.00 20.00     0.014 C 
HETATM    6  C6  UNL     1     -34.427   4.911   4.446  1.00 20.00     0.014 C 
HETATM    7  C7  UNL     1     -34.430   7.006   5.320  1.00 20.00     0.018 C 
HETATM    8  C8  UNL     1     -33.101   6.945   4.535  1.00 20.00    -0.002 C 
ENDROOT
BRANCH   8   9
HETATM    9  C11 UNL     1     -32.995   8.034   3.470  1.00 20.00    -0.018 C 
HETATM   10  C9  UNL     1     -32.365   9.297   4.053  1.00 20.00     0.010 C 
HETATM   11  C10 UNL     1     -32.189   7.537   2.271  1.00 20.00     0.010 C 
ENDBRANCH   8   9
TORSDOF 1
ENDMDL
MODEL 3
REMARK VINA RESULT:      -4.0      0.946      2.309
REMARK  1 active torsions:
REMARK  status: ('A' for Active; 'I' for Inactive)
REMARK    1  A    between atoms: C8_8  and  C11_11 
ROOT
HETATM    1  C1  UNL     1     -42.576  13.058   6.884  1.00 20.00    -0.081 C 
HETATM    2  C2  UNL     1     -43.289  12.083   7.448  1.00 20.00     0.015 C 
HETATM    3  C3  UNL     1     -42.588  15.357   6.625  1.00 20.00     0.010 C 
HETATM    4  C4  UNL     1     -42.774  14.678   5.253  1.00 20.00     0.010 C 
HETATM    5  C5  UNL     1     -40.486  14.041   7.016  1.00 20.00     0.014 C 
HETATM    6  C6  UNL     1     -41.932  14.266   7.485  1.00 20.00     0.014 C 
HETATM    7  C7  UNL     1     -42.178  13.276   5.457  1.00 20.00     0.018 C 
HETATM    8  C8  UNL     1     -40.646  13.399   5.613  1.00 20.00    -0.002 C 
ENDROOT
BRANCH   8   9
HETATM    9  C11 UNL     1     -39.934  12.053   5.519  1.00 20.00    -0.018 C 
HETATM   10  C9  UNL     1     -39.302  11.875   4.139  1.00 20.00     0.010 C 
HETATM   11  C10 UNL     1     -38.876  11.926   6.614  1.00 20.00     0.010 C 
ENDBRANCH   8   9
TORSDOF 1
ENDMDL
MODEL 4
REMARK VINA RESULT:      -3.9     10.702     12.317
REMARK  1 active torsions:
REMARK  status: ('A' for Active; 'I' for Inactive)
REMARK    1  A    between atoms: C8_8  and  C11_11 
ROOT
HETATM    1  C1  UNL     1     -34.603  18.439  -2.272  1.00 20.00    -0.081 C 
HETATM    2  C2  UNL     1     -35.821  18.919  -2.024  1.00 20.00     0.015 C 
HETATM    3  C3  UNL     1     -33.440  17.277  -3.901  1.00 20.00     0.010 C 
HETATM    4  C4  UNL     1     -33.532  16.424  -2.618  1.00 20.00     0.010 C 
HETATM    5  C5  UNL     1     -32.432  19.170  -2.596  1.00 20.00     0.014 C 
HETATM    6  C6  UNL     1     -33.659  18.712  -3.399  1.00 20.00     0.014 C 
HETATM    7  C7  UNL     1     -33.764  17.461  -1.508  1.00 20.00     0.018 C 
HETATM    8  C8  UNL     1     -32.476  18.291  -1.319  1.00 20.00    -0.002 C 
ENDROOT
BRANCH   8   9
HETATM    9  C11 UNL     1     -32.500  19.136  -0.048  1.00 20.00    -0.018 C 
HETATM   10  C9  UNL     1     -33.478  18.549   0.969  1.00 20.00     0.010 C 
HETATM   11  C10 UNL     1     -31.100  19.243   0.554  1.00 20.00     0.010 C 
ENDBRANCH   8   9
TORSDOF 1
ENDMDL
MODEL 5
REMARK VINA RESULT:      -3.9     11.418     12.722
REMARK  1 active torsions:
REMARK  status: ('A' for Active; 'I' for Inactive)
REMARK    1  A    between atoms: C8_8  and  C11_11 
ROOT
HETATM    1  C1  UNL     1     -34.801  18.458  -2.618  1.00 20.00    -0.081 C 
HETATM    2  C2  UNL     1     -36.070  18.851  -2.509  1.00 20.00     0.015 C 
HETATM    3  C3  UNL     1     -32.698  18.963  -1.796  1.00 20.00     0.010 C 
HETATM    4  C4  UNL     1     -32.751  19.263  -3.308  1.00 20.00     0.010 C 
HETATM    5  C5  UNL     1     -33.468  16.610  -2.213  1.00 20.00     0.014 C 
HETATM    6  C6  UNL     1     -33.842  17.962  -1.583  1.00 20.00     0.014 C 
HETATM    7  C7  UNL     1     -33.902  18.379  -3.814  1.00 20.00     0.018 C 
HETATM    8  C8  UNL     1     -33.469  16.898  -3.737  1.00 20.00    -0.002 C 
ENDROOT
BRANCH   8   9
HETATM    9  C11 UNL     1     -34.415  15.967  -4.491  1.00 20.00    -0.018 C 
HETATM   10  C9  UNL     1     -34.454  16.328  -5.975  1.00 20.00     0.010 C 
HETATM   11  C10 UNL     1     -33.998  14.510  -4.304  1.00 20.00     0.010 C 
ENDBRANCH   8   9
TORSDOF 1
ENDMDL
MODEL 6
REMARK VINA RESULT:      -3.6     12.046     13.543
REMARK  1 active torsions:
REMARK  status: ('A' for Active; 'I' for Inactive)
REMARK    1  A    between atoms: C8_8  and  C11_11 
ROOT
HETATM    1  C1  UNL     1     -35.499  14.773  -5.401  1.00 20.00    -0.081 C 
HETATM    2  C2  UNL     1     -35.884  13.732  -4.665  1.00 20.00     0.015 C 
HETATM    3  C3  UNL     1     -35.462  15.487  -7.603  1.00 20.00     0.010 C 
HETATM    4  C4  UNL     1     -34.019  15.294  -7.093  1.00 20.00     0.010 C 
HETATM    5  C5  UNL     1     -35.958  17.024  -5.681  1.00 20.00     0.014 C 
HETATM    6  C6  UNL     1     -36.281  15.662  -6.315  1.00 20.00     0.014 C 
HETATM    7  C7  UNL     1     -34.153  15.409  -5.567  1.00 20.00     0.018 C 
HETATM    8  C8  UNL     1     -34.491  16.871  -5.201  1.00 20.00    -0.002 C 
ENDROOT
BRANCH   8   9
HETATM    9  C11 UNL     1     -34.349  17.154  -3.708  1.00 20.00    -0.018 C 
HETATM   10  C9  UNL     1     -33.240  16.295  -3.102  1.00 20.00     0.010 C 
HETATM   11  C10 UNL     1     -34.072  18.636  -3.465  1.00 20.00     0.010 C 
ENDBRANCH   8   9
TORSDOF 1
ENDMDL
MODEL 7
REMARK VINA RESULT:      -3.6     12.152     13.684
REMARK  1 active torsions:
REMARK  status: ('A' for Active; 'I' for Inactive)
REMARK    1  A    between atoms: C8_8  and  C11_11 
ROOT
HETATM    1  C1  UNL     1     -34.619  16.613  -6.575  1.00 20.00    -0.081 C 
HETATM    2  C2  UNL     1     -34.240  17.490  -7.504  1.00 20.00     0.015 C 
HETATM    3  C3  UNL     1     -35.793  14.630  -6.366  1.00 20.00     0.010 C 
HETATM    4  C4  UNL     1     -36.542  15.758  -5.629  1.00 20.00     0.010 C 
HETATM    5  C5  UNL     1     -33.711  15.124  -5.055  1.00 20.00     0.014 C 
HETATM    6  C6  UNL     1     -34.350  15.147  -6.452  1.00 20.00     0.014 C 
HETATM    7  C7  UNL     1     -35.445  16.795  -5.339  1.00 20.00     0.018 C 
HETATM    8  C8  UNL     1     -34.481  16.223  -4.277  1.00 20.00    -0.002 C 
ENDROOT
BRANCH   8   9
HETATM    9  C11 UNL     1     -33.541  17.280  -3.703  1.00 20.00    -0.018 C 
HETATM   10  C9  UNL     1     -34.170  18.668  -3.800  1.00 20.00     0.010 C 
HETATM   11  C10 UNL     1     -33.184  16.953  -2.254  1.00 20.00     0.010 C 
ENDBRANCH   8   9
TORSDOF 1
ENDMDL
MODEL 8
REMARK VINA RESULT:      -3.6     20.288     23.066
REMARK  1 active torsions:
REMARK  status: ('A' for Active; 'I' for Inactive)
REMARK    1  A    between atoms: C8_8  and  C11_11 
ROOT
HETATM    1  C1  UNL     1     -24.341  -3.145  10.100  1.00 20.00    -0.081 C 
HETATM    2  C2  UNL     1     -23.782  -3.232   8.893  1.00 20.00     0.015 C 
HETATM    3  C3  UNL     1     -23.833  -3.485  12.332  1.00 20.00     0.010 C 
HETATM    4  C4  UNL     1     -24.915  -4.490  11.885  1.00 20.00     0.010 C 
HETATM    5  C5  UNL     1     -25.249  -1.572  11.534  1.00 20.00     0.014 C 
HETATM    6  C6  UNL     1     -23.944  -2.350  11.303  1.00 20.00     0.014 C 
HETATM    7  C7  UNL     1     -25.557  -3.814  10.664  1.00 20.00     0.018 C 
HETATM    8  C8  UNL     1     -26.358  -2.580  11.135  1.00 20.00    -0.002 C 
ENDROOT
BRANCH   8   9
HETATM    9  C11 UNL     1     -27.272  -2.020  10.048  1.00 20.00    -0.018 C 
HETATM   10  C9  UNL     1     -28.528  -2.879   9.908  1.00 20.00     0.010 C 
HETATM   11  C10 UNL     1     -27.645  -0.571  10.354  1.00 20.00     0.010 C 
ENDBRANCH   8   9
TORSDOF 1
ENDMDL
MODEL 9
REMARK VINA RESULT:      -3.5      1.200      3.653
REMARK  1 active torsions:
REMARK  status: ('A' for Active; 'I' for Inactive)
REMARK    1  A    between atoms: C8_8  and  C11_11 
ROOT
HETATM    1  C1  UNL     1     -42.126  13.068   6.844  1.00 20.00    -0.081 C 
HETATM    2  C2  UNL     1     -43.027  12.293   7.448  1.00 20.00     0.015 C 
HETATM    3  C3  UNL     1     -41.044  13.296   4.811  1.00 20.00     0.010 C 
HETATM    4  C4  UNL     1     -40.021  12.936   5.908  1.00 20.00     0.010 C 
HETATM    5  C5  UNL     1     -41.833  15.260   6.161  1.00 20.00     0.014 C 
HETATM    6  C6  UNL     1     -42.225  13.886   5.595  1.00 20.00     0.014 C 
HETATM    7  C7  UNL     1     -40.708  13.383   7.207  1.00 20.00     0.018 C 
HETATM    8  C8  UNL     1     -40.767  14.927   7.238  1.00 20.00    -0.002 C 
ENDROOT
BRANCH   8   9
HETATM    9  C11 UNL     1     -41.153  15.475   8.610  1.00 20.00    -0.018 C 
HETATM   10  C9  UNL     1     -40.315  14.818   9.706  1.00 20.00     0.010 C 
HETATM   11  C10 UNL     1     -40.990  16.993   8.647  1.00 20.00     0.010 C 
ENDBRANCH   8   9
TORSDOF 1
ENDMDL
