MODEL 1
REMARK VINA RESULT:      -6.5      0.000      0.000
REMARK  0 active torsions:
REMARK  status: ('A' for Active; 'I' for Inactive)
ROOT
HETATM    1  C1  UNL     1     -32.808   5.939   2.925  1.00 20.00     0.019 A 
HETATM    2  C2  UNL     1     -33.800   5.280   3.541  1.00 20.00     0.054 A 
HETATM    3  C3  UNL     1     -34.002   7.148   5.211  1.00 20.00     0.096 A 
HETATM    4  C4  UNL     1     -33.010   7.804   4.595  1.00 20.00     0.133 A 
HETATM    5  C5  UNL     1     -32.302   7.275   3.384  1.00 20.00     0.254 A 
HETATM    6  C6  UNL     1     -34.508   5.810   4.753  1.00 20.00     0.282 A 
HETATM    7  F7  UNL     1     -32.629   9.005   5.088  1.00 20.00    -0.207 F 
HETATM    8  F8  UNL     1     -32.412   8.176   2.366  1.00 20.00    -0.238 F 
HETATM    9  F9  UNL     1     -35.844   5.898   4.494  1.00 20.00    -0.197 F 
HETATM   10  F10 UNL     1     -34.395   4.912   5.772  1.00 20.00    -0.197 F 
ENDROOT
TORSDOF 0
ENDMDL
MODEL 2
REMARK VINA RESULT:      -6.3      1.170      3.370
REMARK  0 active torsions:
REMARK  status: ('A' for Active; 'I' for Inactive)
ROOT
HETATM    1  C1  UNL     1     -33.602   5.537   3.413  1.00 20.00     0.019 A 
HETATM    2  C2  UNL     1     -32.782   6.531   3.044  1.00 20.00     0.054 A 
HETATM    3  C3  UNL     1     -33.286   7.743   5.187  1.00 20.00     0.096 A 
HETATM    4  C4  UNL     1     -34.106   6.749   5.555  1.00 20.00     0.133 A 
HETATM    5  C5  UNL     1     -34.357   5.536   4.710  1.00 20.00     0.254 A 
HETATM    6  C6  UNL     1     -32.532   7.745   3.889  1.00 20.00     0.282 A 
HETATM    7  F7  UNL     1     -34.739   6.844   6.746  1.00 20.00    -0.207 F 
HETATM    8  F8  UNL     1     -34.036   4.416   5.420  1.00 20.00    -0.238 F 
HETATM    9  F9  UNL     1     -31.196   7.851   4.144  1.00 20.00    -0.197 F 
HETATM   10  F10 UNL     1     -32.855   8.863   3.180  1.00 20.00    -0.197 F 
ENDROOT
TORSDOF 0
ENDMDL
MODEL 3
REMARK VINA RESULT:      -6.2      0.897      2.384
REMARK  0 active torsions:
REMARK  status: ('A' for Active; 'I' for Inactive)
ROOT
HETATM    1  C1  UNL     1     -33.514   7.943   5.484  1.00 20.00     0.019 A 
HETATM    2  C2  UNL     1     -34.299   6.920   5.849  1.00 20.00     0.054 A 
HETATM    3  C3  UNL     1     -33.738   5.726   3.709  1.00 20.00     0.096 A 
HETATM    4  C4  UNL     1     -32.955   6.750   3.345  1.00 20.00     0.133 A 
HETATM    5  C5  UNL     1     -32.754   7.973   4.190  1.00 20.00     0.254 A 
HETATM    6  C6  UNL     1     -34.499   5.698   5.003  1.00 20.00     0.282 A 
HETATM    7  F7  UNL     1     -32.311   6.678   2.158  1.00 20.00    -0.207 F 
HETATM    8  F8  UNL     1     -31.424   8.130   4.449  1.00 20.00    -0.238 F 
HETATM    9  F9  UNL     1     -34.138   4.591   5.714  1.00 20.00    -0.197 F 
HETATM   10  F10 UNL     1     -35.828   5.541   4.742  1.00 20.00    -0.197 F 
ENDROOT
TORSDOF 0
ENDMDL
MODEL 4
REMARK VINA RESULT:      -6.0      1.333      3.737
REMARK  0 active torsions:
REMARK  status: ('A' for Active; 'I' for Inactive)
ROOT
HETATM    1  C1  UNL     1     -34.198   6.965   5.519  1.00 20.00     0.019 A 
HETATM    2  C2  UNL     1     -33.415   8.000   5.184  1.00 20.00     0.054 A 
HETATM    3  C3  UNL     1     -32.615   6.741   3.161  1.00 20.00     0.096 A 
HETATM    4  C4  UNL     1     -33.398   5.707   3.496  1.00 20.00     0.133 A 
HETATM    5  C5  UNL     1     -34.276   5.702   4.712  1.00 20.00     0.254 A 
HETATM    6  C6  UNL     1     -32.536   8.004   3.968  1.00 20.00     0.282 A 
HETATM    7  F7  UNL     1     -33.398   4.614   2.700  1.00 20.00    -0.207 F 
HETATM    8  F8  UNL     1     -35.569   5.485   4.334  1.00 20.00    -0.238 F 
HETATM    9  F9  UNL     1     -32.863   9.067   3.178  1.00 20.00    -0.197 F 
HETATM   10  F10 UNL     1     -31.243   8.219   4.345  1.00 20.00    -0.197 F 
ENDROOT
TORSDOF 0
ENDMDL
MODEL 5
REMARK VINA RESULT:      -5.5      1.520      3.116
REMARK  0 active torsions:
REMARK  status: ('A' for Active; 'I' for Inactive)
ROOT
HETATM    1  C1  UNL     1     -32.440   7.044   2.965  1.00 20.00     0.019 A 
HETATM    2  C2  UNL     1     -32.477   7.923   3.977  1.00 20.00     0.054 A 
HETATM    3  C3  UNL     1     -34.119   6.457   5.191  1.00 20.00     0.096 A 
HETATM    4  C4  UNL     1     -34.082   5.580   4.178  1.00 20.00     0.133 A 
HETATM    5  C5  UNL     1     -33.240   5.774   2.953  1.00 20.00     0.254 A 
HETATM    6  C6  UNL     1     -33.321   7.728   5.202  1.00 20.00     0.282 A 
HETATM    7  F7  UNL     1     -34.840   4.463   4.266  1.00 20.00    -0.207 F 
HETATM    8  F8  UNL     1     -32.398   4.710   2.809  1.00 20.00    -0.238 F 
HETATM    9  F9  UNL     1     -32.523   7.749   6.308  1.00 20.00    -0.197 F 
HETATM   10  F10 UNL     1     -34.164   8.790   5.344  1.00 20.00    -0.197 F 
ENDROOT
TORSDOF 0
ENDMDL
MODEL 6
REMARK VINA RESULT:      -5.5      1.356      1.969
REMARK  0 active torsions:
REMARK  status: ('A' for Active; 'I' for Inactive)
ROOT
HETATM    1  C1  UNL     1     -32.883   7.242   3.988  1.00 20.00     0.019 A 
HETATM    2  C2  UNL     1     -33.510   6.126   3.589  1.00 20.00     0.054 A 
HETATM    3  C3  UNL     1     -34.670   5.981   5.815  1.00 20.00     0.096 A 
HETATM    4  C4  UNL     1     -34.043   7.096   6.213  1.00 20.00     0.133 A 
HETATM    5  C5  UNL     1     -33.079   7.851   5.346  1.00 20.00     0.254 A 
HETATM    6  C6  UNL     1     -34.473   5.371   4.457  1.00 20.00     0.282 A 
HETATM    7  F7  UNL     1     -34.290   7.565   7.457  1.00 20.00    -0.207 F 
HETATM    8  F8  UNL     1     -33.510   9.138   5.207  1.00 20.00    -0.238 F 
HETATM    9  F9  UNL     1     -35.678   5.281   3.824  1.00 20.00    -0.197 F 
HETATM   10  F10 UNL     1     -34.042   4.085   4.599  1.00 20.00    -0.197 F 
ENDROOT
TORSDOF 0
ENDMDL
MODEL 7
REMARK VINA RESULT:      -5.5      1.699      2.832
REMARK  0 active torsions:
REMARK  status: ('A' for Active; 'I' for Inactive)
ROOT
HETATM    1  C1  UNL     1     -34.503   5.880   5.135  1.00 20.00     0.019 A 
HETATM    2  C2  UNL     1     -34.187   5.166   4.045  1.00 20.00     0.054 A 
HETATM    3  C3  UNL     1     -32.558   6.950   3.349  1.00 20.00     0.096 A 
HETATM    4  C4  UNL     1     -32.875   7.663   4.439  1.00 20.00     0.133 A 
HETATM    5  C5  UNL     1     -33.882   7.209   5.453  1.00 20.00     0.254 A 
HETATM    6  C6  UNL     1     -33.180   5.622   3.030  1.00 20.00     0.282 A 
HETATM    7  F7  UNL     1     -32.256   8.849   4.635  1.00 20.00    -0.207 F 
HETATM    8  F8  UNL     1     -33.292   7.150   6.682  1.00 20.00    -0.238 F 
HETATM    9  F9  UNL     1     -32.199   4.681   2.913  1.00 20.00    -0.197 F 
HETATM   10  F10 UNL     1     -33.771   5.683   1.803  1.00 20.00    -0.197 F 
ENDROOT
TORSDOF 0
ENDMDL
MODEL 8
REMARK VINA RESULT:      -5.4      1.654      2.796
REMARK  0 active torsions:
REMARK  status: ('A' for Active; 'I' for Inactive)
ROOT
HETATM    1  C1  UNL     1     -32.363   7.884   4.099  1.00 20.00     0.019 A 
HETATM    2  C2  UNL     1     -32.312   7.028   3.068  1.00 20.00     0.054 A 
HETATM    3  C3  UNL     1     -34.029   5.575   4.191  1.00 20.00     0.096 A 
HETATM    4  C4  UNL     1     -34.078   6.431   5.221  1.00 20.00     0.133 A 
HETATM    5  C5  UNL     1     -33.252   7.680   5.291  1.00 20.00     0.254 A 
HETATM    6  C6  UNL     1     -33.139   5.778   3.000  1.00 20.00     0.282 A 
HETATM    7  F7  UNL     1     -34.915   6.156   6.247  1.00 20.00    -0.207 F 
HETATM    8  F8  UNL     1     -34.075   8.759   5.432  1.00 20.00    -0.238 F 
HETATM    9  F9  UNL     1     -33.899   5.800   1.867  1.00 20.00    -0.197 F 
HETATM   10  F10 UNL     1     -32.316   4.699   2.861  1.00 20.00    -0.197 F 
ENDROOT
TORSDOF 0
ENDMDL
MODEL 9
REMARK VINA RESULT:      -5.0      1.564      2.334
REMARK  0 active torsions:
REMARK  status: ('A' for Active; 'I' for Inactive)
ROOT
HETATM    1  C1  UNL     1     -34.098   5.046   4.205  1.00 20.00     0.019 A 
HETATM    2  C2  UNL     1     -34.354   5.783   5.295  1.00 20.00     0.054 A 
HETATM    3  C3  UNL     1     -32.821   7.582   4.439  1.00 20.00     0.096 A 
HETATM    4  C4  UNL     1     -32.566   6.844   3.350  1.00 20.00     0.133 A 
HETATM    5  C5  UNL     1     -33.174   5.495   3.110  1.00 20.00     0.254 A 
HETATM    6  C6  UNL     1     -33.744   7.133   5.534  1.00 20.00     0.282 A 
HETATM    7  F7  UNL     1     -31.719   7.341   2.420  1.00 20.00    -0.207 F 
HETATM    8  F8  UNL     1     -33.849   5.507   1.925  1.00 20.00    -0.238 F 
HETATM    9  F9  UNL     1     -34.736   8.055   5.695  1.00 20.00    -0.197 F 
HETATM   10  F10 UNL     1     -33.068   7.120   6.718  1.00 20.00    -0.197 F 
ENDROOT
TORSDOF 0
ENDMDL
