MODEL 1
REMARK VINA RESULT:      -4.4      0.000      0.000
REMARK  1 active torsions:
REMARK  status: ('A' for Active; 'I' for Inactive)
REMARK    1  A    between atoms: C2_2  and  C12_12 
ROOT
HETATM    1  C1  UNL     1     -41.266  13.489   4.716  1.00 20.00    -0.023 C 
HETATM    2  C2  UNL     1     -40.497  12.914   5.663  1.00 20.00    -0.075 C 
HETATM    3  C3  UNL     1     -42.297  14.536   5.084  1.00 20.00     0.033 C 
HETATM    4  C4  UNL     1     -40.785  14.979   7.081  1.00 20.00     0.015 C 
HETATM    5  C5  UNL     1     -40.717  13.408   7.070  1.00 20.00     0.023 C 
HETATM    6  C6  UNL     1     -42.263  14.770   6.610  1.00 20.00    -0.002 C 
HETATM    7  C7  UNL     1     -42.250  13.454   7.506  1.00 20.00    -0.036 C 
HETATM    8  C8  UNL     1     -43.160  12.297   7.074  1.00 20.00     0.016 C 
HETATM    9  C9  UNL     1     -42.486  13.686   9.012  1.00 20.00     0.016 C 
ENDROOT
BRANCH   2  10
HETATM   10  C12 UNL     1     -39.471  11.863   5.412  1.00 20.00     0.006 C 
HETATM   11  C10 UNL     1     -39.186  11.736   3.916  1.00 20.00     0.014 C 
HETATM   12  C11 UNL     1     -38.183  12.157   6.181  1.00 20.00     0.014 C 
ENDBRANCH   2  10
TORSDOF 1
ENDMDL
MODEL 2
REMARK VINA RESULT:      -4.2      0.984      2.019
REMARK  1 active torsions:
REMARK  status: ('A' for Active; 'I' for Inactive)
REMARK    1  A    between atoms: C2_2  and  C12_12 
ROOT
HETATM    1  C1  UNL     1     -42.168  12.202   6.710  1.00 20.00    -0.023 C 
HETATM    2  C2  UNL     1     -40.982  12.644   6.246  1.00 20.00    -0.075 C 
HETATM    3  C3  UNL     1     -43.252  13.177   7.122  1.00 20.00     0.033 C 
HETATM    4  C4  UNL     1     -42.125  14.756   5.477  1.00 20.00     0.015 C 
HETATM    5  C5  UNL     1     -40.839  14.141   6.142  1.00 20.00     0.023 C 
HETATM    6  C6  UNL     1     -42.748  14.620   6.906  1.00 20.00    -0.002 C 
HETATM    7  C7  UNL     1     -41.286  14.926   7.456  1.00 20.00    -0.036 C 
HETATM    8  C8  UNL     1     -40.906  14.330   8.818  1.00 20.00     0.016 C 
HETATM    9  C9  UNL     1     -40.895  16.417   7.483  1.00 20.00     0.016 C 
ENDROOT
BRANCH   2  10
HETATM   10  C12 UNL     1     -39.844  11.774   5.835  1.00 20.00     0.006 C 
HETATM   11  C10 UNL     1     -39.578  11.911   4.336  1.00 20.00     0.014 C 
HETATM   12  C11 UNL     1     -38.583  12.100   6.636  1.00 20.00     0.014 C 
ENDBRANCH   2  10
TORSDOF 1
ENDMDL
MODEL 3
REMARK VINA RESULT:      -3.9     11.982     13.678
REMARK  1 active torsions:
REMARK  status: ('A' for Active; 'I' for Inactive)
REMARK    1  A    between atoms: C2_2  and  C12_12 
ROOT
HETATM    1  C1  UNL     1     -34.492  14.855  -4.014  1.00 20.00    -0.023 C 
HETATM    2  C2  UNL     1     -34.023  16.062  -4.391  1.00 20.00    -0.075 C 
HETATM    3  C3  UNL     1     -35.350  14.029  -4.951  1.00 20.00     0.033 C 
HETATM    4  C4  UNL     1     -34.147  15.306  -6.793  1.00 20.00     0.015 C 
HETATM    5  C5  UNL     1     -34.382  16.493  -5.790  1.00 20.00     0.023 C 
HETATM    6  C6  UNL     1     -35.534  14.793  -6.280  1.00 20.00    -0.002 C 
HETATM    7  C7  UNL     1     -35.929  16.330  -6.139  1.00 20.00    -0.036 C 
HETATM    8  C8  UNL     1     -36.957  16.697  -5.061  1.00 20.00     0.016 C 
HETATM    9  C9  UNL     1     -36.372  17.014  -7.448  1.00 20.00     0.016 C 
ENDROOT
BRANCH   2  10
HETATM   10  C12 UNL     1     -33.191  16.961  -3.543  1.00 20.00     0.006 C 
HETATM   11  C10 UNL     1     -33.382  18.419  -3.957  1.00 20.00     0.014 C 
HETATM   12  C11 UNL     1     -33.516  16.777  -2.060  1.00 20.00     0.014 C 
ENDBRANCH   2  10
TORSDOF 1
ENDMDL
MODEL 4
REMARK VINA RESULT:      -3.6     12.109     14.001
REMARK  1 active torsions:
REMARK  status: ('A' for Active; 'I' for Inactive)
REMARK    1  A    between atoms: C2_2  and  C12_12 
ROOT
HETATM    1  C1  UNL     1     -33.966  18.455  -4.814  1.00 20.00    -0.023 C 
HETATM    2  C2  UNL     1     -34.209  17.150  -4.574  1.00 20.00    -0.075 C 
HETATM    3  C3  UNL     1     -34.886  19.263  -5.707  1.00 20.00     0.033 C 
HETATM    4  C4  UNL     1     -36.656  17.575  -5.007  1.00 20.00     0.015 C 
HETATM    5  C5  UNL     1     -35.451  16.588  -5.218  1.00 20.00     0.023 C 
HETATM    6  C6  UNL     1     -36.032  18.359  -6.210  1.00 20.00    -0.002 C 
HETATM    7  C7  UNL     1     -35.587  16.935  -6.768  1.00 20.00    -0.036 C 
HETATM    8  C8  UNL     1     -34.323  16.881  -7.636  1.00 20.00     0.016 C 
HETATM    9  C9  UNL     1     -36.688  16.151  -7.511  1.00 20.00     0.016 C 
ENDROOT
BRANCH   2  10
HETATM   10  C12 UNL     1     -33.360  16.262  -3.731  1.00 20.00     0.006 C 
HETATM   11  C10 UNL     1     -33.476  16.648  -2.257  1.00 20.00     0.014 C 
HETATM   12  C11 UNL     1     -33.731  14.792  -3.933  1.00 20.00     0.014 C 
ENDBRANCH   2  10
TORSDOF 1
ENDMDL
MODEL 5
REMARK VINA RESULT:      -3.6     12.475     14.203
REMARK  1 active torsions:
REMARK  status: ('A' for Active; 'I' for Inactive)
REMARK    1  A    between atoms: C2_2  and  C12_12 
ROOT
HETATM    1  C1  UNL     1     -36.272  17.449  -4.822  1.00 20.00    -0.023 C 
HETATM    2  C2  UNL     1     -35.001  17.100  -4.539  1.00 20.00    -0.075 C 
HETATM    3  C3  UNL     1     -37.008  16.821  -5.988  1.00 20.00     0.033 C 
HETATM    4  C4  UNL     1     -35.424  14.864  -5.624  1.00 20.00     0.015 C 
HETATM    5  C5  UNL     1     -34.401  16.042  -5.430  1.00 20.00     0.023 C 
HETATM    6  C6  UNL     1     -36.079  15.805  -6.689  1.00 20.00    -0.002 C 
HETATM    7  C7  UNL     1     -34.602  16.319  -6.987  1.00 20.00    -0.036 C 
HETATM    8  C8  UNL     1     -34.444  17.759  -7.492  1.00 20.00     0.016 C 
HETATM    9  C9  UNL     1     -33.770  15.413  -7.917  1.00 20.00     0.016 C 
ENDROOT
BRANCH   2  10
HETATM   10  C12 UNL     1     -34.182  17.669  -3.432  1.00 20.00     0.006 C 
HETATM   11  C10 UNL     1     -33.387  16.568  -2.732  1.00 20.00     0.014 C 
HETATM   12  C11 UNL     1     -33.246  18.764  -3.945  1.00 20.00     0.014 C 
ENDBRANCH   2  10
TORSDOF 1
ENDMDL
MODEL 6
REMARK VINA RESULT:      -3.5      1.600      3.976
REMARK  1 active torsions:
REMARK  status: ('A' for Active; 'I' for Inactive)
REMARK    1  A    between atoms: C2_2  and  C12_12 
ROOT
HETATM    1  C1  UNL     1     -42.227  13.749   8.652  1.00 20.00    -0.023 C 
HETATM    2  C2  UNL     1     -41.225  14.447   8.079  1.00 20.00    -0.075 C 
HETATM    3  C3  UNL     1     -43.094  12.818   7.828  1.00 20.00     0.033 C 
HETATM    4  C4  UNL     1     -41.063  12.664   6.303  1.00 20.00     0.015 C 
HETATM    5  C5  UNL     1     -41.022  14.206   6.605  1.00 20.00     0.023 C 
HETATM    6  C6  UNL     1     -42.617  12.844   6.360  1.00 20.00    -0.002 C 
HETATM    7  C7  UNL     1     -42.364  14.292   5.746  1.00 20.00    -0.036 C 
HETATM    8  C8  UNL     1     -43.375  15.392   6.093  1.00 20.00     0.016 C 
HETATM    9  C9  UNL     1     -42.152  14.327   4.219  1.00 20.00     0.016 C 
ENDROOT
BRANCH   2  10
HETATM   10  C12 UNL     1     -40.329  15.401   8.791  1.00 20.00     0.006 C 
HETATM   11  C10 UNL     1     -40.753  16.843   8.515  1.00 20.00     0.014 C 
HETATM   12  C11 UNL     1     -40.312  15.124  10.294  1.00 20.00     0.014 C 
ENDBRANCH   2  10
TORSDOF 1
ENDMDL
MODEL 7
REMARK VINA RESULT:      -3.5     19.596     22.227
REMARK  1 active torsions:
REMARK  status: ('A' for Active; 'I' for Inactive)
REMARK    1  A    between atoms: C2_2  and  C12_12 
ROOT
HETATM    1  C1  UNL     1     -26.647  -3.970  11.984  1.00 20.00    -0.023 C 
HETATM    2  C2  UNL     1     -25.970  -3.535  10.903  1.00 20.00    -0.075 C 
HETATM    3  C3  UNL     1     -28.006  -3.396  12.331  1.00 20.00     0.033 C 
HETATM    4  C4  UNL     1     -28.168  -2.903   9.841  1.00 20.00     0.015 C 
HETATM    5  C5  UNL     1     -26.669  -2.488  10.073  1.00 20.00     0.023 C 
HETATM    6  C6  UNL     1     -28.393  -2.333  11.281  1.00 20.00    -0.002 C 
HETATM    7  C7  UNL     1     -27.257  -1.275  10.925  1.00 20.00    -0.036 C 
HETATM    8  C8  UNL     1     -26.413  -0.730  12.084  1.00 20.00     0.016 C 
HETATM    9  C9  UNL     1     -27.726  -0.067  10.089  1.00 20.00     0.016 C 
ENDROOT
BRANCH   2  10
HETATM   10  C12 UNL     1     -24.623  -4.015  10.485  1.00 20.00     0.006 C 
HETATM   11  C10 UNL     1     -24.086  -3.172   9.329  1.00 20.00     0.014 C 
HETATM   12  C11 UNL     1     -23.644  -4.002  11.659  1.00 20.00     0.014 C 
ENDBRANCH   2  10
TORSDOF 1
ENDMDL
MODEL 8
REMARK VINA RESULT:      -3.5     12.463     13.690
REMARK  1 active torsions:
REMARK  status: ('A' for Active; 'I' for Inactive)
REMARK    1  A    between atoms: C2_2  and  C12_12 
ROOT
HETATM    1  C1  UNL     1     -34.371  15.430  -6.282  1.00 20.00    -0.023 C 
HETATM    2  C2  UNL     1     -34.362  16.001  -5.061  1.00 20.00    -0.075 C 
HETATM    3  C3  UNL     1     -35.075  16.098  -7.446  1.00 20.00     0.033 C 
HETATM    4  C4  UNL     1     -34.635  18.251  -6.165  1.00 20.00     0.015 C 
HETATM    5  C5  UNL     1     -35.057  17.335  -4.959  1.00 20.00     0.023 C 
HETATM    6  C6  UNL     1     -35.697  17.428  -6.969  1.00 20.00    -0.002 C 
HETATM    7  C7  UNL     1     -36.515  17.354  -5.605  1.00 20.00    -0.036 C 
HETATM    8  C8  UNL     1     -37.417  16.132  -5.390  1.00 20.00     0.016 C 
HETATM    9  C9  UNL     1     -37.352  18.606  -5.275  1.00 20.00     0.016 C 
ENDROOT
BRANCH   2  10
HETATM   10  C12 UNL     1     -33.719  15.420  -3.849  1.00 20.00     0.006 C 
HETATM   11  C10 UNL     1     -32.470  14.627  -4.230  1.00 20.00     0.014 C 
HETATM   12  C11 UNL     1     -33.374  16.510  -2.833  1.00 20.00     0.014 C 
ENDBRANCH   2  10
TORSDOF 1
ENDMDL
MODEL 9
REMARK VINA RESULT:      -3.4     11.963     13.278
REMARK  1 active torsions:
REMARK  status: ('A' for Active; 'I' for Inactive)
REMARK    1  A    between atoms: C2_2  and  C12_12 
ROOT
HETATM    1  C1  UNL     1     -34.448  16.830  -6.368  1.00 20.00    -0.023 C 
HETATM    2  C2  UNL     1     -34.461  16.762  -5.022  1.00 20.00    -0.075 C 
HETATM    3  C3  UNL     1     -35.417  17.730  -7.108  1.00 20.00     0.033 C 
HETATM    4  C4  UNL     1     -35.420  19.094  -4.961  1.00 20.00     0.015 C 
HETATM    5  C5  UNL     1     -35.463  17.653  -4.333  1.00 20.00     0.023 C 
HETATM    6  C6  UNL     1     -36.309  18.468  -6.087  1.00 20.00    -0.002 C 
HETATM    7  C7  UNL     1     -36.935  17.559  -4.939  1.00 20.00    -0.036 C 
HETATM    8  C8  UNL     1     -37.463  16.177  -5.344  1.00 20.00     0.016 C 
HETATM    9  C9  UNL     1     -38.029  18.238  -4.090  1.00 20.00     0.016 C 
ENDROOT
BRANCH   2  10
HETATM   10  C12 UNL     1     -33.569  15.898  -4.199  1.00 20.00     0.006 C 
HETATM   11  C10 UNL     1     -33.431  16.461  -2.784  1.00 20.00     0.014 C 
HETATM   12  C11 UNL     1     -34.082  14.458  -4.156  1.00 20.00     0.014 C 
ENDBRANCH   2  10
TORSDOF 1
ENDMDL
