MODEL 1
REMARK VINA RESULT:      -5.1      0.000      0.000
REMARK  0 active torsions:
REMARK  status: ('A' for Active; 'I' for Inactive)
ROOT
HETATM    1  C1  UNL     1     -34.712   5.092   7.002  1.00 20.00     0.013 C 
HETATM    2  C2  UNL     1     -34.545   5.515   5.890  1.00 20.00    -0.103 C 
HETATM    3  C3  UNL     1     -32.339   6.623   2.504  1.00 20.00    -0.004 C 
HETATM    4  C4  UNL     1     -32.553   7.533   3.600  1.00 20.00     0.004 C 
HETATM    5  C5  UNL     1     -32.853   5.387   2.521  1.00 20.00    -0.025 C 
HETATM    6  C6  UNL     1     -33.474   7.304   4.556  1.00 20.00    -0.063 C 
HETATM    7  C7  UNL     1     -33.686   4.899   3.672  1.00 20.00     0.054 C 
HETATM    8  C8  UNL     1     -34.340   6.038   4.520  1.00 20.00     0.045 C 
HETATM    9  C9  UNL     1     -33.699   8.321   5.645  1.00 20.00     0.045 C 
HETATM   10  C10 UNL     1     -35.714   6.396   3.917  1.00 20.00     0.034 C 
ENDROOT
TORSDOF 0
ENDMDL
MODEL 2
REMARK VINA RESULT:      -4.4      1.228      3.425
REMARK  0 active torsions:
REMARK  status: ('A' for Active; 'I' for Inactive)
ROOT
HETATM    1  C1  UNL     1     -31.789   9.167   4.938  1.00 20.00     0.013 C 
HETATM    2  C2  UNL     1     -32.679   8.362   4.892  1.00 20.00    -0.103 C 
HETATM    3  C3  UNL     1     -34.482   4.614   5.399  1.00 20.00    -0.004 C 
HETATM    4  C4  UNL     1     -33.743   4.944   4.207  1.00 20.00     0.004 C 
HETATM    5  C5  UNL     1     -34.633   5.504   6.387  1.00 20.00    -0.025 C 
HETATM    6  C6  UNL     1     -33.397   6.210   3.902  1.00 20.00    -0.063 C 
HETATM    7  C7  UNL     1     -34.054   6.886   6.294  1.00 20.00     0.054 C 
HETATM    8  C8  UNL     1     -33.776   7.369   4.834  1.00 20.00     0.045 C 
HETATM    9  C9  UNL     1     -32.679   6.506   2.611  1.00 20.00     0.045 C 
HETATM   10  C10 UNL     1     -35.037   8.059   4.276  1.00 20.00     0.034 C 
ENDROOT
TORSDOF 0
ENDMDL
MODEL 3
REMARK VINA RESULT:      -3.9      9.725     11.267
REMARK  0 active torsions:
REMARK  status: ('A' for Active; 'I' for Inactive)
ROOT
HETATM    1  C1  UNL     1     -39.173  11.934   6.005  1.00 20.00     0.013 C 
HETATM    2  C2  UNL     1     -40.163  12.601   6.138  1.00 20.00    -0.103 C 
HETATM    3  C3  UNL     1     -42.498  16.074   5.933  1.00 20.00    -0.004 C 
HETATM    4  C4  UNL     1     -41.654  15.794   7.066  1.00 20.00     0.004 C 
HETATM    5  C5  UNL     1     -42.579  15.221   4.904  1.00 20.00    -0.025 C 
HETATM    6  C6  UNL     1     -41.118  14.577   7.283  1.00 20.00    -0.063 C 
HETATM    7  C7  UNL     1     -41.808  13.932   4.891  1.00 20.00     0.054 C 
HETATM    8  C8  UNL     1     -41.383  13.423   6.306  1.00 20.00     0.045 C 
HETATM    9  C9  UNL     1     -40.294  14.324   8.518  1.00 20.00     0.045 C 
HETATM   10  C10 UNL     1     -42.502  12.534   6.885  1.00 20.00     0.034 C 
ENDROOT
TORSDOF 0
ENDMDL
MODEL 4
REMARK VINA RESULT:      -3.9     15.562     17.000
REMARK  0 active torsions:
REMARK  status: ('A' for Active; 'I' for Inactive)
ROOT
HETATM    1  C1  UNL     1     -24.330  15.886  11.959  1.00 20.00     0.013 C 
HETATM    2  C2  UNL     1     -23.977  16.766  11.222  1.00 20.00    -0.103 C 
HETATM    3  C3  UNL     1     -21.394  18.748   8.584  1.00 20.00    -0.004 C 
HETATM    4  C4  UNL     1     -21.293  18.914  10.011  1.00 20.00     0.004 C 
HETATM    5  C5  UNL     1     -22.333  17.960   8.044  1.00 20.00    -0.025 C 
HETATM    6  C6  UNL     1     -22.267  18.518  10.853  1.00 20.00    -0.063 C 
HETATM    7  C7  UNL     1     -23.329  17.229   8.898  1.00 20.00     0.054 C 
HETATM    8  C8  UNL     1     -23.542  17.853  10.315  1.00 20.00     0.045 C 
HETATM    9  C9  UNL     1     -22.136  18.773  12.332  1.00 20.00     0.045 C 
HETATM   10  C10 UNL     1     -24.659  18.913  10.242  1.00 20.00     0.034 C 
ENDROOT
TORSDOF 0
ENDMDL
MODEL 5
REMARK VINA RESULT:      -3.9      0.962      2.591
REMARK  0 active torsions:
REMARK  status: ('A' for Active; 'I' for Inactive)
ROOT
HETATM    1  C1  UNL     1     -33.549   3.500   4.008  1.00 20.00     0.013 C 
HETATM    2  C2  UNL     1     -33.811   4.662   4.164  1.00 20.00    -0.103 C 
HETATM    3  C3  UNL     1     -33.120   8.618   5.360  1.00 20.00    -0.004 C 
HETATM    4  C4  UNL     1     -33.636   7.630   6.273  1.00 20.00     0.004 C 
HETATM    5  C5  UNL     1     -32.855   8.310   4.085  1.00 20.00    -0.025 C 
HETATM    6  C6  UNL     1     -34.123   6.446   5.852  1.00 20.00    -0.063 C 
HETATM    7  C7  UNL     1     -33.096   6.929   3.545  1.00 20.00     0.054 C 
HETATM    8  C8  UNL     1     -34.137   6.093   4.358  1.00 20.00     0.045 C 
HETATM    9  C9  UNL     1     -34.708   5.475   6.845  1.00 20.00     0.045 C 
HETATM   10  C10 UNL     1     -35.550   6.359   3.802  1.00 20.00     0.034 C 
ENDROOT
TORSDOF 0
ENDMDL
MODEL 6
REMARK VINA RESULT:      -3.8      0.939      2.916
REMARK  0 active torsions:
REMARK  status: ('A' for Active; 'I' for Inactive)
ROOT
HETATM    1  C1  UNL     1     -36.503   5.859   4.059  1.00 20.00     0.013 C 
HETATM    2  C2  UNL     1     -35.406   6.206   4.404  1.00 20.00    -0.103 C 
HETATM    3  C3  UNL     1     -31.907   8.510   4.297  1.00 20.00    -0.004 C 
HETATM    4  C4  UNL     1     -32.071   7.342   3.469  1.00 20.00     0.004 C 
HETATM    5  C5  UNL     1     -32.867   8.895   5.147  1.00 20.00    -0.025 C 
HETATM    6  C6  UNL     1     -33.050   6.441   3.681  1.00 20.00    -0.063 C 
HETATM    7  C7  UNL     1     -34.147   8.122   5.287  1.00 20.00     0.054 C 
HETATM    8  C8  UNL     1     -34.052   6.631   4.828  1.00 20.00     0.045 C 
HETATM    9  C9  UNL     1     -33.137   5.206   2.823  1.00 20.00     0.045 C 
HETATM   10  C10 UNL     1     -33.611   5.758   6.019  1.00 20.00     0.034 C 
ENDROOT
TORSDOF 0
ENDMDL
MODEL 7
REMARK VINA RESULT:      -3.8     12.031     13.487
REMARK  0 active torsions:
REMARK  status: ('A' for Active; 'I' for Inactive)
ROOT
HETATM    1  C1  UNL     1     -24.053  -3.406   9.304  1.00 20.00     0.013 C 
HETATM    2  C2  UNL     1     -24.960  -3.079  10.021  1.00 20.00    -0.103 C 
HETATM    3  C3  UNL     1     -27.924  -0.529  11.527  1.00 20.00    -0.004 C 
HETATM    4  C4  UNL     1     -26.567  -0.481  12.008  1.00 20.00     0.004 C 
HETATM    5  C5  UNL     1     -28.293  -1.407  10.585  1.00 20.00    -0.025 C 
HETATM    6  C6  UNL     1     -25.676  -1.457  11.748  1.00 20.00    -0.063 C 
HETATM    7  C7  UNL     1     -27.317  -2.387  10.001  1.00 20.00     0.054 C 
HETATM    8  C8  UNL     1     -26.077  -2.676  10.906  1.00 20.00     0.045 C 
HETATM    9  C9  UNL     1     -24.288  -1.386  12.329  1.00 20.00     0.045 C 
HETATM   10  C10 UNL     1     -26.401  -3.847  11.856  1.00 20.00     0.034 C 
ENDROOT
TORSDOF 0
ENDMDL
MODEL 8
REMARK VINA RESULT:      -3.7     12.480     13.860
REMARK  0 active torsions:
REMARK  status: ('A' for Active; 'I' for Inactive)
ROOT
HETATM    1  C1  UNL     1     -36.356  19.112  -2.525  1.00 20.00     0.013 C 
HETATM    2  C2  UNL     1     -35.547  18.517  -3.184  1.00 20.00    -0.103 C 
HETATM    3  C3  UNL     1     -33.729  15.153  -4.897  1.00 20.00    -0.004 C 
HETATM    4  C4  UNL     1     -33.394  15.602  -3.570  1.00 20.00     0.004 C 
HETATM    5  C5  UNL     1     -34.629  15.808  -5.642  1.00 20.00    -0.025 C 
HETATM    6  C6  UNL     1     -33.749  16.818  -3.110  1.00 20.00    -0.063 C 
HETATM    7  C7  UNL     1     -35.316  17.043  -5.135  1.00 20.00     0.054 C 
HETATM    8  C8  UNL     1     -34.548  17.785  -3.994  1.00 20.00     0.045 C 
HETATM    9  C9  UNL     1     -33.317  17.260  -1.736  1.00 20.00     0.045 C 
HETATM   10  C10 UNL     1     -33.572  18.805  -4.616  1.00 20.00     0.034 C 
ENDROOT
TORSDOF 0
ENDMDL
MODEL 9
REMARK VINA RESULT:      -3.6      9.854     11.641
REMARK  0 active torsions:
REMARK  status: ('A' for Active; 'I' for Inactive)
ROOT
HETATM    1  C1  UNL     1     -39.882  11.699   5.701  1.00 20.00     0.013 C 
HETATM    2  C2  UNL     1     -40.558  12.610   6.098  1.00 20.00    -0.103 C 
HETATM    3  C3  UNL     1     -42.221  15.183   8.957  1.00 20.00    -0.004 C 
HETATM    4  C4  UNL     1     -42.830  13.918   8.630  1.00 20.00     0.004 C 
HETATM    5  C5  UNL     1     -41.103  15.591   8.344  1.00 20.00    -0.025 C 
HETATM    6  C6  UNL     1     -42.480  13.212   7.537  1.00 20.00    -0.063 C 
HETATM    7  C7  UNL     1     -40.442  14.759   7.282  1.00 20.00     0.054 C 
HETATM    8  C8  UNL     1     -41.392  13.731   6.587  1.00 20.00     0.045 C 
HETATM    9  C9  UNL     1     -43.193  11.926   7.210  1.00 20.00     0.045 C 
HETATM   10  C10 UNL     1     -42.074  14.403   5.378  1.00 20.00     0.034 C 
ENDROOT
TORSDOF 0
ENDMDL
