MODEL 1
REMARK VINA RESULT:      -5.4      0.000      0.000
REMARK  1 active torsions:
REMARK  status: ('A' for Active; 'I' for Inactive)
REMARK    1  A    between atoms: C5_5  and  C7_7 
ROOT
HETATM    1  C1  UNL     1     -33.110   5.131   2.842  1.00 20.00     0.001 C 
HETATM    2  C2  UNL     1     -32.841   6.630   2.967  1.00 20.00     0.001 C 
HETATM    3  C3  UNL     1     -33.691   4.688   4.182  1.00 20.00     0.018 C 
HETATM    4  C4  UNL     1     -33.273   7.023   4.379  1.00 20.00     0.018 C 
HETATM    5  C5  UNL     1     -34.299   5.958   4.793  1.00 20.00     0.054 C 
HETATM    6  C6  UNL     1     -35.684   6.256   4.197  1.00 20.00     0.024 C 
ENDROOT
BRANCH   5   7
HETATM    7  C7  UNL     1     -34.416   5.851   6.314  1.00 20.00     0.395 C 
HETATM    8  F8  UNL     1     -35.504   5.141   6.633  1.00 20.00    -0.170 F 
HETATM    9  F9  UNL     1     -33.330   5.241   6.806  1.00 20.00    -0.170 F 
HETATM   10  F10 UNL     1     -34.514   7.075   6.844  1.00 20.00    -0.170 F 
ENDBRANCH   5   7
TORSDOF 1
ENDMDL
MODEL 2
REMARK VINA RESULT:      -5.4      0.033      1.197
REMARK  1 active torsions:
REMARK  status: ('A' for Active; 'I' for Inactive)
REMARK    1  A    between atoms: C5_5  and  C7_7 
ROOT
HETATM    1  C1  UNL     1     -33.101   5.125   2.848  1.00 20.00     0.001 C 
HETATM    2  C2  UNL     1     -32.829   6.623   2.991  1.00 20.00     0.001 C 
HETATM    3  C3  UNL     1     -33.694   4.672   4.180  1.00 20.00     0.018 C 
HETATM    4  C4  UNL     1     -33.271   7.003   4.402  1.00 20.00     0.018 C 
HETATM    5  C5  UNL     1     -34.303   5.937   4.798  1.00 20.00     0.054 C 
HETATM    6  C6  UNL     1     -35.682   6.246   4.194  1.00 20.00     0.024 C 
ENDROOT
BRANCH   5   7
HETATM    7  C7  UNL     1     -34.432   5.816   6.317  1.00 20.00     0.395 C 
HETATM    8  F8  UNL     1     -34.534   7.035   6.859  1.00 20.00    -0.170 F 
HETATM    9  F9  UNL     1     -35.525   5.104   6.619  1.00 20.00    -0.170 F 
HETATM   10  F10 UNL     1     -33.352   5.200   6.812  1.00 20.00    -0.170 F 
ENDBRANCH   5   7
TORSDOF 1
ENDMDL
MODEL 3
REMARK VINA RESULT:      -5.1      2.597      3.499
REMARK  1 active torsions:
REMARK  status: ('A' for Active; 'I' for Inactive)
REMARK    1  A    between atoms: C5_5  and  C7_7 
ROOT
HETATM    1  C1  UNL     1     -34.455   5.723   6.417  1.00 20.00     0.001 C 
HETATM    2  C2  UNL     1     -34.708   5.043   5.071  1.00 20.00     0.001 C 
HETATM    3  C3  UNL     1     -33.503   6.883   6.136  1.00 20.00     0.018 C 
HETATM    4  C4  UNL     1     -33.897   5.825   4.041  1.00 20.00     0.018 C 
HETATM    5  C5  UNL     1     -33.712   7.221   4.654  1.00 20.00     0.054 C 
HETATM    6  C6  UNL     1     -34.963   8.090   4.450  1.00 20.00     0.024 C 
ENDROOT
BRANCH   5   7
HETATM    7  C7  UNL     1     -32.497   7.938   4.064  1.00 20.00     0.395 C 
HETATM    8  F8  UNL     1     -31.738   7.063   3.396  1.00 20.00    -0.170 F 
HETATM    9  F9  UNL     1     -32.906   8.899   3.226  1.00 20.00    -0.170 F 
HETATM   10  F10 UNL     1     -31.777   8.487   5.049  1.00 20.00    -0.170 F 
ENDBRANCH   5   7
TORSDOF 1
ENDMDL
MODEL 4
REMARK VINA RESULT:      -5.0      1.109      1.696
REMARK  1 active torsions:
REMARK  status: ('A' for Active; 'I' for Inactive)
REMARK    1  A    between atoms: C5_5  and  C7_7 
ROOT
HETATM    1  C1  UNL     1     -32.627   7.456   3.376  1.00 20.00     0.001 C 
HETATM    2  C2  UNL     1     -32.929   8.386   4.551  1.00 20.00     0.001 C 
HETATM    3  C3  UNL     1     -33.071   6.062   3.812  1.00 20.00     0.018 C 
HETATM    4  C4  UNL     1     -33.542   7.510   5.641  1.00 20.00     0.018 C 
HETATM    5  C5  UNL     1     -34.128   6.301   4.898  1.00 20.00     0.054 C 
HETATM    6  C6  UNL     1     -35.497   6.635   4.283  1.00 20.00     0.024 C 
ENDROOT
BRANCH   5   7
HETATM    7  C7  UNL     1     -34.271   5.089   5.820  1.00 20.00     0.395 C 
HETATM    8  F8  UNL     1     -33.944   3.976   5.155  1.00 20.00    -0.170 F 
HETATM    9  F9  UNL     1     -33.459   5.229   6.875  1.00 20.00    -0.170 F 
HETATM   10  F10 UNL     1     -35.537   4.995   6.245  1.00 20.00    -0.170 F 
ENDBRANCH   5   7
TORSDOF 1
ENDMDL
MODEL 5
REMARK VINA RESULT:      -5.0      1.581      2.526
REMARK  1 active torsions:
REMARK  status: ('A' for Active; 'I' for Inactive)
REMARK    1  A    between atoms: C5_5  and  C7_7 
ROOT
HETATM    1  C1  UNL     1     -33.135   8.767   3.986  1.00 20.00     0.001 C 
HETATM    2  C2  UNL     1     -32.171   7.670   3.535  1.00 20.00     0.001 C 
HETATM    3  C3  UNL     1     -34.373   8.052   4.521  1.00 20.00     0.018 C 
HETATM    4  C4  UNL     1     -32.873   6.343   3.819  1.00 20.00     0.018 C 
HETATM    5  C5  UNL     1     -33.883   6.657   4.932  1.00 20.00     0.054 C 
HETATM    6  C6  UNL     1     -33.203   6.688   6.310  1.00 20.00     0.024 C 
ENDROOT
BRANCH   5   7
HETATM    7  C7  UNL     1     -35.027   5.643   4.956  1.00 20.00     0.395 C 
HETATM    8  F8  UNL     1     -34.621   4.493   4.405  1.00 20.00    -0.170 F 
HETATM    9  F9  UNL     1     -35.403   5.419   6.221  1.00 20.00    -0.170 F 
HETATM   10  F10 UNL     1     -36.067   6.122   4.263  1.00 20.00    -0.170 F 
ENDBRANCH   5   7
TORSDOF 1
ENDMDL
MODEL 6
REMARK VINA RESULT:      -5.0      1.579      2.484
REMARK  1 active torsions:
REMARK  status: ('A' for Active; 'I' for Inactive)
REMARK    1  A    between atoms: C5_5  and  C7_7 
ROOT
HETATM    1  C1  UNL     1     -33.131   8.763   3.984  1.00 20.00     0.001 C 
HETATM    2  C2  UNL     1     -32.171   7.663   3.531  1.00 20.00     0.001 C 
HETATM    3  C3  UNL     1     -34.370   8.052   4.523  1.00 20.00     0.018 C 
HETATM    4  C4  UNL     1     -32.877   6.339   3.817  1.00 20.00     0.018 C 
HETATM    5  C5  UNL     1     -33.884   6.656   4.932  1.00 20.00     0.054 C 
HETATM    6  C6  UNL     1     -33.200   6.684   6.308  1.00 20.00     0.024 C 
ENDROOT
BRANCH   5   7
HETATM    7  C7  UNL     1     -35.031   5.645   4.958  1.00 20.00     0.395 C 
HETATM    8  F8  UNL     1     -36.067   6.122   4.260  1.00 20.00    -0.170 F 
HETATM    9  F9  UNL     1     -34.626   4.491   4.415  1.00 20.00    -0.170 F 
HETATM   10  F10 UNL     1     -35.411   5.429   6.223  1.00 20.00    -0.170 F 
ENDBRANCH   5   7
TORSDOF 1
ENDMDL
MODEL 7
REMARK VINA RESULT:      -4.7      2.435      3.530
REMARK  1 active torsions:
REMARK  status: ('A' for Active; 'I' for Inactive)
REMARK    1  A    between atoms: C5_5  and  C7_7 
ROOT
HETATM    1  C1  UNL     1     -34.239   6.972   6.497  1.00 20.00     0.001 C 
HETATM    2  C2  UNL     1     -34.534   5.482   6.672  1.00 20.00     0.001 C 
HETATM    3  C3  UNL     1     -33.663   7.129   5.092  1.00 20.00     0.018 C 
HETATM    4  C4  UNL     1     -34.122   4.810   5.364  1.00 20.00     0.018 C 
HETATM    5  C5  UNL     1     -34.190   5.921   4.306  1.00 20.00     0.054 C 
HETATM    6  C6  UNL     1     -35.634   6.150   3.831  1.00 20.00     0.024 C 
ENDROOT
BRANCH   5   7
HETATM    7  C7  UNL     1     -33.305   5.604   3.100  1.00 20.00     0.395 C 
HETATM    8  F8  UNL     1     -32.864   4.344   3.184  1.00 20.00    -0.170 F 
HETATM    9  F9  UNL     1     -34.012   5.751   1.973  1.00 20.00    -0.170 F 
HETATM   10  F10 UNL     1     -32.259   6.438   3.079  1.00 20.00    -0.170 F 
ENDBRANCH   5   7
TORSDOF 1
ENDMDL
MODEL 8
REMARK VINA RESULT:      -4.5      2.253      3.374
REMARK  1 active torsions:
REMARK  status: ('A' for Active; 'I' for Inactive)
REMARK    1  A    between atoms: C5_5  and  C7_7 
ROOT
HETATM    1  C1  UNL     1     -35.459   5.457   4.942  1.00 20.00     0.001 C 
HETATM    2  C2  UNL     1     -34.412   5.132   6.007  1.00 20.00     0.001 C 
HETATM    3  C3  UNL     1     -35.076   6.819   4.369  1.00 20.00     0.018 C 
HETATM    4  C4  UNL     1     -33.445   6.315   6.027  1.00 20.00     0.018 C 
HETATM    5  C5  UNL     1     -33.572   6.957   4.639  1.00 20.00     0.054 C 
HETATM    6  C6  UNL     1     -32.745   6.192   3.593  1.00 20.00     0.024 C 
ENDROOT
BRANCH   5   7
HETATM    7  C7  UNL     1     -33.135   8.423   4.655  1.00 20.00     0.395 C 
HETATM    8  F8  UNL     1     -31.865   8.510   5.066  1.00 20.00    -0.170 F 
HETATM    9  F9  UNL     1     -33.238   8.936   3.423  1.00 20.00    -0.170 F 
HETATM   10  F10 UNL     1     -33.919   9.116   5.489  1.00 20.00    -0.170 F 
ENDBRANCH   5   7
TORSDOF 1
ENDMDL
MODEL 9
REMARK VINA RESULT:      -4.3      2.598      3.352
REMARK  1 active torsions:
REMARK  status: ('A' for Active; 'I' for Inactive)
REMARK    1  A    between atoms: C5_5  and  C7_7 
ROOT
HETATM    1  C1  UNL     1     -34.408   4.899   4.377  1.00 20.00     0.001 C 
HETATM    2  C2  UNL     1     -35.575   5.878   4.510  1.00 20.00     0.001 C 
HETATM    3  C3  UNL     1     -33.156   5.752   4.192  1.00 20.00     0.018 C 
HETATM    4  C4  UNL     1     -34.972   7.277   4.399  1.00 20.00     0.018 C 
HETATM    5  C5  UNL     1     -33.503   7.112   4.814  1.00 20.00     0.054 C 
HETATM    6  C6  UNL     1     -33.356   7.080   6.343  1.00 20.00     0.024 C 
ENDROOT
BRANCH   5   7
HETATM    7  C7  UNL     1     -32.629   8.231   4.245  1.00 20.00     0.395 C 
HETATM    8  F8  UNL     1     -33.273   8.840   3.243  1.00 20.00    -0.170 F 
HETATM    9  F9  UNL     1     -32.361   9.123   5.206  1.00 20.00    -0.170 F 
HETATM   10  F10 UNL     1     -31.482   7.716   3.786  1.00 20.00    -0.170 F 
ENDBRANCH   5   7
TORSDOF 1
ENDMDL
