MODEL 1
REMARK VINA RESULT:      -5.6      0.000      0.000
REMARK  1 active torsions:
REMARK  status: ('A' for Active; 'I' for Inactive)
REMARK    1  A    between atoms: C1_1  and  C6_6 
ROOT
HETATM    1  C1  UNL     1     -33.688   7.011   4.472  1.00 20.00    -0.029 A 
HETATM    2  C2  UNL     1     -32.956   6.690   3.391  1.00 20.00     0.168 A 
HETATM    3  C3  UNL     1     -33.057   8.371   4.628  1.00 20.00     0.124 A 
HETATM    4  C7  UNL     1     -32.199   8.012   3.390  1.00 20.00     0.300 A 
HETATM    5  F8  UNL     1     -32.903   5.608   2.603  1.00 20.00    -0.204 F 
HETATM    6  F9  UNL     1     -30.864   7.974   3.620  1.00 20.00    -0.198 F 
HETATM    7  F10 UNL     1     -32.370   8.836   2.328  1.00 20.00    -0.198 F 
ENDROOT
BRANCH   1   8
HETATM    8  C6  UNL     1     -34.772   6.240   5.235  1.00 20.00     0.018 A 
HETATM    9  C4  UNL     1     -34.837   4.714   5.315  1.00 20.00     0.010 A 
HETATM   10  C5  UNL     1     -34.531   5.503   6.553  1.00 20.00     0.010 A 
ENDBRANCH   1   8
TORSDOF 1
ENDMDL
MODEL 2
REMARK VINA RESULT:      -5.3      1.058      1.963
REMARK  1 active torsions:
REMARK  status: ('A' for Active; 'I' for Inactive)
REMARK    1  A    between atoms: C1_1  and  C6_6 
ROOT
HETATM    1  C1  UNL     1     -33.645   6.752   4.287  1.00 20.00    -0.029 A 
HETATM    2  C2  UNL     1     -33.088   7.972   4.390  1.00 20.00     0.168 A 
HETATM    3  C3  UNL     1     -32.809   6.353   3.099  1.00 20.00     0.124 A 
HETATM    4  C7  UNL     1     -32.164   7.757   3.197  1.00 20.00     0.300 A 
HETATM    5  F8  UNL     1     -33.275   9.002   5.225  1.00 20.00    -0.204 F 
HETATM    6  F9  UNL     1     -32.349   8.541   2.108  1.00 20.00    -0.198 F 
HETATM    7  F10 UNL     1     -30.829   7.751   3.427  1.00 20.00    -0.198 F 
ENDROOT
BRANCH   1   8
HETATM    8  C6  UNL     1     -34.735   6.057   5.112  1.00 20.00     0.018 A 
HETATM    9  C4  UNL     1     -34.492   4.815   5.970  1.00 20.00     0.010 A 
HETATM   10  C5  UNL     1     -34.821   6.116   6.638  1.00 20.00     0.010 A 
ENDBRANCH   1   8
TORSDOF 1
ENDMDL
MODEL 3
REMARK VINA RESULT:      -5.2      2.086      4.026
REMARK  1 active torsions:
REMARK  status: ('A' for Active; 'I' for Inactive)
REMARK    1  A    between atoms: C1_1  and  C6_6 
ROOT
HETATM    1  C1  UNL     1     -33.231   6.876   4.124  1.00 20.00    -0.029 A 
HETATM    2  C2  UNL     1     -33.643   5.623   3.864  1.00 20.00     0.168 A 
HETATM    3  C3  UNL     1     -34.104   7.026   5.342  1.00 20.00     0.124 A 
HETATM    4  C7  UNL     1     -34.598   5.587   5.051  1.00 20.00     0.300 A 
HETATM    5  F8  UNL     1     -33.337   4.731   2.912  1.00 20.00    -0.204 F 
HETATM    6  F9  UNL     1     -35.924   5.487   4.791  1.00 20.00    -0.198 F 
HETATM    7  F10 UNL     1     -34.344   4.694   6.038  1.00 20.00    -0.198 F 
ENDROOT
BRANCH   1   8
HETATM    8  C6  UNL     1     -32.223   7.786   3.410  1.00 20.00     0.018 A 
HETATM    9  C4  UNL     1     -32.105   7.901   1.890  1.00 20.00     0.010 A 
HETATM   10  C5  UNL     1     -32.601   9.076   2.681  1.00 20.00     0.010 A 
ENDBRANCH   1   8
TORSDOF 1
ENDMDL
MODEL 4
REMARK VINA RESULT:      -5.1      2.353      4.240
REMARK  1 active torsions:
REMARK  status: ('A' for Active; 'I' for Inactive)
REMARK    1  A    between atoms: C1_1  and  C6_6 
ROOT
HETATM    1  C1  UNL     1     -33.226   6.794   3.998  1.00 20.00    -0.029 A 
HETATM    2  C2  UNL     1     -33.965   6.947   5.111  1.00 20.00     0.168 A 
HETATM    3  C3  UNL     1     -33.782   5.429   3.687  1.00 20.00     0.124 A 
HETATM    4  C7  UNL     1     -34.633   5.584   4.971  1.00 20.00     0.300 A 
HETATM    5  F8  UNL     1     -34.076   7.929   6.015  1.00 20.00    -0.204 F 
HETATM    6  F9  UNL     1     -34.385   4.659   5.929  1.00 20.00    -0.198 F 
HETATM    7  F10 UNL     1     -35.973   5.557   4.767  1.00 20.00    -0.198 F 
ENDROOT
BRANCH   1   8
HETATM    8  C6  UNL     1     -32.201   7.712   3.321  1.00 20.00     0.018 A 
HETATM    9  C4  UNL     1     -32.091   7.899   1.808  1.00 20.00     0.010 A 
HETATM   10  C5  UNL     1     -32.552   9.045   2.659  1.00 20.00     0.010 A 
ENDBRANCH   1   8
TORSDOF 1
ENDMDL
MODEL 5
REMARK VINA RESULT:      -4.8      1.712      2.286
REMARK  1 active torsions:
REMARK  status: ('A' for Active; 'I' for Inactive)
REMARK    1  A    between atoms: C1_1  and  C6_6 
ROOT
HETATM    1  C1  UNL     1     -33.344   6.950   4.257  1.00 20.00    -0.029 A 
HETATM    2  C2  UNL     1     -33.449   8.087   4.968  1.00 20.00     0.168 A 
HETATM    3  C3  UNL     1     -32.179   7.442   3.438  1.00 20.00     0.124 A 
HETATM    4  C7  UNL     1     -32.292   8.762   4.240  1.00 20.00     0.300 A 
HETATM    5  F8  UNL     1     -34.267   8.487   5.950  1.00 20.00    -0.204 F 
HETATM    6  F9  UNL     1     -32.572   9.856   3.491  1.00 20.00    -0.198 F 
HETATM    7  F10 UNL     1     -31.191   9.079   4.963  1.00 20.00    -0.198 F 
ENDROOT
BRANCH   1   8
HETATM    8  C6  UNL     1     -34.143   5.642   4.304  1.00 20.00     0.018 A 
HETATM    9  C4  UNL     1     -34.664   5.007   5.594  1.00 20.00     0.010 A 
HETATM   10  C5  UNL     1     -35.641   5.564   4.602  1.00 20.00     0.010 A 
ENDBRANCH   1   8
TORSDOF 1
ENDMDL
MODEL 6
REMARK VINA RESULT:      -4.3      8.858      9.679
REMARK  1 active torsions:
REMARK  status: ('A' for Active; 'I' for Inactive)
REMARK    1  A    between atoms: C1_1  and  C6_6 
ROOT
HETATM    1  C1  UNL     1     -40.196  13.055   6.408  1.00 20.00    -0.029 A 
HETATM    2  C2  UNL     1     -40.336  12.886   5.081  1.00 20.00     0.168 A 
HETATM    3  C3  UNL     1     -39.156  11.974   6.545  1.00 20.00     0.124 A 
HETATM    4  C7  UNL     1     -39.312  11.759   5.020  1.00 20.00     0.300 A 
HETATM    5  F8  UNL     1     -41.095  13.481   4.152  1.00 20.00    -0.204 F 
HETATM    6  F9  UNL     1     -39.752  10.527   4.666  1.00 20.00    -0.198 F 
HETATM    7  F10 UNL     1     -38.183  11.970   4.302  1.00 20.00    -0.198 F 
ENDROOT
BRANCH   1   8
HETATM    8  C6  UNL     1     -40.871  14.023   7.388  1.00 20.00     0.018 A 
HETATM    9  C4  UNL     1     -40.289  14.399   8.752  1.00 20.00     0.010 A 
HETATM   10  C5  UNL     1     -40.368  15.439   7.675  1.00 20.00     0.010 A 
ENDBRANCH   1   8
TORSDOF 1
ENDMDL
MODEL 7
REMARK VINA RESULT:      -4.2     11.810     12.442
REMARK  1 active torsions:
REMARK  status: ('A' for Active; 'I' for Inactive)
REMARK    1  A    between atoms: C1_1  and  C6_6 
ROOT
HETATM    1  C1  UNL     1     -32.325  18.520  -0.023  1.00 20.00    -0.029 A 
HETATM    2  C2  UNL     1     -33.578  18.038   0.056  1.00 20.00     0.168 A 
HETATM    3  C3  UNL     1     -32.172  18.184  -1.483  1.00 20.00     0.124 A 
HETATM    4  C7  UNL     1     -33.610  17.615  -1.408  1.00 20.00     0.300 A 
HETATM    5  F8  UNL     1     -34.472  17.953   1.050  1.00 20.00    -0.204 F 
HETATM    6  F9  UNL     1     -33.708  16.291  -1.679  1.00 20.00    -0.198 F 
HETATM    7  F10 UNL     1     -34.503  18.228  -2.222  1.00 20.00    -0.198 F 
ENDROOT
BRANCH   1   8
HETATM    8  C6  UNL     1     -31.418  19.177   1.026  1.00 20.00     0.018 A 
HETATM    9  C4  UNL     1     -31.681  19.128   2.531  1.00 20.00     0.010 A 
HETATM   10  C5  UNL     1     -30.497  18.400   1.968  1.00 20.00     0.010 A 
ENDBRANCH   1   8
TORSDOF 1
ENDMDL
MODEL 8
REMARK VINA RESULT:      -4.2     11.931     12.883
REMARK  1 active torsions:
REMARK  status: ('A' for Active; 'I' for Inactive)
REMARK    1  A    between atoms: C1_1  and  C6_6 
ROOT
HETATM    1  C1  UNL     1     -33.593  15.986  -3.773  1.00 20.00    -0.029 A 
HETATM    2  C2  UNL     1     -34.316  16.420  -4.821  1.00 20.00     0.168 A 
HETATM    3  C3  UNL     1     -33.625  14.544  -4.211  1.00 20.00     0.124 A 
HETATM    4  C7  UNL     1     -34.467  15.026  -5.418  1.00 20.00     0.300 A 
HETATM    5  F8  UNL     1     -34.750  17.628  -5.203  1.00 20.00    -0.204 F 
HETATM    6  F9  UNL     1     -35.714  14.500  -5.482  1.00 20.00    -0.198 F 
HETATM    7  F10 UNL     1     -33.903  14.793  -6.628  1.00 20.00    -0.198 F 
ENDROOT
BRANCH   1   8
HETATM    8  C6  UNL     1     -32.971  16.731  -2.585  1.00 20.00     0.018 A 
HETATM    9  C4  UNL     1     -33.087  18.240  -2.370  1.00 20.00     0.010 A 
HETATM   10  C5  UNL     1     -33.777  17.307  -1.420  1.00 20.00     0.010 A 
ENDBRANCH   1   8
TORSDOF 1
ENDMDL
MODEL 9
REMARK VINA RESULT:      -4.2      8.747      9.535
REMARK  1 active torsions:
REMARK  status: ('A' for Active; 'I' for Inactive)
REMARK    1  A    between atoms: C1_1  and  C6_6 
ROOT
HETATM    1  C1  UNL     1     -40.274  13.114   6.315  1.00 20.00    -0.029 A 
HETATM    2  C2  UNL     1     -39.277  12.219   6.430  1.00 20.00     0.168 A 
HETATM    3  C3  UNL     1     -40.525  12.810   4.861  1.00 20.00     0.124 A 
HETATM    4  C7  UNL     1     -39.372  11.783   4.972  1.00 20.00     0.300 A 
HETATM    5  F8  UNL     1     -38.485  11.847   7.443  1.00 20.00    -0.204 F 
HETATM    6  F9  UNL     1     -38.311  12.035   4.168  1.00 20.00    -0.198 F 
HETATM    7  F10 UNL     1     -39.732  10.501   4.720  1.00 20.00    -0.198 F 
ENDROOT
BRANCH   1   8
HETATM    8  C6  UNL     1     -40.903  14.074   7.333  1.00 20.00     0.018 A 
HETATM    9  C4  UNL     1     -40.269  14.424   8.680  1.00 20.00     0.010 A 
HETATM   10  C5  UNL     1     -40.376  15.481   7.621  1.00 20.00     0.010 A 
ENDBRANCH   1   8
TORSDOF 1
ENDMDL
