MODEL 1
REMARK VINA RESULT:      -6.5      0.000      0.000
REMARK  0 active torsions:
REMARK  status: ('A' for Active; 'I' for Inactive)
ROOT
HETATM    1  C1  UNL     1     -34.238   7.465   5.208  1.00 20.00     0.022 A 
HETATM    2  C2  UNL     1     -33.750   5.541   3.661  1.00 20.00     0.022 A 
HETATM    3  C3  UNL     1     -33.260   8.176   4.627  1.00 20.00     0.054 A 
HETATM    4  C4  UNL     1     -32.773   6.256   3.083  1.00 20.00     0.054 A 
HETATM    5  C5  UNL     1     -34.587   6.054   4.807  1.00 20.00     0.135 A 
HETATM    6  C6  UNL     1     -32.408   7.646   3.513  1.00 20.00     0.280 A 
HETATM    7  C7  UNL     1     -34.443   5.122   6.010  1.00 20.00     0.061 C 
HETATM    8  F8  UNL     1     -35.902   6.020   4.433  1.00 20.00    -0.234 F 
HETATM    9  F9  UNL     1     -31.099   7.674   3.892  1.00 20.00    -0.197 F 
HETATM   10  F10 UNL     1     -32.494   8.485   2.442  1.00 20.00    -0.197 F 
ENDROOT
TORSDOF 0
ENDMDL
MODEL 2
REMARK VINA RESULT:      -6.2      0.943      3.645
REMARK  0 active torsions:
REMARK  status: ('A' for Active; 'I' for Inactive)
ROOT
HETATM    1  C1  UNL     1     -33.193   7.942   5.059  1.00 20.00     0.022 A 
HETATM    2  C2  UNL     1     -32.776   6.423   3.096  1.00 20.00     0.022 A 
HETATM    3  C3  UNL     1     -34.097   7.073   5.535  1.00 20.00     0.054 A 
HETATM    4  C4  UNL     1     -33.680   5.557   3.576  1.00 20.00     0.054 A 
HETATM    5  C5  UNL     1     -32.437   7.730   3.770  1.00 20.00     0.135 A 
HETATM    6  C6  UNL     1     -34.453   5.793   4.839  1.00 20.00     0.280 A 
HETATM    7  C7  UNL     1     -32.708   8.891   2.814  1.00 20.00     0.061 C 
HETATM    8  F8  UNL     1     -31.098   7.744   4.043  1.00 20.00    -0.234 F 
HETATM    9  F9  UNL     1     -35.788   5.786   4.561  1.00 20.00    -0.197 F 
HETATM   10  F10 UNL     1     -34.254   4.747   5.691  1.00 20.00    -0.197 F 
ENDROOT
TORSDOF 0
ENDMDL
MODEL 3
REMARK VINA RESULT:      -5.9      1.021      2.153
REMARK  0 active torsions:
REMARK  status: ('A' for Active; 'I' for Inactive)
ROOT
HETATM    1  C1  UNL     1     -33.517   5.657   3.464  1.00 20.00     0.022 A 
HETATM    2  C2  UNL     1     -33.991   7.017   5.528  1.00 20.00     0.022 A 
HETATM    3  C3  UNL     1     -32.646   6.591   3.053  1.00 20.00     0.054 A 
HETATM    4  C4  UNL     1     -33.119   7.947   5.113  1.00 20.00     0.054 A 
HETATM    5  C5  UNL     1     -34.310   5.768   4.743  1.00 20.00     0.135 A 
HETATM    6  C6  UNL     1     -32.362   7.846   3.822  1.00 20.00     0.280 A 
HETATM    7  C7  UNL     1     -35.806   5.720   4.431  1.00 20.00     0.061 C 
HETATM    8  F8  UNL     1     -34.031   4.681   5.523  1.00 20.00    -0.234 F 
HETATM    9  F9  UNL     1     -32.649   8.928   3.044  1.00 20.00    -0.197 F 
HETATM   10  F10 UNL     1     -31.025   7.925   4.077  1.00 20.00    -0.197 F 
ENDROOT
TORSDOF 0
ENDMDL
MODEL 4
REMARK VINA RESULT:      -5.4      1.716      3.807
REMARK  0 active torsions:
REMARK  status: ('A' for Active; 'I' for Inactive)
ROOT
HETATM    1  C1  UNL     1     -34.221   6.282   3.892  1.00 20.00     0.022 A 
HETATM    2  C2  UNL     1     -33.208   7.825   5.604  1.00 20.00     0.022 A 
HETATM    3  C3  UNL     1     -34.636   5.470   4.875  1.00 20.00     0.054 A 
HETATM    4  C4  UNL     1     -33.626   7.010   6.583  1.00 20.00     0.054 A 
HETATM    5  C5  UNL     1     -33.438   7.549   4.138  1.00 20.00     0.135 A 
HETATM    6  C6  UNL     1     -34.371   5.734   6.328  1.00 20.00     0.280 A 
HETATM    7  C7  UNL     1     -32.097   7.480   3.407  1.00 20.00     0.061 C 
HETATM    8  F8  UNL     1     -34.130   8.599   3.601  1.00 20.00    -0.234 F 
HETATM    9  F9  UNL     1     -33.675   4.688   6.857  1.00 20.00    -0.197 F 
HETATM   10  F10 UNL     1     -35.555   5.761   7.004  1.00 20.00    -0.197 F 
ENDROOT
TORSDOF 0
ENDMDL
MODEL 5
REMARK VINA RESULT:      -4.7      1.891      2.478
REMARK  0 active torsions:
REMARK  status: ('A' for Active; 'I' for Inactive)
ROOT
HETATM    1  C1  UNL     1     -32.689   7.649   3.982  1.00 20.00     0.022 A 
HETATM    2  C2  UNL     1     -34.525   6.105   4.744  1.00 20.00     0.022 A 
HETATM    3  C3  UNL     1     -32.351   6.770   3.026  1.00 20.00     0.054 A 
HETATM    4  C4  UNL     1     -34.184   5.230   3.787  1.00 20.00     0.054 A 
HETATM    5  C5  UNL     1     -33.805   7.412   4.969  1.00 20.00     0.135 A 
HETATM    6  C6  UNL     1     -33.049   5.457   2.833  1.00 20.00     0.280 A 
HETATM    7  C7  UNL     1     -33.255   7.461   6.395  1.00 20.00     0.061 C 
HETATM    8  F8  UNL     1     -34.709   8.431   4.857  1.00 20.00    -0.234 F 
HETATM    9  F9  UNL     1     -32.146   4.443   2.953  1.00 20.00    -0.197 F 
HETATM   10  F10 UNL     1     -33.514   5.379   1.553  1.00 20.00    -0.197 F 
ENDROOT
TORSDOF 0
ENDMDL
MODEL 6
REMARK VINA RESULT:      -4.5      1.970      3.156
REMARK  0 active torsions:
REMARK  status: ('A' for Active; 'I' for Inactive)
ROOT
HETATM    1  C1  UNL     1     -34.476   4.950   4.851  1.00 20.00     0.022 A 
HETATM    2  C2  UNL     1     -33.472   7.098   4.007  1.00 20.00     0.022 A 
HETATM    3  C3  UNL     1     -34.380   5.403   6.110  1.00 20.00     0.054 A 
HETATM    4  C4  UNL     1     -33.379   7.547   5.267  1.00 20.00     0.054 A 
HETATM    5  C5  UNL     1     -34.014   5.736   3.649  1.00 20.00     0.135 A 
HETATM    6  C6  UNL     1     -33.806   6.744   6.460  1.00 20.00     0.280 A 
HETATM    7  C7  UNL     1     -32.954   4.941   2.886  1.00 20.00     0.061 C 
HETATM    8  F8  UNL     1     -35.075   5.899   2.802  1.00 20.00    -0.234 F 
HETATM    9  F9  UNL     1     -32.744   6.577   7.298  1.00 20.00    -0.197 F 
HETATM   10  F10 UNL     1     -34.725   7.454   7.175  1.00 20.00    -0.197 F 
ENDROOT
TORSDOF 0
ENDMDL
MODEL 7
REMARK VINA RESULT:      -4.4      1.908      2.940
REMARK  0 active torsions:
REMARK  status: ('A' for Active; 'I' for Inactive)
ROOT
HETATM    1  C1  UNL     1     -34.251   6.150   5.009  1.00 20.00     0.022 A 
HETATM    2  C2  UNL     1     -32.438   7.640   4.101  1.00 20.00     0.022 A 
HETATM    3  C3  UNL     1     -34.117   5.344   3.946  1.00 20.00     0.054 A 
HETATM    4  C4  UNL     1     -32.306   6.831   3.040  1.00 20.00     0.054 A 
HETATM    5  C5  UNL     1     -33.440   7.407   5.205  1.00 20.00     0.135 A 
HETATM    6  C6  UNL     1     -33.143   5.603   2.835  1.00 20.00     0.280 A 
HETATM    7  C7  UNL     1     -34.373   8.613   5.320  1.00 20.00     0.061 C 
HETATM    8  F8  UNL     1     -32.767   7.311   6.391  1.00 20.00    -0.234 F 
HETATM    9  F9  UNL     1     -33.818   5.706   1.656  1.00 20.00    -0.197 F 
HETATM   10  F10 UNL     1     -32.326   4.521   2.692  1.00 20.00    -0.197 F 
ENDROOT
TORSDOF 0
ENDMDL
MODEL 8
REMARK VINA RESULT:      -4.1      8.791      9.466
REMARK  0 active torsions:
REMARK  status: ('A' for Active; 'I' for Inactive)
ROOT
HETATM    1  C1  UNL     1     -41.244   5.388  -0.244  1.00 20.00     0.022 A 
HETATM    2  C2  UNL     1     -42.787   6.415   1.458  1.00 20.00     0.022 A 
HETATM    3  C3  UNL     1     -40.881   6.613  -0.650  1.00 20.00     0.054 A 
HETATM    4  C4  UNL     1     -42.421   7.639   1.049  1.00 20.00     0.054 A 
HETATM    5  C5  UNL     1     -42.257   5.141   0.847  1.00 20.00     0.135 A 
HETATM    6  C6  UNL     1     -41.441   7.874  -0.062  1.00 20.00     0.280 A 
HETATM    7  C7  UNL     1     -43.415   4.308   0.299  1.00 20.00     0.061 C 
HETATM    8  F8  UNL     1     -41.665   4.401   1.832  1.00 20.00    -0.234 F 
HETATM    9  F9  UNL     1     -42.037   8.606  -1.045  1.00 20.00    -0.197 F 
HETATM   10  F10 UNL     1     -40.417   8.649   0.398  1.00 20.00    -0.197 F 
ENDROOT
TORSDOF 0
ENDMDL
MODEL 9
REMARK VINA RESULT:      -4.1     11.496     12.828
REMARK  0 active torsions:
REMARK  status: ('A' for Active; 'I' for Inactive)
ROOT
HETATM    1  C1  UNL     1     -35.403  14.282  -5.020  1.00 20.00     0.022 A 
HETATM    2  C2  UNL     1     -35.124  16.755  -5.399  1.00 20.00     0.022 A 
HETATM    3  C3  UNL     1     -34.392  14.306  -4.139  1.00 20.00     0.054 A 
HETATM    4  C4  UNL     1     -34.114  16.774  -4.517  1.00 20.00     0.054 A 
HETATM    5  C5  UNL     1     -35.878  15.502  -5.771  1.00 20.00     0.135 A 
HETATM    6  C6  UNL     1     -33.625  15.550  -3.801  1.00 20.00     0.280 A 
HETATM    7  C7  UNL     1     -35.766  15.259  -7.276  1.00 20.00     0.061 C 
HETATM    8  F8  UNL     1     -37.203  15.694  -5.496  1.00 20.00    -0.234 F 
HETATM    9  F9  UNL     1     -32.305  15.357  -4.084  1.00 20.00    -0.197 F 
HETATM   10  F10 UNL     1     -33.681  15.762  -2.456  1.00 20.00    -0.197 F 
ENDROOT
TORSDOF 0
ENDMDL
