MODEL 1
REMARK VINA RESULT:      -3.6      0.000      0.000
REMARK  0 active torsions:
REMARK  status: ('A' for Active; 'I' for Inactive)
ROOT
HETATM    1  C1  UNL     1     -32.860   9.590   1.318  1.00 20.00     0.013 C 
HETATM    2  C2  UNL     1     -32.757   8.816   2.230  1.00 20.00    -0.106 C 
HETATM    3  C3  UNL     1     -32.008   8.403   4.604  1.00 20.00     0.041 A 
HETATM    4  C4  UNL     1     -33.493   8.180   4.547  1.00 20.00     0.079 A 
HETATM    5  C5  UNL     1     -32.634   7.887   3.327  1.00 20.00     0.033 A 
HETATM    6  C6  UNL     1     -32.317   6.476   2.911  1.00 20.00     0.030 C 
HETATM    7 BR7  UNL     1     -34.238   6.771   5.599  1.00 20.00    -0.089 Br
ENDROOT
TORSDOF 0
ENDMDL
MODEL 2
REMARK VINA RESULT:      -3.6     14.600     15.349
REMARK  0 active torsions:
REMARK  status: ('A' for Active; 'I' for Inactive)
ROOT
HETATM    1  C1  UNL     1     -22.392  17.367   9.053  1.00 20.00     0.013 C 
HETATM    2  C2  UNL     1     -23.051  17.411  10.055  1.00 20.00    -0.106 C 
HETATM    3  C3  UNL     1     -23.409  18.441  12.331  1.00 20.00     0.041 A 
HETATM    4  C4  UNL     1     -24.615  18.755  11.491  1.00 20.00     0.079 A 
HETATM    5  C5  UNL     1     -23.844  17.466  11.259  1.00 20.00     0.033 A 
HETATM    6  C6  UNL     1     -24.390  16.134  11.703  1.00 20.00     0.030 C 
HETATM    7 BR7  UNL     1     -26.330  18.750  12.331  1.00 20.00    -0.089 Br
ENDROOT
TORSDOF 0
ENDMDL
MODEL 3
REMARK VINA RESULT:      -3.5     14.733     15.594
REMARK  0 active torsions:
REMARK  status: ('A' for Active; 'I' for Inactive)
ROOT
HETATM    1  C1  UNL     1     -24.485  16.213  11.587  1.00 20.00     0.013 C 
HETATM    2  C2  UNL     1     -23.943  17.002  10.861  1.00 20.00    -0.106 C 
HETATM    3  C3  UNL     1     -21.957  18.500  10.441  1.00 20.00     0.041 A 
HETATM    4  C4  UNL     1     -22.001  17.478   9.341  1.00 20.00     0.079 A 
HETATM    5  C5  UNL     1     -23.292  17.949   9.990  1.00 20.00     0.033 A 
HETATM    6  C6  UNL     1     -24.232  18.885   9.278  1.00 20.00     0.030 C 
HETATM    7 BR7  UNL     1     -21.518  18.024   7.576  1.00 20.00    -0.089 Br
ENDROOT
TORSDOF 0
ENDMDL
MODEL 4
REMARK VINA RESULT:      -3.5     14.900     15.918
REMARK  0 active torsions:
REMARK  status: ('A' for Active; 'I' for Inactive)
ROOT
HETATM    1  C1  UNL     1     -21.293  18.922   8.847  1.00 20.00     0.013 C 
HETATM    2  C2  UNL     1     -22.031  18.669   9.759  1.00 20.00    -0.106 C 
HETATM    3  C3  UNL     1     -24.376  18.738  10.689  1.00 20.00     0.041 A 
HETATM    4  C4  UNL     1     -23.965  17.296  10.587  1.00 20.00     0.079 A 
HETATM    5  C5  UNL     1     -22.919  18.366  10.854  1.00 20.00     0.033 A 
HETATM    6  C6  UNL     1     -22.303  18.537  12.218  1.00 20.00     0.030 C 
HETATM    7 BR7  UNL     1     -24.532  16.094  11.958  1.00 20.00    -0.089 Br
ENDROOT
TORSDOF 0
ENDMDL
MODEL 5
REMARK VINA RESULT:      -3.4      9.158     10.224
REMARK  0 active torsions:
REMARK  status: ('A' for Active; 'I' for Inactive)
ROOT
HETATM    1  C1  UNL     1     -43.341  12.137   7.442  1.00 20.00     0.013 C 
HETATM    2  C2  UNL     1     -42.396  12.485   6.788  1.00 20.00    -0.106 C 
HETATM    3  C3  UNL     1     -39.951  13.108   6.733  1.00 20.00     0.041 A 
HETATM    4  C4  UNL     1     -40.133  11.890   5.873  1.00 20.00     0.079 A 
HETATM    5  C5  UNL     1     -41.260  12.902   6.003  1.00 20.00     0.033 A 
HETATM    6  C6  UNL     1     -41.595  13.851   4.883  1.00 20.00     0.030 C 
HETATM    7 BR7  UNL     1     -39.102  11.750   4.272  1.00 20.00    -0.089 Br
ENDROOT
TORSDOF 0
ENDMDL
MODEL 6
REMARK VINA RESULT:      -3.4      9.225     10.061
REMARK  0 active torsions:
REMARK  status: ('A' for Active; 'I' for Inactive)
ROOT
HETATM    1  C1  UNL     1     -39.171  11.632   4.411  1.00 20.00     0.013 C 
HETATM    2  C2  UNL     1     -39.982  12.359   4.916  1.00 20.00    -0.106 C 
HETATM    3  C3  UNL     1     -41.693  12.710   6.738  1.00 20.00     0.041 A 
HETATM    4  C4  UNL     1     -40.617  13.744   6.915  1.00 20.00     0.079 A 
HETATM    5  C5  UNL     1     -40.957  13.232   5.524  1.00 20.00     0.033 A 
HETATM    6  C6  UNL     1     -41.730  14.075   4.545  1.00 20.00     0.030 C 
HETATM    7 BR7  UNL     1     -41.127  15.494   7.482  1.00 20.00    -0.089 Br
ENDROOT
TORSDOF 0
ENDMDL
MODEL 7
REMARK VINA RESULT:      -3.2      1.673      2.646
REMARK  0 active torsions:
REMARK  status: ('A' for Active; 'I' for Inactive)
ROOT
HETATM    1  C1  UNL     1     -32.016   7.287   2.433  1.00 20.00     0.013 C 
HETATM    2  C2  UNL     1     -32.794   7.191   3.343  1.00 20.00    -0.106 C 
HETATM    3  C3  UNL     1     -35.125   6.597   4.104  1.00 20.00     0.041 A 
HETATM    4  C4  UNL     1     -34.168   5.662   4.788  1.00 20.00     0.079 A 
HETATM    5  C5  UNL     1     -33.729   7.074   4.435  1.00 20.00     0.033 A 
HETATM    6  C6  UNL     1     -33.584   8.138   5.491  1.00 20.00     0.030 C 
HETATM    7 BR7  UNL     1     -34.531   5.156   6.593  1.00 20.00    -0.089 Br
ENDROOT
TORSDOF 0
ENDMDL
MODEL 8
REMARK VINA RESULT:      -3.2      2.258      3.095
REMARK  0 active torsions:
REMARK  status: ('A' for Active; 'I' for Inactive)
ROOT
HETATM    1  C1  UNL     1     -32.213   9.162   4.812  1.00 20.00     0.013 C 
HETATM    2  C2  UNL     1     -32.939   8.220   4.978  1.00 20.00    -0.106 C 
HETATM    3  C3  UNL     1     -34.960   6.921   4.207  1.00 20.00     0.041 A 
HETATM    4  C4  UNL     1     -33.766   6.016   4.101  1.00 20.00     0.079 A 
HETATM    5  C5  UNL     1     -33.812   7.089   5.177  1.00 20.00     0.033 A 
HETATM    6  C6  UNL     1     -34.058   6.742   6.621  1.00 20.00     0.030 C 
HETATM    7 BR7  UNL     1     -33.989   4.168   4.530  1.00 20.00    -0.089 Br
ENDROOT
TORSDOF 0
ENDMDL
MODEL 9
REMARK VINA RESULT:      -3.2     10.811     11.753
REMARK  0 active torsions:
REMARK  status: ('A' for Active; 'I' for Inactive)
ROOT
HETATM    1  C1  UNL     1     -33.258  14.782  -4.207  1.00 20.00     0.013 C 
HETATM    2  C2  UNL     1     -33.469  15.842  -3.685  1.00 20.00    -0.106 C 
HETATM    3  C3  UNL     1     -33.315  18.357  -3.821  1.00 20.00     0.041 A 
HETATM    4  C4  UNL     1     -34.769  17.992  -3.727  1.00 20.00     0.079 A 
HETATM    5  C5  UNL     1     -33.721  17.116  -3.058  1.00 20.00     0.033 A 
HETATM    6  C6  UNL     1     -33.534  17.120  -1.564  1.00 20.00     0.030 C 
HETATM    7 BR7  UNL     1     -35.922  19.120  -2.705  1.00 20.00    -0.089 Br
ENDROOT
TORSDOF 0
ENDMDL
