MODEL 1
REMARK VINA RESULT:      -5.1      0.000      0.000
REMARK  1 active torsions:
REMARK  status: ('A' for Active; 'I' for Inactive)
REMARK    1  A    between atoms: C9_9  and  C10_10 
ROOT
HETATM    1  C1  UNL     1     -33.534  17.461  -1.962  1.00 20.00     0.001 A 
HETATM    2  C2  UNL     1     -34.428  18.498  -2.489  1.00 20.00     0.001 A 
HETATM    3  C3  UNL     1     -33.256  16.334  -2.650  1.00 20.00     0.012 A 
HETATM    4  C4  UNL     1     -35.024  18.386  -3.695  1.00 20.00     0.012 A 
HETATM    5  C5  UNL     1     -33.775  15.162  -4.829  1.00 20.00     0.009 A 
HETATM    6  C6  UNL     1     -35.213  16.829  -5.679  1.00 20.00     0.009 A 
HETATM    7  C7  UNL     1     -33.869  16.166  -3.946  1.00 20.00    -0.028 A 
HETATM    8  C8  UNL     1     -34.759  17.199  -4.472  1.00 20.00    -0.028 A 
HETATM    9  C10 UNL     1     -34.615  15.490  -6.040  1.00 20.00     0.082 A 
HETATM   10  C11 UNL     1     -33.814  15.524  -7.331  1.00 20.00     0.035 C 
ENDROOT
BRANCH   9  11
HETATM   11  C9  UNL     1     -35.737  14.478  -6.129  1.00 20.00     0.189 C 
HETATM   12  O12 UNL     1     -36.101  13.978  -5.030  1.00 20.00    -0.647 OA
HETATM   13  O13 UNL     1     -36.166  14.265  -7.299  1.00 20.00    -0.647 OA
ENDBRANCH   9  11
TORSDOF 1
ENDMDL
MODEL 2
REMARK VINA RESULT:      -4.8      0.920      1.075
REMARK  1 active torsions:
REMARK  status: ('A' for Active; 'I' for Inactive)
REMARK    1  A    between atoms: C9_9  and  C10_10 
ROOT
HETATM    1  C1  UNL     1     -33.510  17.133  -1.859  1.00 20.00     0.001 A 
HETATM    2  C2  UNL     1     -34.417  18.276  -2.005  1.00 20.00     0.001 A 
HETATM    3  C3  UNL     1     -33.338  16.222  -2.839  1.00 20.00     0.012 A 
HETATM    4  C4  UNL     1     -35.134  18.484  -3.129  1.00 20.00     0.012 A 
HETATM    5  C5  UNL     1     -34.109  15.659  -5.180  1.00 20.00     0.009 A 
HETATM    6  C6  UNL     1     -35.569  17.497  -5.416  1.00 20.00     0.009 A 
HETATM    7  C7  UNL     1     -34.082  16.400  -4.063  1.00 20.00    -0.028 A 
HETATM    8  C8  UNL     1     -34.986  17.538  -4.209  1.00 20.00    -0.028 A 
HETATM    9  C10 UNL     1     -35.054  16.294  -6.171  1.00 20.00     0.082 A 
HETATM   10  C11 UNL     1     -34.385  16.658  -7.486  1.00 20.00     0.035 C 
ENDROOT
BRANCH   9  11
HETATM   11  C9  UNL     1     -36.212  15.346  -6.400  1.00 20.00     0.189 C 
HETATM   12  O12 UNL     1     -35.916  14.262  -6.974  1.00 20.00    -0.647 OA
HETATM   13  O13 UNL     1     -37.329  15.764  -5.984  1.00 20.00    -0.647 OA
ENDBRANCH   9  11
TORSDOF 1
ENDMDL
MODEL 3
REMARK VINA RESULT:      -4.6      1.371      2.456
REMARK  1 active torsions:
REMARK  status: ('A' for Active; 'I' for Inactive)
REMARK    1  A    between atoms: C9_9  and  C10_10 
ROOT
HETATM    1  C1  UNL     1     -34.472  18.396  -2.336  1.00 20.00     0.001 A 
HETATM    2  C2  UNL     1     -33.496  17.363  -1.973  1.00 20.00     0.001 A 
HETATM    3  C3  UNL     1     -35.173  18.348  -3.488  1.00 20.00     0.012 A 
HETATM    4  C4  UNL     1     -33.242  16.304  -2.769  1.00 20.00     0.012 A 
HETATM    5  C5  UNL     1     -35.483  16.940  -5.565  1.00 20.00     0.009 A 
HETATM    6  C6  UNL     1     -33.912  15.279  -4.982  1.00 20.00     0.009 A 
HETATM    7  C7  UNL     1     -34.939  17.234  -4.375  1.00 20.00    -0.028 A 
HETATM    8  C8  UNL     1     -33.968  16.205  -4.014  1.00 20.00    -0.028 A 
HETATM    9  C10 UNL     1     -34.892  15.647  -6.071  1.00 20.00     0.082 A 
HETATM   10  C11 UNL     1     -35.936  14.572  -6.322  1.00 20.00     0.035 C 
ENDROOT
BRANCH   9  11
HETATM   11  C9  UNL     1     -34.110  15.942  -7.333  1.00 20.00     0.189 C 
HETATM   12  O12 UNL     1     -34.205  17.125  -7.762  1.00 20.00    -0.647 OA
HETATM   13  O13 UNL     1     -33.459  14.963  -7.794  1.00 20.00    -0.647 OA
ENDBRANCH   9  11
TORSDOF 1
ENDMDL
MODEL 4
REMARK VINA RESULT:      -4.5      2.921      5.032
REMARK  1 active torsions:
REMARK  status: ('A' for Active; 'I' for Inactive)
REMARK    1  A    between atoms: C9_9  and  C10_10 
ROOT
HETATM    1  C1  UNL     1     -34.771  15.927  -5.889  1.00 20.00     0.001 A 
HETATM    2  C2  UNL     1     -34.202  14.813  -5.124  1.00 20.00     0.001 A 
HETATM    3  C3  UNL     1     -34.793  17.189  -5.412  1.00 20.00     0.012 A 
HETATM    4  C4  UNL     1     -33.667  14.983  -3.897  1.00 20.00     0.012 A 
HETATM    5  C5  UNL     1     -34.126  18.558  -3.393  1.00 20.00     0.009 A 
HETATM    6  C6  UNL     1     -33.212  16.766  -2.162  1.00 20.00     0.009 A 
HETATM    7  C7  UNL     1     -34.232  17.426  -4.103  1.00 20.00    -0.028 A 
HETATM    8  C8  UNL     1     -33.665  16.316  -3.341  1.00 20.00    -0.028 A 
HETATM    9  C10 UNL     1     -33.446  18.256  -2.080  1.00 20.00     0.082 A 
HETATM   10  C11 UNL     1     -32.167  19.050  -1.873  1.00 20.00     0.035 C 
ENDROOT
BRANCH   9  11
HETATM   11  C9  UNL     1     -34.431  18.520  -0.962  1.00 20.00     0.189 C 
HETATM   12  O12 UNL     1     -35.502  19.090  -1.310  1.00 20.00    -0.647 OA
HETATM   13  O13 UNL     1     -34.053  18.135   0.180  1.00 20.00    -0.647 OA
ENDBRANCH   9  11
TORSDOF 1
ENDMDL
MODEL 5
REMARK VINA RESULT:      -4.1     12.531     13.483
REMARK  1 active torsions:
REMARK  status: ('A' for Active; 'I' for Inactive)
REMARK    1  A    between atoms: C9_9  and  C10_10 
ROOT
HETATM    1  C1  UNL     1     -41.774  17.898   6.666  1.00 20.00     0.001 A 
HETATM    2  C2  UNL     1     -40.980  17.662   7.876  1.00 20.00     0.001 A 
HETATM    3  C3  UNL     1     -42.216  16.888   5.889  1.00 20.00     0.012 A 
HETATM    4  C4  UNL     1     -40.643  16.421   8.284  1.00 20.00     0.012 A 
HETATM    5  C5  UNL     1     -42.181  14.366   5.704  1.00 20.00     0.009 A 
HETATM    6  C6  UNL     1     -40.903  13.986   7.650  1.00 20.00     0.009 A 
HETATM    7  C7  UNL     1     -41.883  15.539   6.281  1.00 20.00    -0.028 A 
HETATM    8  C8  UNL     1     -41.092  15.304   7.486  1.00 20.00    -0.028 A 
HETATM    9  C10 UNL     1     -41.596  13.247   6.530  1.00 20.00     0.082 A 
HETATM   10  C11 UNL     1     -42.641  12.261   7.025  1.00 20.00     0.035 C 
ENDROOT
BRANCH   9  11
HETATM   11  C9  UNL     1     -40.543  12.544   5.702  1.00 20.00     0.189 C 
HETATM   12  O12 UNL     1     -39.807  11.739   6.335  1.00 20.00    -0.647 OA
HETATM   13  O13 UNL     1     -40.537  12.855   4.477  1.00 20.00    -0.647 OA
ENDBRANCH   9  11
TORSDOF 1
ENDMDL
MODEL 6
REMARK VINA RESULT:      -4.0      2.433      4.021
REMARK  1 active torsions:
REMARK  status: ('A' for Active; 'I' for Inactive)
REMARK    1  A    between atoms: C9_9  and  C10_10 
ROOT
HETATM    1  C1  UNL     1     -31.551  18.870   0.768  1.00 20.00     0.001 A 
HETATM    2  C2  UNL     1     -32.891  18.709   1.342  1.00 20.00     0.001 A 
HETATM    3  C3  UNL     1     -31.326  18.799  -0.561  1.00 20.00     0.012 A 
HETATM    4  C4  UNL     1     -33.978  18.480   0.576  1.00 20.00     0.012 A 
HETATM    5  C5  UNL     1     -32.522  18.436  -2.759  1.00 20.00     0.009 A 
HETATM    6  C6  UNL     1     -34.677  18.176  -1.835  1.00 20.00     0.009 A 
HETATM    7  C7  UNL     1     -32.457  18.557  -1.425  1.00 20.00    -0.028 A 
HETATM    8  C8  UNL     1     -33.791  18.396  -0.853  1.00 20.00    -0.028 A 
HETATM    9  C10 UNL     1     -33.956  18.195  -3.162  1.00 20.00     0.082 A 
HETATM   10  C11 UNL     1     -34.493  19.247  -4.117  1.00 20.00     0.035 C 
ENDROOT
BRANCH   9  11
HETATM   11  C9  UNL     1     -34.053  16.814  -3.774  1.00 20.00     0.189 C 
HETATM   12  O12 UNL     1     -33.405  15.912  -3.176  1.00 20.00    -0.647 OA
HETATM   13  O13 UNL     1     -34.773  16.742  -4.810  1.00 20.00    -0.647 OA
ENDBRANCH   9  11
TORSDOF 1
ENDMDL
MODEL 7
REMARK VINA RESULT:      -4.0     13.264     14.450
REMARK  1 active torsions:
REMARK  status: ('A' for Active; 'I' for Inactive)
REMARK    1  A    between atoms: C9_9  and  C10_10 
ROOT
HETATM    1  C1  UNL     1     -42.394  14.190  10.386  1.00 20.00     0.001 A 
HETATM    2  C2  UNL     1     -43.361  13.128  10.091  1.00 20.00     0.001 A 
HETATM    3  C3  UNL     1     -41.494  14.615   9.475  1.00 20.00     0.012 A 
HETATM    4  C4  UNL     1     -43.409  12.513   8.891  1.00 20.00     0.012 A 
HETATM    5  C5  UNL     1     -40.733  14.207   7.099  1.00 20.00     0.009 A 
HETATM    6  C6  UNL     1     -42.289  12.498   6.624  1.00 20.00     0.009 A 
HETATM    7  C7  UNL     1     -41.504  13.990   8.174  1.00 20.00    -0.028 A 
HETATM    8  C8  UNL     1     -42.467  12.932   7.881  1.00 20.00    -0.028 A 
HETATM    9  C10 UNL     1     -41.167  13.283   5.987  1.00 20.00     0.082 A 
HETATM   10  C11 UNL     1     -41.596  14.022   4.730  1.00 20.00     0.035 C 
ENDROOT
BRANCH   9  11
HETATM   11  C9  UNL     1     -40.030  12.330   5.689  1.00 20.00     0.189 C 
HETATM   12  O12 UNL     1     -39.477  11.817   6.700  1.00 20.00    -0.647 OA
HETATM   13  O13 UNL     1     -39.780  12.170   4.460  1.00 20.00    -0.647 OA
ENDBRANCH   9  11
TORSDOF 1
ENDMDL
MODEL 8
REMARK VINA RESULT:      -3.9      2.072      3.289
REMARK  1 active torsions:
REMARK  status: ('A' for Active; 'I' for Inactive)
REMARK    1  A    between atoms: C9_9  and  C10_10 
ROOT
HETATM    1  C1  UNL     1     -37.723  18.681  -4.722  1.00 20.00     0.001 A 
HETATM    2  C2  UNL     1     -38.610  17.538  -4.961  1.00 20.00     0.001 A 
HETATM    3  C3  UNL     1     -36.380  18.578  -4.803  1.00 20.00     0.012 A 
HETATM    4  C4  UNL     1     -38.134  16.314  -5.276  1.00 20.00     0.012 A 
HETATM    5  C5  UNL     1     -34.544  16.907  -5.280  1.00 20.00     0.009 A 
HETATM    6  C6  UNL     1     -35.969  15.066  -5.663  1.00 20.00     0.009 A 
HETATM    7  C7  UNL     1     -35.821  17.290  -5.138  1.00 20.00    -0.028 A 
HETATM    8  C8  UNL     1     -36.703  16.152  -5.376  1.00 20.00    -0.028 A 
HETATM    9  C10 UNL     1     -34.507  15.443  -5.647  1.00 20.00     0.082 A 
HETATM   10  C11 UNL     1     -33.808  15.177  -6.970  1.00 20.00     0.035 C 
ENDROOT
BRANCH   9  11
HETATM   11  C9  UNL     1     -33.834  14.687  -4.522  1.00 20.00     0.189 C 
HETATM   12  O12 UNL     1     -32.687  15.103  -4.203  1.00 20.00    -0.647 OA
HETATM   13  O13 UNL     1     -34.513  13.733  -4.045  1.00 20.00    -0.647 OA
ENDBRANCH   9  11
TORSDOF 1
ENDMDL
MODEL 9
REMARK VINA RESULT:      -3.8      2.152      2.960
REMARK  1 active torsions:
REMARK  status: ('A' for Active; 'I' for Inactive)
REMARK    1  A    between atoms: C9_9  and  C10_10 
ROOT
HETATM    1  C1  UNL     1     -33.190  15.016  -4.103  1.00 20.00     0.001 A 
HETATM    2  C2  UNL     1     -33.120  16.310  -3.417  1.00 20.00     0.001 A 
HETATM    3  C3  UNL     1     -34.164  14.725  -4.990  1.00 20.00     0.012 A 
HETATM    4  C4  UNL     1     -34.026  17.287  -3.633  1.00 20.00     0.012 A 
HETATM    5  C5  UNL     1     -36.222  15.718  -6.073  1.00 20.00     0.009 A 
HETATM    6  C6  UNL     1     -36.110  17.800  -4.970  1.00 20.00     0.009 A 
HETATM    7  C7  UNL     1     -35.158  15.737  -5.257  1.00 20.00    -0.028 A 
HETATM    8  C8  UNL     1     -35.089  17.026  -4.574  1.00 20.00    -0.028 A 
HETATM    9  C10 UNL     1     -36.934  17.046  -5.986  1.00 20.00     0.082 A 
HETATM   10  C11 UNL     1     -37.031  17.760  -7.324  1.00 20.00     0.035 C 
ENDROOT
BRANCH   9  11
HETATM   11  C9  UNL     1     -38.310  16.810  -5.401  1.00 20.00     0.189 C 
HETATM   12  O12 UNL     1     -38.966  17.853  -5.129  1.00 20.00    -0.647 OA
HETATM   13  O13 UNL     1     -38.625  15.594  -5.260  1.00 20.00    -0.647 OA
ENDBRANCH   9  11
TORSDOF 1
ENDMDL
