MODEL 1
REMARK VINA RESULT:      -4.0      0.000      0.000
REMARK  6 active torsions:
REMARK  status: ('A' for Active; 'I' for Inactive)
REMARK    1  A    between atoms: C2_2  and  C6_6 
REMARK    2  A    between atoms: C6_6  and  C11_11 
REMARK    3  A    between atoms: C7_7  and  C9_9 
REMARK    4  A    between atoms: C8_8  and  C11_11 
REMARK    5  A    between atoms: C9_9  and  C10_10 
REMARK    6  A    between atoms: C10_10  and  C11_11 
ROOT
HETATM    1  C11 UNL     1     -32.657   7.294   3.799  1.00 20.00    -0.011 C 
ENDROOT
BRANCH   1   2
HETATM    2  C6  UNL     1     -34.107   7.053   4.290  1.00 20.00     0.037 C 
BRANCH   2   3
HETATM    3  C2  UNL     1     -34.227   6.637   5.740  1.00 20.00    -0.093 C 
HETATM    4  C1  UNL     1     -33.942   7.487   6.739  1.00 20.00     0.014 C 
HETATM    5  C3  UNL     1     -34.634   5.218   6.015  1.00 20.00     0.042 C 
ENDBRANCH   2   3
ENDBRANCH   1   2
BRANCH   1   6
HETATM    6  C8  UNL     1     -32.314   6.385   2.598  1.00 20.00     0.000 C 
HETATM    7  C5  UNL     1     -33.028   5.041   2.618  1.00 20.00     0.005 C 
ENDBRANCH   1   6
BRANCH   1   8
HETATM    8  C10 UNL     1     -32.414   8.800   3.537  1.00 20.00     0.005 C 
BRANCH   8   9
HETATM    9  C9  UNL     1     -33.313   9.431   2.467  1.00 20.00     0.000 C 
BRANCH   9  10
HETATM   10  C7  UNL     1     -32.556   9.796   1.186  1.00 20.00    -0.005 C 
HETATM   11  C4  UNL     1     -32.928   8.932  -0.008  1.00 20.00     0.005 C 
ENDBRANCH   9  10
ENDBRANCH   8   9
ENDBRANCH   1   8
TORSDOF 6
ENDMDL
MODEL 2
REMARK VINA RESULT:      -3.9      1.002      4.616
REMARK  6 active torsions:
REMARK  status: ('A' for Active; 'I' for Inactive)
REMARK    1  A    between atoms: C2_2  and  C6_6 
REMARK    2  A    between atoms: C6_6  and  C11_11 
REMARK    3  A    between atoms: C7_7  and  C9_9 
REMARK    4  A    between atoms: C8_8  and  C11_11 
REMARK    5  A    between atoms: C9_9  and  C10_10 
REMARK    6  A    between atoms: C10_10  and  C11_11 
ROOT
HETATM    1  C11 UNL     1     -32.704   7.304   2.918  1.00 20.00    -0.011 C 
ENDROOT
BRANCH   1   2
HETATM    2  C6  UNL     1     -31.897   8.013   1.801  1.00 20.00     0.037 C 
BRANCH   2   3
HETATM    3  C2  UNL     1     -32.665   9.068   1.034  1.00 20.00    -0.093 C 
HETATM    4  C1  UNL     1     -33.086  10.197   1.625  1.00 20.00     0.014 C 
HETATM    5  C3  UNL     1     -32.977   8.777  -0.406  1.00 20.00     0.042 C 
ENDBRANCH   2   3
ENDBRANCH   1   2
BRANCH   1   6
HETATM    6  C8  UNL     1     -32.484   5.776   2.883  1.00 20.00     0.000 C 
HETATM    7  C5  UNL     1     -33.745   4.965   3.152  1.00 20.00     0.005 C 
ENDBRANCH   1   6
BRANCH   1   8
HETATM    8  C10 UNL     1     -32.409   7.949   4.294  1.00 20.00     0.005 C 
BRANCH   8   9
HETATM    9  C9  UNL     1     -33.606   8.032   5.248  1.00 20.00     0.000 C 
BRANCH   9  10
HETATM   10  C7  UNL     1     -33.549   6.993   6.373  1.00 20.00    -0.005 C 
HETATM   11  C4  UNL     1     -34.707   6.009   6.351  1.00 20.00     0.005 C 
ENDBRANCH   9  10
ENDBRANCH   8   9
ENDBRANCH   1   8
TORSDOF 6
ENDMDL
MODEL 3
REMARK VINA RESULT:      -3.9      0.538      1.189
REMARK  6 active torsions:
REMARK  status: ('A' for Active; 'I' for Inactive)
REMARK    1  A    between atoms: C2_2  and  C6_6 
REMARK    2  A    between atoms: C6_6  and  C11_11 
REMARK    3  A    between atoms: C7_7  and  C9_9 
REMARK    4  A    between atoms: C8_8  and  C11_11 
REMARK    5  A    between atoms: C9_9  and  C10_10 
REMARK    6  A    between atoms: C10_10  and  C11_11 
ROOT
HETATM    1  C11 UNL     1     -32.970   7.030   3.896  1.00 20.00    -0.011 C 
ENDROOT
BRANCH   1   2
HETATM    2  C6  UNL     1     -34.340   6.514   4.404  1.00 20.00     0.037 C 
BRANCH   2   3
HETATM    3  C2  UNL     1     -34.383   6.171   5.878  1.00 20.00    -0.093 C 
HETATM    4  C1  UNL     1     -34.629   4.921   6.300  1.00 20.00     0.014 C 
HETATM    5  C3  UNL     1     -34.185   7.298   6.850  1.00 20.00     0.042 C 
ENDBRANCH   2   3
ENDBRANCH   1   2
BRANCH   1   6
HETATM    6  C8  UNL     1     -32.517   6.265   2.634  1.00 20.00     0.000 C 
HETATM    7  C5  UNL     1     -32.996   4.820   2.582  1.00 20.00     0.005 C 
ENDBRANCH   1   6
BRANCH   1   8
HETATM    8  C10 UNL     1     -33.000   8.568   3.720  1.00 20.00     0.005 C 
BRANCH   8   9
HETATM    9  C9  UNL     1     -32.185   9.109   2.541  1.00 20.00     0.000 C 
BRANCH   9  10
HETATM   10  C7  UNL     1     -33.057   9.696   1.427  1.00 20.00    -0.005 C 
HETATM   11  C4  UNL     1     -32.816   9.062   0.066  1.00 20.00     0.005 C 
ENDBRANCH   9  10
ENDBRANCH   8   9
ENDBRANCH   1   8
TORSDOF 6
ENDMDL
MODEL 4
REMARK VINA RESULT:      -3.8      1.039      2.650
REMARK  6 active torsions:
REMARK  status: ('A' for Active; 'I' for Inactive)
REMARK    1  A    between atoms: C2_2  and  C6_6 
REMARK    2  A    between atoms: C6_6  and  C11_11 
REMARK    3  A    between atoms: C7_7  and  C9_9 
REMARK    4  A    between atoms: C8_8  and  C11_11 
REMARK    5  A    between atoms: C9_9  and  C10_10 
REMARK    6  A    between atoms: C10_10  and  C11_11 
ROOT
HETATM    1  C11 UNL     1     -33.658   7.667   4.684  1.00 20.00    -0.011 C 
ENDROOT
BRANCH   1   2
HETATM    2  C6  UNL     1     -34.487   6.583   3.950  1.00 20.00     0.037 C 
BRANCH   2   3
HETATM    3  C2  UNL     1     -33.735   5.306   3.644  1.00 20.00    -0.093 C 
HETATM    4  C1  UNL     1     -32.958   5.193   2.555  1.00 20.00     0.014 C 
HETATM    5  C3  UNL     1     -33.931   4.153   4.586  1.00 20.00     0.042 C 
ENDBRANCH   2   3
ENDBRANCH   1   2
BRANCH   1   6
HETATM    6  C8  UNL     1     -33.390   7.267   6.152  1.00 20.00     0.000 C 
HETATM    7  C5  UNL     1     -34.580   6.613   6.841  1.00 20.00     0.005 C 
ENDBRANCH   1   6
BRANCH   1   8
HETATM    8  C10 UNL     1     -32.378   8.008   3.883  1.00 20.00     0.005 C 
BRANCH   8   9
HETATM    9  C9  UNL     1     -32.569   9.008   2.738  1.00 20.00     0.000 C 
BRANCH   9  10
HETATM   10  C7  UNL     1     -32.142   8.450   1.376  1.00 20.00    -0.005 C 
HETATM   11  C4  UNL     1     -32.748   9.194   0.196  1.00 20.00     0.005 C 
ENDBRANCH   9  10
ENDBRANCH   8   9
ENDBRANCH   1   8
TORSDOF 6
ENDMDL
MODEL 5
REMARK VINA RESULT:      -3.8      1.257      2.488
REMARK  6 active torsions:
REMARK  status: ('A' for Active; 'I' for Inactive)
REMARK    1  A    between atoms: C2_2  and  C6_6 
REMARK    2  A    between atoms: C6_6  and  C11_11 
REMARK    3  A    between atoms: C7_7  and  C9_9 
REMARK    4  A    between atoms: C8_8  and  C11_11 
REMARK    5  A    between atoms: C9_9  and  C10_10 
REMARK    6  A    between atoms: C10_10  and  C11_11 
ROOT
HETATM    1  C11 UNL     1     -33.751   7.649   4.054  1.00 20.00    -0.011 C 
ENDROOT
BRANCH   1   2
HETATM    2  C6  UNL     1     -34.865   6.593   4.264  1.00 20.00     0.037 C 
BRANCH   2   3
HETATM    3  C2  UNL     1     -34.436   5.359   5.029  1.00 20.00    -0.093 C 
HETATM    4  C1  UNL     1     -34.000   4.259   4.397  1.00 20.00     0.014 C 
HETATM    5  C3  UNL     1     -34.562   5.403   6.525  1.00 20.00     0.042 C 
ENDBRANCH   2   3
ENDBRANCH   1   2
BRANCH   1   6
HETATM    6  C8  UNL     1     -33.405   8.368   5.377  1.00 20.00     0.000 C 
HETATM    7  C5  UNL     1     -32.113   9.171   5.323  1.00 20.00     0.005 C 
ENDBRANCH   1   6
BRANCH   1   8
HETATM    8  C10 UNL     1     -32.529   7.016   3.346  1.00 20.00     0.005 C 
BRANCH   8   9
HETATM    9  C9  UNL     1     -32.166   7.632   1.990  1.00 20.00     0.000 C 
BRANCH   9  10
HETATM   10  C7  UNL     1     -32.753   9.034   1.791  1.00 20.00    -0.005 C 
HETATM   11  C4  UNL     1     -32.775   9.485   0.340  1.00 20.00     0.005 C 
ENDBRANCH   9  10
ENDBRANCH   8   9
ENDBRANCH   1   8
TORSDOF 6
ENDMDL
MODEL 6
REMARK VINA RESULT:      -3.7      9.301     10.609
REMARK  6 active torsions:
REMARK  status: ('A' for Active; 'I' for Inactive)
REMARK    1  A    between atoms: C2_2  and  C6_6 
REMARK    2  A    between atoms: C6_6  and  C11_11 
REMARK    3  A    between atoms: C7_7  and  C9_9 
REMARK    4  A    between atoms: C8_8  and  C11_11 
REMARK    5  A    between atoms: C9_9  and  C10_10 
REMARK    6  A    between atoms: C10_10  and  C11_11 
ROOT
HETATM    1  C11 UNL     1     -41.433  13.599   6.648  1.00 20.00    -0.011 C 
ENDROOT
BRANCH   1   2
HETATM    2  C6  UNL     1     -40.303  14.602   6.994  1.00 20.00     0.037 C 
BRANCH   2   3
HETATM    3  C2  UNL     1     -40.455  15.294   8.331  1.00 20.00    -0.093 C 
HETATM    4  C1  UNL     1     -40.316  14.625   9.487  1.00 20.00     0.014 C 
HETATM    5  C3  UNL     1     -40.813  16.752   8.312  1.00 20.00     0.042 C 
ENDBRANCH   2   3
ENDBRANCH   1   2
BRANCH   1   6
HETATM    6  C8  UNL     1     -42.509  14.255   5.755  1.00 20.00     0.000 C 
HETATM    7  C5  UNL     1     -42.117  14.354   4.287  1.00 20.00     0.005 C 
ENDBRANCH   1   6
BRANCH   1   8
HETATM    8  C10 UNL     1     -40.841  12.295   6.061  1.00 20.00     0.005 C 
BRANCH   8   9
HETATM    9  C9  UNL     1     -39.389  12.000   6.454  1.00 20.00     0.000 C 
BRANCH   9  10
HETATM   10  C7  UNL     1     -38.433  11.989   5.256  1.00 20.00    -0.005 C 
HETATM   11  C4  UNL     1     -39.120  11.693   3.932  1.00 20.00     0.005 C 
ENDBRANCH   9  10
ENDBRANCH   8   9
ENDBRANCH   1   8
TORSDOF 6
ENDMDL
MODEL 7
REMARK VINA RESULT:      -3.7      1.226      3.917
REMARK  6 active torsions:
REMARK  status: ('A' for Active; 'I' for Inactive)
REMARK    1  A    between atoms: C2_2  and  C6_6 
REMARK    2  A    between atoms: C6_6  and  C11_11 
REMARK    3  A    between atoms: C7_7  and  C9_9 
REMARK    4  A    between atoms: C8_8  and  C11_11 
REMARK    5  A    between atoms: C9_9  and  C10_10 
REMARK    6  A    between atoms: C10_10  and  C11_11 
ROOT
HETATM    1  C11 UNL     1     -32.265   7.421   3.153  1.00 20.00    -0.011 C 
ENDROOT
BRANCH   1   2
HETATM    2  C6  UNL     1     -33.573   6.591   3.092  1.00 20.00     0.037 C 
BRANCH   2   3
HETATM    3  C2  UNL     1     -33.376   5.091   3.125  1.00 20.00    -0.093 C 
HETATM    4  C1  UNL     1     -32.692   4.452   2.163  1.00 20.00     0.014 C 
HETATM    5  C3  UNL     1     -34.017   4.340   4.257  1.00 20.00     0.042 C 
ENDBRANCH   2   3
ENDBRANCH   1   2
BRANCH   1   6
HETATM    6  C8  UNL     1     -31.997   8.141   1.813  1.00 20.00     0.000 C 
HETATM    7  C5  UNL     1     -32.880   9.359   1.579  1.00 20.00     0.005 C 
ENDBRANCH   1   6
BRANCH   1   8
HETATM    8  C10 UNL     1     -32.277   8.363   4.381  1.00 20.00     0.005 C 
BRANCH   8   9
HETATM    9  C9  UNL     1     -33.546   8.307   5.238  1.00 20.00     0.000 C 
BRANCH   9  10
HETATM   10  C7  UNL     1     -33.424   7.351   6.429  1.00 20.00    -0.005 C 
HETATM   11  C4  UNL     1     -34.614   6.418   6.586  1.00 20.00     0.005 C 
ENDBRANCH   9  10
ENDBRANCH   8   9
ENDBRANCH   1   8
TORSDOF 6
ENDMDL
MODEL 8
REMARK VINA RESULT:      -3.6     11.059     12.422
REMARK  6 active torsions:
REMARK  status: ('A' for Active; 'I' for Inactive)
REMARK    1  A    between atoms: C2_2  and  C6_6 
REMARK    2  A    between atoms: C6_6  and  C11_11 
REMARK    3  A    between atoms: C7_7  and  C9_9 
REMARK    4  A    between atoms: C8_8  and  C11_11 
REMARK    5  A    between atoms: C9_9  and  C10_10 
REMARK    6  A    between atoms: C10_10  and  C11_11 
ROOT
HETATM    1  C11 UNL     1     -33.586  16.564  -3.728  1.00 20.00    -0.011 C 
ENDROOT
BRANCH   1   2
HETATM    2  C6  UNL     1     -33.890  15.093  -4.107  1.00 20.00     0.037 C 
BRANCH   2   3
HETATM    3  C2  UNL     1     -34.556  14.907  -5.453  1.00 20.00    -0.093 C 
HETATM    4  C1  UNL     1     -33.911  15.178  -6.599  1.00 20.00     0.014 C 
HETATM    5  C3  UNL     1     -35.987  14.450  -5.453  1.00 20.00     0.042 C 
ENDBRANCH   2   3
ENDBRANCH   1   2
BRANCH   1   6
HETATM    6  C8  UNL     1     -34.746  17.498  -4.135  1.00 20.00     0.000 C 
HETATM    7  C5  UNL     1     -34.332  18.626  -5.071  1.00 20.00     0.005 C 
ENDBRANCH   1   6
BRANCH   1   8
HETATM    8  C10 UNL     1     -33.189  16.670  -2.236  1.00 20.00     0.005 C 
BRANCH   8   9
HETATM    9  C9  UNL     1     -33.901  17.773  -1.445  1.00 20.00     0.000 C 
BRANCH   9  10
HETATM   10  C7  UNL     1     -33.086  18.276  -0.249  1.00 20.00    -0.005 C 
HETATM   11  C4  UNL     1     -31.620  18.518  -0.569  1.00 20.00     0.005 C 
ENDBRANCH   9  10
ENDBRANCH   8   9
ENDBRANCH   1   8
TORSDOF 6
ENDMDL
MODEL 9
REMARK VINA RESULT:      -3.6     10.809     12.426
REMARK  6 active torsions:
REMARK  status: ('A' for Active; 'I' for Inactive)
REMARK    1  A    between atoms: C2_2  and  C6_6 
REMARK    2  A    between atoms: C6_6  and  C11_11 
REMARK    3  A    between atoms: C7_7  and  C9_9 
REMARK    4  A    between atoms: C8_8  and  C11_11 
REMARK    5  A    between atoms: C9_9  and  C10_10 
REMARK    6  A    between atoms: C10_10  and  C11_11 
ROOT
HETATM    1  C11 UNL     1     -33.772  16.757  -3.099  1.00 20.00    -0.011 C 
ENDROOT
BRANCH   1   2
HETATM    2  C6  UNL     1     -34.231  17.853  -4.093  1.00 20.00     0.037 C 
BRANCH   2   3
HETATM    3  C2  UNL     1     -35.729  18.046  -4.180  1.00 20.00    -0.093 C 
HETATM    4  C1  UNL     1     -36.438  17.570  -5.216  1.00 20.00     0.014 C 
HETATM    5  C3  UNL     1     -36.384  18.831  -3.081  1.00 20.00     0.042 C 
ENDBRANCH   2   3
ENDBRANCH   1   2
BRANCH   1   6
HETATM    6  C8  UNL     1     -33.107  15.574  -3.837  1.00 20.00     0.000 C 
HETATM    7  C5  UNL     1     -34.081  14.482  -4.258  1.00 20.00     0.005 C 
ENDBRANCH   1   6
BRANCH   1   8
HETATM    8  C10 UNL     1     -32.896  17.370  -1.979  1.00 20.00     0.005 C 
BRANCH   8   9
HETATM    9  C9  UNL     1     -33.643  17.745  -0.695  1.00 20.00     0.000 C 
BRANCH   9  10
HETATM   10  C7  UNL     1     -32.778  18.533   0.295  1.00 20.00    -0.005 C 
HETATM   11  C4  UNL     1     -31.308  18.585  -0.089  1.00 20.00     0.005 C 
ENDBRANCH   9  10
ENDBRANCH   8   9
ENDBRANCH   1   8
TORSDOF 6
ENDMDL
