MODEL 1
REMARK VINA RESULT:      -4.1      0.000      0.000
REMARK  0 active torsions:
REMARK  status: ('A' for Active; 'I' for Inactive)
ROOT
HETATM    1  C1  UNL     1     -42.267   5.001   1.450  1.00 20.00     0.005 C 
HETATM    2  C2  UNL     1     -42.818   5.635  -0.905  1.00 20.00     0.005 C 
HETATM    3  C3  UNL     1     -42.867   6.325   1.946  1.00 20.00     0.011 C 
HETATM    4  C4  UNL     1     -43.417   6.959  -0.407  1.00 20.00     0.011 C 
HETATM    5  C5  UNL     1     -40.600   6.260   0.072  1.00 20.00     0.084 C 
HETATM    6  C6  UNL     1     -41.689   5.172   0.033  1.00 20.00    -0.009 C 
HETATM    7  C7  UNL     1     -42.699   7.416   0.875  1.00 20.00     0.058 C 
HETATM    8  C8  UNL     1     -41.206   7.573   0.567  1.00 20.00     0.247 C 
HETATM    9  F9  UNL     1     -40.549   7.989   1.679  1.00 20.00    -0.206 F 
HETATM   10  F10 UNL     1     -41.026   8.541  -0.366  1.00 20.00    -0.206 F 
ENDROOT
TORSDOF 0
ENDMDL
MODEL 2
REMARK VINA RESULT:      -4.1      8.184      9.328
REMARK  0 active torsions:
REMARK  status: ('A' for Active; 'I' for Inactive)
ROOT
HETATM    1  C1  UNL     1     -35.816   6.055   4.204  1.00 20.00     0.005 C 
HETATM    2  C2  UNL     1     -33.490   5.218   3.835  1.00 20.00     0.005 C 
HETATM    3  C3  UNL     1     -35.278   7.488   4.338  1.00 20.00     0.011 C 
HETATM    4  C4  UNL     1     -32.954   6.651   3.970  1.00 20.00     0.011 C 
HETATM    5  C5  UNL     1     -34.423   5.337   6.154  1.00 20.00     0.084 C 
HETATM    6  C6  UNL     1     -34.762   5.040   4.681  1.00 20.00    -0.009 C 
HETATM    7  C7  UNL     1     -33.853   7.466   4.916  1.00 20.00     0.058 C 
HETATM    8  C8  UNL     1     -33.890   6.764   6.278  1.00 20.00     0.247 C 
HETATM    9  F9  UNL     1     -34.667   7.470   7.138  1.00 20.00    -0.206 F 
HETATM   10  F10 UNL     1     -32.646   6.743   6.820  1.00 20.00    -0.206 F 
ENDROOT
TORSDOF 0
ENDMDL
MODEL 3
REMARK VINA RESULT:      -4.1     22.742     23.872
REMARK  0 active torsions:
REMARK  status: ('A' for Active; 'I' for Inactive)
ROOT
HETATM    1  C1  UNL     1     -24.595  19.150  10.079  1.00 20.00     0.005 C 
HETATM    2  C2  UNL     1     -22.245  18.554  10.688  1.00 20.00     0.005 C 
HETATM    3  C3  UNL     1     -24.987  19.117  11.564  1.00 20.00     0.011 C 
HETATM    4  C4  UNL     1     -22.639  18.521  12.172  1.00 20.00     0.011 C 
HETATM    5  C5  UNL     1     -23.905  16.747  10.196  1.00 20.00     0.084 C 
HETATM    6  C6  UNL     1     -23.444  18.164   9.806  1.00 20.00    -0.009 C 
HETATM    7  C7  UNL     1     -24.112  18.103  12.320  1.00 20.00     0.058 C 
HETATM    8  C8  UNL     1     -24.294  16.725  11.674  1.00 20.00     0.247 C 
HETATM    9  F9  UNL     1     -25.585  16.324  11.802  1.00 20.00    -0.206 F 
HETATM   10  F10 UNL     1     -23.544  15.805  12.331  1.00 20.00    -0.206 F 
ENDROOT
TORSDOF 0
ENDMDL
MODEL 4
REMARK VINA RESULT:      -4.0      8.178      9.401
REMARK  0 active torsions:
REMARK  status: ('A' for Active; 'I' for Inactive)
ROOT
HETATM    1  C1  UNL     1     -32.869   6.469   3.828  1.00 20.00     0.005 C 
HETATM    2  C2  UNL     1     -35.048   7.635   4.209  1.00 20.00     0.005 C 
HETATM    3  C3  UNL     1     -33.587   5.112   3.884  1.00 20.00     0.011 C 
HETATM    4  C4  UNL     1     -35.764   6.276   4.264  1.00 20.00     0.011 C 
HETATM    5  C5  UNL     1     -33.625   6.976   6.160  1.00 20.00     0.084 C 
HETATM    6  C6  UNL     1     -33.599   7.497   4.711  1.00 20.00    -0.009 C 
HETATM    7  C7  UNL     1     -34.811   5.198   4.810  1.00 20.00     0.058 C 
HETATM    8  C8  UNL     1     -34.339   5.626   6.205  1.00 20.00     0.247 C 
HETATM    9  F9  UNL     1     -33.507   4.684   6.717  1.00 20.00    -0.206 F 
HETATM   10  F10 UNL     1     -35.399   5.696   7.049  1.00 20.00    -0.206 F 
ENDROOT
TORSDOF 0
ENDMDL
MODEL 5
REMARK VINA RESULT:      -4.0      1.358      2.158
REMARK  0 active torsions:
REMARK  status: ('A' for Active; 'I' for Inactive)
ROOT
HETATM    1  C1  UNL     1     -43.417   7.199   1.448  1.00 20.00     0.005 C 
HETATM    2  C2  UNL     1     -43.359   4.764   0.883  1.00 20.00     0.005 C 
HETATM    3  C3  UNL     1     -43.373   7.546  -0.047  1.00 20.00     0.011 C 
HETATM    4  C4  UNL     1     -43.315   5.114  -0.612  1.00 20.00     0.011 C 
HETATM    5  C5  UNL     1     -41.222   6.014   1.249  1.00 20.00     0.084 C 
HETATM    6  C6  UNL     1     -42.684   5.871   1.712  1.00 20.00    -0.009 C 
HETATM    7  C7  UNL     1     -42.603   6.462  -0.820  1.00 20.00     0.058 C 
HETATM    8  C8  UNL     1     -41.188   6.361  -0.239  1.00 20.00     0.247 C 
HETATM    9  F9  UNL     1     -40.532   7.535  -0.421  1.00 20.00    -0.206 F 
HETATM   10  F10 UNL     1     -40.479   5.421  -0.913  1.00 20.00    -0.206 F 
ENDROOT
TORSDOF 0
ENDMDL
MODEL 6
REMARK VINA RESULT:      -4.0      2.031      3.092
REMARK  0 active torsions:
REMARK  status: ('A' for Active; 'I' for Inactive)
ROOT
HETATM    1  C1  UNL     1     -41.252   7.562   1.157  1.00 20.00     0.005 C 
HETATM    2  C2  UNL     1     -43.417   7.284  -0.063  1.00 20.00     0.005 C 
HETATM    3  C3  UNL     1     -40.641   6.422   0.329  1.00 20.00     0.011 C 
HETATM    4  C4  UNL     1     -42.804   6.143  -0.889  1.00 20.00     0.011 C 
HETATM    5  C5  UNL     1     -42.995   5.999   2.043  1.00 20.00     0.084 C 
HETATM    6  C6  UNL     1     -42.767   7.345   1.331  1.00 20.00    -0.009 C 
HETATM    7  C7  UNL     1     -41.731   5.410  -0.065  1.00 20.00     0.058 C 
HETATM    8  C8  UNL     1     -42.382   4.871   1.213  1.00 20.00     0.247 C 
HETATM    9  F9  UNL     1     -41.459   4.207   1.954  1.00 20.00    -0.206 F 
HETATM   10  F10 UNL     1     -43.339   3.964   0.896  1.00 20.00    -0.206 F 
ENDROOT
TORSDOF 0
ENDMDL
MODEL 7
REMARK VINA RESULT:      -3.9     23.047     24.128
REMARK  0 active torsions:
REMARK  status: ('A' for Active; 'I' for Inactive)
ROOT
HETATM    1  C1  UNL     1     -24.462  19.221  11.972  1.00 20.00     0.005 C 
HETATM    2  C2  UNL     1     -23.758  16.840  12.262  1.00 20.00     0.005 C 
HETATM    3  C3  UNL     1     -24.984  18.894  10.565  1.00 20.00     0.011 C 
HETATM    4  C4  UNL     1     -24.281  16.515  10.855  1.00 20.00     0.011 C 
HETATM    5  C5  UNL     1     -22.160  18.507  11.295  1.00 20.00     0.084 C 
HETATM    6  C6  UNL     1     -23.281  18.302  12.332  1.00 20.00    -0.009 C 
HETATM    7  C7  UNL     1     -24.161  17.751   9.947  1.00 20.00     0.058 C 
HETATM    8  C8  UNL     1     -22.690  18.180   9.899  1.00 20.00     0.247 C 
HETATM    9  F9  UNL     1     -22.553  19.263   9.093  1.00 20.00    -0.206 F 
HETATM   10  F10 UNL     1     -21.941  17.195   9.343  1.00 20.00    -0.206 F 
ENDROOT
TORSDOF 0
ENDMDL
MODEL 8
REMARK VINA RESULT:      -3.9      1.856      2.775
REMARK  0 active torsions:
REMARK  status: ('A' for Active; 'I' for Inactive)
ROOT
HETATM    1  C1  UNL     1     -40.919   7.616   1.401  1.00 20.00     0.005 C 
HETATM    2  C2  UNL     1     -43.406   7.365   1.339  1.00 20.00     0.005 C 
HETATM    3  C3  UNL     1     -40.918   7.960  -0.096  1.00 20.00     0.011 C 
HETATM    4  C4  UNL     1     -43.402   7.709  -0.158  1.00 20.00     0.011 C 
HETATM    5  C5  UNL     1     -41.939   5.386   0.899  1.00 20.00     0.084 C 
HETATM    6  C6  UNL     1     -42.090   6.672   1.733  1.00 20.00    -0.009 C 
HETATM    7  C7  UNL     1     -42.084   7.249  -0.803  1.00 20.00     0.058 C 
HETATM    8  C8  UNL     1     -41.937   5.739  -0.589  1.00 20.00     0.247 C 
HETATM    9  F9  UNL     1     -40.786   5.303  -1.161  1.00 20.00    -0.206 F 
HETATM   10  F10 UNL     1     -42.946   5.083  -1.216  1.00 20.00    -0.206 F 
ENDROOT
TORSDOF 0
ENDMDL
MODEL 9
REMARK VINA RESULT:      -3.8      1.063      2.505
REMARK  0 active torsions:
REMARK  status: ('A' for Active; 'I' for Inactive)
ROOT
HETATM    1  C1  UNL     1     -42.200   5.051  -1.426  1.00 20.00     0.005 C 
HETATM    2  C2  UNL     1     -43.237   4.503   0.781  1.00 20.00     0.005 C 
HETATM    3  C3  UNL     1     -40.885   5.408  -0.718  1.00 20.00     0.011 C 
HETATM    4  C4  UNL     1     -41.921   4.861   1.488  1.00 20.00     0.011 C 
HETATM    5  C5  UNL     1     -43.394   6.828  -0.131  1.00 20.00     0.084 C 
HETATM    6  C6  UNL     1     -43.399   5.334  -0.504  1.00 20.00    -0.009 C 
HETATM    7  C7  UNL     1     -41.173   5.946   0.693  1.00 20.00     0.058 C 
HETATM    8  C8  UNL     1     -42.081   7.175   0.572  1.00 20.00     0.247 C 
HETATM    9  F9  UNL     1     -41.440   8.155  -0.114  1.00 20.00    -0.206 F 
HETATM   10  F10 UNL     1     -42.341   7.681   1.803  1.00 20.00    -0.206 F 
ENDROOT
TORSDOF 0
ENDMDL
