MODEL 1
REMARK VINA RESULT:      -4.7      0.000      0.000
REMARK  0 active torsions:
REMARK  status: ('A' for Active; 'I' for Inactive)
ROOT
HETATM    1  C1  UNL     1     -32.792   8.760   4.870  1.00 20.00     0.014 C 
HETATM    2  C2  UNL     1     -33.404   7.734   4.980  1.00 20.00    -0.090 C 
HETATM    3  C3  UNL     1     -33.746   4.113   3.880  1.00 20.00     0.013 A 
HETATM    4  C4  UNL     1     -33.204   5.180   2.925  1.00 20.00     0.013 A 
HETATM    5  C5  UNL     1     -35.337   6.280   4.171  1.00 20.00     0.052 A 
HETATM    6  C6  UNL     1     -34.134   6.509   5.110  1.00 20.00     0.107 A 
HETATM    7  C7  UNL     1     -34.096   5.525   4.030  1.00 20.00    -0.005 A 
HETATM    8 CL8  UNL     1     -34.296   5.933   6.768  1.00 20.00    -0.104 Cl
ENDROOT
TORSDOF 0
ENDMDL
MODEL 2
REMARK VINA RESULT:      -4.6      1.855      3.037
REMARK  0 active torsions:
REMARK  status: ('A' for Active; 'I' for Inactive)
ROOT
HETATM    1  C1  UNL     1     -32.782   4.737   2.511  1.00 20.00     0.014 C 
HETATM    2  C2  UNL     1     -33.270   5.570   3.224  1.00 20.00    -0.090 C 
HETATM    3  C3  UNL     1     -34.366   6.479   6.747  1.00 20.00     0.013 A 
HETATM    4  C4  UNL     1     -34.420   5.031   6.254  1.00 20.00     0.013 A 
HETATM    5  C5  UNL     1     -35.386   6.561   4.244  1.00 20.00     0.052 A 
HETATM    6  C6  UNL     1     -33.853   6.562   4.076  1.00 20.00     0.107 A 
HETATM    7  C7  UNL     1     -34.493   6.158   5.326  1.00 20.00    -0.005 A 
HETATM    8 CL8  UNL     1     -33.060   8.135   4.008  1.00 20.00    -0.104 Cl
ENDROOT
TORSDOF 0
ENDMDL
MODEL 3
REMARK VINA RESULT:      -4.4      1.376      3.249
REMARK  0 active torsions:
REMARK  status: ('A' for Active; 'I' for Inactive)
ROOT
HETATM    1  C1  UNL     1     -32.897   4.894   2.631  1.00 20.00     0.014 C 
HETATM    2  C2  UNL     1     -33.542   5.436   3.486  1.00 20.00    -0.090 C 
HETATM    3  C3  UNL     1     -34.051   8.579   5.559  1.00 20.00     0.013 A 
HETATM    4  C4  UNL     1     -32.657   8.166   5.083  1.00 20.00     0.013 A 
HETATM    5  C5  UNL     1     -33.861   5.913   5.970  1.00 20.00     0.052 A 
HETATM    6  C6  UNL     1     -34.311   6.084   4.505  1.00 20.00     0.107 A 
HETATM    7  C7  UNL     1     -33.724   7.184   5.267  1.00 20.00    -0.005 A 
HETATM    8 CL8  UNL     1     -36.048   6.104   4.203  1.00 20.00    -0.104 Cl
ENDROOT
TORSDOF 0
ENDMDL
MODEL 4
REMARK VINA RESULT:      -3.9      1.897      3.266
REMARK  0 active torsions:
REMARK  status: ('A' for Active; 'I' for Inactive)
ROOT
HETATM    1  C1  UNL     1     -34.680   5.373   6.649  1.00 20.00     0.014 C 
HETATM    2  C2  UNL     1     -34.319   5.866   5.616  1.00 20.00    -0.090 C 
HETATM    3  C3  UNL     1     -31.973   8.336   3.933  1.00 20.00     0.013 A 
HETATM    4  C4  UNL     1     -32.492   8.583   5.352  1.00 20.00     0.013 A 
HETATM    5  C5  UNL     1     -34.608   7.729   3.900  1.00 20.00     0.052 A 
HETATM    6  C6  UNL     1     -33.886   6.455   4.385  1.00 20.00     0.107 A 
HETATM    7  C7  UNL     1     -33.236   7.764   4.397  1.00 20.00    -0.005 A 
HETATM    8 CL8  UNL     1     -33.410   5.291   3.150  1.00 20.00    -0.104 Cl
ENDROOT
TORSDOF 0
ENDMDL
MODEL 5
REMARK VINA RESULT:      -3.8      9.122      9.984
REMARK  0 active torsions:
REMARK  status: ('A' for Active; 'I' for Inactive)
ROOT
HETATM    1  C1  UNL     1     -42.381  14.620   3.893  1.00 20.00     0.014 C 
HETATM    2  C2  UNL     1     -41.749  14.169   4.809  1.00 20.00    -0.090 C 
HETATM    3  C3  UNL     1     -38.747  12.096   5.871  1.00 20.00     0.013 A 
HETATM    4  C4  UNL     1     -39.485  11.802   4.562  1.00 20.00     0.013 A 
HETATM    5  C5  UNL     1     -41.388  12.237   6.434  1.00 20.00     0.052 A 
HETATM    6  C6  UNL     1     -40.994  13.630   5.899  1.00 20.00     0.107 A 
HETATM    7  C7  UNL     1     -40.153  12.454   5.687  1.00 20.00    -0.005 A 
HETATM    8 CL8  UNL     1     -40.484  14.825   7.090  1.00 20.00    -0.104 Cl
ENDROOT
TORSDOF 0
ENDMDL
MODEL 6
REMARK VINA RESULT:      -3.7     16.296     17.091
REMARK  0 active torsions:
REMARK  status: ('A' for Active; 'I' for Inactive)
ROOT
HETATM    1  C1  UNL     1     -26.152  19.245  11.715  1.00 20.00     0.014 C 
HETATM    2  C2  UNL     1     -25.064  18.828  11.425  1.00 20.00    -0.090 C 
HETATM    3  C3  UNL     1     -22.220  18.877   8.906  1.00 20.00     0.013 A 
HETATM    4  C4  UNL     1     -23.671  19.075   8.461  1.00 20.00     0.013 A 
HETATM    5  C5  UNL     1     -23.687  17.039  10.241  1.00 20.00     0.052 A 
HETATM    6  C6  UNL     1     -23.767  18.332  11.077  1.00 20.00     0.107 A 
HETATM    7  C7  UNL     1     -23.338  18.341   9.680  1.00 20.00    -0.005 A 
HETATM    8 CL8  UNL     1     -22.547  18.546  12.332  1.00 20.00    -0.104 Cl
ENDROOT
TORSDOF 0
ENDMDL
MODEL 7
REMARK VINA RESULT:      -3.7      8.973      9.759
REMARK  0 active torsions:
REMARK  status: ('A' for Active; 'I' for Inactive)
ROOT
HETATM    1  C1  UNL     1     -40.391  14.741   8.460  1.00 20.00     0.014 C 
HETATM    2  C2  UNL     1     -40.759  13.986   7.603  1.00 20.00    -0.090 C 
HETATM    3  C3  UNL     1     -39.806  11.174   5.232  1.00 20.00     0.013 A 
HETATM    4  C4  UNL     1     -38.787  12.241   5.640  1.00 20.00     0.013 A 
HETATM    5  C5  UNL     1     -41.094  13.549   5.114  1.00 20.00     0.052 A 
HETATM    6  C6  UNL     1     -41.197  13.084   6.581  1.00 20.00     0.107 A 
HETATM    7  C7  UNL     1     -40.224  12.510   5.655  1.00 20.00    -0.005 A 
HETATM    8 CL8  UNL     1     -42.611  12.125   7.015  1.00 20.00    -0.104 Cl
ENDROOT
TORSDOF 0
ENDMDL
MODEL 8
REMARK VINA RESULT:      -3.7      9.323     10.332
REMARK  0 active torsions:
REMARK  status: ('A' for Active; 'I' for Inactive)
ROOT
HETATM    1  C1  UNL     1     -43.385  12.024   7.509  1.00 20.00     0.014 C 
HETATM    2  C2  UNL     1     -42.588  12.598   6.818  1.00 20.00    -0.090 C 
HETATM    3  C3  UNL     1     -39.513  12.300   4.607  1.00 20.00     0.013 A 
HETATM    4  C4  UNL     1     -39.727  11.354   5.791  1.00 20.00     0.013 A 
HETATM    5  C5  UNL     1     -40.363  13.833   6.666  1.00 20.00     0.052 A 
HETATM    6  C6  UNL     1     -41.638  13.282   5.995  1.00 20.00     0.107 A 
HETATM    7  C7  UNL     1     -40.323  12.689   5.760  1.00 20.00    -0.005 A 
HETATM    8 CL8  UNL     1     -42.355  14.265   4.720  1.00 20.00    -0.104 Cl
ENDROOT
TORSDOF 0
ENDMDL
MODEL 9
REMARK VINA RESULT:      -3.6     15.924     17.242
REMARK  0 active torsions:
REMARK  status: ('A' for Active; 'I' for Inactive)
ROOT
HETATM    1  C1  UNL     1     -21.467  18.267   8.134  1.00 20.00     0.014 C 
HETATM    2  C2  UNL     1     -22.436  18.246   8.843  1.00 20.00    -0.090 C 
HETATM    3  C3  UNL     1     -23.822  18.829  12.332  1.00 20.00     0.013 A 
HETATM    4  C4  UNL     1     -22.382  18.355  12.126  1.00 20.00     0.013 A 
HETATM    5  C5  UNL     1     -23.915  16.908  10.431  1.00 20.00     0.052 A 
HETATM    6  C6  UNL     1     -23.590  18.221   9.690  1.00 20.00     0.107 A 
HETATM    7  C7  UNL     1     -23.425  18.088  11.136  1.00 20.00    -0.005 A 
HETATM    8 CL8  UNL     1     -24.957  19.153   9.082  1.00 20.00    -0.104 Cl
ENDROOT
TORSDOF 0
ENDMDL
