MODEL 1
REMARK VINA RESULT:      -6.1      0.000      0.000
REMARK  0 active torsions:
REMARK  status: ('A' for Active; 'I' for Inactive)
ROOT
HETATM    1  C1  UNL     1     -34.077   4.976   5.997  1.00 20.00    -0.025 C 
HETATM    2  C2  UNL     1     -34.304   6.229   6.434  1.00 20.00    -0.025 C 
HETATM    3  C3  UNL     1     -32.574   6.159   2.640  1.00 20.00    -0.022 C 
HETATM    4  C4  UNL     1     -32.154   7.444   2.686  1.00 20.00     0.007 C 
HETATM    5  C5  UNL     1     -35.608   5.849   4.577  1.00 20.00     0.018 C 
HETATM    6  C6  UNL     1     -34.360   4.956   4.495  1.00 20.00     0.017 C 
HETATM    7  C7  UNL     1     -34.860   7.025   5.278  1.00 20.00     0.016 C 
HETATM    8  C8  UNL     1     -33.229   5.858   3.941  1.00 20.00     0.023 C 
HETATM    9  C9  UNL     1     -32.689   8.172   3.920  1.00 20.00     0.198 C 
HETATM   10  C10 UNL     1     -33.869   7.261   4.137  1.00 20.00     0.039 C 
HETATM   11  F11 UNL     1     -31.819   8.111   4.953  1.00 20.00    -0.245 F 
ENDROOT
TORSDOF 0
ENDMDL
MODEL 2
REMARK VINA RESULT:      -5.1      1.558      3.630
REMARK  0 active torsions:
REMARK  status: ('A' for Active; 'I' for Inactive)
ROOT
HETATM    1  C1  UNL     1     -31.661   7.887   4.160  1.00 20.00    -0.025 C 
HETATM    2  C2  UNL     1     -32.281   7.343   3.096  1.00 20.00    -0.025 C 
HETATM    3  C3  UNL     1     -34.186   6.416   6.688  1.00 20.00    -0.022 C 
HETATM    4  C4  UNL     1     -34.871   5.365   6.182  1.00 20.00     0.007 C 
HETATM    5  C5  UNL     1     -33.702   8.864   4.075  1.00 20.00     0.018 C 
HETATM    6  C6  UNL     1     -32.745   8.321   5.148  1.00 20.00     0.017 C 
HETATM    7  C7  UNL     1     -33.767   7.517   3.290  1.00 20.00     0.016 C 
HETATM    8  C8  UNL     1     -33.337   6.961   5.596  1.00 20.00     0.023 C 
HETATM    9  C9  UNL     1     -34.711   5.261   4.666  1.00 20.00     0.198 C 
HETATM   10  C10 UNL     1     -34.354   6.708   4.448  1.00 20.00     0.039 C 
HETATM   11  F11 UNL     1     -33.692   4.442   4.324  1.00 20.00    -0.245 F 
ENDROOT
TORSDOF 0
ENDMDL
MODEL 3
REMARK VINA RESULT:      -5.0     15.425     16.491
REMARK  0 active torsions:
REMARK  status: ('A' for Active; 'I' for Inactive)
ROOT
HETATM    1  C1  UNL     1     -25.159  17.043  11.673  1.00 20.00    -0.025 C 
HETATM    2  C2  UNL     1     -23.919  16.599  11.949  1.00 20.00    -0.025 C 
HETATM    3  C3  UNL     1     -23.973  19.263   8.741  1.00 20.00    -0.022 C 
HETATM    4  C4  UNL     1     -22.763  18.887   8.264  1.00 20.00     0.007 C 
HETATM    5  C5  UNL     1     -23.990  18.866  12.332  1.00 20.00     0.018 C 
HETATM    6  C6  UNL     1     -25.039  18.513  11.266  1.00 20.00     0.017 C 
HETATM    7  C7  UNL     1     -22.978  17.777  11.861  1.00 20.00     0.016 C 
HETATM    8  C8  UNL     1     -24.267  18.415   9.926  1.00 20.00     0.023 C 
HETATM    9  C9  UNL     1     -22.054  17.924   9.216  1.00 20.00     0.198 C 
HETATM   10  C10 UNL     1     -22.806  18.345  10.452  1.00 20.00     0.039 C 
HETATM   11  F11 UNL     1     -22.302  16.634   8.900  1.00 20.00    -0.245 F 
ENDROOT
TORSDOF 0
ENDMDL
MODEL 4
REMARK VINA RESULT:      -4.4      1.702      3.422
REMARK  0 active torsions:
REMARK  status: ('A' for Active; 'I' for Inactive)
ROOT
HETATM    1  C1  UNL     1     -33.022   8.604   2.701  1.00 20.00    -0.025 C 
HETATM    2  C2  UNL     1     -33.845   9.024   3.681  1.00 20.00    -0.025 C 
HETATM    3  C3  UNL     1     -33.276   4.893   3.748  1.00 20.00    -0.022 C 
HETATM    4  C4  UNL     1     -34.369   4.643   4.504  1.00 20.00     0.007 C 
HETATM    5  C5  UNL     1     -31.953   8.134   4.640  1.00 20.00     0.018 C 
HETATM    6  C6  UNL     1     -32.172   7.468   3.273  1.00 20.00     0.017 C 
HETATM    7  C7  UNL     1     -33.477   8.279   4.942  1.00 20.00     0.016 C 
HETATM    8  C8  UNL     1     -33.229   6.359   3.505  1.00 20.00     0.023 C 
HETATM    9  C9  UNL     1     -35.011   5.932   5.017  1.00 20.00     0.198 C 
HETATM   10  C10 UNL     1     -33.771   6.779   4.900  1.00 20.00     0.039 C 
HETATM   11  F11 UNL     1     -35.989   6.367   4.190  1.00 20.00    -0.245 F 
ENDROOT
TORSDOF 0
ENDMDL
MODEL 5
REMARK VINA RESULT:      -4.4     15.301     16.675
REMARK  0 active torsions:
REMARK  status: ('A' for Active; 'I' for Inactive)
ROOT
HETATM    1  C1  UNL     1     -22.817  18.031   8.236  1.00 20.00    -0.025 C 
HETATM    2  C2  UNL     1     -22.964  19.260   8.765  1.00 20.00    -0.025 C 
HETATM    3  C3  UNL     1     -24.292  16.255  11.334  1.00 20.00    -0.022 C 
HETATM    4  C4  UNL     1     -25.037  17.085  12.100  1.00 20.00     0.007 C 
HETATM    5  C5  UNL     1     -21.456  18.085  10.043  1.00 20.00     0.018 C 
HETATM    6  C6  UNL     1     -22.414  17.089   9.371  1.00 20.00     0.017 C 
HETATM    7  C7  UNL     1     -22.543  19.191  10.213  1.00 20.00     0.016 C 
HETATM    8  C8  UNL     1     -23.692  17.072  10.246  1.00 20.00     0.023 C 
HETATM    9  C9  UNL     1     -24.817  18.551  11.726  1.00 20.00     0.198 C 
HETATM   10  C10 UNL     1     -23.462  18.350  11.100  1.00 20.00     0.039 C 
HETATM   11  F11 UNL     1     -25.724  18.978  10.819  1.00 20.00    -0.245 F 
ENDROOT
TORSDOF 0
ENDMDL
MODEL 6
REMARK VINA RESULT:      -4.0     12.620     13.589
REMARK  0 active torsions:
REMARK  status: ('A' for Active; 'I' for Inactive)
ROOT
HETATM    1  C1  UNL     1     -35.805  14.414  -5.261  1.00 20.00    -0.025 C 
HETATM    2  C2  UNL     1     -36.244  15.542  -5.850  1.00 20.00    -0.025 C 
HETATM    3  C3  UNL     1     -33.203  16.272  -3.090  1.00 20.00    -0.022 C 
HETATM    4  C4  UNL     1     -33.482  17.589  -2.964  1.00 20.00     0.007 C 
HETATM    5  C5  UNL     1     -34.045  15.212  -6.440  1.00 20.00     0.018 C 
HETATM    6  C6  UNL     1     -34.293  14.554  -5.074  1.00 20.00     0.017 C 
HETATM    7  C7  UNL     1     -35.038  16.388  -6.181  1.00 20.00     0.016 C 
HETATM    8  C8  UNL     1     -34.201  15.694  -4.030  1.00 20.00     0.023 C 
HETATM    9  C9  UNL     1     -34.534  18.045  -3.974  1.00 20.00     0.198 C 
HETATM   10  C10 UNL     1     -34.293  16.934  -4.962  1.00 20.00     0.039 C 
HETATM   11  F11 UNL     1     -35.782  17.987  -3.457  1.00 20.00    -0.245 F 
ENDROOT
TORSDOF 0
ENDMDL
MODEL 7
REMARK VINA RESULT:      -3.9      1.221      2.416
REMARK  0 active torsions:
REMARK  status: ('A' for Active; 'I' for Inactive)
ROOT
HETATM    1  C1  UNL     1     -35.630   5.789   4.575  1.00 20.00    -0.025 C 
HETATM    2  C2  UNL     1     -34.706   5.246   3.760  1.00 20.00    -0.025 C 
HETATM    3  C3  UNL     1     -33.340   8.723   5.613  1.00 20.00    -0.022 C 
HETATM    4  C4  UNL     1     -32.333   8.929   4.734  1.00 20.00     0.007 C 
HETATM    5  C5  UNL     1     -33.919   5.170   5.920  1.00 20.00     0.018 C 
HETATM    6  C6  UNL     1     -34.894   6.350   5.792  1.00 20.00     0.017 C 
HETATM    7  C7  UNL     1     -33.373   5.315   4.466  1.00 20.00     0.016 C 
HETATM    8  C8  UNL     1     -34.077   7.510   5.169  1.00 20.00     0.023 C 
HETATM    9  C9  UNL     1     -32.174   7.754   3.770  1.00 20.00     0.198 C 
HETATM   10  C10 UNL     1     -32.832   6.732   4.659  1.00 20.00     0.039 C 
HETATM   11  F11 UNL     1     -32.875   7.944   2.629  1.00 20.00    -0.245 F 
ENDROOT
TORSDOF 0
ENDMDL
MODEL 8
REMARK VINA RESULT:      -3.9     12.179     13.424
REMARK  0 active torsions:
REMARK  status: ('A' for Active; 'I' for Inactive)
ROOT
HETATM    1  C1  UNL     1     -34.899  18.226  -2.385  1.00 20.00    -0.025 C 
HETATM    2  C2  UNL     1     -33.997  17.436  -1.770  1.00 20.00    -0.025 C 
HETATM    3  C3  UNL     1     -34.570  16.382  -5.765  1.00 20.00    -0.022 C 
HETATM    4  C4  UNL     1     -34.044  15.142  -5.628  1.00 20.00     0.007 C 
HETATM    5  C5  UNL     1     -32.932  18.609  -3.438  1.00 20.00     0.018 C 
HETATM    6  C6  UNL     1     -34.412  18.446  -3.818  1.00 20.00     0.017 C 
HETATM    7  C7  UNL     1     -32.845  17.225  -2.723  1.00 20.00     0.016 C 
HETATM    8  C8  UNL     1     -34.541  17.027  -4.425  1.00 20.00     0.023 C 
HETATM    9  C9  UNL     1     -33.417  14.941  -4.249  1.00 20.00     0.198 C 
HETATM   10  C10 UNL     1     -33.193  16.403  -3.965  1.00 20.00     0.039 C 
HETATM   11  F11 UNL     1     -34.294  14.395  -3.376  1.00 20.00    -0.245 F 
ENDROOT
TORSDOF 0
ENDMDL
MODEL 9
REMARK VINA RESULT:      -3.9      8.758     10.309
REMARK  0 active torsions:
REMARK  status: ('A' for Active; 'I' for Inactive)
ROOT
HETATM    1  C1  UNL     1     -40.893   7.633   1.072  1.00 20.00    -0.025 C 
HETATM    2  C2  UNL     1     -40.913   7.787  -0.265  1.00 20.00    -0.025 C 
HETATM    3  C3  UNL     1     -43.352   4.653   1.009  1.00 20.00    -0.022 C 
HETATM    4  C4  UNL     1     -43.416   4.062  -0.206  1.00 20.00     0.007 C 
HETATM    5  C5  UNL     1     -43.017   8.222   0.557  1.00 20.00     0.018 C 
HETATM    6  C6  UNL     1     -42.306   7.248   1.510  1.00 20.00     0.017 C 
HETATM    7  C7  UNL     1     -42.344   7.639  -0.724  1.00 20.00     0.016 C 
HETATM    8  C8  UNL     1     -42.469   5.842   0.879  1.00 20.00     0.023 C 
HETATM    9  C9  UNL     1     -42.774   4.925  -1.292  1.00 20.00     0.198 C 
HETATM   10  C10 UNL     1     -42.920   6.232  -0.557  1.00 20.00     0.039 C 
HETATM   11  F11 UNL     1     -41.473   4.606  -1.481  1.00 20.00    -0.245 F 
ENDROOT
TORSDOF 0
ENDMDL
