MODEL 1
REMARK VINA RESULT:      -4.3      0.000      0.000
REMARK  0 active torsions:
REMARK  status: ('A' for Active; 'I' for Inactive)
ROOT
HETATM    1  C1  UNL     1     -33.937   6.986   5.306  1.00 20.00    -0.075 C 
HETATM    2  C2  UNL     1     -33.517   8.253   5.288  1.00 20.00     0.015 C 
HETATM    3  C3  UNL     1     -34.032   5.952   6.405  1.00 20.00     0.036 C 
HETATM    4  C4  UNL     1     -34.982   5.219   5.438  1.00 20.00     0.024 C 
HETATM    5  C5  UNL     1     -34.498   6.068   4.240  1.00 20.00     0.086 C 
HETATM    6 BR6  UNL     1     -33.131   5.266   3.129  1.00 20.00    -0.086 Br
ENDROOT
TORSDOF 0
ENDMDL
MODEL 2
REMARK VINA RESULT:      -4.0      1.902      2.881
REMARK  0 active torsions:
REMARK  status: ('A' for Active; 'I' for Inactive)
ROOT
HETATM    1  C1  UNL     1     -33.226   6.426   3.709  1.00 20.00    -0.075 C 
HETATM    2  C2  UNL     1     -32.978   5.485   2.795  1.00 20.00     0.015 C 
HETATM    3  C3  UNL     1     -32.443   7.632   4.178  1.00 20.00     0.036 C 
HETATM    4  C4  UNL     1     -33.789   8.098   4.768  1.00 20.00     0.024 C 
HETATM    5  C5  UNL     1     -34.391   6.679   4.643  1.00 20.00     0.086 C 
HETATM    6 BR6  UNL     1     -34.337   5.590   6.242  1.00 20.00    -0.086 Br
ENDROOT
TORSDOF 0
ENDMDL
MODEL 3
REMARK VINA RESULT:      -4.0      1.812      2.547
REMARK  0 active torsions:
REMARK  status: ('A' for Active; 'I' for Inactive)
ROOT
HETATM    1  C1  UNL     1     -33.881   5.757   4.121  1.00 20.00    -0.075 C 
HETATM    2  C2  UNL     1     -33.281   5.315   3.013  1.00 20.00     0.015 C 
HETATM    3  C3  UNL     1     -35.298   5.641   4.636  1.00 20.00     0.036 C 
HETATM    4  C4  UNL     1     -34.685   6.036   5.994  1.00 20.00     0.024 C 
HETATM    5  C5  UNL     1     -33.391   6.545   5.318  1.00 20.00     0.086 C 
HETATM    6 BR6  UNL     1     -33.298   8.450   4.990  1.00 20.00    -0.086 Br
ENDROOT
TORSDOF 0
ENDMDL
MODEL 4
REMARK VINA RESULT:      -3.3      1.716      2.948
REMARK  0 active torsions:
REMARK  status: ('A' for Active; 'I' for Inactive)
ROOT
HETATM    1  C1  UNL     1     -33.528   7.053   4.390  1.00 20.00    -0.075 C 
HETATM    2  C2  UNL     1     -34.198   5.899   4.346  1.00 20.00     0.015 C 
HETATM    3  C3  UNL     1     -33.788   8.364   5.098  1.00 20.00     0.036 C 
HETATM    4  C4  UNL     1     -32.298   8.646   4.818  1.00 20.00     0.024 C 
HETATM    5  C5  UNL     1     -32.233   7.521   3.758  1.00 20.00     0.086 C 
HETATM    6 BR6  UNL     1     -32.441   8.078   1.916  1.00 20.00    -0.086 Br
ENDROOT
TORSDOF 0
ENDMDL
MODEL 5
REMARK VINA RESULT:      -3.2      1.648      2.389
REMARK  0 active torsions:
REMARK  status: ('A' for Active; 'I' for Inactive)
ROOT
HETATM    1  C1  UNL     1     -34.400   5.595   5.433  1.00 20.00    -0.075 C 
HETATM    2  C2  UNL     1     -34.896   5.524   6.670  1.00 20.00     0.015 C 
HETATM    3  C3  UNL     1     -33.754   4.572   4.527  1.00 20.00     0.036 C 
HETATM    4  C4  UNL     1     -34.054   5.586   3.405  1.00 20.00     0.024 C 
HETATM    5  C5  UNL     1     -34.288   6.722   4.427  1.00 20.00     0.086 C 
HETATM    6 BR6  UNL     1     -32.781   7.891   4.756  1.00 20.00    -0.086 Br
ENDROOT
TORSDOF 0
ENDMDL
MODEL 6
REMARK VINA RESULT:      -3.2      2.063      2.715
REMARK  0 active torsions:
REMARK  status: ('A' for Active; 'I' for Inactive)
ROOT
HETATM    1  C1  UNL     1     -32.736   7.570   4.048  1.00 20.00    -0.075 C 
HETATM    2  C2  UNL     1     -32.485   8.596   4.865  1.00 20.00     0.015 C 
HETATM    3  C3  UNL     1     -32.616   7.400   2.550  1.00 20.00     0.036 C 
HETATM    4  C4  UNL     1     -32.689   5.891   2.860  1.00 20.00     0.024 C 
HETATM    5  C5  UNL     1     -33.234   6.159   4.282  1.00 20.00     0.086 C 
HETATM    6 BR6  UNL     1     -35.156   6.054   4.487  1.00 20.00    -0.086 Br
ENDROOT
TORSDOF 0
ENDMDL
MODEL 7
REMARK VINA RESULT:      -3.1     15.642     16.933
REMARK  0 active torsions:
REMARK  status: ('A' for Active; 'I' for Inactive)
ROOT
HETATM    1  C1  UNL     1     -23.638  17.194  11.519  1.00 20.00    -0.075 C 
HETATM    2  C2  UNL     1     -24.440  16.183  11.861  1.00 20.00     0.015 C 
HETATM    3  C3  UNL     1     -22.825  18.178  12.330  1.00 20.00     0.036 C 
HETATM    4  C4  UNL     1     -22.082  18.437  11.004  1.00 20.00     0.024 C 
HETATM    5  C5  UNL     1     -23.209  17.766  10.184  1.00 20.00     0.086 C 
HETATM    6 BR6  UNL     1     -24.520  18.961   9.409  1.00 20.00    -0.086 Br
ENDROOT
TORSDOF 0
ENDMDL
MODEL 8
REMARK VINA RESULT:      -3.1      1.206      2.520
REMARK  0 active torsions:
REMARK  status: ('A' for Active; 'I' for Inactive)
ROOT
HETATM    1  C1  UNL     1     -33.587   7.281   5.247  1.00 20.00    -0.075 C 
HETATM    2  C2  UNL     1     -34.051   6.637   6.320  1.00 20.00     0.015 C 
HETATM    3  C3  UNL     1     -33.936   8.611   4.617  1.00 20.00     0.036 C 
HETATM    4  C4  UNL     1     -32.586   8.458   3.888  1.00 20.00     0.024 C 
HETATM    5  C5  UNL     1     -32.518   6.951   4.226  1.00 20.00     0.086 C 
HETATM    6 BR6  UNL     1     -33.132   5.744   2.843  1.00 20.00    -0.086 Br
ENDROOT
TORSDOF 0
ENDMDL
MODEL 9
REMARK VINA RESULT:      -3.1      9.049      9.792
REMARK  0 active torsions:
REMARK  status: ('A' for Active; 'I' for Inactive)
ROOT
HETATM    1  C1  UNL     1     -41.380   6.778  -0.248  1.00 20.00    -0.075 C 
HETATM    2  C2  UNL     1     -40.602   5.710  -0.436  1.00 20.00     0.015 C 
HETATM    3  C3  UNL     1     -41.089   8.260  -0.181  1.00 20.00     0.036 C 
HETATM    4  C4  UNL     1     -42.605   8.423  -0.406  1.00 20.00     0.024 C 
HETATM    5  C5  UNL     1     -42.870   6.947  -0.031  1.00 20.00     0.086 C 
HETATM    6 BR6  UNL     1     -43.416   6.621   1.797  1.00 20.00    -0.086 Br
ENDROOT
TORSDOF 0
ENDMDL
