MODEL 1
REMARK VINA RESULT:      -4.4      0.000      0.000
REMARK  1 active torsions:
REMARK  status: ('A' for Active; 'I' for Inactive)
REMARK    1  A    between atoms: C6_6  and  C10_10 
ROOT
HETATM    1  C1  UNL     1     -32.528   6.210   3.046  1.00 20.00     0.142 A 
HETATM    2  C2  UNL     1     -32.334   9.291   3.956  1.00 20.00     0.006 C 
HETATM    3  C3  UNL     1     -32.232   8.040   4.839  1.00 20.00     0.019 C 
HETATM    4  C4  UNL     1     -33.167   7.450   2.666  1.00 20.00     0.076 A 
HETATM    5  C5  UNL     1     -32.412   8.749   2.518  1.00 20.00    -0.006 C 
HETATM    6  C6  UNL     1     -33.089   7.017   4.120  1.00 20.00     0.034 A 
HETATM    7  C7  UNL     1     -33.088   9.726   1.570  1.00 20.00     0.011 C 
HETATM    8  O11 UNL     1     -32.696   5.058   2.703  1.00 20.00    -0.297 OA
ENDROOT
BRANCH   6   9
HETATM    9  C10 UNL     1     -34.350   6.612   4.822  1.00 20.00    -0.006 C 
HETATM   10  C8  UNL     1     -34.594   5.098   4.714  1.00 20.00     0.011 C 
HETATM   11  C9  UNL     1     -34.329   7.024   6.302  1.00 20.00     0.011 C 
ENDBRANCH   6   9
TORSDOF 1
ENDMDL
MODEL 2
REMARK VINA RESULT:      -4.2     11.688     13.085
REMARK  1 active torsions:
REMARK  status: ('A' for Active; 'I' for Inactive)
REMARK    1  A    between atoms: C6_6  and  C10_10 
ROOT
HETATM    1  C1  UNL     1     -34.418  17.758  -5.588  1.00 20.00     0.142 A 
HETATM    2  C2  UNL     1     -33.219  15.296  -3.899  1.00 20.00     0.006 C 
HETATM    3  C3  UNL     1     -33.679  15.299  -5.363  1.00 20.00     0.019 C 
HETATM    4  C4  UNL     1     -34.515  17.286  -4.226  1.00 20.00     0.076 A 
HETATM    5  C5  UNL     1     -33.328  16.764  -3.453  1.00 20.00    -0.006 C 
HETATM    6  C6  UNL     1     -34.762  16.357  -5.401  1.00 20.00     0.034 A 
HETATM    7  C7  UNL     1     -33.491  16.898  -1.947  1.00 20.00     0.011 C 
HETATM    8  O11 UNL     1     -34.954  18.671  -6.183  1.00 20.00    -0.297 OA
ENDROOT
BRANCH   6   9
HETATM    9  C10 UNL     1     -36.155  15.857  -5.647  1.00 20.00    -0.006 C 
HETATM   10  C8  UNL     1     -36.570  16.046  -7.116  1.00 20.00     0.011 C 
HETATM   11  C9  UNL     1     -36.300  14.378  -5.258  1.00 20.00     0.011 C 
ENDBRANCH   6   9
TORSDOF 1
ENDMDL
MODEL 3
REMARK VINA RESULT:      -4.1     11.141     12.798
REMARK  1 active torsions:
REMARK  status: ('A' for Active; 'I' for Inactive)
REMARK    1  A    between atoms: C6_6  and  C10_10 
ROOT
HETATM    1  C1  UNL     1     -35.871  14.061  -5.283  1.00 20.00     0.142 A 
HETATM    2  C2  UNL     1     -35.104  16.381  -7.376  1.00 20.00     0.006 C 
HETATM    3  C3  UNL     1     -34.172  15.342  -6.739  1.00 20.00     0.019 C 
HETATM    4  C4  UNL     1     -36.280  15.427  -5.518  1.00 20.00     0.076 A 
HETATM    5  C5  UNL     1     -36.513  15.986  -6.901  1.00 20.00    -0.006 C 
HETATM    6  C6  UNL     1     -34.813  15.053  -5.397  1.00 20.00     0.034 A 
HETATM    7  C7  UNL     1     -37.476  17.162  -6.914  1.00 20.00     0.011 C 
HETATM    8  O11 UNL     1     -36.158  13.251  -4.425  1.00 20.00    -0.297 OA
ENDROOT
BRANCH   6   9
HETATM    9  C10 UNL     1     -34.046  15.516  -4.194  1.00 20.00    -0.006 C 
HETATM   10  C8  UNL     1     -32.634  14.911  -4.159  1.00 20.00     0.011 C 
HETATM   11  C9  UNL     1     -33.950  17.049  -4.142  1.00 20.00     0.011 C 
ENDBRANCH   6   9
TORSDOF 1
ENDMDL
MODEL 4
REMARK VINA RESULT:      -4.0     11.371     12.921
REMARK  1 active torsions:
REMARK  status: ('A' for Active; 'I' for Inactive)
REMARK    1  A    between atoms: C6_6  and  C10_10 
ROOT
HETATM    1  C1  UNL     1     -34.673  15.867  -6.190  1.00 20.00     0.142 A 
HETATM    2  C2  UNL     1     -35.711  18.420  -4.529  1.00 20.00     0.006 C 
HETATM    3  C3  UNL     1     -34.263  17.960  -4.740  1.00 20.00     0.019 C 
HETATM    4  C4  UNL     1     -35.801  16.164  -5.336  1.00 20.00     0.076 A 
HETATM    5  C5  UNL     1     -36.554  17.471  -5.399  1.00 20.00    -0.006 C 
HETATM    6  C6  UNL     1     -34.378  16.456  -4.892  1.00 20.00     0.034 A 
HETATM    7  C7  UNL     1     -37.988  17.358  -4.906  1.00 20.00     0.011 C 
HETATM    8  O11 UNL     1     -34.304  14.850  -6.741  1.00 20.00    -0.297 OA
ENDROOT
BRANCH   6   9
HETATM    9  C10 UNL     1     -33.786  15.641  -3.782  1.00 20.00    -0.006 C 
HETATM   10  C8  UNL     1     -32.547  14.861  -4.254  1.00 20.00     0.011 C 
HETATM   11  C9  UNL     1     -33.412  16.516  -2.576  1.00 20.00     0.011 C 
ENDBRANCH   6   9
TORSDOF 1
ENDMDL
MODEL 5
REMARK VINA RESULT:      -3.9     10.454     11.477
REMARK  1 active torsions:
REMARK  status: ('A' for Active; 'I' for Inactive)
REMARK    1  A    between atoms: C6_6  and  C10_10 
ROOT
HETATM    1  C1  UNL     1     -40.387  14.948   7.990  1.00 20.00     0.142 A 
HETATM    2  C2  UNL     1     -41.419  13.230   5.472  1.00 20.00     0.006 C 
HETATM    3  C3  UNL     1     -42.184  14.306   6.255  1.00 20.00     0.019 C 
HETATM    4  C4  UNL     1     -40.227  13.591   7.520  1.00 20.00     0.076 A 
HETATM    5  C5  UNL     1     -40.000  13.248   6.067  1.00 20.00    -0.006 C 
HETATM    6  C6  UNL     1     -41.601  14.221   7.652  1.00 20.00     0.034 A 
HETATM    7  C7  UNL     1     -39.277  11.925   5.872  1.00 20.00     0.011 C 
HETATM    8  O11 UNL     1     -40.018  15.521   8.994  1.00 20.00    -0.297 OA
ENDROOT
BRANCH   6   9
HETATM    9  C10 UNL     1     -42.529  13.715   8.716  1.00 20.00    -0.006 C 
HETATM   10  C8  UNL     1     -43.415  14.842   9.273  1.00 20.00     0.011 C 
HETATM   11  C9  UNL     1     -43.417  12.574   8.195  1.00 20.00     0.011 C 
ENDBRANCH   6   9
TORSDOF 1
ENDMDL
MODEL 6
REMARK VINA RESULT:      -3.9     13.065     14.169
REMARK  1 active torsions:
REMARK  status: ('A' for Active; 'I' for Inactive)
REMARK    1  A    between atoms: C6_6  and  C10_10 
ROOT
HETATM    1  C1  UNL     1     -26.507  -3.865  11.123  1.00 20.00     0.142 A 
HETATM    2  C2  UNL     1     -24.445  -1.459  11.685  1.00 20.00     0.006 C 
HETATM    3  C3  UNL     1     -25.904  -1.577  12.147  1.00 20.00     0.019 C 
HETATM    4  C4  UNL     1     -25.457  -3.201  10.385  1.00 20.00     0.076 A 
HETATM    5  C5  UNL     1     -24.139  -2.807  11.009  1.00 20.00    -0.006 C 
HETATM    6  C6  UNL     1     -26.561  -2.413  11.067  1.00 20.00     0.034 A 
HETATM    7  C7  UNL     1     -23.009  -2.701   9.998  1.00 20.00     0.011 C 
HETATM    8  O11 UNL     1     -27.299  -4.736  10.825  1.00 20.00    -0.297 OA
ENDROOT
BRANCH   6   9
HETATM    9  C10 UNL     1     -27.572  -1.702  10.217  1.00 20.00    -0.006 C 
HETATM   10  C8  UNL     1     -29.005  -2.148  10.555  1.00 20.00     0.011 C 
HETATM   11  C9  UNL     1     -27.461  -0.177  10.364  1.00 20.00     0.011 C 
ENDBRANCH   6   9
TORSDOF 1
ENDMDL
MODEL 7
REMARK VINA RESULT:      -3.9      9.745     10.815
REMARK  1 active torsions:
REMARK  status: ('A' for Active; 'I' for Inactive)
REMARK    1  A    between atoms: C6_6  and  C10_10 
ROOT
HETATM    1  C1  UNL     1     -41.822  14.025   5.231  1.00 20.00     0.142 A 
HETATM    2  C2  UNL     1     -41.008  13.989   8.344  1.00 20.00     0.006 C 
HETATM    3  C3  UNL     1     -40.085  14.162   7.132  1.00 20.00     0.019 C 
HETATM    4  C4  UNL     1     -42.251  13.307   6.411  1.00 20.00     0.076 A 
HETATM    5  C5  UNL     1     -42.429  13.973   7.755  1.00 20.00    -0.006 C 
HETATM    6  C6  UNL     1     -40.783  13.392   6.030  1.00 20.00     0.034 A 
HETATM    7  C7  UNL     1     -43.417  13.246   8.653  1.00 20.00     0.011 C 
HETATM    8  O11 UNL     1     -42.132  13.944   4.061  1.00 20.00    -0.297 OA
ENDROOT
BRANCH   6   9
HETATM    9  C10 UNL     1     -40.087  12.150   5.559  1.00 20.00    -0.006 C 
HETATM   10  C8  UNL     1     -39.585  12.299   4.113  1.00 20.00     0.011 C 
HETATM   11  C9  UNL     1     -38.910  11.781   6.475  1.00 20.00     0.011 C 
ENDBRANCH   6   9
TORSDOF 1
ENDMDL
MODEL 8
REMARK VINA RESULT:      -3.8     11.146     11.992
REMARK  1 active torsions:
REMARK  status: ('A' for Active; 'I' for Inactive)
REMARK    1  A    between atoms: C6_6  and  C10_10 
ROOT
HETATM    1  C1  UNL     1     -40.750  14.522   8.369  1.00 20.00     0.142 A 
HETATM    2  C2  UNL     1     -42.539  16.712   6.834  1.00 20.00     0.006 C 
HETATM    3  C3  UNL     1     -42.804  15.207   6.970  1.00 20.00     0.019 C 
HETATM    4  C4  UNL     1     -40.495  15.701   7.573  1.00 20.00     0.076 A 
HETATM    5  C5  UNL     1     -41.300  16.971   7.709  1.00 20.00    -0.006 C 
HETATM    6  C6  UNL     1     -41.419  14.602   7.080  1.00 20.00     0.034 A 
HETATM    7  C7  UNL     1     -40.536  18.211   7.274  1.00 20.00     0.011 C 
HETATM    8  O11 UNL     1     -40.018  13.694   8.873  1.00 20.00    -0.297 OA
ENDROOT
BRANCH   6   9
HETATM    9  C10 UNL     1     -40.982  13.757   5.921  1.00 20.00    -0.006 C 
HETATM   10  C8  UNL     1     -41.109  12.257   6.237  1.00 20.00     0.011 C 
HETATM   11  C9  UNL     1     -41.782  14.083   4.651  1.00 20.00     0.011 C 
ENDBRANCH   6   9
TORSDOF 1
ENDMDL
MODEL 9
REMARK VINA RESULT:      -3.8      9.288     10.032
REMARK  1 active torsions:
REMARK  status: ('A' for Active; 'I' for Inactive)
REMARK    1  A    between atoms: C6_6  and  C10_10 
ROOT
HETATM    1  C1  UNL     1     -42.382   5.268  -1.206  1.00 20.00     0.142 A 
HETATM    2  C2  UNL     1     -40.958   7.269   0.873  1.00 20.00     0.006 C 
HETATM    3  C3  UNL     1     -41.031   5.738   0.940  1.00 20.00     0.019 C 
HETATM    4  C4  UNL     1     -42.663   6.578  -0.665  1.00 20.00     0.076 A 
HETATM    5  C5  UNL     1     -41.598   7.632  -0.478  1.00 20.00    -0.006 C 
HETATM    6  C6  UNL     1     -42.335   5.406   0.242  1.00 20.00     0.034 A 
HETATM    7  C7  UNL     1     -42.151   9.048  -0.491  1.00 20.00     0.011 C 
HETATM    8  O11 UNL     1     -43.002   4.534  -1.948  1.00 20.00    -0.297 OA
ENDROOT
BRANCH   6   9
HETATM    9  C10 UNL     1     -43.417   4.842   1.114  1.00 20.00    -0.006 C 
HETATM   10  C8  UNL     1     -43.417   3.305   1.091  1.00 20.00     0.011 C 
HETATM   11  C9  UNL     1     -43.286   5.335   2.564  1.00 20.00     0.011 C 
ENDBRANCH   6   9
TORSDOF 1
ENDMDL
