MODEL 1
REMARK VINA RESULT:      -3.7      0.000      0.000
REMARK  1 active torsions:
REMARK  status: ('A' for Active; 'I' for Inactive)
REMARK    1  A    between atoms: C4_4  and  C7_7 
ROOT
HETATM    1  C1  UNL     1     -34.415   6.943   5.829  1.00 20.00     0.014 C 
HETATM    2  C2  UNL     1     -33.694   6.983   4.870  1.00 20.00    -0.091 C 
HETATM    3  C3  UNL     1     -31.537   7.801   3.833  1.00 20.00     0.046 A 
HETATM    4  C4  UNL     1     -32.666   8.355   3.009  1.00 20.00     0.024 A 
HETATM    5  C5  UNL     1     -32.832   7.030   3.724  1.00 20.00     0.103 A 
HETATM    6 CL8  UNL     1     -32.805   5.524   2.803  1.00 20.00    -0.105 Cl
ENDROOT
BRANCH   4   7
HETATM    7  C7  UNL     1     -32.523   8.465   1.528  1.00 20.00     0.003 C 
HETATM    8  C6  UNL     1     -32.921   9.818   0.998  1.00 20.00     0.005 C 
ENDBRANCH   4   7
TORSDOF 1
ENDMDL
MODEL 2
REMARK VINA RESULT:      -3.6     11.021     11.764
REMARK  1 active torsions:
REMARK  status: ('A' for Active; 'I' for Inactive)
REMARK    1  A    between atoms: C4_4  and  C7_7 
ROOT
HETATM    1  C1  UNL     1     -33.319  16.220  -3.045  1.00 20.00     0.014 C 
HETATM    2  C2  UNL     1     -33.222  17.106  -2.240  1.00 20.00    -0.091 C 
HETATM    3  C3  UNL     1     -32.100  19.262  -1.539  1.00 20.00     0.046 A 
HETATM    4  C4  UNL     1     -31.835  18.249  -0.460  1.00 20.00     0.024 A 
HETATM    5  C5  UNL     1     -33.107  18.164  -1.279  1.00 20.00     0.103 A 
HETATM    6 CL8  UNL     1     -34.649  18.632  -0.559  1.00 20.00    -0.105 Cl
ENDROOT
BRANCH   4   7
HETATM    7  C7  UNL     1     -31.820  18.673   0.970  1.00 20.00     0.003 C 
HETATM    8  C6  UNL     1     -30.601  18.190   1.713  1.00 20.00     0.005 C 
ENDBRANCH   4   7
TORSDOF 1
ENDMDL
MODEL 3
REMARK VINA RESULT:      -3.6     10.986     11.840
REMARK  1 active torsions:
REMARK  status: ('A' for Active; 'I' for Inactive)
REMARK    1  A    between atoms: C4_4  and  C7_7 
ROOT
HETATM    1  C1  UNL     1     -31.446  18.612  -0.119  1.00 20.00     0.014 C 
HETATM    2  C2  UNL     1     -32.115  18.409  -1.094  1.00 20.00    -0.091 C 
HETATM    3  C3  UNL     1     -34.355  17.749  -2.069  1.00 20.00     0.046 A 
HETATM    4  C4  UNL     1     -33.346  16.742  -2.547  1.00 20.00     0.024 A 
HETATM    5  C5  UNL     1     -32.914  18.166  -2.261  1.00 20.00     0.103 A 
HETATM    6 CL8  UNL     1     -32.558  19.263  -3.597  1.00 20.00    -0.105 Cl
ENDROOT
BRANCH   4   7
HETATM    7  C7  UNL     1     -33.445  16.188  -3.929  1.00 20.00     0.003 C 
HETATM    8  C6  UNL     1     -33.754  14.714  -3.950  1.00 20.00     0.005 C 
ENDBRANCH   4   7
TORSDOF 1
ENDMDL
MODEL 4
REMARK VINA RESULT:      -3.6      9.417     10.270
REMARK  1 active torsions:
REMARK  status: ('A' for Active; 'I' for Inactive)
REMARK    1  A    between atoms: C4_4  and  C7_7 
ROOT
HETATM    1  C1  UNL     1     -43.417  12.559   7.967  1.00 20.00     0.014 C 
HETATM    2  C2  UNL     1     -42.418  12.881   7.386  1.00 20.00    -0.091 C 
HETATM    3  C3  UNL     1     -41.279  13.396   5.187  1.00 20.00     0.046 A 
HETATM    4  C4  UNL     1     -40.547  12.239   5.808  1.00 20.00     0.024 A 
HETATM    5  C5  UNL     1     -41.223  13.267   6.692  1.00 20.00     0.103 A 
HETATM    6 CL8  UNL     1     -40.249  14.447   7.572  1.00 20.00    -0.105 Cl
ENDROOT
BRANCH   4   7
HETATM    7  C7  UNL     1     -39.065  12.136   5.672  1.00 20.00     0.003 C 
HETATM    8  C6  UNL     1     -38.632  11.657   4.311  1.00 20.00     0.005 C 
ENDBRANCH   4   7
TORSDOF 1
ENDMDL
MODEL 5
REMARK VINA RESULT:      -3.5      1.722      4.007
REMARK  1 active torsions:
REMARK  status: ('A' for Active; 'I' for Inactive)
REMARK    1  A    between atoms: C4_4  and  C7_7 
ROOT
HETATM    1  C1  UNL     1     -32.926   9.595   1.416  1.00 20.00     0.014 C 
HETATM    2  C2  UNL     1     -32.819   8.999   2.453  1.00 20.00    -0.091 C 
HETATM    3  C3  UNL     1     -32.414   6.803   3.641  1.00 20.00     0.046 A 
HETATM    4  C4  UNL     1     -33.772   7.293   4.060  1.00 20.00     0.024 A 
HETATM    5  C5  UNL     1     -32.691   8.288   3.692  1.00 20.00     0.103 A 
HETATM    6 CL8  UNL     1     -31.885   9.220   4.957  1.00 20.00    -0.105 Cl
ENDROOT
BRANCH   4   7
HETATM    7  C7  UNL     1     -34.238   7.085   5.462  1.00 20.00     0.003 C 
HETATM    8  C6  UNL     1     -34.659   5.664   5.735  1.00 20.00     0.005 C 
ENDBRANCH   4   7
TORSDOF 1
ENDMDL
MODEL 6
REMARK VINA RESULT:      -3.5     15.027     15.939
REMARK  1 active torsions:
REMARK  status: ('A' for Active; 'I' for Inactive)
REMARK    1  A    between atoms: C4_4  and  C7_7 
ROOT
HETATM    1  C1  UNL     1     -21.293  17.626   6.966  1.00 20.00     0.014 C 
HETATM    2  C2  UNL     1     -22.043  17.972   7.837  1.00 20.00    -0.091 C 
HETATM    3  C3  UNL     1     -22.352  18.837  10.194  1.00 20.00     0.046 A 
HETATM    4  C4  UNL     1     -23.058  17.512  10.109  1.00 20.00     0.024 A 
HETATM    5  C5  UNL     1     -22.940  18.386   8.877  1.00 20.00     0.103 A 
HETATM    6 CL8  UNL     1     -24.355  19.258   8.279  1.00 20.00    -0.105 Cl
ENDROOT
BRANCH   4   7
HETATM    7  C7  UNL     1     -24.343  17.306  10.837  1.00 20.00     0.003 C 
HETATM    8  C6  UNL     1     -24.293  16.149  11.801  1.00 20.00     0.005 C 
ENDBRANCH   4   7
TORSDOF 1
ENDMDL
MODEL 7
REMARK VINA RESULT:      -3.5      9.501     10.752
REMARK  1 active torsions:
REMARK  status: ('A' for Active; 'I' for Inactive)
REMARK    1  A    between atoms: C4_4  and  C7_7 
ROOT
HETATM    1  C1  UNL     1     -38.913  11.603   4.372  1.00 20.00     0.014 C 
HETATM    2  C2  UNL     1     -39.778  12.268   4.873  1.00 20.00    -0.091 C 
HETATM    3  C3  UNL     1     -40.553  13.673   6.829  1.00 20.00     0.046 A 
HETATM    4  C4  UNL     1     -41.509  12.519   6.701  1.00 20.00     0.024 A 
HETATM    5  C5  UNL     1     -40.812  13.062   5.470  1.00 20.00     0.103 A 
HETATM    6 CL8  UNL     1     -41.716  14.032   4.304  1.00 20.00    -0.105 Cl
ENDROOT
BRANCH   4   7
HETATM    7  C7  UNL     1     -42.962  12.724   6.967  1.00 20.00     0.003 C 
HETATM    8  C6  UNL     1     -43.417  12.099   8.260  1.00 20.00     0.005 C 
ENDBRANCH   4   7
TORSDOF 1
ENDMDL
MODEL 8
REMARK VINA RESULT:      -3.4      9.912     10.736
REMARK  1 active torsions:
REMARK  status: ('A' for Active; 'I' for Inactive)
REMARK    1  A    between atoms: C4_4  and  C7_7 
ROOT
HETATM    1  C1  UNL     1     -43.115  15.502   5.559  1.00 20.00     0.014 C 
HETATM    2  C2  UNL     1     -42.484  14.564   5.962  1.00 20.00    -0.091 C 
HETATM    3  C3  UNL     1     -40.456  13.714   7.214  1.00 20.00     0.046 A 
HETATM    4  C4  UNL     1     -40.379  13.167   5.815  1.00 20.00     0.024 A 
HETATM    5  C5  UNL     1     -41.729  13.444   6.444  1.00 20.00     0.103 A 
HETATM    6 CL8  UNL     1     -42.736  12.100   6.990  1.00 20.00    -0.105 Cl
ENDROOT
BRANCH   4   7
HETATM    7  C7  UNL     1     -39.860  11.788   5.583  1.00 20.00     0.003 C 
HETATM    8  C6  UNL     1     -39.093  11.659   4.292  1.00 20.00     0.005 C 
ENDBRANCH   4   7
TORSDOF 1
ENDMDL
MODEL 9
REMARK VINA RESULT:      -3.4     11.179     11.818
REMARK  1 active torsions:
REMARK  status: ('A' for Active; 'I' for Inactive)
REMARK    1  A    between atoms: C4_4  and  C7_7 
ROOT
HETATM    1  C1  UNL     1     -33.277  15.549  -3.828  1.00 20.00     0.014 C 
HETATM    2  C2  UNL     1     -33.479  16.519  -3.151  1.00 20.00    -0.091 C 
HETATM    3  C3  UNL     1     -32.549  18.575  -2.005  1.00 20.00     0.046 A 
HETATM    4  C4  UNL     1     -33.149  17.702  -0.938  1.00 20.00     0.024 A 
HETATM    5  C5  UNL     1     -33.720  17.679  -2.341  1.00 20.00     0.103 A 
HETATM    6 CL8  UNL     1     -35.269  18.459  -2.674  1.00 20.00    -0.105 Cl
ENDROOT
BRANCH   4   7
HETATM    7  C7  UNL     1     -33.862  18.322   0.216  1.00 20.00     0.003 C 
HETATM    8  C6  UNL     1     -32.928  18.978   1.199  1.00 20.00     0.005 C 
ENDBRANCH   4   7
TORSDOF 1
ENDMDL
