MODEL 1
REMARK VINA RESULT:      -6.6      0.000      0.000
REMARK  0 active torsions:
REMARK  status: ('A' for Active; 'I' for Inactive)
ROOT
HETATM    1  C1  UNL     1     -33.834   7.141   6.404  1.00 20.00     0.017 A 
HETATM    2  C2  UNL     1     -34.573   6.059   6.126  1.00 20.00     0.054 A 
HETATM    3  C3  UNL     1     -33.744   6.104   3.754  1.00 20.00     0.060 A 
HETATM    4  C4  UNL     1     -32.998   7.192   4.018  1.00 20.00    -0.044 A 
HETATM    5  C5  UNL     1     -32.968   7.829   5.387  1.00 20.00     0.221 A 
HETATM    6  C6  UNL     1     -34.611   5.422   4.771  1.00 20.00     0.280 A 
HETATM    7  C7  UNL     1     -32.144   7.841   2.969  1.00 20.00     0.046 C 
HETATM    8  F8  UNL     1     -33.347   9.137   5.293  1.00 20.00    -0.240 F 
HETATM    9  F9  UNL     1     -34.236   4.114   4.877  1.00 20.00    -0.197 F 
HETATM   10  F10 UNL     1     -35.898   5.394   4.321  1.00 20.00    -0.197 F 
ENDROOT
TORSDOF 0
ENDMDL
MODEL 2
REMARK VINA RESULT:      -6.3      1.726      2.562
REMARK  0 active torsions:
REMARK  status: ('A' for Active; 'I' for Inactive)
ROOT
HETATM    1  C1  UNL     1     -34.042   5.514   3.764  1.00 20.00     0.017 A 
HETATM    2  C2  UNL     1     -34.489   5.023   4.928  1.00 20.00     0.054 A 
HETATM    3  C3  UNL     1     -33.614   7.057   6.119  1.00 20.00     0.060 A 
HETATM    4  C4  UNL     1     -33.160   7.561   4.958  1.00 20.00    -0.044 A 
HETATM    5  C5  UNL     1     -33.330   6.831   3.646  1.00 20.00     0.221 A 
HETATM    6  C6  UNL     1     -34.323   5.739   6.233  1.00 20.00     0.280 A 
HETATM    7  C7  UNL     1     -32.458   8.885   4.890  1.00 20.00     0.046 C 
HETATM    8  F8  UNL     1     -32.108   6.625   3.075  1.00 20.00    -0.240 F 
HETATM    9  F9  UNL     1     -35.549   5.935   6.799  1.00 20.00    -0.197 F 
HETATM   10  F10 UNL     1     -33.646   4.938   7.105  1.00 20.00    -0.197 F 
ENDROOT
TORSDOF 0
ENDMDL
MODEL 3
REMARK VINA RESULT:      -6.2      1.185      3.292
REMARK  0 active torsions:
REMARK  status: ('A' for Active; 'I' for Inactive)
ROOT
HETATM    1  C1  UNL     1     -34.704   5.540   5.853  1.00 20.00     0.017 A 
HETATM    2  C2  UNL     1     -34.326   6.786   6.166  1.00 20.00     0.054 A 
HETATM    3  C3  UNL     1     -33.092   6.958   3.983  1.00 20.00     0.060 A 
HETATM    4  C4  UNL     1     -33.464   5.707   3.656  1.00 20.00    -0.044 A 
HETATM    5  C5  UNL     1     -34.318   4.861   4.570  1.00 20.00     0.221 A 
HETATM    6  C6  UNL     1     -33.478   7.632   5.267  1.00 20.00     0.280 A 
HETATM    7  C7  UNL     1     -33.056   5.073   2.359  1.00 20.00     0.046 C 
HETATM    8  F8  UNL     1     -33.664   3.699   4.862  1.00 20.00    -0.240 F 
HETATM    9  F9  UNL     1     -34.138   8.793   4.985  1.00 20.00    -0.197 F 
HETATM   10  F10 UNL     1     -32.350   8.009   5.934  1.00 20.00    -0.197 F 
ENDROOT
TORSDOF 0
ENDMDL
MODEL 4
REMARK VINA RESULT:      -6.1      1.447      3.801
REMARK  0 active torsions:
REMARK  status: ('A' for Active; 'I' for Inactive)
ROOT
HETATM    1  C1  UNL     1     -33.459   5.568   3.186  1.00 20.00     0.017 A 
HETATM    2  C2  UNL     1     -32.648   6.557   2.788  1.00 20.00     0.054 A 
HETATM    3  C3  UNL     1     -33.036   7.749   4.966  1.00 20.00     0.060 A 
HETATM    4  C4  UNL     1     -33.853   6.763   5.379  1.00 20.00    -0.044 A 
HETATM    5  C5  UNL     1     -34.152   5.558   4.518  1.00 20.00     0.221 A 
HETATM    6  C6  UNL     1     -32.348   7.757   3.632  1.00 20.00     0.280 A 
HETATM    7  C7  UNL     1     -34.519   6.797   6.723  1.00 20.00     0.046 C 
HETATM    8  F8  UNL     1     -35.498   5.459   4.319  1.00 20.00    -0.240 F 
HETATM    9  F9  UNL     1     -31.000   7.849   3.822  1.00 20.00    -0.197 F 
HETATM   10  F10 UNL     1     -32.697   8.886   2.953  1.00 20.00    -0.197 F 
ENDROOT
TORSDOF 0
ENDMDL
MODEL 5
REMARK VINA RESULT:      -6.1      1.439      2.471
REMARK  0 active torsions:
REMARK  status: ('A' for Active; 'I' for Inactive)
ROOT
HETATM    1  C1  UNL     1     -32.939   5.883   2.817  1.00 20.00     0.017 A 
HETATM    2  C2  UNL     1     -33.837   5.164   3.503  1.00 20.00     0.054 A 
HETATM    3  C3  UNL     1     -33.971   6.984   5.231  1.00 20.00     0.060 A 
HETATM    4  C4  UNL     1     -33.070   7.717   4.553  1.00 20.00    -0.044 A 
HETATM    5  C5  UNL     1     -32.454   7.234   3.261  1.00 20.00     0.221 A 
HETATM    6  C6  UNL     1     -34.451   5.633   4.786  1.00 20.00     0.280 A 
HETATM    7  C7  UNL     1     -32.620   9.064   5.036  1.00 20.00     0.046 C 
HETATM    8  F8  UNL     1     -31.096   7.199   3.386  1.00 20.00    -0.240 F 
HETATM    9  F9  UNL     1     -35.809   5.660   4.652  1.00 20.00    -0.197 F 
HETATM   10  F10 UNL     1     -34.201   4.720   5.767  1.00 20.00    -0.197 F 
ENDROOT
TORSDOF 0
ENDMDL
MODEL 6
REMARK VINA RESULT:      -5.8      1.570      3.419
REMARK  0 active torsions:
REMARK  status: ('A' for Active; 'I' for Inactive)
ROOT
HETATM    1  C1  UNL     1     -34.021   7.726   6.081  1.00 20.00     0.017 A 
HETATM    2  C2  UNL     1     -33.210   8.476   5.322  1.00 20.00     0.054 A 
HETATM    3  C3  UNL     1     -33.000   6.583   3.682  1.00 20.00     0.060 A 
HETATM    4  C4  UNL     1     -33.812   5.819   4.434  1.00 20.00    -0.044 A 
HETATM    5  C5  UNL     1     -34.412   6.320   5.726  1.00 20.00     0.221 A 
HETATM    6  C6  UNL     1     -32.609   7.987   4.040  1.00 20.00     0.280 A 
HETATM    7  C7  UNL     1     -34.178   4.420   4.034  1.00 20.00     0.046 C 
HETATM    8  F8  UNL     1     -34.057   5.489   6.749  1.00 20.00    -0.240 F 
HETATM    9  F9  UNL     1     -32.966   8.827   3.026  1.00 20.00    -0.197 F 
HETATM   10  F10 UNL     1     -31.250   8.070   4.118  1.00 20.00    -0.197 F 
ENDROOT
TORSDOF 0
ENDMDL
MODEL 7
REMARK VINA RESULT:      -5.5      1.741      3.029
REMARK  0 active torsions:
REMARK  status: ('A' for Active; 'I' for Inactive)
ROOT
HETATM    1  C1  UNL     1     -32.646   7.761   3.977  1.00 20.00     0.017 A 
HETATM    2  C2  UNL     1     -32.450   6.937   2.940  1.00 20.00     0.054 A 
HETATM    3  C3  UNL     1     -33.961   5.237   4.009  1.00 20.00     0.060 A 
HETATM    4  C4  UNL     1     -34.166   6.054   5.057  1.00 20.00    -0.044 A 
HETATM    5  C5  UNL     1     -33.520   7.416   5.149  1.00 20.00     0.221 A 
HETATM    6  C6  UNL     1     -33.084   5.584   2.841  1.00 20.00     0.280 A 
HETATM    7  C7  UNL     1     -35.054   5.666   6.202  1.00 20.00     0.046 C 
HETATM    8  F8  UNL     1     -32.782   7.498   6.293  1.00 20.00    -0.240 F 
HETATM    9  F9  UNL     1     -33.816   5.511   1.692  1.00 20.00    -0.197 F 
HETATM   10  F10 UNL     1     -32.111   4.637   2.712  1.00 20.00    -0.197 F 
ENDROOT
TORSDOF 0
ENDMDL
MODEL 8
REMARK VINA RESULT:      -4.9      1.693      3.837
REMARK  0 active torsions:
REMARK  status: ('A' for Active; 'I' for Inactive)
ROOT
HETATM    1  C1  UNL     1     -32.163   6.783   2.718  1.00 20.00     0.017 A 
HETATM    2  C2  UNL     1     -32.299   7.978   3.309  1.00 20.00     0.054 A 
HETATM    3  C3  UNL     1     -33.949   6.987   4.926  1.00 20.00     0.060 A 
HETATM    4  C4  UNL     1     -33.823   5.782   4.342  1.00 20.00    -0.044 A 
HETATM    5  C5  UNL     1     -32.905   5.556   3.163  1.00 20.00     0.221 A 
HETATM    6  C6  UNL     1     -33.207   8.212   4.476  1.00 20.00     0.280 A 
HETATM    7  C7  UNL     1     -34.583   4.583   4.826  1.00 20.00     0.046 C 
HETATM    8  F8  UNL     1     -33.623   5.065   2.111  1.00 20.00    -0.240 F 
HETATM    9  F9  UNL     1     -32.481   8.707   5.521  1.00 20.00    -0.197 F 
HETATM   10  F10 UNL     1     -34.103   9.191   4.162  1.00 20.00    -0.197 F 
ENDROOT
TORSDOF 0
ENDMDL
MODEL 9
REMARK VINA RESULT:      -4.1     12.244     13.436
REMARK  0 active torsions:
REMARK  status: ('A' for Active; 'I' for Inactive)
ROOT
HETATM    1  C1  UNL     1     -34.829  18.378  -3.712  1.00 20.00     0.017 A 
HETATM    2  C2  UNL     1     -34.267  18.505  -2.503  1.00 20.00     0.054 A 
HETATM    3  C3  UNL     1     -33.262  16.213  -2.732  1.00 20.00     0.060 A 
HETATM    4  C4  UNL     1     -33.822  16.071  -3.947  1.00 20.00    -0.044 A 
HETATM    5  C5  UNL     1     -34.673  17.153  -4.567  1.00 20.00     0.221 A 
HETATM    6  C6  UNL     1     -33.423  17.437  -1.879  1.00 20.00     0.280 A 
HETATM    7  C7  UNL     1     -33.633  14.829  -4.766  1.00 20.00     0.046 C 
HETATM    8  F8  UNL     1     -35.910  16.654  -4.858  1.00 20.00    -0.240 F 
HETATM    9  F9  UNL     1     -32.191  17.947  -1.588  1.00 20.00    -0.197 F 
HETATM   10  F10 UNL     1     -33.960  17.081  -0.678  1.00 20.00    -0.197 F 
ENDROOT
TORSDOF 0
ENDMDL
