MODEL 1
REMARK VINA RESULT:      -4.5      0.000      0.000
REMARK  0 active torsions:
REMARK  status: ('A' for Active; 'I' for Inactive)
ROOT
HETATM    1  C1  UNL     1     -33.086   5.344   2.812  1.00 20.00     0.179 C 
HETATM    2  C2  UNL     1     -33.099   8.037   5.381  1.00 20.00    -0.010 C 
HETATM    3  C3  UNL     1     -33.910   7.454   6.274  1.00 20.00    -0.023 C 
HETATM    4  C4  UNL     1     -32.912   7.539   3.980  1.00 20.00     0.161 C 
HETATM    5  C5  UNL     1     -34.856   6.052   4.419  1.00 20.00     0.143 C 
HETATM    6  C6  UNL     1     -34.752   6.253   5.938  1.00 20.00     0.022 C 
HETATM    7  C7  UNL     1     -34.197   5.011   6.635  1.00 20.00     0.016 C 
HETATM    8  N8  UNL     1     -32.730   4.631   1.969  1.00 20.00    -0.172 NA
HETATM    9  N9  UNL     1     -33.500   6.171   3.794  1.00 20.00    -0.316 N 
ENDROOT
TORSDOF 0
ENDMDL
MODEL 2
REMARK VINA RESULT:      -4.4     15.575     16.855
REMARK  0 active torsions:
REMARK  status: ('A' for Active; 'I' for Inactive)
ROOT
HETATM    1  C1  UNL     1     -22.004  17.420   8.432  1.00 20.00     0.179 C 
HETATM    2  C2  UNL     1     -21.945  18.524  11.986  1.00 20.00    -0.010 C 
HETATM    3  C3  UNL     1     -23.182  18.144  12.332  1.00 20.00    -0.023 C 
HETATM    4  C4  UNL     1     -21.459  18.581  10.570  1.00 20.00     0.161 C 
HETATM    5  C5  UNL     1     -23.832  18.251   9.909  1.00 20.00     0.143 C 
HETATM    6  C6  UNL     1     -24.227  17.774  11.314  1.00 20.00     0.022 C 
HETATM    7  C7  UNL     1     -24.480  16.266  11.347  1.00 20.00     0.016 C 
HETATM    8  N8  UNL     1     -21.660  17.011   7.403  1.00 20.00    -0.172 NA
HETATM    9  N9  UNL     1     -22.405  17.894   9.630  1.00 20.00    -0.316 N 
ENDROOT
TORSDOF 0
ENDMDL
MODEL 3
REMARK VINA RESULT:      -4.4      1.509      1.995
REMARK  0 active torsions:
REMARK  status: ('A' for Active; 'I' for Inactive)
ROOT
HETATM    1  C1  UNL     1     -32.629   7.560   3.234  1.00 20.00     0.179 C 
HETATM    2  C2  UNL     1     -34.008   6.863   6.620  1.00 20.00    -0.010 C 
HETATM    3  C3  UNL     1     -34.585   5.682   6.359  1.00 20.00    -0.023 C 
HETATM    4  C4  UNL     1     -33.498   7.790   5.559  1.00 20.00     0.161 C 
HETATM    5  C5  UNL     1     -34.679   6.325   3.934  1.00 20.00     0.143 C 
HETATM    6  C6  UNL     1     -34.814   5.187   4.957  1.00 20.00     0.022 C 
HETATM    7  C7  UNL     1     -33.863   4.032   4.645  1.00 20.00     0.016 C 
HETATM    8  N8  UNL     1     -31.930   7.936   2.388  1.00 20.00    -0.172 NA
HETATM    9  N9  UNL     1     -33.443   7.121   4.217  1.00 20.00    -0.316 N 
ENDROOT
TORSDOF 0
ENDMDL
MODEL 4
REMARK VINA RESULT:      -3.8      1.621      3.479
REMARK  0 active torsions:
REMARK  status: ('A' for Active; 'I' for Inactive)
ROOT
HETATM    1  C1  UNL     1     -34.466   5.779   5.817  1.00 20.00     0.179 C 
HETATM    2  C2  UNL     1     -32.533   6.222   2.668  1.00 20.00    -0.010 C 
HETATM    3  C3  UNL     1     -32.228   7.520   2.805  1.00 20.00    -0.023 C 
HETATM    4  C4  UNL     1     -33.545   5.514   3.516  1.00 20.00     0.161 C 
HETATM    5  C5  UNL     1     -34.202   7.767   4.337  1.00 20.00     0.143 C 
HETATM    6  C6  UNL     1     -32.910   8.409   3.809  1.00 20.00     0.022 C 
HETATM    7  C7  UNL     1     -31.947   8.753   4.945  1.00 20.00     0.016 C 
HETATM    8  N8  UNL     1     -34.911   5.299   6.776  1.00 20.00    -0.172 NA
HETATM    9  N9  UNL     1     -33.948   6.337   4.704  1.00 20.00    -0.316 N 
ENDROOT
TORSDOF 0
ENDMDL
MODEL 5
REMARK VINA RESULT:      -3.7     15.750     16.825
REMARK  0 active torsions:
REMARK  status: ('A' for Active; 'I' for Inactive)
ROOT
HETATM    1  C1  UNL     1     -24.337  16.759  11.614  1.00 20.00     0.179 C 
HETATM    2  C2  UNL     1     -24.397  19.253   8.852  1.00 20.00    -0.010 C 
HETATM    3  C3  UNL     1     -23.088  19.263   8.567  1.00 20.00    -0.023 C 
HETATM    4  C4  UNL     1     -24.974  18.618  10.081  1.00 20.00     0.161 C 
HETATM    5  C5  UNL     1     -22.631  18.425  10.889  1.00 20.00     0.143 C 
HETATM    6  C6  UNL     1     -22.056  18.666   9.486  1.00 20.00     0.022 C 
HETATM    7  C7  UNL     1     -21.494  17.381   8.878  1.00 20.00     0.016 C 
HETATM    8  N8  UNL     1     -24.655  15.899  12.325  1.00 20.00    -0.172 NA
HETATM    9  N9  UNL     1     -23.968  17.758  10.786  1.00 20.00    -0.316 N 
ENDROOT
TORSDOF 0
ENDMDL
MODEL 6
REMARK VINA RESULT:      -3.6     12.865     13.893
REMARK  0 active torsions:
REMARK  status: ('A' for Active; 'I' for Inactive)
ROOT
HETATM    1  C1  UNL     1     -35.382  15.034  -6.003  1.00 20.00     0.179 C 
HETATM    2  C2  UNL     1     -33.395  16.171  -3.068  1.00 20.00    -0.010 C 
HETATM    3  C3  UNL     1     -33.818  17.441  -3.024  1.00 20.00    -0.023 C 
HETATM    4  C4  UNL     1     -33.650  15.251  -4.223  1.00 20.00     0.161 C 
HETATM    5  C5  UNL     1     -34.422  17.268  -5.454  1.00 20.00     0.143 C 
HETATM    6  C6  UNL     1     -34.563  18.085  -4.162  1.00 20.00     0.022 C 
HETATM    7  C7  UNL     1     -36.029  18.289  -3.780  1.00 20.00     0.016 C 
HETATM    8  N8  UNL     1     -35.999  14.360  -6.717  1.00 20.00    -0.172 NA
HETATM    9  N9  UNL     1     -34.665  15.818  -5.171  1.00 20.00    -0.316 N 
ENDROOT
TORSDOF 0
ENDMDL
MODEL 7
REMARK VINA RESULT:      -3.6     15.401     16.726
REMARK  0 active torsions:
REMARK  status: ('A' for Active; 'I' for Inactive)
ROOT
HETATM    1  C1  UNL     1     -24.732  19.111   8.421  1.00 20.00     0.179 C 
HETATM    2  C2  UNL     1     -21.951  18.519  10.823  1.00 20.00    -0.010 C 
HETATM    3  C3  UNL     1     -22.641  17.864  11.766  1.00 20.00    -0.023 C 
HETATM    4  C4  UNL     1     -22.593  19.263   9.692  1.00 20.00     0.161 C 
HETATM    5  C5  UNL     1     -24.737  18.947  10.909  1.00 20.00     0.143 C 
HETATM    6  C6  UNL     1     -24.146  17.847  11.802  1.00 20.00     0.022 C 
HETATM    7  C7  UNL     1     -24.664  16.463  11.411  1.00 20.00     0.016 C 
HETATM    8  N8  UNL     1     -25.315  19.252   7.428  1.00 20.00    -0.172 NA
HETATM    9  N9  UNL     1     -24.054  18.945   9.576  1.00 20.00    -0.316 N 
ENDROOT
TORSDOF 0
ENDMDL
MODEL 8
REMARK VINA RESULT:      -3.5     12.939     14.050
REMARK  0 active torsions:
REMARK  status: ('A' for Active; 'I' for Inactive)
ROOT
HETATM    1  C1  UNL     1     -36.434  17.795  -4.636  1.00 20.00     0.179 C 
HETATM    2  C2  UNL     1     -34.107  14.892  -4.750  1.00 20.00    -0.010 C 
HETATM    3  C3  UNL     1     -33.189  15.341  -3.884  1.00 20.00    -0.023 C 
HETATM    4  C4  UNL     1     -35.189  15.749  -5.331  1.00 20.00     0.161 C 
HETATM    5  C5  UNL     1     -33.958  17.682  -4.366  1.00 20.00     0.143 C 
HETATM    6  C6  UNL     1     -33.131  16.778  -3.440  1.00 20.00     0.022 C 
HETATM    7  C7  UNL     1     -33.584  16.896  -1.985  1.00 20.00     0.016 C 
HETATM    8  N8  UNL     1     -37.409  18.422  -4.651  1.00 20.00    -0.172 NA
HETATM    9  N9  UNL     1     -35.299  17.065  -4.618  1.00 20.00    -0.316 N 
ENDROOT
TORSDOF 0
ENDMDL
MODEL 9
REMARK VINA RESULT:      -3.3      9.068      9.894
REMARK  0 active torsions:
REMARK  status: ('A' for Active; 'I' for Inactive)
ROOT
HETATM    1  C1  UNL     1     -42.902   4.642  -1.460  1.00 20.00     0.179 C 
HETATM    2  C2  UNL     1     -40.415   6.683   0.411  1.00 20.00    -0.010 C 
HETATM    3  C3  UNL     1     -41.256   7.291   1.259  1.00 20.00    -0.023 C 
HETATM    4  C4  UNL     1     -40.864   5.912  -0.793  1.00 20.00     0.161 C 
HETATM    5  C5  UNL     1     -43.117   6.876  -0.375  1.00 20.00     0.143 C 
HETATM    6  C6  UNL     1     -42.748   7.290   1.057  1.00 20.00     0.022 C 
HETATM    7  C7  UNL     1     -43.417   6.389   2.095  1.00 20.00     0.016 C 
HETATM    8  N8  UNL     1     -43.384   3.768  -2.052  1.00 20.00    -0.172 NA
HETATM    9  N9  UNL     1     -42.342   5.657  -0.770  1.00 20.00    -0.316 N 
ENDROOT
TORSDOF 0
ENDMDL
