MODEL 1
REMARK VINA RESULT:      -5.9      0.000      0.000
REMARK  0 active torsions:
REMARK  status: ('A' for Active; 'I' for Inactive)
ROOT
HETATM    1  C1  UNL     1     -33.123   5.095   2.773  1.00 20.00     0.001 C 
HETATM    2  C2  UNL     1     -32.074   8.824   4.935  1.00 20.00     0.001 C 
HETATM    3  C3  UNL     1     -32.513   6.490   2.863  1.00 20.00     0.005 C 
HETATM    4  C4  UNL     1     -32.615   8.903   3.501  1.00 20.00     0.005 C 
HETATM    5  C5  UNL     1     -33.383   4.482   4.144  1.00 20.00     0.005 C 
HETATM    6  C6  UNL     1     -32.922   7.768   5.656  1.00 20.00     0.005 C 
HETATM    7  C7  UNL     1     -34.820   5.411   6.109  1.00 20.00     0.010 A 
HETATM    8  C8  UNL     1     -33.453   7.624   3.315  1.00 20.00    -0.010 C 
HETATM    9  C9  UNL     1     -34.694   4.925   4.691  1.00 20.00    -0.010 A 
HETATM   10  C10 UNL     1     -34.090   7.524   4.708  1.00 20.00    -0.006 C 
HETATM   11  C11 UNL     1     -35.009   6.373   4.960  1.00 20.00    -0.006 A 
ENDROOT
TORSDOF 0
ENDMDL
MODEL 2
REMARK VINA RESULT:      -4.9      0.903      3.447
REMARK  0 active torsions:
REMARK  status: ('A' for Active; 'I' for Inactive)
ROOT
HETATM    1  C1  UNL     1     -32.582   8.338   4.232  1.00 20.00     0.001 C 
HETATM    2  C2  UNL     1     -34.199   5.003   6.670  1.00 20.00     0.001 C 
HETATM    3  C3  UNL     1     -33.284   7.765   5.459  1.00 20.00     0.005 C 
HETATM    4  C4  UNL     1     -35.002   6.304   6.534  1.00 20.00     0.005 C 
HETATM    5  C5  UNL     1     -31.839   7.272   3.435  1.00 20.00     0.005 C 
HETATM    6  C6  UNL     1     -33.644   4.693   5.274  1.00 20.00     0.005 C 
HETATM    7  C7  UNL     1     -32.759   5.079   2.371  1.00 20.00     0.010 A 
HETATM    8  C8  UNL     1     -34.546   6.920   5.198  1.00 20.00    -0.010 C 
HETATM    9  C9  UNL     1     -32.749   6.579   2.483  1.00 20.00    -0.010 A 
HETATM   10  C10 UNL     1     -34.402   5.644   4.356  1.00 20.00    -0.006 C 
HETATM   11  C11 UNL     1     -33.957   5.805   2.940  1.00 20.00    -0.006 A 
ENDROOT
TORSDOF 0
ENDMDL
MODEL 3
REMARK VINA RESULT:      -4.4      0.808      2.629
REMARK  0 active torsions:
REMARK  status: ('A' for Active; 'I' for Inactive)
ROOT
HETATM    1  C1  UNL     1     -34.576   6.284   5.783  1.00 20.00     0.001 C 
HETATM    2  C2  UNL     1     -32.760   9.506   3.334  1.00 20.00     0.001 C 
HETATM    3  C3  UNL     1     -33.974   7.672   5.591  1.00 20.00     0.005 C 
HETATM    4  C4  UNL     1     -32.199   9.205   4.730  1.00 20.00     0.005 C 
HETATM    5  C5  UNL     1     -34.982   5.637   4.465  1.00 20.00     0.005 C 
HETATM    6  C6  UNL     1     -33.031   8.146   2.677  1.00 20.00     0.005 C 
HETATM    7  C7  UNL     1     -33.524   5.142   2.363  1.00 20.00     0.010 A 
HETATM    8  C8  UNL     1     -32.553   7.730   4.997  1.00 20.00    -0.010 C 
HETATM    9  C9  UNL     1     -33.827   4.951   3.823  1.00 20.00    -0.010 A 
HETATM   10  C10 UNL     1     -32.332   7.149   3.593  1.00 20.00    -0.006 C 
HETATM   11  C11 UNL     1     -32.580   5.687   3.410  1.00 20.00    -0.006 A 
ENDROOT
TORSDOF 0
ENDMDL
MODEL 4
REMARK VINA RESULT:      -4.3      1.021      1.914
REMARK  0 active torsions:
REMARK  status: ('A' for Active; 'I' for Inactive)
ROOT
HETATM    1  C1  UNL     1     -32.366   7.111   2.579  1.00 20.00     0.001 C 
HETATM    2  C2  UNL     1     -33.371   7.882   6.830  1.00 20.00     0.001 C 
HETATM    3  C3  UNL     1     -32.543   8.018   3.793  1.00 20.00     0.005 C 
HETATM    4  C4  UNL     1     -33.856   8.855   5.746  1.00 20.00     0.005 C 
HETATM    5  C5  UNL     1     -32.303   5.636   2.958  1.00 20.00     0.005 C 
HETATM    6  C6  UNL     1     -33.583   6.471   6.268  1.00 20.00     0.005 C 
HETATM    7  C7  UNL     1     -34.042   4.203   4.266  1.00 20.00     0.010 A 
HETATM    8  C8  UNL     1     -33.933   8.014   4.458  1.00 20.00    -0.010 C 
HETATM    9  C9  UNL     1     -33.668   5.054   3.084  1.00 20.00    -0.010 A 
HETATM   10  C10 UNL     1     -34.454   6.692   5.037  1.00 20.00    -0.006 C 
HETATM   11  C11 UNL     1     -34.673   5.564   4.083  1.00 20.00    -0.006 A 
ENDROOT
TORSDOF 0
ENDMDL
MODEL 5
REMARK VINA RESULT:      -4.1      0.969      3.431
REMARK  0 active torsions:
REMARK  status: ('A' for Active; 'I' for Inactive)
ROOT
HETATM    1  C1  UNL     1     -34.567   5.860   6.444  1.00 20.00     0.001 C 
HETATM    2  C2  UNL     1     -32.588   5.010   2.565  1.00 20.00     0.001 C 
HETATM    3  C3  UNL     1     -34.327   5.019   5.194  1.00 20.00     0.005 C 
HETATM    4  C4  UNL     1     -34.096   4.765   2.719  1.00 20.00     0.005 C 
HETATM    5  C5  UNL     1     -33.467   6.889   6.674  1.00 20.00     0.005 C 
HETATM    6  C6  UNL     1     -32.296   6.344   3.264  1.00 20.00     0.005 C 
HETATM    7  C7  UNL     1     -32.631   8.779   5.087  1.00 20.00     0.010 A 
HETATM    8  C8  UNL     1     -34.546   5.722   3.840  1.00 20.00    -0.010 C 
HETATM    9  C9  UNL     1     -33.721   8.132   5.895  1.00 20.00    -0.010 A 
HETATM   10  C10 UNL     1     -33.676   6.942   3.508  1.00 20.00    -0.006 C 
HETATM   11  C11 UNL     1     -33.810   8.139   4.392  1.00 20.00    -0.006 A 
ENDROOT
TORSDOF 0
ENDMDL
MODEL 6
REMARK VINA RESULT:      -4.0      0.879      3.957
REMARK  0 active torsions:
REMARK  status: ('A' for Active; 'I' for Inactive)
ROOT
HETATM    1  C1  UNL     1     -33.332   8.446   5.823  1.00 20.00     0.001 C 
HETATM    2  C2  UNL     1     -33.897   4.196   4.683  1.00 20.00     0.001 C 
HETATM    3  C3  UNL     1     -33.936   7.057   6.005  1.00 20.00     0.005 C 
HETATM    4  C4  UNL     1     -35.106   5.030   5.130  1.00 20.00     0.005 C 
HETATM    5  C5  UNL     1     -32.130   8.441   4.887  1.00 20.00     0.005 C 
HETATM    6  C6  UNL     1     -33.066   5.100   3.765  1.00 20.00     0.005 C 
HETATM    7  C7  UNL     1     -31.977   7.623   2.418  1.00 20.00     0.010 A 
HETATM    8  C8  UNL     1     -34.727   6.489   4.810  1.00 20.00    -0.010 C 
HETATM    9  C9  UNL     1     -32.556   8.536   3.463  1.00 20.00    -0.010 A 
HETATM   10  C10 UNL     1     -33.985   6.283   3.483  1.00 20.00    -0.006 C 
HETATM   11  C11 UNL     1     -33.431   7.497   2.812  1.00 20.00    -0.006 A 
ENDROOT
TORSDOF 0
ENDMDL
MODEL 7
REMARK VINA RESULT:      -3.9      0.926      3.418
REMARK  0 active torsions:
REMARK  status: ('A' for Active; 'I' for Inactive)
ROOT
HETATM    1  C1  UNL     1     -32.042   7.210   2.600  1.00 20.00     0.001 C 
HETATM    2  C2  UNL     1     -35.556   5.247   4.466  1.00 20.00     0.001 C 
HETATM    3  C3  UNL     1     -32.985   6.032   2.820  1.00 20.00     0.005 C 
HETATM    4  C4  UNL     1     -34.246   4.464   4.301  1.00 20.00     0.005 C 
HETATM    5  C5  UNL     1     -32.624   8.525   3.107  1.00 20.00     0.005 C 
HETATM    6  C6  UNL     1     -35.160   6.652   4.938  1.00 20.00     0.005 C 
HETATM    7  C7  UNL     1     -33.461   9.135   5.497  1.00 20.00     0.010 A 
HETATM    8  C8  UNL     1     -33.139   5.535   4.270  1.00 20.00    -0.010 C 
HETATM    9  C9  UNL     1     -32.366   8.702   4.562  1.00 20.00    -0.010 A 
HETATM   10  C10 UNL     1     -33.690   6.513   5.316  1.00 20.00    -0.006 C 
HETATM   11  C11 UNL     1     -32.887   7.740   5.597  1.00 20.00    -0.006 A 
ENDROOT
TORSDOF 0
ENDMDL
MODEL 8
REMARK VINA RESULT:      -3.8     11.780     13.915
REMARK  0 active torsions:
REMARK  status: ('A' for Active; 'I' for Inactive)
ROOT
HETATM    1  C1  UNL     1     -34.081  14.493  -4.204  1.00 20.00     0.001 C 
HETATM    2  C2  UNL     1     -35.378  17.229  -7.447  1.00 20.00     0.001 C 
HETATM    3  C3  UNL     1     -34.866  14.830  -5.468  1.00 20.00     0.005 C 
HETATM    4  C4  UNL     1     -36.401  16.298  -6.783  1.00 20.00     0.005 C 
HETATM    5  C5  UNL     1     -32.985  15.510  -3.911  1.00 20.00     0.005 C 
HETATM    6  C6  UNL     1     -34.509  17.790  -6.314  1.00 20.00     0.005 C 
HETATM    7  C7  UNL     1     -33.184  18.086  -3.571  1.00 20.00     0.010 A 
HETATM    8  C8  UNL     1     -35.840  16.021  -5.376  1.00 20.00    -0.010 C 
HETATM    9  C9  UNL     1     -33.521  16.679  -3.161  1.00 20.00    -0.010 A 
HETATM   10  C10 UNL     1     -35.262  17.405  -5.047  1.00 20.00    -0.006 C 
HETATM   11  C11 UNL     1     -34.597  17.571  -3.720  1.00 20.00    -0.006 A 
ENDROOT
TORSDOF 0
ENDMDL
MODEL 9
REMARK VINA RESULT:      -3.8     12.046     13.839
REMARK  0 active torsions:
REMARK  status: ('A' for Active; 'I' for Inactive)
ROOT
HETATM    1  C1  UNL     1     -33.044  15.501  -3.809  1.00 20.00     0.001 C 
HETATM    2  C2  UNL     1     -36.265  18.551  -3.791  1.00 20.00     0.001 C 
HETATM    3  C3  UNL     1     -33.685  16.801  -3.332  1.00 20.00     0.005 C 
HETATM    4  C4  UNL     1     -34.797  18.996  -3.761  1.00 20.00     0.005 C 
HETATM    5  C5  UNL     1     -34.031  14.596  -4.536  1.00 20.00     0.005 C 
HETATM    6  C6  UNL     1     -36.345  17.401  -4.804  1.00 20.00     0.005 C 
HETATM    7  C7  UNL     1     -35.484  15.108  -6.638  1.00 20.00     0.010 A 
HETATM    8  C8  UNL     1     -34.014  17.844  -4.418  1.00 20.00    -0.010 C 
HETATM    9  C9  UNL     1     -34.142  14.966  -5.974  1.00 20.00    -0.010 A 
HETATM   10  C10 UNL     1     -35.003  17.451  -5.524  1.00 20.00    -0.006 C 
HETATM   11  C11 UNL     1     -34.613  16.324  -6.423  1.00 20.00    -0.006 A 
ENDROOT
TORSDOF 0
ENDMDL
