MODEL 1
REMARK VINA RESULT:      -5.7      0.000      0.000
REMARK  1 active torsions:
REMARK  status: ('A' for Active; 'I' for Inactive)
REMARK    1  A    between atoms: C8_8  and  C11_11 
ROOT
HETATM    1  C1  UNL     1     -33.628   5.245   3.676  1.00 20.00    -0.084 C 
HETATM    2  C2  UNL     1     -32.924   4.918   2.589  1.00 20.00     0.014 C 
HETATM    3  C3  UNL     1     -33.689   4.460   4.963  1.00 20.00     0.038 C 
HETATM    4  C4  UNL     1     -35.652   5.785   4.685  1.00 20.00     0.014 C 
HETATM    5  C5  UNL     1     -33.986   6.661   6.159  1.00 20.00     0.010 C 
HETATM    6  C6  UNL     1     -34.559   6.429   3.825  1.00 20.00     0.018 C 
HETATM    7  C7  UNL     1     -34.672   5.331   5.771  1.00 20.00    -0.010 C 
HETATM    8  C8  UNL     1     -33.964   7.447   4.825  1.00 20.00    -0.003 C 
ENDROOT
BRANCH   8   9
HETATM    9  C11 UNL     1     -32.590   7.993   4.464  1.00 20.00    -0.018 C 
HETATM   10  C9  UNL     1     -32.560   8.466   3.011  1.00 20.00     0.010 C 
HETATM   11  C10 UNL     1     -32.195   9.132   5.404  1.00 20.00     0.010 C 
ENDBRANCH   8   9
TORSDOF 1
ENDMDL
MODEL 2
REMARK VINA RESULT:      -4.1      9.702     10.796
REMARK  1 active torsions:
REMARK  status: ('A' for Active; 'I' for Inactive)
REMARK    1  A    between atoms: C8_8  and  C11_11 
ROOT
HETATM    1  C1  UNL     1     -42.778  12.814   7.173  1.00 20.00    -0.084 C 
HETATM    2  C2  UNL     1     -43.416  11.646   7.282  1.00 20.00     0.014 C 
HETATM    3  C3  UNL     1     -42.379  13.717   8.313  1.00 20.00     0.038 C 
HETATM    4  C4  UNL     1     -42.634  14.963   6.296  1.00 20.00     0.014 C 
HETATM    5  C5  UNL     1     -40.393  14.410   6.920  1.00 20.00     0.010 C 
HETATM    6  C6  UNL     1     -42.380  13.508   5.888  1.00 20.00     0.018 C 
HETATM    7  C7  UNL     1     -41.733  14.879   7.532  1.00 20.00    -0.010 C 
HETATM    8  C8  UNL     1     -40.841  13.510   5.743  1.00 20.00    -0.003 C 
ENDROOT
BRANCH   8   9
HETATM    9  C11 UNL     1     -40.182  12.139   5.741  1.00 20.00    -0.018 C 
HETATM   10  C9  UNL     1     -39.575  11.831   4.372  1.00 20.00     0.010 C 
HETATM   11  C10 UNL     1     -39.112  12.050   6.830  1.00 20.00     0.010 C 
ENDBRANCH   8   9
TORSDOF 1
ENDMDL
MODEL 3
REMARK VINA RESULT:      -3.8     11.907     13.962
REMARK  1 active torsions:
REMARK  status: ('A' for Active; 'I' for Inactive)
REMARK    1  A    between atoms: C8_8  and  C11_11 
ROOT
HETATM    1  C1  UNL     1     -35.043  18.678  -3.429  1.00 20.00    -0.084 C 
HETATM    2  C2  UNL     1     -36.097  19.080  -4.145  1.00 20.00     0.014 C 
HETATM    3  C3  UNL     1     -34.989  18.546  -1.928  1.00 20.00     0.038 C 
HETATM    4  C4  UNL     1     -32.808  18.898  -2.826  1.00 20.00     0.014 C 
HETATM    5  C5  UNL     1     -33.370  16.642  -2.267  1.00 20.00     0.010 C 
HETATM    6  C6  UNL     1     -33.669  18.334  -3.962  1.00 20.00     0.018 C 
HETATM    7  C7  UNL     1     -33.528  18.088  -1.744  1.00 20.00    -0.010 C 
HETATM    8  C8  UNL     1     -33.404  16.820  -3.805  1.00 20.00    -0.003 C 
ENDROOT
BRANCH   8   9
HETATM    9  C11 UNL     1     -34.402  15.905  -4.500  1.00 20.00    -0.018 C 
HETATM   10  C9  UNL     1     -34.403  16.151  -6.008  1.00 20.00     0.010 C 
HETATM   11  C10 UNL     1     -34.094  14.438  -4.199  1.00 20.00     0.010 C 
ENDBRANCH   8   9
TORSDOF 1
ENDMDL
MODEL 4
REMARK VINA RESULT:      -3.8      9.724     10.940
REMARK  1 active torsions:
REMARK  status: ('A' for Active; 'I' for Inactive)
REMARK    1  A    between atoms: C8_8  and  C11_11 
ROOT
HETATM    1  C1  UNL     1     -41.149  14.567   7.397  1.00 20.00    -0.084 C 
HETATM    2  C2  UNL     1     -40.278  14.792   8.385  1.00 20.00     0.014 C 
HETATM    3  C3  UNL     1     -41.783  15.615   6.517  1.00 20.00     0.038 C 
HETATM    4  C4  UNL     1     -43.155  13.668   6.639  1.00 20.00     0.014 C 
HETATM    5  C5  UNL     1     -41.808  13.891   4.676  1.00 20.00     0.010 C 
HETATM    6  C6  UNL     1     -41.731  13.229   6.996  1.00 20.00     0.018 C 
HETATM    7  C7  UNL     1     -42.685  14.726   5.636  1.00 20.00    -0.010 C 
HETATM    8  C8  UNL     1     -41.196  12.815   5.606  1.00 20.00    -0.003 C 
ENDROOT
BRANCH   8   9
HETATM    9  C11 UNL     1     -39.683  12.703   5.493  1.00 20.00    -0.018 C 
HETATM   10  C9  UNL     1     -39.112  11.880   6.648  1.00 20.00     0.010 C 
HETATM   11  C10 UNL     1     -39.283  12.088   4.152  1.00 20.00     0.010 C 
ENDBRANCH   8   9
TORSDOF 1
ENDMDL
MODEL 5
REMARK VINA RESULT:      -3.6     12.326     14.070
REMARK  1 active torsions:
REMARK  status: ('A' for Active; 'I' for Inactive)
REMARK    1  A    between atoms: C8_8  and  C11_11 
ROOT
HETATM    1  C1  UNL     1     -35.882  15.834  -5.722  1.00 20.00    -0.084 C 
HETATM    2  C2  UNL     1     -35.942  14.514  -5.920  1.00 20.00     0.014 C 
HETATM    3  C3  UNL     1     -37.036  16.728  -5.343  1.00 20.00     0.038 C 
HETATM    4  C4  UNL     1     -35.342  17.967  -6.475  1.00 20.00     0.014 C 
HETATM    5  C5  UNL     1     -35.374  18.153  -4.091  1.00 20.00     0.010 C 
HETATM    6  C6  UNL     1     -34.666  16.718  -5.899  1.00 20.00     0.018 C 
HETATM    7  C7  UNL     1     -36.326  18.096  -5.308  1.00 20.00    -0.010 C 
HETATM    8  C8  UNL     1     -34.195  17.249  -4.526  1.00 20.00    -0.003 C 
ENDROOT
BRANCH   8   9
HETATM    9  C11 UNL     1     -33.836  16.184  -3.500  1.00 20.00    -0.018 C 
HETATM   10  C9  UNL     1     -32.780  15.229  -4.056  1.00 20.00     0.010 C 
HETATM   11  C10 UNL     1     -33.344  16.825  -2.202  1.00 20.00     0.010 C 
ENDBRANCH   8   9
TORSDOF 1
ENDMDL
MODEL 6
REMARK VINA RESULT:      -3.6     12.306     13.804
REMARK  1 active torsions:
REMARK  status: ('A' for Active; 'I' for Inactive)
REMARK    1  A    between atoms: C8_8  and  C11_11 
ROOT
HETATM    1  C1  UNL     1     -33.755  16.935  -3.735  1.00 20.00    -0.084 C 
HETATM    2  C2  UNL     1     -33.282  15.687  -3.801  1.00 20.00     0.014 C 
HETATM    3  C3  UNL     1     -35.207  17.338  -3.806  1.00 20.00     0.038 C 
HETATM    4  C4  UNL     1     -33.797  19.124  -4.519  1.00 20.00     0.014 C 
HETATM    5  C5  UNL     1     -34.629  19.263  -2.281  1.00 20.00     0.010 C 
HETATM    6  C6  UNL     1     -32.939  18.205  -3.642  1.00 20.00     0.018 C 
HETATM    7  C7  UNL     1     -35.072  18.871  -3.709  1.00 20.00    -0.010 C 
HETATM    8  C8  UNL     1     -33.135  18.860  -2.255  1.00 20.00    -0.003 C 
ENDROOT
BRANCH   8   9
HETATM    9  C11 UNL     1     -32.761  17.992  -1.063  1.00 20.00    -0.018 C 
HETATM   10  C9  UNL     1     -31.494  18.516  -0.387  1.00 20.00     0.010 C 
HETATM   11  C10 UNL     1     -33.912  17.924  -0.058  1.00 20.00     0.010 C 
ENDBRANCH   8   9
TORSDOF 1
ENDMDL
MODEL 7
REMARK VINA RESULT:      -3.6     12.124     14.025
REMARK  1 active torsions:
REMARK  status: ('A' for Active; 'I' for Inactive)
REMARK    1  A    between atoms: C8_8  and  C11_11 
ROOT
HETATM    1  C1  UNL     1     -33.998  15.826  -4.285  1.00 20.00    -0.084 C 
HETATM    2  C2  UNL     1     -33.237  16.248  -3.271  1.00 20.00     0.014 C 
HETATM    3  C3  UNL     1     -34.650  14.471  -4.401  1.00 20.00     0.038 C 
HETATM    4  C4  UNL     1     -34.297  15.429  -6.556  1.00 20.00     0.014 C 
HETATM    5  C5  UNL     1     -36.512  15.602  -5.673  1.00 20.00     0.010 C 
HETATM    6  C6  UNL     1     -34.312  16.588  -5.554  1.00 20.00     0.018 C 
HETATM    7  C7  UNL     1     -35.331  14.610  -5.778  1.00 20.00    -0.010 C 
HETATM    8  C8  UNL     1     -35.808  16.977  -5.581  1.00 20.00    -0.003 C 
ENDROOT
BRANCH   8   9
HETATM    9  C11 UNL     1     -36.284  17.827  -4.413  1.00 20.00    -0.018 C 
HETATM   10  C9  UNL     1     -35.686  19.232  -4.484  1.00 20.00     0.010 C 
HETATM   11  C10 UNL     1     -37.811  17.900  -4.382  1.00 20.00     0.010 C 
ENDBRANCH   8   9
TORSDOF 1
ENDMDL
MODEL 8
REMARK VINA RESULT:      -3.5     10.652     11.515
REMARK  1 active torsions:
REMARK  status: ('A' for Active; 'I' for Inactive)
REMARK    1  A    between atoms: C8_8  and  C11_11 
ROOT
HETATM    1  C1  UNL     1     -41.288  13.102   5.938  1.00 20.00    -0.084 C 
HETATM    2  C2  UNL     1     -40.103  12.677   5.491  1.00 20.00     0.014 C 
HETATM    3  C3  UNL     1     -42.233  12.329   6.824  1.00 20.00     0.038 C 
HETATM    4  C4  UNL     1     -43.417  13.944   5.530  1.00 20.00     0.014 C 
HETATM    5  C5  UNL     1     -42.952  14.542   7.798  1.00 20.00     0.010 C 
HETATM    6  C6  UNL     1     -41.961  14.416   5.600  1.00 20.00     0.018 C 
HETATM    7  C7  UNL     1     -43.394  13.337   6.936  1.00 20.00    -0.010 C 
HETATM    8  C8  UNL     1     -42.008  15.323   6.851  1.00 20.00    -0.003 C 
ENDROOT
BRANCH   8   9
HETATM    9  C11 UNL     1     -40.659  15.651   7.473  1.00 20.00    -0.018 C 
HETATM   10  C9  UNL     1     -40.455  17.163   7.558  1.00 20.00     0.010 C 
HETATM   11  C10 UNL     1     -40.532  15.017   8.859  1.00 20.00     0.010 C 
ENDBRANCH   8   9
TORSDOF 1
ENDMDL
MODEL 9
REMARK VINA RESULT:      -3.5     10.776     11.650
REMARK  1 active torsions:
REMARK  status: ('A' for Active; 'I' for Inactive)
REMARK    1  A    between atoms: C8_8  and  C11_11 
ROOT
HETATM    1  C1  UNL     1     -41.999  14.024   4.973  1.00 20.00    -0.084 C 
HETATM    2  C2  UNL     1     -42.434  14.638   3.869  1.00 20.00     0.014 C 
HETATM    3  C3  UNL     1     -40.759  13.172   5.085  1.00 20.00     0.038 C 
HETATM    4  C4  UNL     1     -42.358  12.562   6.745  1.00 20.00     0.014 C 
HETATM    5  C5  UNL     1     -40.566  13.968   7.471  1.00 20.00     0.010 C 
HETATM    6  C6  UNL     1     -42.688  13.997   6.320  1.00 20.00     0.018 C 
HETATM    7  C7  UNL     1     -40.849  12.748   6.565  1.00 20.00    -0.010 C 
HETATM    8  C8  UNL     1     -41.865  14.802   7.352  1.00 20.00    -0.003 C 
ENDROOT
BRANCH   8   9
HETATM    9  C11 UNL     1     -41.619  16.261   6.997  1.00 20.00    -0.018 C 
HETATM   10  C9  UNL     1     -42.936  17.036   6.945  1.00 20.00     0.010 C 
HETATM   11  C10 UNL     1     -40.660  16.908   7.997  1.00 20.00     0.010 C 
ENDBRANCH   8   9
TORSDOF 1
ENDMDL
