MODEL 1
REMARK VINA RESULT:      -3.8      0.000      0.000
REMARK  0 active torsions:
REMARK  status: ('A' for Active; 'I' for Inactive)
ROOT
HETATM    1  C1  UNL     1     -31.226  18.513  -0.350  1.00 20.00     0.012 C 
HETATM    2  C2  UNL     1     -36.766  18.081  -4.149  1.00 20.00     0.012 C 
HETATM    3  C3  UNL     1     -32.338  18.190  -0.666  1.00 20.00    -0.113 C 
HETATM    4  C4  UNL     1     -35.762  18.554  -3.691  1.00 20.00    -0.113 C 
HETATM    5  C5  UNL     1     -33.094  17.033  -3.421  1.00 20.00     0.002 C 
HETATM    6  C6  UNL     1     -33.668  16.639  -2.057  1.00 20.00     0.017 C 
HETATM    7  C7  UNL     1     -33.293  18.509  -3.780  1.00 20.00     0.017 C 
HETATM    8  C8  UNL     1     -34.501  19.000  -1.593  1.00 20.00     0.034 C 
HETATM    9  C9  UNL     1     -33.706  17.795  -1.055  1.00 20.00     0.065 C 
HETATM   10  C10 UNL     1     -34.526  19.134  -3.128  1.00 20.00     0.065 C 
ENDROOT
TORSDOF 0
ENDMDL
MODEL 2
REMARK VINA RESULT:      -3.8      0.082      3.993
REMARK  0 active torsions:
REMARK  status: ('A' for Active; 'I' for Inactive)
ROOT
HETATM    1  C1  UNL     1     -36.767  18.094  -4.172  1.00 20.00     0.012 C 
HETATM    2  C2  UNL     1     -31.282  18.565  -0.299  1.00 20.00     0.012 C 
HETATM    3  C3  UNL     1     -35.785  18.584  -3.685  1.00 20.00    -0.113 C 
HETATM    4  C4  UNL     1     -32.379  18.217  -0.641  1.00 20.00    -0.113 C 
HETATM    5  C5  UNL     1     -33.064  17.155  -3.452  1.00 20.00     0.002 C 
HETATM    6  C6  UNL     1     -33.315  18.636  -3.751  1.00 20.00     0.017 C 
HETATM    7  C7  UNL     1     -33.636  16.681  -2.113  1.00 20.00     0.017 C 
HETATM    8  C8  UNL     1     -34.560  18.988  -1.557  1.00 20.00     0.034 C 
HETATM    9  C9  UNL     1     -34.578  19.186  -3.085  1.00 20.00     0.065 C 
HETATM   10  C10 UNL     1     -33.728  17.789  -1.063  1.00 20.00     0.065 C 
ENDROOT
TORSDOF 0
ENDMDL
MODEL 3
REMARK VINA RESULT:      -3.7     11.495     13.138
REMARK  0 active torsions:
REMARK  status: ('A' for Active; 'I' for Inactive)
ROOT
HETATM    1  C1  UNL     1     -32.909   9.473   1.673  1.00 20.00     0.012 C 
HETATM    2  C2  UNL     1     -34.054   5.182   6.731  1.00 20.00     0.012 C 
HETATM    3  C3  UNL     1     -32.680   8.821   2.654  1.00 20.00    -0.113 C 
HETATM    4  C4  UNL     1     -34.292   6.012   5.898  1.00 20.00    -0.113 C 
HETATM    5  C5  UNL     1     -33.380   5.835   2.959  1.00 20.00     0.002 C 
HETATM    6  C6  UNL     1     -32.141   6.559   3.491  1.00 20.00     0.017 C 
HETATM    7  C7  UNL     1     -34.705   6.390   3.491  1.00 20.00     0.017 C 
HETATM    8  C8  UNL     1     -33.534   8.161   4.897  1.00 20.00     0.034 C 
HETATM    9  C9  UNL     1     -32.401   8.020   3.862  1.00 20.00     0.065 C 
HETATM   10  C10 UNL     1     -34.585   7.034   4.872  1.00 20.00     0.065 C 
ENDROOT
TORSDOF 0
ENDMDL
MODEL 4
REMARK VINA RESULT:      -3.7     11.495     12.992
REMARK  0 active torsions:
REMARK  status: ('A' for Active; 'I' for Inactive)
ROOT
HETATM    1  C1  UNL     1     -34.078   5.189   6.718  1.00 20.00     0.012 C 
HETATM    2  C2  UNL     1     -32.915   9.432   1.623  1.00 20.00     0.012 C 
HETATM    3  C3  UNL     1     -34.318   6.002   5.868  1.00 20.00    -0.113 C 
HETATM    4  C4  UNL     1     -32.696   8.799   2.619  1.00 20.00    -0.113 C 
HETATM    5  C5  UNL     1     -33.344   5.804   2.950  1.00 20.00     0.002 C 
HETATM    6  C6  UNL     1     -34.690   6.338   3.448  1.00 20.00     0.017 C 
HETATM    7  C7  UNL     1     -32.130   6.560   3.499  1.00 20.00     0.017 C 
HETATM    8  C8  UNL     1     -33.585   8.153   4.852  1.00 20.00     0.034 C 
HETATM    9  C9  UNL     1     -34.611   7.003   4.823  1.00 20.00     0.065 C 
HETATM   10  C10 UNL     1     -32.426   8.020   3.845  1.00 20.00     0.065 C 
ENDROOT
TORSDOF 0
ENDMDL
MODEL 5
REMARK VINA RESULT:      -3.5      2.113      4.422
REMARK  0 active torsions:
REMARK  status: ('A' for Active; 'I' for Inactive)
ROOT
HETATM    1  C1  UNL     1     -34.020  15.563  -7.347  1.00 20.00     0.012 C 
HETATM    2  C2  UNL     1     -33.939  17.529  -0.910  1.00 20.00     0.012 C 
HETATM    3  C3  UNL     1     -34.366  15.637  -6.201  1.00 20.00    -0.113 C 
HETATM    4  C4  UNL     1     -33.510  17.247  -1.995  1.00 20.00    -0.113 C 
HETATM    5  C5  UNL     1     -34.690  18.280  -4.649  1.00 20.00     0.002 C 
HETATM    6  C6  UNL     1     -35.559  17.024  -4.540  1.00 20.00     0.017 C 
HETATM    7  C7  UNL     1     -33.213  18.050  -4.314  1.00 20.00     0.017 C 
HETATM    8  C8  UNL     1     -33.586  15.576  -3.838  1.00 20.00     0.034 C 
HETATM    9  C9  UNL     1     -34.789  15.727  -4.789  1.00 20.00     0.065 C 
HETATM   10  C10 UNL     1     -32.984  16.901  -3.331  1.00 20.00     0.065 C 
ENDROOT
TORSDOF 0
ENDMDL
MODEL 6
REMARK VINA RESULT:      -3.5      2.108      3.347
REMARK  0 active torsions:
REMARK  status: ('A' for Active; 'I' for Inactive)
ROOT
HETATM    1  C1  UNL     1     -33.958  17.598  -0.920  1.00 20.00     0.012 C 
HETATM    2  C2  UNL     1     -34.055  15.552  -7.332  1.00 20.00     0.012 C 
HETATM    3  C3  UNL     1     -33.530  17.301  -2.001  1.00 20.00    -0.113 C 
HETATM    4  C4  UNL     1     -34.398  15.642  -6.185  1.00 20.00    -0.113 C 
HETATM    5  C5  UNL     1     -34.700  18.309  -4.669  1.00 20.00     0.002 C 
HETATM    6  C6  UNL     1     -33.226  18.073  -4.329  1.00 20.00     0.017 C 
HETATM    7  C7  UNL     1     -35.579  17.060  -4.542  1.00 20.00     0.017 C 
HETATM    8  C8  UNL     1     -33.615  15.607  -3.823  1.00 20.00     0.034 C 
HETATM    9  C9  UNL     1     -33.005  16.935  -3.332  1.00 20.00     0.065 C 
HETATM   10  C10 UNL     1     -34.819  15.754  -4.774  1.00 20.00     0.065 C 
ENDROOT
TORSDOF 0
ENDMDL
MODEL 7
REMARK VINA RESULT:      -3.4     11.814     12.954
REMARK  0 active torsions:
REMARK  status: ('A' for Active; 'I' for Inactive)
ROOT
HETATM    1  C1  UNL     1     -43.070  16.047   8.828  1.00 20.00     0.012 C 
HETATM    2  C2  UNL     1     -39.627  12.046   4.651  1.00 20.00     0.012 C 
HETATM    3  C3  UNL     1     -42.336  15.743   7.928  1.00 20.00    -0.113 C 
HETATM    4  C4  UNL     1     -40.164  12.402   5.664  1.00 20.00    -0.113 C 
HETATM    5  C5  UNL     1     -42.992  13.620   5.792  1.00 20.00     0.002 C 
HETATM    6  C6  UNL     1     -42.236  14.937   5.594  1.00 20.00     0.017 C 
HETATM    7  C7  UNL     1     -42.341  12.671   6.802  1.00 20.00     0.017 C 
HETATM    8  C8  UNL     1     -40.429  14.287   7.267  1.00 20.00     0.034 C 
HETATM    9  C9  UNL     1     -41.433  15.369   6.822  1.00 20.00     0.065 C 
HETATM   10  C10 UNL     1     -40.826  12.842   6.909  1.00 20.00     0.065 C 
ENDROOT
TORSDOF 0
ENDMDL
MODEL 8
REMARK VINA RESULT:      -3.4     11.834     12.853
REMARK  0 active torsions:
REMARK  status: ('A' for Active; 'I' for Inactive)
ROOT
HETATM    1  C1  UNL     1     -39.669  12.062   4.720  1.00 20.00     0.012 C 
HETATM    2  C2  UNL     1     -43.189  16.169   8.726  1.00 20.00     0.012 C 
HETATM    3  C3  UNL     1     -40.226  12.442   5.712  1.00 20.00    -0.113 C 
HETATM    4  C4  UNL     1     -42.437  15.841   7.850  1.00 20.00    -0.113 C 
HETATM    5  C5  UNL     1     -43.055  13.664   5.757  1.00 20.00     0.002 C 
HETATM    6  C6  UNL     1     -42.425  12.739   6.801  1.00 20.00     0.017 C 
HETATM    7  C7  UNL     1     -42.292  14.974   5.540  1.00 20.00     0.017 C 
HETATM    8  C8  UNL     1     -40.521  14.365   7.265  1.00 20.00     0.034 C 
HETATM    9  C9  UNL     1     -40.911  12.911   6.934  1.00 20.00     0.065 C 
HETATM   10  C10 UNL     1     -41.513  15.436   6.771  1.00 20.00     0.065 C 
ENDROOT
TORSDOF 0
ENDMDL
MODEL 9
REMARK VINA RESULT:      -3.2     12.561     13.744
REMARK  0 active torsions:
REMARK  status: ('A' for Active; 'I' for Inactive)
ROOT
HETATM    1  C1  UNL     1     -40.057  11.961   5.746  1.00 20.00     0.012 C 
HETATM    2  C2  UNL     1     -43.416  16.069   9.887  1.00 20.00     0.012 C 
HETATM    3  C3  UNL     1     -40.918  12.711   6.114  1.00 20.00    -0.113 C 
HETATM    4  C4  UNL     1     -42.715  15.155   9.550  1.00 20.00    -0.113 C 
HETATM    5  C5  UNL     1     -40.395  15.395   7.536  1.00 20.00     0.002 C 
HETATM    6  C6  UNL     1     -41.491  15.082   6.514  1.00 20.00     0.017 C 
HETATM    7  C7  UNL     1     -40.447  14.526   8.796  1.00 20.00     0.017 C 
HETATM    8  C8  UNL     1     -42.488  13.245   7.971  1.00 20.00     0.034 C 
HETATM    9  C9  UNL     1     -41.979  13.633   6.569  1.00 20.00     0.065 C 
HETATM   10  C10 UNL     1     -41.853  14.030   9.135  1.00 20.00     0.065 C 
ENDROOT
TORSDOF 0
ENDMDL
