MODEL 1
REMARK VINA RESULT:      -4.3      0.000      0.000
REMARK  1 active torsions:
REMARK  status: ('A' for Active; 'I' for Inactive)
REMARK    1  A    between atoms: C6_6  and  C11_11 
ROOT
HETATM    1  C1  UNL     1     -32.433   6.308   2.546  1.00 20.00     0.003 C 
HETATM    2  C2  UNL     1     -33.115   5.799   3.583  1.00 20.00    -0.016 C 
HETATM    3  C3  UNL     1     -32.907   8.597   3.172  1.00 20.00    -0.019 C 
HETATM    4  C4  UNL     1     -32.432   7.730   2.262  1.00 20.00    -0.066 C 
HETATM    5  C5  UNL     1     -33.454   8.148   4.499  1.00 20.00     0.041 C 
HETATM    6  C6  UNL     1     -33.925   6.664   4.533  1.00 20.00    -0.020 C 
HETATM    7  C7  UNL     1     -31.859   8.160   0.947  1.00 20.00     0.048 C 
HETATM    8  C8  UNL     1     -35.404   6.573   4.112  1.00 20.00     0.020 C 
ENDROOT
BRANCH   6   9
HETATM    9  C11 UNL     1     -33.785   6.128   5.967  1.00 20.00    -0.011 C 
HETATM   10  C9  UNL     1     -34.204   7.196   6.968  1.00 20.00     0.010 C 
HETATM   11  C10 UNL     1     -34.615   4.863   6.136  1.00 20.00     0.010 C 
ENDBRANCH   6   9
TORSDOF 1
ENDMDL
MODEL 2
REMARK VINA RESULT:      -4.2     11.867     13.573
REMARK  1 active torsions:
REMARK  status: ('A' for Active; 'I' for Inactive)
REMARK    1  A    between atoms: C6_6  and  C11_11 
ROOT
HETATM    1  C1  UNL     1     -34.695  17.255  -4.170  1.00 20.00     0.003 C 
HETATM    2  C2  UNL     1     -35.368  16.753  -5.215  1.00 20.00    -0.016 C 
HETATM    3  C3  UNL     1     -33.219  15.344  -4.016  1.00 20.00    -0.019 C 
HETATM    4  C4  UNL     1     -33.683  16.484  -3.476  1.00 20.00    -0.066 C 
HETATM    5  C5  UNL     1     -33.716  14.822  -5.336  1.00 20.00     0.041 C 
HETATM    6  C6  UNL     1     -35.120  15.354  -5.752  1.00 20.00    -0.020 C 
HETATM    7  C7  UNL     1     -33.180  17.034  -2.176  1.00 20.00     0.048 C 
HETATM    8  C8  UNL     1     -36.219  14.430  -5.193  1.00 20.00     0.020 C 
ENDROOT
BRANCH   6   9
HETATM    9  C11 UNL     1     -35.215  15.364  -7.287  1.00 20.00    -0.011 C 
HETATM   10  C9  UNL     1     -36.287  16.345  -7.739  1.00 20.00     0.010 C 
HETATM   11  C10 UNL     1     -33.862  15.711  -7.893  1.00 20.00     0.010 C 
ENDBRANCH   6   9
TORSDOF 1
ENDMDL
MODEL 3
REMARK VINA RESULT:      -4.2     11.748     13.072
REMARK  1 active torsions:
REMARK  status: ('A' for Active; 'I' for Inactive)
REMARK    1  A    between atoms: C6_6  and  C11_11 
ROOT
HETATM    1  C1  UNL     1     -33.423  18.291   0.765  1.00 20.00     0.003 C 
HETATM    2  C2  UNL     1     -34.183  18.127  -0.327  1.00 20.00    -0.016 C 
HETATM    3  C3  UNL     1     -31.430  18.779  -0.516  1.00 20.00    -0.019 C 
HETATM    4  C4  UNL     1     -31.991  18.498   0.672  1.00 20.00    -0.066 C 
HETATM    5  C5  UNL     1     -32.238  18.889  -1.780  1.00 20.00     0.041 C 
HETATM    6  C6  UNL     1     -33.609  18.151  -1.733  1.00 20.00    -0.020 C 
HETATM    7  C7  UNL     1     -31.206  18.412   1.944  1.00 20.00     0.048 C 
HETATM    8  C8  UNL     1     -33.437  16.693  -2.200  1.00 20.00     0.020 C 
ENDROOT
BRANCH   6   9
HETATM    9  C11 UNL     1     -34.591  18.861  -2.680  1.00 20.00    -0.011 C 
HETATM   10  C9  UNL     1     -34.925  17.960  -3.860  1.00 20.00     0.010 C 
HETATM   11  C10 UNL     1     -35.850  19.263  -1.923  1.00 20.00     0.010 C 
ENDBRANCH   6   9
TORSDOF 1
ENDMDL
MODEL 4
REMARK VINA RESULT:      -4.2     11.724     12.873
REMARK  1 active torsions:
REMARK  status: ('A' for Active; 'I' for Inactive)
REMARK    1  A    between atoms: C6_6  and  C11_11 
ROOT
HETATM    1  C1  UNL     1     -33.654  16.452  -2.433  1.00 20.00     0.003 C 
HETATM    2  C2  UNL     1     -33.570  17.188  -1.315  1.00 20.00    -0.016 C 
HETATM    3  C3  UNL     1     -33.358  18.363  -3.886  1.00 20.00    -0.019 C 
HETATM    4  C4  UNL     1     -33.674  17.065  -3.746  1.00 20.00    -0.066 C 
HETATM    5  C5  UNL     1     -32.979  19.228  -2.715  1.00 20.00     0.041 C 
HETATM    6  C6  UNL     1     -33.484  18.704  -1.338  1.00 20.00    -0.020 C 
HETATM    7  C7  UNL     1     -34.028  16.182  -4.904  1.00 20.00     0.048 C 
HETATM    8  C8  UNL     1     -34.889  19.263  -1.047  1.00 20.00     0.020 C 
ENDROOT
BRANCH   6   9
HETATM    9  C11 UNL     1     -32.523  19.185  -0.238  1.00 20.00    -0.011 C 
HETATM   10  C9  UNL     1     -33.118  18.909   1.135  1.00 20.00     0.010 C 
HETATM   11  C10 UNL     1     -31.168  18.507  -0.395  1.00 20.00     0.010 C 
ENDBRANCH   6   9
TORSDOF 1
ENDMDL
MODEL 5
REMARK VINA RESULT:      -3.9      9.389     11.103
REMARK  1 active torsions:
REMARK  status: ('A' for Active; 'I' for Inactive)
REMARK    1  A    between atoms: C6_6  and  C11_11 
ROOT
HETATM    1  C1  UNL     1     -41.024  14.687   7.947  1.00 20.00     0.003 C 
HETATM    2  C2  UNL     1     -40.368  14.079   6.947  1.00 20.00    -0.016 C 
HETATM    3  C3  UNL     1     -42.984  13.290   7.706  1.00 20.00    -0.019 C 
HETATM    4  C4  UNL     1     -42.405  14.373   8.252  1.00 20.00    -0.066 C 
HETATM    5  C5  UNL     1     -42.246  12.372   6.770  1.00 20.00     0.041 C 
HETATM    6  C6  UNL     1     -41.013  13.020   6.071  1.00 20.00    -0.020 C 
HETATM    7  C7  UNL     1     -43.115  15.282   9.207  1.00 20.00     0.048 C 
HETATM    8  C8  UNL     1     -41.449  13.694   4.756  1.00 20.00     0.020 C 
ENDROOT
BRANCH   6   9
HETATM    9  C11 UNL     1     -39.988  11.921   5.748  1.00 20.00    -0.011 C 
HETATM   10  C9  UNL     1     -39.554  12.021   4.292  1.00 20.00     0.010 C 
HETATM   11  C10 UNL     1     -38.793  12.028   6.685  1.00 20.00     0.010 C 
ENDBRANCH   6   9
TORSDOF 1
ENDMDL
MODEL 6
REMARK VINA RESULT:      -3.9      9.209     10.400
REMARK  1 active torsions:
REMARK  status: ('A' for Active; 'I' for Inactive)
REMARK    1  A    between atoms: C6_6  and  C11_11 
ROOT
HETATM    1  C1  UNL     1     -39.417  12.360   6.284  1.00 20.00     0.003 C 
HETATM    2  C2  UNL     1     -40.178  12.898   7.248  1.00 20.00    -0.016 C 
HETATM    3  C3  UNL     1     -40.828  13.191   4.503  1.00 20.00    -0.019 C 
HETATM    4  C4  UNL     1     -39.815  12.399   4.891  1.00 20.00    -0.066 C 
HETATM    5  C5  UNL     1     -41.586  14.056   5.473  1.00 20.00     0.041 C 
HETATM    6  C6  UNL     1     -41.499  13.589   6.957  1.00 20.00    -0.020 C 
HETATM    7  C7  UNL     1     -39.031  11.552   3.935  1.00 20.00     0.048 C 
HETATM    8  C8  UNL     1     -42.632  12.590   7.261  1.00 20.00     0.020 C 
ENDROOT
BRANCH   6   9
HETATM    9  C11 UNL     1     -41.657  14.812   7.875  1.00 20.00    -0.011 C 
HETATM   10  C9  UNL     1     -40.374  15.049   8.658  1.00 20.00     0.010 C 
HETATM   11  C10 UNL     1     -42.033  16.037   7.053  1.00 20.00     0.010 C 
ENDBRANCH   6   9
TORSDOF 1
ENDMDL
MODEL 7
REMARK VINA RESULT:      -3.8     11.836     13.524
REMARK  1 active torsions:
REMARK  status: ('A' for Active; 'I' for Inactive)
REMARK    1  A    between atoms: C6_6  and  C11_11 
ROOT
HETATM    1  C1  UNL     1     -33.371  16.978  -1.861  1.00 20.00     0.003 C 
HETATM    2  C2  UNL     1     -33.454  16.908  -3.198  1.00 20.00    -0.016 C 
HETATM    3  C3  UNL     1     -34.999  18.762  -1.708  1.00 20.00    -0.019 C 
HETATM    4  C4  UNL     1     -34.061  18.008  -1.110  1.00 20.00    -0.066 C 
HETATM    5  C5  UNL     1     -35.370  18.582  -3.155  1.00 20.00     0.041 C 
HETATM    6  C6  UNL     1     -34.275  17.887  -4.018  1.00 20.00    -0.020 C 
HETATM    7  C7  UNL     1     -33.699  18.154   0.336  1.00 20.00     0.048 C 
HETATM    8  C8  UNL     1     -33.314  18.942  -4.597  1.00 20.00     0.020 C 
ENDROOT
BRANCH   6   9
HETATM    9  C11 UNL     1     -34.954  17.145  -5.182  1.00 20.00    -0.011 C 
HETATM   10  C9  UNL     1     -34.506  15.691  -5.210  1.00 20.00     0.010 C 
HETATM   11  C10 UNL     1     -36.468  17.250  -5.057  1.00 20.00     0.010 C 
ENDBRANCH   6   9
TORSDOF 1
ENDMDL
MODEL 8
REMARK VINA RESULT:      -3.8     12.064     13.393
REMARK  1 active torsions:
REMARK  status: ('A' for Active; 'I' for Inactive)
REMARK    1  A    between atoms: C6_6  and  C11_11 
ROOT
HETATM    1  C1  UNL     1     -33.437  16.147  -3.375  1.00 20.00     0.003 C 
HETATM    2  C2  UNL     1     -34.053  15.829  -4.523  1.00 20.00    -0.016 C 
HETATM    3  C3  UNL     1     -34.756  18.150  -3.053  1.00 20.00    -0.019 C 
HETATM    4  C4  UNL     1     -33.705  17.396  -2.689  1.00 20.00    -0.066 C 
HETATM    5  C5  UNL     1     -35.685  17.748  -4.166  1.00 20.00     0.041 C 
HETATM    6  C6  UNL     1     -35.072  16.740  -5.183  1.00 20.00    -0.020 C 
HETATM    7  C7  UNL     1     -32.785  17.767  -1.566  1.00 20.00     0.048 C 
HETATM    8  C8  UNL     1     -34.361  17.504  -6.316  1.00 20.00     0.020 C 
ENDROOT
BRANCH   6   9
HETATM    9  C11 UNL     1     -36.204  15.895  -5.792  1.00 20.00    -0.011 C 
HETATM   10  C9  UNL     1     -36.015  14.428  -5.432  1.00 20.00     0.010 C 
HETATM   11  C10 UNL     1     -37.555  16.408  -5.312  1.00 20.00     0.010 C 
ENDBRANCH   6   9
TORSDOF 1
ENDMDL
MODEL 9
REMARK VINA RESULT:      -3.8     15.237     16.318
REMARK  1 active torsions:
REMARK  status: ('A' for Active; 'I' for Inactive)
REMARK    1  A    between atoms: C6_6  and  C11_11 
ROOT
HETATM    1  C1  UNL     1     -23.168  19.166   9.032  1.00 20.00     0.003 C 
HETATM    2  C2  UNL     1     -23.691  19.263  10.263  1.00 20.00    -0.016 C 
HETATM    3  C3  UNL     1     -22.529  16.851   9.328  1.00 20.00    -0.019 C 
HETATM    4  C4  UNL     1     -22.461  17.977   8.598  1.00 20.00    -0.066 C 
HETATM    5  C5  UNL     1     -23.321  16.769  10.605  1.00 20.00     0.041 C 
HETATM    6  C6  UNL     1     -23.589  18.145  11.285  1.00 20.00    -0.020 C 
HETATM    7  C7  UNL     1     -21.700  18.069   7.311  1.00 20.00     0.048 C 
HETATM    8  C8  UNL     1     -22.438  18.488  12.249  1.00 20.00     0.020 C 
ENDROOT
BRANCH   6   9
HETATM    9  C11 UNL     1     -24.898  18.057  12.088  1.00 20.00    -0.011 C 
HETATM   10  C9  UNL     1     -25.923  19.033  11.529  1.00 20.00     0.010 C 
HETATM   11  C10 UNL     1     -25.430  16.630  12.066  1.00 20.00     0.010 C 
ENDBRANCH   6   9
TORSDOF 1
ENDMDL
