MODEL 1
REMARK VINA RESULT:      -4.0      0.000      0.000
REMARK  1 active torsions:
REMARK  status: ('A' for Active; 'I' for Inactive)
REMARK    1  A    between atoms: C1_1  and  C5_5 
ROOT
HETATM    1  C2  UNL     1     -40.438  14.348   8.846  1.00 20.00     0.006 C 
HETATM    2  C3  UNL     1     -41.949  14.276   9.099  1.00 20.00     0.006 C 
HETATM    3  C4  UNL     1     -41.555  15.900   7.444  1.00 20.00     0.011 C 
HETATM    4  C5  UNL     1     -40.766  13.966   6.329  1.00 20.00     0.084 C 
HETATM    5  C6  UNL     1     -40.344  14.961   7.434  1.00 20.00    -0.001 C 
HETATM    6  C7  UNL     1     -42.542  14.766   7.767  1.00 20.00    -0.006 C 
HETATM    7  C8  UNL     1     -42.286  13.743   6.608  1.00 20.00    -0.032 C 
HETATM    8  C9  UNL     1     -43.115  14.132   5.366  1.00 20.00     0.016 C 
HETATM    9  C10 UNL     1     -42.675  12.304   6.981  1.00 20.00     0.016 C 
ENDROOT
BRANCH   4  10
HETATM   10  C1  UNL     1     -39.899  12.745   6.283  1.00 20.00     0.224 C 
HETATM   11  O11 UNL     1     -39.329  12.320   7.283  1.00 20.00    -0.279 OA
HETATM   12 CL12 UNL     1     -39.824  12.056   4.688  1.00 20.00    -0.043 Cl
ENDBRANCH   4  10
TORSDOF 1
ENDMDL
MODEL 2
REMARK VINA RESULT:      -3.7     13.222     14.425
REMARK  1 active torsions:
REMARK  status: ('A' for Active; 'I' for Inactive)
REMARK    1  A    between atoms: C1_1  and  C5_5 
ROOT
HETATM    1  C2  UNL     1     -33.971  15.162  -6.654  1.00 20.00     0.006 C 
HETATM    2  C3  UNL     1     -34.388  16.467  -7.343  1.00 20.00     0.006 C 
HETATM    3  C4  UNL     1     -36.261  15.593  -6.220  1.00 20.00     0.011 C 
HETATM    4  C5  UNL     1     -34.825  16.000  -4.383  1.00 20.00     0.084 C 
HETATM    5  C6  UNL     1     -35.025  14.995  -5.541  1.00 20.00    -0.001 C 
HETATM    6  C7  UNL     1     -35.573  16.942  -6.484  1.00 20.00    -0.006 C 
HETATM    7  C8  UNL     1     -35.111  17.380  -5.052  1.00 20.00    -0.032 C 
HETATM    8  C9  UNL     1     -36.265  18.095  -4.320  1.00 20.00     0.016 C 
HETATM    9  C10 UNL     1     -33.919  18.351  -5.076  1.00 20.00     0.016 C 
ENDROOT
BRANCH   4  10
HETATM   10  C1  UNL     1     -33.503  15.839  -3.695  1.00 20.00     0.224 C 
HETATM   11  O11 UNL     1     -32.585  15.202  -4.202  1.00 20.00    -0.279 OA
HETATM   12 CL12 UNL     1     -33.465  16.647  -2.157  1.00 20.00    -0.043 Cl
ENDBRANCH   4  10
TORSDOF 1
ENDMDL
MODEL 3
REMARK VINA RESULT:      -3.4     13.268     14.293
REMARK  1 active torsions:
REMARK  status: ('A' for Active; 'I' for Inactive)
REMARK    1  A    between atoms: C1_1  and  C5_5 
ROOT
HETATM    1  C2  UNL     1     -35.747  17.773  -4.233  1.00 20.00     0.006 C 
HETATM    2  C3  UNL     1     -36.647  17.466  -5.437  1.00 20.00     0.006 C 
HETATM    3  C4  UNL     1     -34.586  18.267  -6.241  1.00 20.00     0.011 C 
HETATM    4  C5  UNL     1     -33.872  16.285  -5.160  1.00 20.00     0.084 C 
HETATM    5  C6  UNL     1     -34.327  17.726  -4.831  1.00 20.00    -0.001 C 
HETATM    6  C7  UNL     1     -35.631  17.185  -6.558  1.00 20.00    -0.006 C 
HETATM    7  C8  UNL     1     -34.842  15.856  -6.305  1.00 20.00    -0.032 C 
HETATM    8  C9  UNL     1     -34.038  15.471  -7.564  1.00 20.00     0.016 C 
HETATM    9  C10 UNL     1     -35.758  14.668  -5.971  1.00 20.00     0.016 C 
ENDROOT
BRANCH   4  10
HETATM   10  C1  UNL     1     -33.816  15.401  -3.951  1.00 20.00     0.224 C 
HETATM   11  O11 UNL     1     -33.984  14.188  -4.031  1.00 20.00    -0.279 OA
HETATM   12 CL12 UNL     1     -33.496  16.301  -2.499  1.00 20.00    -0.043 Cl
ENDBRANCH   4  10
TORSDOF 1
ENDMDL
MODEL 4
REMARK VINA RESULT:      -3.3      2.587      3.840
REMARK  1 active torsions:
REMARK  status: ('A' for Active; 'I' for Inactive)
REMARK    1  A    between atoms: C1_1  and  C5_5 
ROOT
HETATM    1  C2  UNL     1     -42.410  12.269   6.807  1.00 20.00     0.006 C 
HETATM    2  C3  UNL     1     -41.036  12.738   6.312  1.00 20.00     0.006 C 
HETATM    3  C4  UNL     1     -42.627  14.370   5.729  1.00 20.00     0.011 C 
HETATM    4  C5  UNL     1     -42.779  14.462   8.089  1.00 20.00     0.084 C 
HETATM    5  C6  UNL     1     -43.220  13.578   6.899  1.00 20.00    -0.001 C 
HETATM    6  C7  UNL     1     -41.193  14.268   6.271  1.00 20.00    -0.006 C 
HETATM    7  C8  UNL     1     -41.323  14.875   7.710  1.00 20.00    -0.032 C 
HETATM    8  C9  UNL     1     -41.207  16.412   7.648  1.00 20.00     0.016 C 
HETATM    9  C10 UNL     1     -40.233  14.377   8.673  1.00 20.00     0.016 C 
ENDROOT
BRANCH   4  10
HETATM   10  C1  UNL     1     -42.971  13.790   9.415  1.00 20.00     0.224 C 
HETATM   11  O11 UNL     1     -43.011  12.568   9.520  1.00 20.00    -0.279 OA
HETATM   12 CL12 UNL     1     -43.119  14.937  10.713  1.00 20.00    -0.043 Cl
ENDBRANCH   4  10
TORSDOF 1
ENDMDL
MODEL 5
REMARK VINA RESULT:      -3.2     13.340     14.398
REMARK  1 active torsions:
REMARK  status: ('A' for Active; 'I' for Inactive)
REMARK    1  A    between atoms: C1_1  and  C5_5 
ROOT
HETATM    1  C2  UNL     1     -35.539  14.209  -5.004  1.00 20.00     0.006 C 
HETATM    2  C3  UNL     1     -34.333  14.909  -4.364  1.00 20.00     0.006 C 
HETATM    3  C4  UNL     1     -34.162  15.132  -6.699  1.00 20.00     0.011 C 
HETATM    4  C5  UNL     1     -36.170  16.325  -6.311  1.00 20.00     0.084 C 
HETATM    5  C6  UNL     1     -35.641  14.875  -6.391  1.00 20.00    -0.001 C 
HETATM    6  C7  UNL     1     -33.948  15.959  -5.421  1.00 20.00    -0.006 C 
HETATM    7  C8  UNL     1     -35.036  17.079  -5.547  1.00 20.00    -0.032 C 
HETATM    8  C9  UNL     1     -34.500  18.242  -6.408  1.00 20.00     0.016 C 
HETATM    9  C10 UNL     1     -35.448  17.671  -4.190  1.00 20.00     0.016 C 
ENDROOT
BRANCH   4  10
HETATM   10  C1  UNL     1     -37.550  16.411  -5.734  1.00 20.00     0.224 C 
HETATM   11  O11 UNL     1     -38.053  15.473  -5.124  1.00 20.00    -0.279 OA
HETATM   12 CL12 UNL     1     -38.291  17.953  -6.039  1.00 20.00    -0.043 Cl
ENDBRANCH   4  10
TORSDOF 1
ENDMDL
MODEL 6
REMARK VINA RESULT:      -3.1     12.601     13.496
REMARK  1 active torsions:
REMARK  status: ('A' for Active; 'I' for Inactive)
REMARK    1  A    between atoms: C1_1  and  C5_5 
ROOT
HETATM    1  C2  UNL     1     -33.831  17.423  -1.635  1.00 20.00     0.006 C 
HETATM    2  C3  UNL     1     -34.848  18.559  -1.800  1.00 20.00     0.006 C 
HETATM    3  C4  UNL     1     -32.848  19.199  -2.859  1.00 20.00     0.011 C 
HETATM    4  C5  UNL     1     -33.429  17.313  -4.167  1.00 20.00     0.084 C 
HETATM    5  C6  UNL     1     -32.834  17.669  -2.785  1.00 20.00    -0.001 C 
HETATM    6  C7  UNL     1     -34.367  19.263  -3.082  1.00 20.00    -0.006 C 
HETATM    7  C8  UNL     1     -34.570  18.362  -4.347  1.00 20.00    -0.032 C 
HETATM    8  C9  UNL     1     -34.333  19.189  -5.628  1.00 20.00     0.016 C 
HETATM    9  C10 UNL     1     -35.986  17.773  -4.444  1.00 20.00     0.016 C 
ENDROOT
BRANCH   4  10
HETATM   10  C1  UNL     1     -33.810  15.869  -4.283  1.00 20.00     0.224 C 
HETATM   11  O11 UNL     1     -33.894  15.143  -3.297  1.00 20.00    -0.279 OA
HETATM   12 CL12 UNL     1     -34.101  15.400  -5.931  1.00 20.00    -0.043 Cl
ENDBRANCH   4  10
TORSDOF 1
ENDMDL
MODEL 7
REMARK VINA RESULT:      -3.1      2.339      3.507
REMARK  1 active torsions:
REMARK  status: ('A' for Active; 'I' for Inactive)
REMARK    1  A    between atoms: C1_1  and  C5_5 
ROOT
HETATM    1  C2  UNL     1     -41.677  14.302   5.676  1.00 20.00     0.006 C 
HETATM    2  C3  UNL     1     -43.201  14.268   5.854  1.00 20.00     0.006 C 
HETATM    3  C4  UNL     1     -42.308  12.290   6.761  1.00 20.00     0.011 C 
HETATM    4  C5  UNL     1     -41.300  13.893   8.182  1.00 20.00     0.084 C 
HETATM    5  C6  UNL     1     -41.173  13.319   6.752  1.00 20.00    -0.001 C 
HETATM    6  C7  UNL     1     -43.381  13.346   7.073  1.00 20.00    -0.006 C 
HETATM    7  C8  UNL     1     -42.843  14.009   8.386  1.00 20.00    -0.032 C 
HETATM    8  C9  UNL     1     -43.280  13.182   9.613  1.00 20.00     0.016 C 
HETATM    9  C10 UNL     1     -43.366  15.439   8.594  1.00 20.00     0.016 C 
ENDROOT
BRANCH   4  10
HETATM   10  C1  UNL     1     -40.494  15.140   8.383  1.00 20.00     0.224 C 
HETATM   11  O11 UNL     1     -40.216  15.886   7.449  1.00 20.00    -0.279 OA
HETATM   12 CL12 UNL     1     -40.035  15.360  10.045  1.00 20.00    -0.043 Cl
ENDBRANCH   4  10
TORSDOF 1
ENDMDL
MODEL 8
REMARK VINA RESULT:      -3.1      2.133      2.850
REMARK  1 active torsions:
REMARK  status: ('A' for Active; 'I' for Inactive)
REMARK    1  A    between atoms: C1_1  and  C5_5 
ROOT
HETATM    1  C2  UNL     1     -41.123  16.144   7.190  1.00 20.00     0.006 C 
HETATM    2  C3  UNL     1     -40.464  15.025   8.007  1.00 20.00     0.006 C 
HETATM    3  C4  UNL     1     -42.781  14.966   8.409  1.00 20.00     0.011 C 
HETATM    4  C5  UNL     1     -42.746  14.487   6.091  1.00 20.00     0.084 C 
HETATM    5  C6  UNL     1     -42.587  15.677   7.066  1.00 20.00    -0.001 C 
HETATM    6  C7  UNL     1     -41.604  14.005   8.171  1.00 20.00    -0.006 C 
HETATM    7  C8  UNL     1     -41.978  13.332   6.807  1.00 20.00    -0.032 C 
HETATM    8  C9  UNL     1     -42.924  12.137   7.049  1.00 20.00     0.016 C 
HETATM    9  C10 UNL     1     -40.755  12.795   6.046  1.00 20.00     0.016 C 
ENDROOT
BRANCH   4  10
HETATM   10  C1  UNL     1     -42.322  14.820   4.693  1.00 20.00     0.224 C 
HETATM   11  O11 UNL     1     -41.759  13.997   3.977  1.00 20.00    -0.279 OA
HETATM   12 CL12 UNL     1     -42.725  16.454   4.259  1.00 20.00    -0.043 Cl
ENDBRANCH   4  10
TORSDOF 1
ENDMDL
MODEL 9
REMARK VINA RESULT:      -3.0     13.509     14.625
REMARK  1 active torsions:
REMARK  status: ('A' for Active; 'I' for Inactive)
REMARK    1  A    between atoms: C1_1  and  C5_5 
ROOT
HETATM    1  C2  UNL     1     -36.306  15.867  -7.552  1.00 20.00     0.006 C 
HETATM    2  C3  UNL     1     -36.492  17.388  -7.610  1.00 20.00     0.006 C 
HETATM    3  C4  UNL     1     -37.629  16.576  -5.717  1.00 20.00     0.011 C 
HETATM    4  C5  UNL     1     -35.405  15.992  -5.152  1.00 20.00     0.084 C 
HETATM    5  C6  UNL     1     -36.562  15.533  -6.069  1.00 20.00    -0.001 C 
HETATM    6  C7  UNL     1     -36.739  17.757  -6.136  1.00 20.00    -0.006 C 
HETATM    7  C8  UNL     1     -35.453  17.548  -5.265  1.00 20.00    -0.032 C 
HETATM    8  C9  UNL     1     -35.653  18.175  -3.869  1.00 20.00     0.016 C 
HETATM    9  C10 UNL     1     -34.201  18.196  -5.877  1.00 20.00     0.016 C 
ENDROOT
BRANCH   4  10
HETATM   10  C1  UNL     1     -34.103  15.328  -5.482  1.00 20.00     0.224 C 
HETATM   11  O11 UNL     1     -33.864  14.900  -6.607  1.00 20.00    -0.279 OA
HETATM   12 CL12 UNL     1     -33.038  15.259  -4.109  1.00 20.00    -0.043 Cl
ENDBRANCH   4  10
TORSDOF 1
ENDMDL
