MODEL 1
REMARK VINA RESULT:      -4.7      0.000      0.000
REMARK  0 active torsions:
REMARK  status: ('A' for Active; 'I' for Inactive)
ROOT
HETATM    1  C1  UNL     1     -33.857   6.569   6.635  1.00 20.00    -0.004 C 
HETATM    2  C2  UNL     1     -33.562   7.639   5.715  1.00 20.00    -0.003 C 
HETATM    3  C3  UNL     1     -34.554   5.491   6.247  1.00 20.00    -0.025 C 
HETATM    4  C4  UNL     1     -33.789   7.509   4.401  1.00 20.00    -0.011 C 
HETATM    5  C5  UNL     1     -35.055   5.323   4.837  1.00 20.00     0.047 C 
HETATM    6  C6  UNL     1     -34.384   6.261   3.816  1.00 20.00     0.084 C 
HETATM    7 BR7  UNL     1     -32.911   5.310   2.927  1.00 20.00    -0.087 Br
ENDROOT
TORSDOF 0
ENDMDL
MODEL 2
REMARK VINA RESULT:      -4.7      0.898      1.466
REMARK  0 active torsions:
REMARK  status: ('A' for Active; 'I' for Inactive)
ROOT
HETATM    1  C1  UNL     1     -34.308   5.392   6.310  1.00 20.00    -0.004 C 
HETATM    2  C2  UNL     1     -33.950   6.740   6.676  1.00 20.00    -0.003 C 
HETATM    3  C3  UNL     1     -34.726   5.095   5.071  1.00 20.00    -0.025 C 
HETATM    4  C4  UNL     1     -33.823   7.701   5.751  1.00 20.00    -0.011 C 
HETATM    5  C5  UNL     1     -34.832   6.136   3.989  1.00 20.00     0.047 C 
HETATM    6  C6  UNL     1     -34.071   7.439   4.293  1.00 20.00     0.084 C 
HETATM    7 BR7  UNL     1     -32.303   7.377   3.436  1.00 20.00    -0.087 Br
ENDROOT
TORSDOF 0
ENDMDL
MODEL 3
REMARK VINA RESULT:      -4.5      1.857      3.055
REMARK  0 active torsions:
REMARK  status: ('A' for Active; 'I' for Inactive)
ROOT
HETATM    1  C1  UNL     1     -32.149   7.260   3.349  1.00 20.00    -0.004 C 
HETATM    2  C2  UNL     1     -32.851   6.062   2.959  1.00 20.00    -0.003 C 
HETATM    3  C3  UNL     1     -32.680   8.124   4.225  1.00 20.00    -0.025 C 
HETATM    4  C4  UNL     1     -33.956   5.665   3.604  1.00 20.00    -0.011 C 
HETATM    5  C5  UNL     1     -34.024   7.896   4.864  1.00 20.00     0.047 C 
HETATM    6  C6  UNL     1     -34.540   6.450   4.743  1.00 20.00     0.084 C 
HETATM    7 BR7  UNL     1     -34.094   5.459   6.381  1.00 20.00    -0.087 Br
ENDROOT
TORSDOF 0
ENDMDL
MODEL 4
REMARK VINA RESULT:      -4.0      1.890      2.851
REMARK  0 active torsions:
REMARK  status: ('A' for Active; 'I' for Inactive)
ROOT
HETATM    1  C1  UNL     1     -34.336   6.474   4.813  1.00 20.00    -0.004 C 
HETATM    2  C2  UNL     1     -33.751   5.760   3.705  1.00 20.00    -0.003 C 
HETATM    3  C3  UNL     1     -33.760   7.578   5.311  1.00 20.00    -0.025 C 
HETATM    4  C4  UNL     1     -32.734   6.279   3.003  1.00 20.00    -0.011 C 
HETATM    5  C5  UNL     1     -32.488   8.146   4.742  1.00 20.00     0.047 C 
HETATM    6  C6  UNL     1     -32.131   7.611   3.343  1.00 20.00     0.084 C 
HETATM    7 BR7  UNL     1     -32.773   8.872   1.979  1.00 20.00    -0.087 Br
ENDROOT
TORSDOF 0
ENDMDL
MODEL 5
REMARK VINA RESULT:      -3.8      1.793      2.818
REMARK  0 active torsions:
REMARK  status: ('A' for Active; 'I' for Inactive)
ROOT
HETATM    1  C1  UNL     1     -32.480   8.556   3.690  1.00 20.00    -0.004 C 
HETATM    2  C2  UNL     1     -32.885   8.469   5.071  1.00 20.00    -0.003 C 
HETATM    3  C3  UNL     1     -32.438   7.468   2.908  1.00 20.00    -0.025 C 
HETATM    4  C4  UNL     1     -33.429   7.349   5.566  1.00 20.00    -0.011 C 
HETATM    5  C5  UNL     1     -32.824   6.103   3.410  1.00 20.00     0.047 C 
HETATM    6  C6  UNL     1     -33.622   6.119   4.727  1.00 20.00     0.084 C 
HETATM    7 BR7  UNL     1     -35.543   6.020   4.326  1.00 20.00    -0.087 Br
ENDROOT
TORSDOF 0
ENDMDL
MODEL 6
REMARK VINA RESULT:      -3.6      1.680      2.485
REMARK  0 active torsions:
REMARK  status: ('A' for Active; 'I' for Inactive)
ROOT
HETATM    1  C1  UNL     1     -35.112   5.363   5.265  1.00 20.00    -0.004 C 
HETATM    2  C2  UNL     1     -34.311   5.347   4.066  1.00 20.00    -0.003 C 
HETATM    3  C3  UNL     1     -34.743   6.078   6.338  1.00 20.00    -0.025 C 
HETATM    4  C4  UNL     1     -33.288   6.197   3.902  1.00 20.00    -0.011 C 
HETATM    5  C5  UNL     1     -33.490   6.913   6.355  1.00 20.00     0.047 C 
HETATM    6  C6  UNL     1     -32.900   7.190   4.959  1.00 20.00     0.084 C 
HETATM    7 BR7  UNL     1     -33.522   8.943   4.324  1.00 20.00    -0.087 Br
ENDROOT
TORSDOF 0
ENDMDL
MODEL 7
REMARK VINA RESULT:      -3.5     16.457     17.308
REMARK  0 active torsions:
REMARK  status: ('A' for Active; 'I' for Inactive)
ROOT
HETATM    1  C1  UNL     1     -22.294  18.829   9.664  1.00 20.00    -0.004 C 
HETATM    2  C2  UNL     1     -23.718  18.982   9.496  1.00 20.00    -0.003 C 
HETATM    3  C3  UNL     1     -21.759  18.570  10.866  1.00 20.00    -0.025 C 
HETATM    4  C4  UNL     1     -24.571  18.671  10.482  1.00 20.00    -0.011 C 
HETATM    5  C5  UNL     1     -22.603  18.408  12.103  1.00 20.00     0.047 C 
HETATM    6  C6  UNL     1     -24.098  18.174  11.817  1.00 20.00     0.084 C 
HETATM    7 BR7  UNL     1     -24.474  16.246  11.854  1.00 20.00    -0.087 Br
ENDROOT
TORSDOF 0
ENDMDL
MODEL 8
REMARK VINA RESULT:      -3.3      9.017      9.851
REMARK  0 active torsions:
REMARK  status: ('A' for Active; 'I' for Inactive)
ROOT
HETATM    1  C1  UNL     1     -40.799   7.572  -0.258  1.00 20.00    -0.004 C 
HETATM    2  C2  UNL     1     -40.771   6.137  -0.394  1.00 20.00    -0.003 C 
HETATM    3  C3  UNL     1     -41.955   8.233  -0.102  1.00 20.00    -0.025 C 
HETATM    4  C4  UNL     1     -41.864   5.396  -0.166  1.00 20.00    -0.011 C 
HETATM    5  C5  UNL     1     -43.283   7.527  -0.044  1.00 20.00     0.047 C 
HETATM    6  C6  UNL     1     -43.179   6.013   0.215  1.00 20.00     0.084 C 
HETATM    7 BR7  UNL     1     -43.417   5.662   2.135  1.00 20.00    -0.087 Br
ENDROOT
TORSDOF 0
ENDMDL
MODEL 9
REMARK VINA RESULT:      -3.1     12.834     13.447
REMARK  0 active torsions:
REMARK  status: ('A' for Active; 'I' for Inactive)
ROOT
HETATM    1  C1  UNL     1     -33.670  17.653  -0.731  1.00 20.00    -0.004 C 
HETATM    2  C2  UNL     1     -34.042  18.421   0.431  1.00 20.00    -0.003 C 
HETATM    3  C3  UNL     1     -32.473  17.811  -1.315  1.00 20.00    -0.025 C 
HETATM    4  C4  UNL     1     -33.143  19.164   1.090  1.00 20.00    -0.011 C 
HETATM    5  C5  UNL     1     -31.446  18.780  -0.792  1.00 20.00     0.047 C 
HETATM    6  C6  UNL     1     -31.712  19.263   0.646  1.00 20.00     0.084 C 
HETATM    7 BR7  UNL     1     -30.667  18.173   1.904  1.00 20.00    -0.087 Br
ENDROOT
TORSDOF 0
ENDMDL
