MODEL 1
REMARK VINA RESULT:      -6.4      0.000      0.000
REMARK  0 active torsions:
REMARK  status: ('A' for Active; 'I' for Inactive)
ROOT
HETATM    1  C1  UNL     1     -32.093   8.947   3.748  1.00 20.00     0.001 C 
HETATM    2  C2  UNL     1     -32.239   7.669   2.911  1.00 20.00     0.005 C 
HETATM    3  C3  UNL     1     -32.836   8.699   5.067  1.00 20.00     0.005 C 
HETATM    4  C4  UNL     1     -33.356   5.377   3.363  1.00 20.00     0.011 C 
HETATM    5  C5  UNL     1     -33.975   4.603   4.539  1.00 20.00     0.079 C 
HETATM    6  C6  UNL     1     -34.222   6.706   5.975  1.00 20.00     0.084 C 
HETATM    7  C7  UNL     1     -33.338   6.883   3.615  1.00 20.00    -0.010 C 
HETATM    8  C8  UNL     1     -33.084   7.197   5.085  1.00 20.00    -0.005 C 
HETATM    9  C9  UNL     1     -34.898   5.463   5.394  1.00 20.00     0.244 C 
HETATM   10  F10 UNL     1     -35.415   4.718   6.404  1.00 20.00    -0.206 F 
HETATM   11  F11 UNL     1     -35.956   5.850   4.631  1.00 20.00    -0.206 F 
ENDROOT
TORSDOF 0
ENDMDL
MODEL 2
REMARK VINA RESULT:      -6.0      2.469      3.897
REMARK  0 active torsions:
REMARK  status: ('A' for Active; 'I' for Inactive)
ROOT
HETATM    1  C1  UNL     1     -34.797   4.982   5.926  1.00 20.00     0.001 C 
HETATM    2  C2  UNL     1     -34.191   4.768   4.532  1.00 20.00     0.005 C 
HETATM    3  C3  UNL     1     -34.534   6.447   6.301  1.00 20.00     0.005 C 
HETATM    4  C4  UNL     1     -32.996   6.343   2.861  1.00 20.00     0.011 C 
HETATM    5  C5  UNL     1     -32.726   7.846   2.678  1.00 20.00     0.079 C 
HETATM    6  C6  UNL     1     -33.290   8.386   5.114  1.00 20.00     0.084 C 
HETATM    7  C7  UNL     1     -33.309   5.990   4.313  1.00 20.00    -0.010 C 
HETATM    8  C8  UNL     1     -34.102   7.099   4.995  1.00 20.00    -0.005 C 
HETATM    9  C9  UNL     1     -32.288   8.530   3.967  1.00 20.00     0.244 C 
HETATM   10  F10 UNL     1     -32.058   9.847   3.732  1.00 20.00    -0.206 F 
HETATM   11  F11 UNL     1     -31.094   8.001   4.352  1.00 20.00    -0.206 F 
ENDROOT
TORSDOF 0
ENDMDL
MODEL 3
REMARK VINA RESULT:      -5.8      1.597      2.971
REMARK  0 active torsions:
REMARK  status: ('A' for Active; 'I' for Inactive)
ROOT
HETATM    1  C1  UNL     1     -32.921   5.024   2.255  1.00 20.00     0.001 C 
HETATM    2  C2  UNL     1     -32.504   6.480   2.502  1.00 20.00     0.005 C 
HETATM    3  C3  UNL     1     -33.788   4.605   3.451  1.00 20.00     0.005 C 
HETATM    4  C4  UNL     1     -33.042   8.182   4.377  1.00 20.00     0.011 C 
HETATM    5  C5  UNL     1     -33.990   8.317   5.581  1.00 20.00     0.079 C 
HETATM    6  C6  UNL     1     -34.512   5.813   5.627  1.00 20.00     0.084 C 
HETATM    7  C7  UNL     1     -32.840   6.725   3.967  1.00 20.00    -0.010 C 
HETATM    8  C8  UNL     1     -34.117   5.914   4.156  1.00 20.00    -0.005 C 
HETATM    9  C9  UNL     1     -34.070   7.046   6.417  1.00 20.00     0.244 C 
HETATM   10  F10 UNL     1     -34.912   7.236   7.463  1.00 20.00    -0.206 F 
HETATM   11  F11 UNL     1     -32.843   6.807   6.958  1.00 20.00    -0.206 F 
ENDROOT
TORSDOF 0
ENDMDL
MODEL 4
REMARK VINA RESULT:      -5.8      1.092      2.413
REMARK  0 active torsions:
REMARK  status: ('A' for Active; 'I' for Inactive)
ROOT
HETATM    1  C1  UNL     1     -32.159   7.069   2.326  1.00 20.00     0.001 C 
HETATM    2  C2  UNL     1     -32.255   8.002   3.541  1.00 20.00     0.005 C 
HETATM    3  C3  UNL     1     -33.003   5.830   2.654  1.00 20.00     0.005 C 
HETATM    4  C4  UNL     1     -33.543   7.862   5.782  1.00 20.00     0.011 C 
HETATM    5  C5  UNL     1     -34.637   7.002   6.437  1.00 20.00     0.079 C 
HETATM    6  C6  UNL     1     -34.352   5.104   4.745  1.00 20.00     0.084 C 
HETATM    7  C7  UNL     1     -32.843   7.128   4.641  1.00 20.00    -0.010 C 
HETATM    8  C8  UNL     1     -33.816   6.238   3.875  1.00 20.00    -0.005 C 
HETATM    9  C9  UNL     1     -34.427   5.509   6.218  1.00 20.00     0.244 C 
HETATM   10  F10 UNL     1     -35.418   4.811   6.827  1.00 20.00    -0.206 F 
HETATM   11  F11 UNL     1     -33.271   5.141   6.837  1.00 20.00    -0.206 F 
ENDROOT
TORSDOF 0
ENDMDL
MODEL 5
REMARK VINA RESULT:      -5.7      2.291      4.158
REMARK  0 active torsions:
REMARK  status: ('A' for Active; 'I' for Inactive)
ROOT
HETATM    1  C1  UNL     1     -34.964   5.359   5.989  1.00 20.00     0.001 C 
HETATM    2  C2  UNL     1     -34.296   6.677   6.403  1.00 20.00     0.005 C 
HETATM    3  C3  UNL     1     -34.503   5.062   4.556  1.00 20.00     0.005 C 
HETATM    4  C4  UNL     1     -32.628   8.265   5.218  1.00 20.00     0.011 C 
HETATM    5  C5  UNL     1     -31.741   8.283   3.962  1.00 20.00     0.079 C 
HETATM    6  C6  UNL     1     -33.002   6.341   2.874  1.00 20.00     0.084 C 
HETATM    7  C7  UNL     1     -33.772   7.261   5.097  1.00 20.00    -0.010 C 
HETATM    8  C8  UNL     1     -33.340   6.018   4.327  1.00 20.00    -0.005 C 
HETATM    9  C9  UNL     1     -32.458   7.763   2.723  1.00 20.00     0.244 C 
HETATM   10  F10 UNL     1     -31.625   7.816   1.654  1.00 20.00    -0.206 F 
HETATM   11  F11 UNL     1     -33.491   8.603   2.438  1.00 20.00    -0.206 F 
ENDROOT
TORSDOF 0
ENDMDL
MODEL 6
REMARK VINA RESULT:      -5.0      1.366      2.427
REMARK  0 active torsions:
REMARK  status: ('A' for Active; 'I' for Inactive)
ROOT
HETATM    1  C1  UNL     1     -32.314   9.013   4.773  1.00 20.00     0.001 C 
HETATM    2  C2  UNL     1     -33.410   8.522   5.727  1.00 20.00     0.005 C 
HETATM    3  C3  UNL     1     -32.097   7.900   3.739  1.00 20.00     0.005 C 
HETATM    4  C4  UNL     1     -34.853   6.373   5.809  1.00 20.00     0.011 C 
HETATM    5  C5  UNL     1     -35.164   5.154   4.924  1.00 20.00     0.079 C 
HETATM    6  C6  UNL     1     -33.122   5.539   3.433  1.00 20.00     0.084 C 
HETATM    7  C7  UNL     1     -33.529   7.033   5.429  1.00 20.00    -0.010 C 
HETATM    8  C8  UNL     1     -33.291   6.974   3.925  1.00 20.00    -0.005 C 
HETATM    9  C9  UNL     1     -33.919   4.551   4.286  1.00 20.00     0.244 C 
HETATM   10  F10 UNL     1     -34.263   3.479   3.530  1.00 20.00    -0.206 F 
HETATM   11  F11 UNL     1     -33.115   4.073   5.275  1.00 20.00    -0.206 F 
ENDROOT
TORSDOF 0
ENDMDL
MODEL 7
REMARK VINA RESULT:      -4.9      2.196      4.058
REMARK  0 active torsions:
REMARK  status: ('A' for Active; 'I' for Inactive)
ROOT
HETATM    1  C1  UNL     1     -34.019   4.159   3.804  1.00 20.00     0.001 C 
HETATM    2  C2  UNL     1     -34.454   4.955   5.043  1.00 20.00     0.005 C 
HETATM    3  C3  UNL     1     -33.145   5.098   2.962  1.00 20.00     0.005 C 
HETATM    4  C4  UNL     1     -33.934   7.349   5.881  1.00 20.00     0.011 C 
HETATM    5  C5  UNL     1     -32.986   8.512   5.545  1.00 20.00     0.079 C 
HETATM    6  C6  UNL     1     -32.433   7.576   3.229  1.00 20.00     0.084 C 
HETATM    7  C7  UNL     1     -34.119   6.400   4.699  1.00 20.00    -0.010 C 
HETATM    8  C8  UNL     1     -32.832   6.261   3.893  1.00 20.00    -0.005 C 
HETATM    9  C9  UNL     1     -32.889   8.784   4.049  1.00 20.00     0.244 C 
HETATM   10  F10 UNL     1     -32.048   9.824   3.824  1.00 20.00    -0.206 F 
HETATM   11  F11 UNL     1     -34.111   9.184   3.603  1.00 20.00    -0.206 F 
ENDROOT
TORSDOF 0
ENDMDL
MODEL 8
REMARK VINA RESULT:      -4.8     16.064     16.761
REMARK  0 active torsions:
REMARK  status: ('A' for Active; 'I' for Inactive)
ROOT
HETATM    1  C1  UNL     1     -21.768  18.439   8.005  1.00 20.00     0.001 C 
HETATM    2  C2  UNL     1     -21.332  18.062   9.427  1.00 20.00     0.005 C 
HETATM    3  C3  UNL     1     -23.237  18.871   8.094  1.00 20.00     0.005 C 
HETATM    4  C4  UNL     1     -22.536  18.113  11.719  1.00 20.00     0.011 C 
HETATM    5  C5  UNL     1     -23.838  18.655  12.330  1.00 20.00     0.079 C 
HETATM    6  C6  UNL     1     -24.942  18.975  10.044  1.00 20.00     0.084 C 
HETATM    7  C7  UNL     1     -22.637  17.951  10.204  1.00 20.00    -0.010 C 
HETATM    8  C8  UNL     1     -23.488  19.054   9.585  1.00 20.00    -0.005 C 
HETATM    9  C9  UNL     1     -25.058  18.394  11.455  1.00 20.00     0.244 C 
HETATM   10  F10 UNL     1     -26.169  18.888  12.055  1.00 20.00    -0.206 F 
HETATM   11  F11 UNL     1     -25.244  17.048  11.365  1.00 20.00    -0.206 F 
ENDROOT
TORSDOF 0
ENDMDL
MODEL 9
REMARK VINA RESULT:      -4.4     12.518     13.770
REMARK  0 active torsions:
REMARK  status: ('A' for Active; 'I' for Inactive)
ROOT
HETATM    1  C1  UNL     1     -33.143  18.021  -2.827  1.00 20.00     0.001 C 
HETATM    2  C2  UNL     1     -33.258  16.506  -2.607  1.00 20.00     0.005 C 
HETATM    3  C3  UNL     1     -33.746  18.312  -4.208  1.00 20.00     0.005 C 
HETATM    4  C4  UNL     1     -34.272  14.584  -4.015  1.00 20.00     0.011 C 
HETATM    5  C5  UNL     1     -35.146  14.404  -5.268  1.00 20.00     0.079 C 
HETATM    6  C6  UNL     1     -34.744  16.802  -6.064  1.00 20.00     0.084 C 
HETATM    7  C7  UNL     1     -33.587  15.949  -3.986  1.00 20.00    -0.010 C 
HETATM    8  C8  UNL     1     -34.483  17.032  -4.577  1.00 20.00    -0.005 C 
HETATM    9  C9  UNL     1     -34.730  15.314  -6.417  1.00 20.00     0.244 C 
HETATM   10  F10 UNL     1     -35.533  15.098  -7.489  1.00 20.00    -0.206 F 
HETATM   11  F11 UNL     1     -33.474  14.965  -6.810  1.00 20.00    -0.206 F 
ENDROOT
TORSDOF 0
ENDMDL
