MODEL 1
REMARK VINA RESULT:      -4.2      0.000      0.000
REMARK  1 active torsions:
REMARK  status: ('A' for Active; 'I' for Inactive)
REMARK    1  A    between atoms: C8_8  and  C9_9 
ROOT
HETATM    1  C1  UNL     1     -43.328  11.720   7.331  1.00 20.00     0.014 C 
HETATM    2  C2  UNL     1     -43.318  15.709   5.454  1.00 20.00     0.014 C 
HETATM    3  C3  UNL     1     -42.672  12.659   6.972  1.00 20.00    -0.094 C 
HETATM    4  C4  UNL     1     -42.667  14.831   5.951  1.00 20.00    -0.094 C 
HETATM    5  C7  UNL     1     -40.691  14.170   7.379  1.00 20.00     0.043 A 
HETATM    6  C9  UNL     1     -40.480  13.555   6.020  1.00 20.00     0.025 A 
HETATM    7  C10 UNL     1     -41.888  13.781   6.545  1.00 20.00     0.089 A 
ENDROOT
BRANCH   6   8
HETATM    8  C8  UNL     1     -39.842  12.184   5.837  1.00 20.00    -0.008 A 
HETATM    9  C5  UNL     1     -39.408  11.665   4.493  1.00 20.00     0.005 A 
HETATM   10  C6  UNL     1     -38.379  12.003   5.536  1.00 20.00     0.005 A 
ENDBRANCH   6   8
TORSDOF 1
ENDMDL
MODEL 2
REMARK VINA RESULT:      -4.2      9.678     10.940
REMARK  1 active torsions:
REMARK  status: ('A' for Active; 'I' for Inactive)
REMARK    1  A    between atoms: C8_8  and  C9_9 
ROOT
HETATM    1  C1  UNL     1     -33.013   4.925   2.655  1.00 20.00     0.014 C 
HETATM    2  C2  UNL     1     -34.098   7.148   6.304  1.00 20.00     0.014 C 
HETATM    3  C3  UNL     1     -32.958   5.965   3.250  1.00 20.00    -0.094 C 
HETATM    4  C4  UNL     1     -33.549   7.176   5.237  1.00 20.00    -0.094 C 
HETATM    5  C7  UNL     1     -31.635   8.035   3.831  1.00 20.00     0.043 A 
HETATM    6  C9  UNL     1     -32.908   8.517   3.185  1.00 20.00     0.025 A 
HETATM    7  C10 UNL     1     -32.891   7.210   3.961  1.00 20.00     0.089 A 
ENDROOT
BRANCH   6   8
HETATM    8  C8  UNL     1     -33.069   8.617   1.674  1.00 20.00    -0.008 A 
HETATM    9  C5  UNL     1     -32.682   9.846   0.897  1.00 20.00     0.005 A 
HETATM   10  C6  UNL     1     -31.899   8.573   0.729  1.00 20.00     0.005 A 
ENDBRANCH   6   8
TORSDOF 1
ENDMDL
MODEL 3
REMARK VINA RESULT:      -4.0      1.280      4.052
REMARK  1 active torsions:
REMARK  status: ('A' for Active; 'I' for Inactive)
REMARK    1  A    between atoms: C8_8  and  C9_9 
ROOT
HETATM    1  C1  UNL     1     -42.281  14.686   3.912  1.00 20.00     0.014 C 
HETATM    2  C2  UNL     1     -39.005  11.743   4.128  1.00 20.00     0.014 C 
HETATM    3  C3  UNL     1     -41.608  13.984   4.614  1.00 20.00    -0.094 C 
HETATM    4  C4  UNL     1     -39.823  12.382   4.732  1.00 20.00    -0.094 C 
HETATM    5  C7  UNL     1     -40.432  13.658   6.825  1.00 20.00     0.043 A 
HETATM    6  C9  UNL     1     -41.414  12.522   6.699  1.00 20.00     0.025 A 
HETATM    7  C10 UNL     1     -40.802  13.145   5.455  1.00 20.00     0.089 A 
ENDROOT
BRANCH   6   8
HETATM    8  C8  UNL     1     -42.877  12.662   7.098  1.00 20.00    -0.008 A 
HETATM    9  C5  UNL     1     -43.417  12.130   8.397  1.00 20.00     0.005 A 
HETATM   10  C6  UNL     1     -43.339  13.614   8.167  1.00 20.00     0.005 A 
ENDBRANCH   6   8
TORSDOF 1
ENDMDL
MODEL 4
REMARK VINA RESULT:      -4.0      1.490      3.510
REMARK  1 active torsions:
REMARK  status: ('A' for Active; 'I' for Inactive)
REMARK    1  A    between atoms: C8_8  and  C9_9 
ROOT
HETATM    1  C1  UNL     1     -39.070  12.119   5.497  1.00 20.00     0.014 C 
HETATM    2  C2  UNL     1     -42.301  14.581   3.782  1.00 20.00     0.014 C 
HETATM    3  C3  UNL     1     -40.089  12.720   5.699  1.00 20.00    -0.094 C 
HETATM    4  C4  UNL     1     -41.848  14.060   4.765  1.00 20.00    -0.094 C 
HETATM    5  C7  UNL     1     -42.274  12.873   6.953  1.00 20.00     0.043 A 
HETATM    6  C9  UNL     1     -41.515  14.134   7.275  1.00 20.00     0.025 A 
HETATM    7  C10 UNL     1     -41.308  13.437   5.941  1.00 20.00     0.089 A 
ENDROOT
BRANCH   6   8
HETATM    8  C8  UNL     1     -40.470  14.196   8.382  1.00 20.00    -0.008 A 
HETATM    9  C5  UNL     1     -40.162  15.461   9.136  1.00 20.00     0.005 A 
HETATM   10  C6  UNL     1     -40.836  14.314   9.837  1.00 20.00     0.005 A 
ENDBRANCH   6   8
TORSDOF 1
ENDMDL
MODEL 5
REMARK VINA RESULT:      -4.0     10.923     12.481
REMARK  1 active torsions:
REMARK  status: ('A' for Active; 'I' for Inactive)
REMARK    1  A    between atoms: C8_8  and  C9_9 
ROOT
HETATM    1  C1  UNL     1     -35.336  19.170  -0.447  1.00 20.00     0.014 C 
HETATM    2  C2  UNL     1     -33.415  16.127  -2.994  1.00 20.00     0.014 C 
HETATM    3  C3  UNL     1     -34.312  18.754  -0.914  1.00 20.00    -0.094 C 
HETATM    4  C4  UNL     1     -33.267  17.097  -2.301  1.00 20.00    -0.094 C 
HETATM    5  C7  UNL     1     -32.031  19.258  -1.871  1.00 20.00     0.043 A 
HETATM    6  C9  UNL     1     -31.799  18.370  -0.675  1.00 20.00     0.025 A 
HETATM    7  C10 UNL     1     -33.088  18.257  -1.473  1.00 20.00     0.089 A 
ENDROOT
BRANCH   6   8
HETATM    8  C8  UNL     1     -31.713  18.920   0.742  1.00 20.00    -0.008 A 
HETATM    9  C5  UNL     1     -31.219  18.099   1.902  1.00 20.00     0.005 A 
HETATM   10  C6  UNL     1     -30.405  19.260   1.403  1.00 20.00     0.005 A 
ENDBRANCH   6   8
TORSDOF 1
ENDMDL
MODEL 6
REMARK VINA RESULT:      -3.9      1.311      3.672
REMARK  1 active torsions:
REMARK  status: ('A' for Active; 'I' for Inactive)
REMARK    1  A    between atoms: C8_8  and  C9_9 
ROOT
HETATM    1  C1  UNL     1     -43.350  11.800   7.375  1.00 20.00     0.014 C 
HETATM    2  C2  UNL     1     -39.599  11.591   5.069  1.00 20.00     0.014 C 
HETATM    3  C3  UNL     1     -42.415  12.401   6.925  1.00 20.00    -0.094 C 
HETATM    4  C4  UNL     1     -40.372  12.287   5.669  1.00 20.00    -0.094 C 
HETATM    5  C7  UNL     1     -41.532  14.521   5.877  1.00 20.00     0.043 A 
HETATM    6  C9  UNL     1     -40.740  14.315   7.142  1.00 20.00     0.025 A 
HETATM    7  C10 UNL     1     -41.297  13.120   6.386  1.00 20.00     0.089 A 
ENDROOT
BRANCH   6   8
HETATM    8  C8  UNL     1     -41.242  14.780   8.503  1.00 20.00    -0.008 A 
HETATM    9  C5  UNL     1     -40.569  14.392   9.791  1.00 20.00     0.005 A 
HETATM   10  C6  UNL     1     -40.525  15.820   9.321  1.00 20.00     0.005 A 
ENDBRANCH   6   8
TORSDOF 1
ENDMDL
MODEL 7
REMARK VINA RESULT:      -3.9      9.943     11.002
REMARK  1 active torsions:
REMARK  status: ('A' for Active; 'I' for Inactive)
REMARK    1  A    between atoms: C8_8  and  C9_9 
ROOT
HETATM    1  C1  UNL     1     -32.095   9.120   5.116  1.00 20.00     0.014 C 
HETATM    2  C2  UNL     1     -32.256   8.465   0.759  1.00 20.00     0.014 C 
HETATM    3  C3  UNL     1     -32.340   8.355   4.225  1.00 20.00    -0.094 C 
HETATM    4  C4  UNL     1     -32.428   7.998   1.852  1.00 20.00    -0.094 C 
HETATM    5  C7  UNL     1     -32.308   5.981   3.367  1.00 20.00     0.043 A 
HETATM    6  C9  UNL     1     -33.748   6.422   3.331  1.00 20.00     0.025 A 
HETATM    7  C10 UNL     1     -32.633   7.440   3.159  1.00 20.00     0.089 A 
ENDROOT
BRANCH   6   8
HETATM    8  C8  UNL     1     -34.656   6.340   4.552  1.00 20.00    -0.008 A 
HETATM    9  C5  UNL     1     -35.012   5.036   5.211  1.00 20.00     0.005 A 
HETATM   10  C6  UNL     1     -34.137   6.026   5.929  1.00 20.00     0.005 A 
ENDBRANCH   6   8
TORSDOF 1
ENDMDL
MODEL 8
REMARK VINA RESULT:      -3.9      1.301      2.857
REMARK  1 active torsions:
REMARK  status: ('A' for Active; 'I' for Inactive)
REMARK    1  A    between atoms: C8_8  and  C9_9 
ROOT
HETATM    1  C1  UNL     1     -40.410  15.720   8.192  1.00 20.00     0.014 C 
HETATM    2  C2  UNL     1     -43.417  12.763   9.477  1.00 20.00     0.014 C 
HETATM    3  C3  UNL     1     -41.127  14.814   7.870  1.00 20.00    -0.094 C 
HETATM    4  C4  UNL     1     -42.765  13.204   8.570  1.00 20.00    -0.094 C 
HETATM    5  C7  UNL     1     -42.618  13.780   6.115  1.00 20.00     0.043 A 
HETATM    6  C9  UNL     1     -41.536  12.769   6.398  1.00 20.00     0.025 A 
HETATM    7  C10 UNL     1     -41.986  13.732   7.485  1.00 20.00     0.089 A 
ENDROOT
BRANCH   6   8
HETATM    8  C8  UNL     1     -40.175  12.820   5.715  1.00 20.00    -0.008 A 
HETATM    9  C5  UNL     1     -38.987  12.048   6.219  1.00 20.00     0.005 A 
HETATM   10  C6  UNL     1     -39.627  11.673   4.911  1.00 20.00     0.005 A 
ENDBRANCH   6   8
TORSDOF 1
ENDMDL
MODEL 9
REMARK VINA RESULT:      -3.9     11.795     13.163
REMARK  1 active torsions:
REMARK  status: ('A' for Active; 'I' for Inactive)
REMARK    1  A    between atoms: C8_8  and  C9_9 
ROOT
HETATM    1  C1  UNL     1     -34.620  17.595  -6.179  1.00 20.00     0.014 C 
HETATM    2  C2  UNL     1     -35.906  13.631  -4.742  1.00 20.00     0.014 C 
HETATM    3  C3  UNL     1     -34.418  16.690  -5.418  1.00 20.00    -0.094 C 
HETATM    4  C4  UNL     1     -35.118  14.530  -4.637  1.00 20.00    -0.094 C 
HETATM    5  C7  UNL     1     -32.743  15.260  -4.184  1.00 20.00     0.043 A 
HETATM    6  C9  UNL     1     -33.610  15.899  -3.129  1.00 20.00     0.025 A 
HETATM    7  C10 UNL     1     -34.175  15.606  -4.510  1.00 20.00     0.089 A 
ENDROOT
BRANCH   6   8
HETATM    8  C8  UNL     1     -33.341  17.298  -2.591  1.00 20.00    -0.008 A 
HETATM    9  C5  UNL     1     -34.421  18.160  -1.997  1.00 20.00     0.005 A 
HETATM   10  C6  UNL     1     -33.330  17.613  -1.120  1.00 20.00     0.005 A 
ENDBRANCH   6   8
TORSDOF 1
ENDMDL
