MODEL 1
REMARK VINA RESULT:      -6.0      0.000      0.000
REMARK  0 active torsions:
REMARK  status: ('A' for Active; 'I' for Inactive)
ROOT
HETATM    1  C1  UNL     1     -33.674   4.651   2.996  1.00 20.00     0.001 C 
HETATM    2  C2  UNL     1     -32.433   9.319   4.068  1.00 20.00     0.001 C 
HETATM    3  C3  UNL     1     -32.624   5.757   2.828  1.00 20.00     0.005 C 
HETATM    4  C4  UNL     1     -32.009   8.210   3.116  1.00 20.00     0.005 C 
HETATM    5  C5  UNL     1     -33.963   4.271   4.450  1.00 20.00     0.005 C 
HETATM    6  C6  UNL     1     -32.868   8.595   5.340  1.00 20.00     0.005 C 
HETATM    7  C7  UNL     1     -34.646   5.702   6.522  1.00 20.00     0.010 A 
HETATM    8  C8  UNL     1     -33.038   7.116   3.397  1.00 20.00    -0.010 C 
HETATM    9  C9  UNL     1     -34.902   5.233   5.113  1.00 20.00    -0.010 A 
HETATM   10  C10 UNL     1     -33.151   7.138   4.931  1.00 20.00    -0.006 C 
HETATM   11  C11 UNL     1     -34.501   6.664   5.373  1.00 20.00    -0.006 A 
ENDROOT
TORSDOF 0
ENDMDL
MODEL 2
REMARK VINA RESULT:      -5.9      0.803      3.432
REMARK  0 active torsions:
REMARK  status: ('A' for Active; 'I' for Inactive)
ROOT
HETATM    1  C1  UNL     1     -32.407   6.027   2.317  1.00 20.00     0.001 C 
HETATM    2  C2  UNL     1     -34.743   5.539   6.651  1.00 20.00     0.001 C 
HETATM    3  C3  UNL     1     -33.587   5.386   3.059  1.00 20.00     0.005 C 
HETATM    4  C4  UNL     1     -34.717   4.875   5.282  1.00 20.00     0.005 C 
HETATM    5  C5  UNL     1     -32.385   7.556   2.369  1.00 20.00     0.005 C 
HETATM    6  C6  UNL     1     -34.473   7.016   6.373  1.00 20.00     0.005 C 
HETATM    7  C7  UNL     1     -32.480   9.234   4.365  1.00 20.00     0.010 A 
HETATM    8  C8  UNL     1     -33.585   5.616   4.572  1.00 20.00    -0.010 C 
HETATM    9  C9  UNL     1     -31.826   8.073   3.660  1.00 20.00    -0.010 A 
HETATM   10  C10 UNL     1     -33.828   7.081   4.978  1.00 20.00    -0.006 C 
HETATM   11  C11 UNL     1     -32.546   7.855   4.967  1.00 20.00    -0.006 A 
ENDROOT
TORSDOF 0
ENDMDL
MODEL 3
REMARK VINA RESULT:      -5.7      0.944      3.720
REMARK  0 active torsions:
REMARK  status: ('A' for Active; 'I' for Inactive)
ROOT
HETATM    1  C1  UNL     1     -32.485   8.561   3.543  1.00 20.00     0.001 C 
HETATM    2  C2  UNL     1     -35.091   5.767   6.686  1.00 20.00     0.001 C 
HETATM    3  C3  UNL     1     -32.811   8.270   5.013  1.00 20.00     0.005 C 
HETATM    4  C4  UNL     1     -34.285   7.057   6.697  1.00 20.00     0.005 C 
HETATM    5  C5  UNL     1     -31.911   7.368   2.776  1.00 20.00     0.005 C 
HETATM    6  C6  UNL     1     -34.386   4.876   5.665  1.00 20.00     0.005 C 
HETATM    7  C7  UNL     1     -32.771   4.926   2.453  1.00 20.00     0.010 A 
HETATM    8  C8  UNL     1     -33.922   7.238   5.225  1.00 20.00    -0.010 C 
HETATM    9  C9  UNL     1     -32.976   6.414   2.328  1.00 20.00    -0.010 A 
HETATM   10  C10 UNL     1     -33.537   5.814   4.789  1.00 20.00    -0.006 C 
HETATM   11  C11 UNL     1     -33.785   5.620   3.325  1.00 20.00    -0.006 A 
ENDROOT
TORSDOF 0
ENDMDL
MODEL 4
REMARK VINA RESULT:      -5.7      0.684      2.604
REMARK  0 active torsions:
REMARK  status: ('A' for Active; 'I' for Inactive)
ROOT
HETATM    1  C1  UNL     1     -34.512   5.283   6.196  1.00 20.00     0.001 C 
HETATM    2  C2  UNL     1     -32.095   9.303   4.624  1.00 20.00     0.001 C 
HETATM    3  C3  UNL     1     -34.393   6.809   6.287  1.00 20.00     0.005 C 
HETATM    4  C4  UNL     1     -33.060   8.906   5.731  1.00 20.00     0.005 C 
HETATM    5  C5  UNL     1     -34.788   4.754   4.787  1.00 20.00     0.005 C 
HETATM    6  C6  UNL     1     -32.498   8.441   3.429  1.00 20.00     0.005 C 
HETATM    7  C7  UNL     1     -33.563   5.132   2.514  1.00 20.00     0.010 A 
HETATM    8  C8  UNL     1     -33.201   7.398   5.528  1.00 20.00    -0.010 C 
HETATM    9  C9  UNL     1     -33.544   4.684   3.953  1.00 20.00    -0.010 A 
HETATM   10  C10 UNL     1     -33.313   7.268   3.999  1.00 20.00    -0.006 C 
HETATM   11  C11 UNL     1     -32.808   5.934   3.540  1.00 20.00    -0.006 A 
ENDROOT
TORSDOF 0
ENDMDL
MODEL 5
REMARK VINA RESULT:      -5.5      1.004      3.430
REMARK  0 active torsions:
REMARK  status: ('A' for Active; 'I' for Inactive)
ROOT
HETATM    1  C1  UNL     1     -34.908   6.134   6.411  1.00 20.00     0.001 C 
HETATM    2  C2  UNL     1     -33.025   5.113   1.951  1.00 20.00     0.001 C 
HETATM    3  C3  UNL     1     -34.343   5.046   5.490  1.00 20.00     0.005 C 
HETATM    4  C4  UNL     1     -33.595   4.372   3.152  1.00 20.00     0.005 C 
HETATM    5  C5  UNL     1     -33.947   7.295   6.680  1.00 20.00     0.005 C 
HETATM    6  C6  UNL     1     -32.318   6.330   2.545  1.00 20.00     0.005 C 
HETATM    7  C7  UNL     1     -32.621   8.867   5.074  1.00 20.00     0.010 A 
HETATM    8  C8  UNL     1     -34.056   5.511   4.060  1.00 20.00    -0.010 C 
HETATM    9  C9  UNL     1     -33.926   8.287   5.557  1.00 20.00    -0.010 A 
HETATM   10  C10 UNL     1     -32.901   6.521   3.956  1.00 20.00    -0.006 C 
HETATM   11  C11 UNL     1     -33.391   7.916   4.195  1.00 20.00    -0.006 A 
ENDROOT
TORSDOF 0
ENDMDL
MODEL 6
REMARK VINA RESULT:      -5.2      0.981      3.172
REMARK  0 active torsions:
REMARK  status: ('A' for Active; 'I' for Inactive)
ROOT
HETATM    1  C1  UNL     1     -32.642   8.919   5.031  1.00 20.00     0.001 C 
HETATM    2  C2  UNL     1     -32.836   4.780   2.329  1.00 20.00     0.001 C 
HETATM    3  C3  UNL     1     -32.677   8.326   3.617  1.00 20.00     0.005 C 
HETATM    4  C4  UNL     1     -32.529   6.258   2.141  1.00 20.00     0.005 C 
HETATM    5  C5  UNL     1     -33.844   8.546   5.902  1.00 20.00     0.005 C 
HETATM    6  C6  UNL     1     -33.911   4.741   3.413  1.00 20.00     0.005 C 
HETATM    7  C7  UNL     1     -34.892   6.241   6.530  1.00 20.00     0.010 A 
HETATM    8  C8  UNL     1     -32.597   6.799   3.568  1.00 20.00    -0.010 C 
HETATM    9  C9  UNL     1     -33.711   7.177   6.497  1.00 20.00    -0.010 A 
HETATM   10  C10 UNL     1     -33.837   6.093   4.143  1.00 20.00    -0.006 C 
HETATM   11  C11 UNL     1     -33.722   5.943   5.629  1.00 20.00    -0.006 A 
ENDROOT
TORSDOF 0
ENDMDL
MODEL 7
REMARK VINA RESULT:      -4.8      0.970      1.908
REMARK  0 active torsions:
REMARK  status: ('A' for Active; 'I' for Inactive)
ROOT
HETATM    1  C1  UNL     1     -32.482   6.469   2.176  1.00 20.00     0.001 C 
HETATM    2  C2  UNL     1     -33.701   9.024   6.233  1.00 20.00     0.001 C 
HETATM    3  C3  UNL     1     -32.045   7.544   3.179  1.00 20.00     0.005 C 
HETATM    4  C4  UNL     1     -32.677   9.078   5.110  1.00 20.00     0.005 C 
HETATM    5  C5  UNL     1     -32.781   5.105   2.804  1.00 20.00     0.005 C 
HETATM    6  C6  UNL     1     -33.942   7.535   6.469  1.00 20.00     0.005 C 
HETATM    7  C7  UNL     1     -34.349   4.395   4.765  1.00 20.00     0.010 A 
HETATM    8  C8  UNL     1     -33.118   7.933   4.200  1.00 20.00    -0.010 C 
HETATM    9  C9  UNL     1     -34.145   5.051   3.423  1.00 20.00    -0.010 A 
HETATM   10  C10 UNL     1     -33.459   6.814   5.199  1.00 20.00    -0.006 C 
HETATM   11  C11 UNL     1     -34.490   5.889   4.630  1.00 20.00    -0.006 A 
ENDROOT
TORSDOF 0
ENDMDL
MODEL 8
REMARK VINA RESULT:      -4.8      0.969      3.128
REMARK  0 active torsions:
REMARK  status: ('A' for Active; 'I' for Inactive)
ROOT
HETATM    1  C1  UNL     1     -33.344   4.449   3.205  1.00 20.00     0.001 C 
HETATM    2  C2  UNL     1     -34.181   7.597   6.928  1.00 20.00     0.001 C 
HETATM    3  C3  UNL     1     -34.278   4.829   4.360  1.00 20.00     0.005 C 
HETATM    4  C4  UNL     1     -34.670   6.241   6.442  1.00 20.00     0.005 C 
HETATM    5  C5  UNL     1     -33.148   5.551   2.162  1.00 20.00     0.005 C 
HETATM    6  C6  UNL     1     -33.865   8.376   5.653  1.00 20.00     0.005 C 
HETATM    7  C7  UNL     1     -32.414   8.046   2.381  1.00 20.00     0.010 A 
HETATM    8  C8  UNL     1     -33.760   5.965   5.246  1.00 20.00    -0.010 C 
HETATM    9  C9  UNL     1     -32.149   6.578   2.602  1.00 20.00    -0.010 A 
HETATM   10  C10 UNL     1     -33.705   7.330   4.537  1.00 20.00    -0.006 C 
HETATM   11  C11 UNL     1     -32.423   7.483   3.777  1.00 20.00    -0.006 A 
ENDROOT
TORSDOF 0
ENDMDL
MODEL 9
REMARK VINA RESULT:      -4.4      0.881      4.273
REMARK  0 active torsions:
REMARK  status: ('A' for Active; 'I' for Inactive)
ROOT
HETATM    1  C1  UNL     1     -33.299   9.031   5.758  1.00 20.00     0.001 C 
HETATM    2  C2  UNL     1     -34.825   4.438   4.735  1.00 20.00     0.001 C 
HETATM    3  C3  UNL     1     -33.642   7.650   6.330  1.00 20.00     0.005 C 
HETATM    4  C4  UNL     1     -34.650   5.344   5.943  1.00 20.00     0.005 C 
HETATM    5  C5  UNL     1     -32.186   9.021   4.707  1.00 20.00     0.005 C 
HETATM    6  C6  UNL     1     -33.694   4.829   3.787  1.00 20.00     0.005 C 
HETATM    7  C7  UNL     1     -31.885   7.659   2.502  1.00 20.00     0.010 A 
HETATM    8  C8  UNL     1     -34.227   6.669   5.310  1.00 20.00    -0.010 C 
HETATM    9  C9  UNL     1     -32.685   8.609   3.355  1.00 20.00    -0.010 A 
HETATM   10  C10 UNL     1     -33.225   6.227   4.229  1.00 20.00    -0.006 C 
HETATM   11  C11 UNL     1     -33.192   7.211   3.100  1.00 20.00    -0.006 A 
ENDROOT
TORSDOF 0
ENDMDL
