MODEL 1
REMARK VINA RESULT:      -5.1      0.000      0.000
REMARK  1 active torsions:
REMARK  status: ('A' for Active; 'I' for Inactive)
REMARK    1  A    between atoms: C5_5  and  C6_6 
ROOT
HETATM    1  C1  UNL     1     -35.572   5.921   4.254  1.00 20.00     0.024 A 
HETATM    2  C2  UNL     1     -34.356   5.471   6.533  1.00 20.00     0.275 C 
HETATM    3  C3  UNL     1     -33.585   7.309   5.235  1.00 20.00     0.285 C 
HETATM    4  C4  UNL     1     -34.599   5.138   5.099  1.00 20.00     0.030 A 
HETATM    5  C5  UNL     1     -34.098   6.269   4.278  1.00 20.00     0.051 A 
HETATM    6  N7  UNL     1     -34.099   6.925   6.567  1.00 20.00     0.084 N 
HETATM    7  H18 UNL     1     -34.994   7.398   6.704  1.00 20.00     0.315 HD
ENDROOT
BRANCH   5   8
HETATM    8  C6  UNL     1     -33.279   6.010   3.053  1.00 20.00     0.363 C 
HETATM    9  F8  UNL     1     -32.896   4.706   3.018  1.00 20.00    -0.214 F 
HETATM   10  F9  UNL     1     -32.136   6.745   3.095  1.00 20.00    -0.214 F 
ENDBRANCH   5   8
TORSDOF 1
ENDMDL
MODEL 2
REMARK VINA RESULT:      -4.8      1.123      1.267
REMARK  1 active torsions:
REMARK  status: ('A' for Active; 'I' for Inactive)
REMARK    1  A    between atoms: C5_5  and  C6_6 
ROOT
HETATM    1  C1  UNL     1     -35.642   6.143   4.519  1.00 20.00     0.024 A 
HETATM    2  C2  UNL     1     -33.999   6.831   6.442  1.00 20.00     0.275 C 
HETATM    3  C3  UNL     1     -33.253   7.157   4.208  1.00 20.00     0.285 C 
HETATM    4  C4  UNL     1     -34.650   5.788   5.597  1.00 20.00     0.030 A 
HETATM    5  C5  UNL     1     -34.171   5.966   4.203  1.00 20.00     0.051 A 
HETATM    6  N7  UNL     1     -33.479   7.841   5.499  1.00 20.00     0.084 N 
HETATM    7  H18 UNL     1     -34.208   8.542   5.357  1.00 20.00     0.315 HD
ENDROOT
BRANCH   5   8
HETATM    8  C6  UNL     1     -33.747   4.784   3.391  1.00 20.00     0.363 C 
HETATM    9  F8  UNL     1     -33.630   3.690   4.190  1.00 20.00    -0.214 F 
HETATM   10  F9  UNL     1     -32.515   5.004   2.858  1.00 20.00    -0.214 F 
ENDBRANCH   5   8
TORSDOF 1
ENDMDL
MODEL 3
REMARK VINA RESULT:      -4.5      2.171      3.102
REMARK  1 active torsions:
REMARK  status: ('A' for Active; 'I' for Inactive)
REMARK    1  A    between atoms: C5_5  and  C6_6 
ROOT
HETATM    1  C1  UNL     1     -34.700   7.959   4.748  1.00 20.00     0.024 A 
HETATM    2  C2  UNL     1     -32.094   8.094   4.501  1.00 20.00     0.275 C 
HETATM    3  C3  UNL     1     -33.188   6.248   3.476  1.00 20.00     0.285 C 
HETATM    4  C4  UNL     1     -33.312   7.791   5.309  1.00 20.00     0.030 A 
HETATM    5  C5  UNL     1     -33.989   6.623   4.693  1.00 20.00     0.051 A 
HETATM    6  N7  UNL     1     -32.280   7.386   3.219  1.00 20.00     0.084 N 
HETATM    7  H18 UNL     1     -32.753   8.022   2.576  1.00 20.00     0.315 HD
ENDROOT
BRANCH   5   8
HETATM    8  C6  UNL     1     -34.494   5.504   5.546  1.00 20.00     0.363 C 
HETATM    9  F8  UNL     1     -33.869   5.522   6.753  1.00 20.00    -0.214 F 
HETATM   10  F9  UNL     1     -34.188   4.309   4.973  1.00 20.00    -0.214 F 
ENDBRANCH   5   8
TORSDOF 1
ENDMDL
MODEL 4
REMARK VINA RESULT:      -4.4      1.372      1.806
REMARK  1 active torsions:
REMARK  status: ('A' for Active; 'I' for Inactive)
REMARK    1  A    between atoms: C5_5  and  C6_6 
ROOT
HETATM    1  C1  UNL     1     -35.350   6.547   4.142  1.00 20.00     0.024 A 
HETATM    2  C2  UNL     1     -34.167   4.571   5.394  1.00 20.00     0.275 C 
HETATM    3  C3  UNL     1     -33.971   6.737   6.355  1.00 20.00     0.285 C 
HETATM    4  C4  UNL     1     -34.219   5.560   4.278  1.00 20.00     0.030 A 
HETATM    5  C5  UNL     1     -34.072   6.916   4.865  1.00 20.00     0.051 A 
HETATM    6  N7  UNL     1     -34.397   5.348   6.628  1.00 20.00     0.084 N 
HETATM    7  H18 UNL     1     -35.402   5.360   6.808  1.00 20.00     0.315 HD
ENDROOT
BRANCH   5   8
HETATM    8  C6  UNL     1     -33.155   7.917   4.237  1.00 20.00     0.363 C 
HETATM    9  F8  UNL     1     -32.173   7.278   3.547  1.00 20.00    -0.214 F 
HETATM   10  F9  UNL     1     -32.532   8.646   5.202  1.00 20.00    -0.214 F 
ENDBRANCH   5   8
TORSDOF 1
ENDMDL
MODEL 5
REMARK VINA RESULT:      -4.4      2.522      3.514
REMARK  1 active torsions:
REMARK  status: ('A' for Active; 'I' for Inactive)
REMARK    1  A    between atoms: C5_5  and  C6_6 
ROOT
HETATM    1  C1  UNL     1     -34.128   8.502   4.510  1.00 20.00     0.024 A 
HETATM    2  C2  UNL     1     -31.934   7.468   3.516  1.00 20.00     0.275 C 
HETATM    3  C3  UNL     1     -33.744   5.982   3.930  1.00 20.00     0.285 C 
HETATM    4  C4  UNL     1     -32.709   8.018   4.666  1.00 20.00     0.030 A 
HETATM    5  C5  UNL     1     -33.827   7.084   4.950  1.00 20.00     0.051 A 
HETATM    6  N7  UNL     1     -32.813   6.462   2.887  1.00 20.00     0.084 N 
HETATM    7  H18 UNL     1     -33.366   6.934   2.170  1.00 20.00     0.315 HD
ENDROOT
BRANCH   5   8
HETATM    8  C6  UNL     1     -34.143   6.686   6.357  1.00 20.00     0.363 C 
HETATM    9  F8  UNL     1     -32.995   6.583   7.078  1.00 20.00    -0.214 F 
HETATM   10  F9  UNL     1     -34.718   5.454   6.373  1.00 20.00    -0.214 F 
ENDBRANCH   5   8
TORSDOF 1
ENDMDL
MODEL 6
REMARK VINA RESULT:      -4.2      2.059      2.762
REMARK  1 active torsions:
REMARK  status: ('A' for Active; 'I' for Inactive)
REMARK    1  A    between atoms: C5_5  and  C6_6 
ROOT
HETATM    1  C1  UNL     1     -33.469   6.807   6.246  1.00 20.00     0.024 A 
HETATM    2  C2  UNL     1     -35.186   5.651   4.638  1.00 20.00     0.275 C 
HETATM    3  C3  UNL     1     -33.077   6.254   3.721  1.00 20.00     0.285 C 
HETATM    4  C4  UNL     1     -34.703   6.850   5.382  1.00 20.00     0.030 A 
HETATM    5  C5  UNL     1     -33.398   7.252   4.800  1.00 20.00     0.051 A 
HETATM    6  N7  UNL     1     -34.007   5.123   3.922  1.00 20.00     0.084 N 
HETATM    7  H18 UNL     1     -33.547   4.446   4.532  1.00 20.00     0.315 HD
ENDROOT
BRANCH   5   8
HETATM    8  C6  UNL     1     -33.111   8.689   4.504  1.00 20.00     0.363 C 
HETATM    9  F8  UNL     1     -32.789   8.838   3.191  1.00 20.00    -0.214 F 
HETATM   10  F9  UNL     1     -32.027   9.103   5.214  1.00 20.00    -0.214 F 
ENDBRANCH   5   8
TORSDOF 1
ENDMDL
MODEL 7
REMARK VINA RESULT:      -3.9      2.174      3.012
REMARK  1 active torsions:
REMARK  status: ('A' for Active; 'I' for Inactive)
REMARK    1  A    between atoms: C5_5  and  C6_6 
ROOT
HETATM    1  C1  UNL     1     -32.821   5.920   3.480  1.00 20.00     0.024 A 
HETATM    2  C2  UNL     1     -33.000   8.495   3.939  1.00 20.00     0.275 C 
HETATM    3  C3  UNL     1     -33.218   7.041   5.808  1.00 20.00     0.285 C 
HETATM    4  C4  UNL     1     -33.589   7.217   3.444  1.00 20.00     0.030 A 
HETATM    5  C5  UNL     1     -33.754   6.310   4.608  1.00 20.00     0.051 A 
HETATM    6  N7  UNL     1     -32.457   8.192   5.278  1.00 20.00     0.084 N 
HETATM    7  H18 UNL     1     -31.486   7.896   5.163  1.00 20.00     0.315 HD
ENDROOT
BRANCH   5   8
HETATM    8  C6  UNL     1     -35.021   5.537   4.792  1.00 20.00     0.363 C 
HETATM    9  F8  UNL     1     -36.061   6.211   4.235  1.00 20.00    -0.214 F 
HETATM   10  F9  UNL     1     -35.305   5.420   6.117  1.00 20.00    -0.214 F 
ENDBRANCH   5   8
TORSDOF 1
ENDMDL
MODEL 8
REMARK VINA RESULT:      -3.9      1.748      2.556
REMARK  1 active torsions:
REMARK  status: ('A' for Active; 'I' for Inactive)
REMARK    1  A    between atoms: C5_5  and  C6_6 
ROOT
HETATM    1  C1  UNL     1     -33.261   7.148   5.795  1.00 20.00     0.024 A 
HETATM    2  C2  UNL     1     -35.367   6.072   4.664  1.00 20.00     0.275 C 
HETATM    3  C3  UNL     1     -33.241   5.494   3.771  1.00 20.00     0.285 C 
HETATM    4  C4  UNL     1     -34.459   7.236   4.885  1.00 20.00     0.030 A 
HETATM    5  C5  UNL     1     -33.134   6.895   4.307  1.00 20.00     0.051 A 
HETATM    6  N7  UNL     1     -34.485   4.934   4.338  1.00 20.00     0.084 N 
HETATM    7  H18 UNL     1     -34.245   4.463   5.212  1.00 20.00     0.315 HD
ENDROOT
BRANCH   5   8
HETATM    8  C6  UNL     1     -32.396   7.890   3.470  1.00 20.00     0.363 C 
HETATM    9  F8  UNL     1     -33.155   9.004   3.295  1.00 20.00    -0.214 F 
HETATM   10  F9  UNL     1     -32.174   7.379   2.229  1.00 20.00    -0.214 F 
ENDBRANCH   5   8
TORSDOF 1
ENDMDL
MODEL 9
REMARK VINA RESULT:      -3.8      8.262      9.121
REMARK  1 active torsions:
REMARK  status: ('A' for Active; 'I' for Inactive)
REMARK    1  A    between atoms: C5_5  and  C6_6 
ROOT
HETATM    1  C1  UNL     1     -40.941   7.418   1.127  1.00 20.00     0.024 A 
HETATM    2  C2  UNL     1     -43.417   6.886   1.799  1.00 20.00     0.275 C 
HETATM    3  C3  UNL     1     -41.965   5.035   1.453  1.00 20.00     0.285 C 
HETATM    4  C4  UNL     1     -42.404   7.298   0.786  1.00 20.00     0.030 A 
HETATM    5  C5  UNL     1     -41.506   6.141   0.542  1.00 20.00     0.051 A 
HETATM    6  N7  UNL     1     -42.877   5.665   2.431  1.00 20.00     0.084 N 
HETATM    7  H18 UNL     1     -42.321   5.950   3.238  1.00 20.00     0.315 HD
ENDROOT
BRANCH   5   8
HETATM    8  C6  UNL     1     -41.125   5.759  -0.853  1.00 20.00     0.363 C 
HETATM    9  F8  UNL     1     -42.126   5.038  -1.426  1.00 20.00    -0.214 F 
HETATM   10  F9  UNL     1     -40.033   4.949  -0.831  1.00 20.00    -0.214 F 
ENDBRANCH   5   8
TORSDOF 1
ENDMDL
