MODEL 1
REMARK VINA RESULT:      -4.2      0.000      0.000
REMARK  0 active torsions:
REMARK  status: ('A' for Active; 'I' for Inactive)
ROOT
HETATM    1  C1  UNL     1     -32.186   7.123   2.564  1.00 20.00     0.013 C 
HETATM    2  C2  UNL     1     -32.950   6.489   3.240  1.00 20.00    -0.104 C 
HETATM    3  C3  UNL     1     -35.281   6.257   4.170  1.00 20.00     0.069 A 
HETATM    4  C4  UNL     1     -33.868   5.728   4.052  1.00 20.00     0.057 A 
HETATM    5  C5  UNL     1     -34.361   6.338   5.362  1.00 20.00     0.133 A 
HETATM    6  C6  UNL     1     -33.692   4.235   3.929  1.00 20.00     0.032 C 
HETATM    7 CL7  UNL     1     -34.719   5.304   6.746  1.00 20.00    -0.100 Cl
HETATM    8 CL8  UNL     1     -33.821   7.948   5.855  1.00 20.00    -0.100 Cl
ENDROOT
TORSDOF 0
ENDMDL
MODEL 2
REMARK VINA RESULT:      -4.2      2.252      3.238
REMARK  0 active torsions:
REMARK  status: ('A' for Active; 'I' for Inactive)
ROOT
HETATM    1  C1  UNL     1     -34.272   4.422   4.463  1.00 20.00     0.013 C 
HETATM    2  C2  UNL     1     -34.122   5.570   4.780  1.00 20.00    -0.104 C 
HETATM    3  C3  UNL     1     -34.508   7.999   4.229  1.00 20.00     0.069 A 
HETATM    4  C4  UNL     1     -33.940   6.950   5.160  1.00 20.00     0.057 A 
HETATM    5  C5  UNL     1     -33.014   7.823   4.318  1.00 20.00     0.133 A 
HETATM    6  C6  UNL     1     -34.071   7.192   6.643  1.00 20.00     0.032 C 
HETATM    7 CL7  UNL     1     -32.079   9.116   5.072  1.00 20.00    -0.100 Cl
HETATM    8 CL8  UNL     1     -32.196   7.149   2.902  1.00 20.00    -0.100 Cl
ENDROOT
TORSDOF 0
ENDMDL
MODEL 3
REMARK VINA RESULT:      -4.2      1.642      1.943
REMARK  0 active torsions:
REMARK  status: ('A' for Active; 'I' for Inactive)
ROOT
HETATM    1  C1  UNL     1     -32.289   8.952   4.872  1.00 20.00     0.013 C 
HETATM    2  C2  UNL     1     -32.793   7.946   4.454  1.00 20.00    -0.104 C 
HETATM    3  C3  UNL     1     -34.911   6.669   3.968  1.00 20.00     0.069 A 
HETATM    4  C4  UNL     1     -33.399   6.736   3.952  1.00 20.00     0.057 A 
HETATM    5  C5  UNL     1     -34.125   5.822   4.936  1.00 20.00     0.133 A 
HETATM    6  C6  UNL     1     -32.689   6.153   2.756  1.00 20.00     0.032 C 
HETATM    7 CL7  UNL     1     -34.131   4.074   4.690  1.00 20.00    -0.100 Cl
HETATM    8 CL8  UNL     1     -34.224   6.254   6.649  1.00 20.00    -0.100 Cl
ENDROOT
TORSDOF 0
ENDMDL
MODEL 4
REMARK VINA RESULT:      -3.6      2.319      3.717
REMARK  0 active torsions:
REMARK  status: ('A' for Active; 'I' for Inactive)
ROOT
HETATM    1  C1  UNL     1     -34.675   5.354   6.588  1.00 20.00     0.013 C 
HETATM    2  C2  UNL     1     -34.218   6.223   5.896  1.00 20.00    -0.104 C 
HETATM    3  C3  UNL     1     -34.455   7.644   3.828  1.00 20.00     0.069 A 
HETATM    4  C4  UNL     1     -33.669   7.267   5.065  1.00 20.00     0.057 A 
HETATM    5  C5  UNL     1     -33.155   6.897   3.676  1.00 20.00     0.133 A 
HETATM    6  C6  UNL     1     -33.018   8.382   5.844  1.00 20.00     0.032 C 
HETATM    7 CL7  UNL     1     -31.788   7.766   2.973  1.00 20.00    -0.100 Cl
HETATM    8 CL8  UNL     1     -33.247   5.226   3.105  1.00 20.00    -0.100 Cl
ENDROOT
TORSDOF 0
ENDMDL
MODEL 5
REMARK VINA RESULT:      -3.3      8.838      9.285
REMARK  0 active torsions:
REMARK  status: ('A' for Active; 'I' for Inactive)
ROOT
HETATM    1  C1  UNL     1     -40.767   8.759   0.267  1.00 20.00     0.013 C 
HETATM    2  C2  UNL     1     -41.184   7.645   0.108  1.00 20.00    -0.104 C 
HETATM    3  C3  UNL     1     -43.112   6.169  -0.568  1.00 20.00     0.069 A 
HETATM    4  C4  UNL     1     -41.686   6.305  -0.082  1.00 20.00     0.057 A 
HETATM    5  C5  UNL     1     -42.779   5.796   0.854  1.00 20.00     0.133 A 
HETATM    6  C6  UNL     1     -40.664   5.350  -0.646  1.00 20.00     0.032 C 
HETATM    7 CL7  UNL     1     -42.851   4.088   1.293  1.00 20.00    -0.100 Cl
HETATM    8 CL8  UNL     1     -43.417   6.840   2.132  1.00 20.00    -0.100 Cl
ENDROOT
TORSDOF 0
ENDMDL
MODEL 6
REMARK VINA RESULT:      -3.3      9.823     10.954
REMARK  0 active torsions:
REMARK  status: ('A' for Active; 'I' for Inactive)
ROOT
HETATM    1  C1  UNL     1     -39.487  11.827   5.044  1.00 20.00     0.013 C 
HETATM    2  C2  UNL     1     -40.173  12.579   5.681  1.00 20.00    -0.104 C 
HETATM    3  C3  UNL     1     -42.487  13.222   6.444  1.00 20.00     0.069 A 
HETATM    4  C4  UNL     1     -40.997  13.484   6.446  1.00 20.00     0.057 A 
HETATM    5  C5  UNL     1     -41.947  14.414   5.697  1.00 20.00     0.133 A 
HETATM    6  C6  UNL     1     -40.369  13.924   7.745  1.00 20.00     0.032 C 
HETATM    7 CL7  UNL     1     -42.311  16.018   6.338  1.00 20.00    -0.100 Cl
HETATM    8 CL8  UNL     1     -42.035  14.367   3.931  1.00 20.00    -0.100 Cl
ENDROOT
TORSDOF 0
ENDMDL
MODEL 7
REMARK VINA RESULT:      -3.2      8.955      9.959
REMARK  0 active torsions:
REMARK  status: ('A' for Active; 'I' for Inactive)
ROOT
HETATM    1  C1  UNL     1     -43.417   3.467   1.103  1.00 20.00     0.013 C 
HETATM    2  C2  UNL     1     -43.194   4.642   1.004  1.00 20.00    -0.104 C 
HETATM    3  C3  UNL     1     -43.058   6.664  -0.494  1.00 20.00     0.069 A 
HETATM    4  C4  UNL     1     -42.924   6.055   0.884  1.00 20.00     0.057 A 
HETATM    5  C5  UNL     1     -41.686   6.497   0.109  1.00 20.00     0.133 A 
HETATM    6  C6  UNL     1     -43.417   6.866   2.056  1.00 20.00     0.032 C 
HETATM    7 CL7  UNL     1     -40.815   7.957   0.581  1.00 20.00    -0.100 Cl
HETATM    8 CL8  UNL     1     -40.621   5.296  -0.633  1.00 20.00    -0.100 Cl
ENDROOT
TORSDOF 0
ENDMDL
MODEL 8
REMARK VINA RESULT:      -3.2      9.953     11.043
REMARK  0 active torsions:
REMARK  status: ('A' for Active; 'I' for Inactive)
ROOT
HETATM    1  C1  UNL     1     -39.679  11.839   5.850  1.00 20.00     0.013 C 
HETATM    2  C2  UNL     1     -40.696  12.371   6.204  1.00 20.00    -0.104 C 
HETATM    3  C3  UNL     1     -42.373  14.216   5.837  1.00 20.00     0.069 A 
HETATM    4  C4  UNL     1     -41.918  13.009   6.629  1.00 20.00     0.057 A 
HETATM    5  C5  UNL     1     -41.837  14.409   7.233  1.00 20.00     0.133 A 
HETATM    6  C6  UNL     1     -42.978  12.042   7.094  1.00 20.00     0.032 C 
HETATM    7 CL7  UNL     1     -42.975  14.905   8.487  1.00 20.00    -0.100 Cl
HETATM    8 CL8  UNL     1     -40.275  15.224   7.391  1.00 20.00    -0.100 Cl
ENDROOT
TORSDOF 0
ENDMDL
MODEL 9
REMARK VINA RESULT:      -3.2     13.241     13.983
REMARK  0 active torsions:
REMARK  status: ('A' for Active; 'I' for Inactive)
ROOT
HETATM    1  C1  UNL     1     -33.673  17.603  -0.546  1.00 20.00     0.013 C 
HETATM    2  C2  UNL     1     -33.714  17.404  -1.729  1.00 20.00    -0.104 C 
HETATM    3  C3  UNL     1     -33.485  18.348  -4.055  1.00 20.00     0.069 A 
HETATM    4  C4  UNL     1     -33.763  17.166  -3.152  1.00 20.00     0.057 A 
HETATM    5  C5  UNL     1     -34.889  17.807  -3.959  1.00 20.00     0.133 A 
HETATM    6  C6  UNL     1     -33.201  15.828  -3.562  1.00 20.00     0.032 C 
HETATM    7 CL7  UNL     1     -35.549  16.984  -5.374  1.00 20.00    -0.100 Cl
HETATM    8 CL8  UNL     1     -36.093  18.827  -3.159  1.00 20.00    -0.100 Cl
ENDROOT
TORSDOF 0
ENDMDL
