MODEL 1
REMARK VINA RESULT:      -5.3      0.000      0.000
REMARK  0 active torsions:
REMARK  status: ('A' for Active; 'I' for Inactive)
ROOT
HETATM    1  C1  UNL     1     -33.294   7.432   4.925  1.00 20.00     0.041 A 
HETATM    2  C2  UNL     1     -33.530   6.339   4.175  1.00 20.00     0.101 A 
HETATM    3  C3  UNL     1     -34.318   7.057   5.969  1.00 20.00     0.138 A 
HETATM    4  C4  UNL     1     -34.599   5.797   5.116  1.00 20.00     0.287 A 
HETATM    5  F5  UNL     1     -35.866   5.705   4.645  1.00 20.00    -0.199 F 
HETATM    6  F6  UNL     1     -34.349   4.623   5.744  1.00 20.00    -0.199 F 
HETATM    7 CL7  UNL     1     -32.195   8.799   4.758  1.00 20.00    -0.087 Cl
HETATM    8 CL8  UNL     1     -32.859   5.740   2.660  1.00 20.00    -0.081 Cl
ENDROOT
TORSDOF 0
ENDMDL
MODEL 2
REMARK VINA RESULT:      -5.1      2.871      3.310
REMARK  0 active torsions:
REMARK  status: ('A' for Active; 'I' for Inactive)
ROOT
HETATM    1  C1  UNL     1     -33.897   6.682   5.024  1.00 20.00     0.041 A 
HETATM    2  C2  UNL     1     -33.183   6.594   3.887  1.00 20.00     0.101 A 
HETATM    3  C3  UNL     1     -33.444   8.092   5.317  1.00 20.00     0.138 A 
HETATM    4  C4  UNL     1     -32.618   8.004   4.012  1.00 20.00     0.287 A 
HETATM    5  F5  UNL     1     -31.280   8.135   4.181  1.00 20.00    -0.199 F 
HETATM    6  F6  UNL     1     -32.963   8.908   3.063  1.00 20.00    -0.199 F 
HETATM    7 CL7  UNL     1     -34.971   5.567   5.867  1.00 20.00    -0.087 Cl
HETATM    8 CL8  UNL     1     -32.967   5.324   2.684  1.00 20.00    -0.081 Cl
ENDROOT
TORSDOF 0
ENDMDL
MODEL 3
REMARK VINA RESULT:      -4.5      1.165      2.388
REMARK  0 active torsions:
REMARK  status: ('A' for Active; 'I' for Inactive)
ROOT
HETATM    1  C1  UNL     1     -33.148   6.627   3.730  1.00 20.00     0.041 A 
HETATM    2  C2  UNL     1     -33.882   6.991   4.798  1.00 20.00     0.101 A 
HETATM    3  C3  UNL     1     -33.822   5.283   3.601  1.00 20.00     0.138 A 
HETATM    4  C4  UNL     1     -34.672   5.688   4.828  1.00 20.00     0.287 A 
HETATM    5  F5  UNL     1     -34.522   4.884   5.909  1.00 20.00    -0.199 F 
HETATM    6  F6  UNL     1     -36.005   5.753   4.595  1.00 20.00    -0.199 F 
HETATM    7 CL7  UNL     1     -31.871   7.423   2.814  1.00 20.00    -0.087 Cl
HETATM    8 CL8  UNL     1     -33.927   8.436   5.805  1.00 20.00    -0.081 Cl
ENDROOT
TORSDOF 0
ENDMDL
MODEL 4
REMARK VINA RESULT:      -4.4      2.173      2.466
REMARK  0 active torsions:
REMARK  status: ('A' for Active; 'I' for Inactive)
ROOT
HETATM    1  C1  UNL     1     -32.701   7.520   3.736  1.00 20.00     0.041 A 
HETATM    2  C2  UNL     1     -33.592   6.805   4.448  1.00 20.00     0.101 A 
HETATM    3  C3  UNL     1     -32.376   8.444   4.885  1.00 20.00     0.138 A 
HETATM    4  C4  UNL     1     -33.398   7.631   5.714  1.00 20.00     0.287 A 
HETATM    5  F5  UNL     1     -34.454   8.348   6.169  1.00 20.00    -0.199 F 
HETATM    6  F6  UNL     1     -32.877   7.008   6.799  1.00 20.00    -0.199 F 
HETATM    7 CL7  UNL     1     -32.120   7.420   2.076  1.00 20.00    -0.087 Cl
HETATM    8 CL8  UNL     1     -34.616   5.422   4.071  1.00 20.00    -0.081 Cl
ENDROOT
TORSDOF 0
ENDMDL
MODEL 5
REMARK VINA RESULT:      -4.4      2.890      3.797
REMARK  0 active torsions:
REMARK  status: ('A' for Active; 'I' for Inactive)
ROOT
HETATM    1  C1  UNL     1     -33.718   6.181   4.144  1.00 20.00     0.041 A 
HETATM    2  C2  UNL     1     -33.355   7.423   4.516  1.00 20.00     0.101 A 
HETATM    3  C3  UNL     1     -32.765   6.147   2.974  1.00 20.00     0.138 A 
HETATM    4  C4  UNL     1     -32.340   7.575   3.390  1.00 20.00     0.287 A 
HETATM    5  F5  UNL     1     -32.572   8.528   2.455  1.00 20.00    -0.199 F 
HETATM    6  F6  UNL     1     -31.034   7.699   3.731  1.00 20.00    -0.199 F 
HETATM    7 CL7  UNL     1     -34.875   5.017   4.785  1.00 20.00    -0.087 Cl
HETATM    8 CL8  UNL     1     -33.859   8.495   5.822  1.00 20.00    -0.081 Cl
ENDROOT
TORSDOF 0
ENDMDL
MODEL 6
REMARK VINA RESULT:      -4.3      1.138      2.635
REMARK  0 active torsions:
REMARK  status: ('A' for Active; 'I' for Inactive)
ROOT
HETATM    1  C1  UNL     1     -33.613   5.679   3.934  1.00 20.00     0.041 A 
HETATM    2  C2  UNL     1     -33.612   6.585   4.929  1.00 20.00     0.101 A 
HETATM    3  C3  UNL     1     -34.363   4.647   4.742  1.00 20.00     0.138 A 
HETATM    4  C4  UNL     1     -34.368   5.680   5.894  1.00 20.00     0.287 A 
HETATM    5  F5  UNL     1     -33.724   5.277   7.016  1.00 20.00    -0.199 F 
HETATM    6  F6  UNL     1     -35.601   6.074   6.294  1.00 20.00    -0.199 F 
HETATM    7 CL7  UNL     1     -32.979   5.687   2.290  1.00 20.00    -0.087 Cl
HETATM    8 CL8  UNL     1     -32.974   8.222   5.079  1.00 20.00    -0.081 Cl
ENDROOT
TORSDOF 0
ENDMDL
MODEL 7
REMARK VINA RESULT:      -3.9      2.351      2.907
REMARK  0 active torsions:
REMARK  status: ('A' for Active; 'I' for Inactive)
ROOT
HETATM    1  C1  UNL     1     -33.144   7.305   4.249  1.00 20.00     0.041 A 
HETATM    2  C2  UNL     1     -33.738   6.099   4.186  1.00 20.00     0.101 A 
HETATM    3  C3  UNL     1     -32.339   7.083   2.991  1.00 20.00     0.138 A 
HETATM    4  C4  UNL     1     -33.015   5.694   2.908  1.00 20.00     0.287 A 
HETATM    5  F5  UNL     1     -32.160   4.645   2.971  1.00 20.00    -0.199 F 
HETATM    6  F6  UNL     1     -33.764   5.496   1.796  1.00 20.00    -0.199 F 
HETATM    7 CL7  UNL     1     -33.258   8.652   5.378  1.00 20.00    -0.087 Cl
HETATM    8 CL8  UNL     1     -34.920   5.274   5.202  1.00 20.00    -0.081 Cl
ENDROOT
TORSDOF 0
ENDMDL
MODEL 8
REMARK VINA RESULT:      -3.9      2.259      2.701
REMARK  0 active torsions:
REMARK  status: ('A' for Active; 'I' for Inactive)
ROOT
HETATM    1  C1  UNL     1     -33.961   6.234   5.037  1.00 20.00     0.041 A 
HETATM    2  C2  UNL     1     -33.182   6.725   4.056  1.00 20.00     0.101 A 
HETATM    3  C3  UNL     1     -34.239   4.943   4.305  1.00 20.00     0.138 A 
HETATM    4  C4  UNL     1     -33.346   5.496   3.169  1.00 20.00     0.287 A 
HETATM    5  F5  UNL     1     -33.978   5.655   1.981  1.00 20.00    -0.199 F 
HETATM    6  F6  UNL     1     -32.242   4.756   2.908  1.00 20.00    -0.199 F 
HETATM    7 CL7  UNL     1     -34.472   6.859   6.604  1.00 20.00    -0.087 Cl
HETATM    8 CL8  UNL     1     -32.293   8.233   3.853  1.00 20.00    -0.081 Cl
ENDROOT
TORSDOF 0
ENDMDL
MODEL 9
REMARK VINA RESULT:      -3.6     13.015     13.623
REMARK  0 active torsions:
REMARK  status: ('A' for Active; 'I' for Inactive)
ROOT
HETATM    1  C1  UNL     1     -33.771  15.914  -3.833  1.00 20.00     0.041 A 
HETATM    2  C2  UNL     1     -34.363  16.373  -4.951  1.00 20.00     0.101 A 
HETATM    3  C3  UNL     1     -33.585  14.522  -4.385  1.00 20.00     0.138 A 
HETATM    4  C4  UNL     1     -34.264  15.037  -5.676  1.00 20.00     0.287 A 
HETATM    5  F5  UNL     1     -35.420  14.405  -5.996  1.00 20.00    -0.199 F 
HETATM    6  F6  UNL     1     -33.489  14.976  -6.785  1.00 20.00    -0.199 F 
HETATM    7 CL7  UNL     1     -33.359  16.659  -2.290  1.00 20.00    -0.087 Cl
HETATM    8 CL8  UNL     1     -35.018  17.940  -5.422  1.00 20.00    -0.081 Cl
ENDROOT
TORSDOF 0
ENDMDL
