MODEL 1
REMARK VINA RESULT:      -5.6      0.000      0.000
REMARK  1 active torsions:
REMARK  status: ('A' for Active; 'I' for Inactive)
REMARK    1  A    between atoms: C4_4  and  C6_6 
ROOT
HETATM    1  C1  UNL     1     -34.408   8.321   4.664  1.00 20.00     0.062 C 
HETATM    2  C2  UNL     1     -33.130   7.370   6.076  1.00 20.00     0.062 C 
HETATM    3  C3  UNL     1     -32.766   7.145   3.992  1.00 20.00     0.062 C 
HETATM    4  C4  UNL     1     -34.021   6.802   4.896  1.00 20.00     0.067 C 
HETATM    5  C5  UNL     1     -32.882   8.376   4.925  1.00 20.00     0.106 C 
HETATM    6  F7  UNL     1     -32.106   9.447   4.946  1.00 20.00    -0.243 F 
ENDROOT
BRANCH   4   7
HETATM    7  C6  UNL     1     -34.888   5.604   4.874  1.00 20.00     0.395 C 
HETATM    8  F8  UNL     1     -36.076   5.848   4.261  1.00 20.00    -0.170 F 
HETATM    9  F9  UNL     1     -34.308   4.569   4.211  1.00 20.00    -0.170 F 
HETATM   10  F10 UNL     1     -35.173   5.161   6.126  1.00 20.00    -0.170 F 
ENDBRANCH   4   7
TORSDOF 1
ENDMDL
MODEL 2
REMARK VINA RESULT:      -5.5      0.023      1.665
REMARK  1 active torsions:
REMARK  status: ('A' for Active; 'I' for Inactive)
REMARK    1  A    between atoms: C4_4  and  C6_6 
ROOT
HETATM    1  C1  UNL     1     -33.138   7.360   6.077  1.00 20.00     0.062 C 
HETATM    2  C2  UNL     1     -32.760   7.145   3.993  1.00 20.00     0.062 C 
HETATM    3  C3  UNL     1     -34.409   8.312   4.661  1.00 20.00     0.062 C 
HETATM    4  C4  UNL     1     -34.019   6.794   4.889  1.00 20.00     0.067 C 
HETATM    5  C5  UNL     1     -32.885   8.371   4.931  1.00 20.00     0.106 C 
HETATM    6  F7  UNL     1     -32.113   9.445   4.960  1.00 20.00    -0.243 F 
ENDROOT
BRANCH   4   7
HETATM    7  C6  UNL     1     -34.881   5.593   4.856  1.00 20.00     0.395 C 
HETATM    8  F8  UNL     1     -34.304   4.572   4.169  1.00 20.00    -0.170 F 
HETATM    9  F9  UNL     1     -35.151   5.126   6.104  1.00 20.00    -0.170 F 
HETATM   10  F10 UNL     1     -36.077   5.842   4.261  1.00 20.00    -0.170 F 
ENDBRANCH   4   7
TORSDOF 1
ENDMDL
MODEL 3
REMARK VINA RESULT:      -4.8      1.194      3.804
REMARK  1 active torsions:
REMARK  status: ('A' for Active; 'I' for Inactive)
REMARK    1  A    between atoms: C4_4  and  C6_6 
ROOT
HETATM    1  C1  UNL     1     -33.560   5.857   4.355  1.00 20.00     0.062 C 
HETATM    2  C2  UNL     1     -33.458   6.828   6.247  1.00 20.00     0.062 C 
HETATM    3  C3  UNL     1     -34.947   7.398   4.837  1.00 20.00     0.062 C 
HETATM    4  C4  UNL     1     -33.365   7.375   4.763  1.00 20.00     0.067 C 
HETATM    5  C5  UNL     1     -34.576   6.052   5.508  1.00 20.00     0.106 C 
HETATM    6  F7  UNL     1     -35.402   5.150   6.016  1.00 20.00    -0.243 F 
ENDROOT
BRANCH   4   7
HETATM    7  C6  UNL     1     -32.442   8.382   4.197  1.00 20.00     0.395 C 
HETATM    8  F8  UNL     1     -31.241   7.840   3.863  1.00 20.00    -0.170 F 
HETATM    9  F9  UNL     1     -32.943   8.955   3.070  1.00 20.00    -0.170 F 
HETATM   10  F10 UNL     1     -32.190   9.390   5.072  1.00 20.00    -0.170 F 
ENDBRANCH   4   7
TORSDOF 1
ENDMDL
MODEL 4
REMARK VINA RESULT:      -4.8      1.180      3.803
REMARK  1 active torsions:
REMARK  status: ('A' for Active; 'I' for Inactive)
REMARK    1  A    between atoms: C4_4  and  C6_6 
ROOT
HETATM    1  C1  UNL     1     -33.584   5.906   4.316  1.00 20.00     0.062 C 
HETATM    2  C2  UNL     1     -33.429   6.822   6.231  1.00 20.00     0.062 C 
HETATM    3  C3  UNL     1     -34.937   7.453   4.868  1.00 20.00     0.062 C 
HETATM    4  C4  UNL     1     -33.357   7.409   4.761  1.00 20.00     0.067 C 
HETATM    5  C5  UNL     1     -34.574   6.083   5.494  1.00 20.00     0.106 C 
HETATM    6  F7  UNL     1     -35.403   5.181   5.993  1.00 20.00    -0.243 F 
ENDROOT
BRANCH   4   7
HETATM    7  C6  UNL     1     -32.430   8.418   4.204  1.00 20.00     0.395 C 
HETATM    8  F8  UNL     1     -32.203   9.435   5.077  1.00 20.00    -0.170 F 
HETATM    9  F9  UNL     1     -31.219   7.882   3.899  1.00 20.00    -0.170 F 
HETATM   10  F10 UNL     1     -32.913   8.976   3.064  1.00 20.00    -0.170 F 
ENDBRANCH   4   7
TORSDOF 1
ENDMDL
MODEL 5
REMARK VINA RESULT:      -4.7      1.249      3.753
REMARK  1 active torsions:
REMARK  status: ('A' for Active; 'I' for Inactive)
REMARK    1  A    between atoms: C4_4  and  C6_6 
ROOT
HETATM    1  C1  UNL     1     -33.665   6.848   6.332  1.00 20.00     0.062 C 
HETATM    2  C2  UNL     1     -35.044   7.126   4.735  1.00 20.00     0.062 C 
HETATM    3  C3  UNL     1     -33.522   5.646   4.581  1.00 20.00     0.062 C 
HETATM    4  C4  UNL     1     -33.464   7.214   4.804  1.00 20.00     0.067 C 
HETATM    5  C5  UNL     1     -34.655   5.905   5.605  1.00 20.00     0.106 C 
HETATM    6  F7  UNL     1     -35.467   5.013   6.150  1.00 20.00    -0.243 F 
ENDROOT
BRANCH   4   7
HETATM    7  C6  UNL     1     -32.557   8.211   4.194  1.00 20.00     0.395 C 
HETATM    8  F8  UNL     1     -33.146   8.865   3.158  1.00 20.00    -0.170 F 
HETATM    9  F9  UNL     1     -32.168   9.158   5.088  1.00 20.00    -0.170 F 
HETATM   10  F10 UNL     1     -31.426   7.638   3.707  1.00 20.00    -0.170 F 
ENDBRANCH   4   7
TORSDOF 1
ENDMDL
MODEL 6
REMARK VINA RESULT:      -4.7      1.417      2.336
REMARK  1 active torsions:
REMARK  status: ('A' for Active; 'I' for Inactive)
REMARK    1  A    between atoms: C4_4  and  C6_6 
ROOT
HETATM    1  C1  UNL     1     -32.438   8.237   5.133  1.00 20.00     0.062 C 
HETATM    2  C2  UNL     1     -32.961   6.687   3.772  1.00 20.00     0.062 C 
HETATM    3  C3  UNL     1     -34.324   8.277   4.148  1.00 20.00     0.062 C 
HETATM    4  C4  UNL     1     -33.644   7.211   5.102  1.00 20.00     0.067 C 
HETATM    5  C5  UNL     1     -32.860   8.227   3.643  1.00 20.00     0.106 C 
HETATM    6  F7  UNL     1     -32.327   8.919   2.649  1.00 20.00    -0.243 F 
ENDROOT
BRANCH   4   7
HETATM    7  C6  UNL     1     -34.241   6.436   6.212  1.00 20.00     0.395 C 
HETATM    8  F8  UNL     1     -33.362   5.543   6.737  1.00 20.00    -0.170 F 
HETATM    9  F9  UNL     1     -34.645   7.239   7.232  1.00 20.00    -0.170 F 
HETATM   10  F10 UNL     1     -35.329   5.729   5.810  1.00 20.00    -0.170 F 
ENDBRANCH   4   7
TORSDOF 1
ENDMDL
MODEL 7
REMARK VINA RESULT:      -4.7      1.989      3.364
REMARK  1 active torsions:
REMARK  status: ('A' for Active; 'I' for Inactive)
REMARK    1  A    between atoms: C4_4  and  C6_6 
ROOT
HETATM    1  C1  UNL     1     -35.387   5.932   4.386  1.00 20.00     0.062 C 
HETATM    2  C2  UNL     1     -33.924   4.674   5.284  1.00 20.00     0.062 C 
HETATM    3  C3  UNL     1     -33.655   6.784   5.282  1.00 20.00     0.062 C 
HETATM    4  C4  UNL     1     -33.840   5.734   4.110  1.00 20.00     0.067 C 
HETATM    5  C5  UNL     1     -34.777   5.856   5.808  1.00 20.00     0.106 C 
HETATM    6  F7  UNL     1     -35.415   5.938   6.964  1.00 20.00    -0.243 F 
ENDROOT
BRANCH   4   7
HETATM    7  C6  UNL     1     -33.126   5.641   2.818  1.00 20.00     0.395 C 
HETATM    8  F8  UNL     1     -32.272   4.584   2.785  1.00 20.00    -0.170 F 
HETATM    9  F9  UNL     1     -33.983   5.489   1.774  1.00 20.00    -0.170 F 
HETATM   10  F10 UNL     1     -32.387   6.752   2.565  1.00 20.00    -0.170 F 
ENDBRANCH   4   7
TORSDOF 1
ENDMDL
MODEL 8
REMARK VINA RESULT:      -4.2     16.300     17.155
REMARK  1 active torsions:
REMARK  status: ('A' for Active; 'I' for Inactive)
REMARK    1  A    between atoms: C4_4  and  C6_6 
ROOT
HETATM    1  C1  UNL     1     -23.346  19.083   8.884  1.00 20.00     0.062 C 
HETATM    2  C2  UNL     1     -21.303  18.942   9.464  1.00 20.00     0.062 C 
HETATM    3  C3  UNL     1     -22.417  17.176   9.052  1.00 20.00     0.062 C 
HETATM    4  C4  UNL     1     -22.631  18.351  10.093  1.00 20.00     0.067 C 
HETATM    5  C5  UNL     1     -22.095  18.448   8.228  1.00 20.00     0.106 C 
HETATM    6  F7  UNL     1     -21.729  18.513   6.958  1.00 20.00    -0.243 F 
ENDROOT
BRANCH   4   7
HETATM    7  C6  UNL     1     -23.039  18.278  11.513  1.00 20.00     0.395 C 
HETATM    8  F8  UNL     1     -22.136  18.878  12.332  1.00 20.00    -0.170 F 
HETATM    9  F9  UNL     1     -24.235  18.888  11.730  1.00 20.00    -0.170 F 
HETATM   10  F10 UNL     1     -23.168  16.995  11.939  1.00 20.00    -0.170 F 
ENDBRANCH   4   7
TORSDOF 1
ENDMDL
MODEL 9
REMARK VINA RESULT:      -4.1      8.414      9.549
REMARK  1 active torsions:
REMARK  status: ('A' for Active; 'I' for Inactive)
REMARK    1  A    between atoms: C4_4  and  C6_6 
ROOT
HETATM    1  C1  UNL     1     -41.903  12.510   6.608  1.00 20.00     0.062 C 
HETATM    2  C2  UNL     1     -40.489  14.086   6.821  1.00 20.00     0.062 C 
HETATM    3  C3  UNL     1     -41.642  13.925   5.040  1.00 20.00     0.062 C 
HETATM    4  C4  UNL     1     -40.638  12.928   5.751  1.00 20.00     0.067 C 
HETATM    5  C5  UNL     1     -42.011  14.054   6.539  1.00 20.00     0.106 C 
HETATM    6  F7  UNL     1     -42.947  14.821   7.075  1.00 20.00    -0.243 F 
ENDROOT
BRANCH   4   7
HETATM    7  C6  UNL     1     -39.592  12.070   5.152  1.00 20.00     0.395 C 
HETATM    8  F8  UNL     1     -38.346  12.431   5.558  1.00 20.00    -0.170 F 
HETATM    9  F9  UNL     1     -39.753  10.763   5.487  1.00 20.00    -0.170 F 
HETATM   10  F10 UNL     1     -39.599  12.134   3.795  1.00 20.00    -0.170 F 
ENDBRANCH   4   7
TORSDOF 1
ENDMDL
