MODEL 1
REMARK VINA RESULT:      -5.0      0.000      0.000
REMARK  1 active torsions:
REMARK  status: ('A' for Active; 'I' for Inactive)
REMARK    1  A    between atoms: C6_6  and  C10_10 
ROOT
HETATM    1  C1  UNL     1     -32.891   4.393   1.697  1.00 20.00     0.017 C 
HETATM    2  C2  UNL     1     -33.245   4.917   2.717  1.00 20.00    -0.083 C 
HETATM    3  C3  UNL     1     -33.634   6.882   4.020  1.00 20.00    -0.002 C 
HETATM    4  C4  UNL     1     -33.664   5.540   3.930  1.00 20.00    -0.009 C 
HETATM    5  C7  UNL     1     -34.152   4.674   5.063  1.00 20.00     0.048 C 
HETATM    6  C8  UNL     1     -34.936   5.450   6.123  1.00 20.00     0.006 C 
HETATM    7  C9  UNL     1     -34.220   6.746   6.486  1.00 20.00     0.012 C 
HETATM    8  C10 UNL     1     -34.048   7.648   5.252  1.00 20.00     0.031 C 
ENDROOT
BRANCH   8   9
HETATM    9  C6  UNL     1     -33.082   8.750   5.566  1.00 20.00    -0.028 C 
HETATM   10  C5  UNL     1     -32.052   9.088   4.781  1.00 20.00     0.007 C 
ENDBRANCH   8   9
TORSDOF 1
ENDMDL
MODEL 2
REMARK VINA RESULT:      -4.8      1.010      4.023
REMARK  1 active torsions:
REMARK  status: ('A' for Active; 'I' for Inactive)
REMARK    1  A    between atoms: C6_6  and  C10_10 
ROOT
HETATM    1  C1  UNL     1     -31.887   9.903   4.990  1.00 20.00     0.017 C 
HETATM    2  C2  UNL     1     -32.302   8.852   4.584  1.00 20.00    -0.083 C 
HETATM    3  C3  UNL     1     -33.888   7.069   4.673  1.00 20.00    -0.002 C 
HETATM    4  C4  UNL     1     -32.792   7.602   4.104  1.00 20.00    -0.009 C 
HETATM    5  C7  UNL     1     -32.082   6.934   2.956  1.00 20.00     0.048 C 
HETATM    6  C8  UNL     1     -32.916   5.842   2.282  1.00 20.00     0.006 C 
HETATM    7  C9  UNL     1     -33.575   4.943   3.322  1.00 20.00     0.012 C 
HETATM    8  C10 UNL     1     -34.494   5.752   4.252  1.00 20.00     0.031 C 
ENDROOT
BRANCH   8   9
HETATM    9  C6  UNL     1     -34.873   4.916   5.437  1.00 20.00    -0.028 C 
HETATM   10  C5  UNL     1     -34.642   5.269   6.706  1.00 20.00     0.007 C 
ENDBRANCH   8   9
TORSDOF 1
ENDMDL
MODEL 3
REMARK VINA RESULT:      -4.5      1.958      3.581
REMARK  1 active torsions:
REMARK  status: ('A' for Active; 'I' for Inactive)
REMARK    1  A    between atoms: C6_6  and  C10_10 
ROOT
HETATM    1  C1  UNL     1     -31.940   8.312   0.228  1.00 20.00     0.017 C 
HETATM    2  C2  UNL     1     -32.217   8.178   1.388  1.00 20.00    -0.083 C 
HETATM    3  C3  UNL     1     -32.902   6.802   3.217  1.00 20.00    -0.002 C 
HETATM    4  C4  UNL     1     -32.547   8.018   2.766  1.00 20.00    -0.009 C 
HETATM    5  C7  UNL     1     -32.462   9.215   3.678  1.00 20.00     0.048 C 
HETATM    6  C8  UNL     1     -32.440   8.843   5.162  1.00 20.00     0.006 C 
HETATM    7  C9  UNL     1     -33.502   7.794   5.474  1.00 20.00     0.012 C 
HETATM    8  C10 UNL     1     -33.277   6.516   4.651  1.00 20.00     0.031 C 
ENDROOT
BRANCH   8   9
HETATM    9  C6  UNL     1     -34.490   5.640   4.739  1.00 20.00    -0.028 C 
HETATM   10  C5  UNL     1     -35.003   5.186   5.888  1.00 20.00     0.007 C 
ENDBRANCH   8   9
TORSDOF 1
ENDMDL
MODEL 4
REMARK VINA RESULT:      -4.3      1.624      3.421
REMARK  1 active torsions:
REMARK  status: ('A' for Active; 'I' for Inactive)
REMARK    1  A    between atoms: C6_6  and  C10_10 
ROOT
HETATM    1  C1  UNL     1     -35.110   5.819   6.862  1.00 20.00     0.017 C 
HETATM    2  C2  UNL     1     -34.510   6.005   5.839  1.00 20.00    -0.083 C 
HETATM    3  C3  UNL     1     -33.115   7.374   4.466  1.00 20.00    -0.002 C 
HETATM    4  C4  UNL     1     -33.799   6.227   4.623  1.00 20.00    -0.009 C 
HETATM    5  C7  UNL     1     -33.814   5.154   3.565  1.00 20.00     0.048 C 
HETATM    6  C8  UNL     1     -32.714   5.325   2.515  1.00 20.00     0.006 C 
HETATM    7  C9  UNL     1     -32.632   6.774   2.048  1.00 20.00     0.012 C 
HETATM    8  C10 UNL     1     -32.332   7.719   3.223  1.00 20.00     0.031 C 
ENDROOT
BRANCH   8   9
HETATM    9  C6  UNL     1     -32.566   9.138   2.800  1.00 20.00    -0.028 C 
HETATM   10  C5  UNL     1     -32.919   9.502   1.563  1.00 20.00     0.007 C 
ENDBRANCH   8   9
TORSDOF 1
ENDMDL
MODEL 5
REMARK VINA RESULT:      -4.2      9.128     11.020
REMARK  1 active torsions:
REMARK  status: ('A' for Active; 'I' for Inactive)
REMARK    1  A    between atoms: C6_6  and  C10_10 
ROOT
HETATM    1  C1  UNL     1     -40.052  15.394   9.849  1.00 20.00     0.017 C 
HETATM    2  C2  UNL     1     -40.335  14.912   8.787  1.00 20.00    -0.083 C 
HETATM    3  C3  UNL     1     -40.164  13.139   7.196  1.00 20.00    -0.002 C 
HETATM    4  C4  UNL     1     -40.670  14.341   7.524  1.00 20.00    -0.009 C 
HETATM    5  C7  UNL     1     -41.602  15.093   6.609  1.00 20.00     0.048 C 
HETATM    6  C8  UNL     1     -42.195  14.220   5.500  1.00 20.00     0.006 C 
HETATM    7  C9  UNL     1     -41.115  13.360   4.853  1.00 20.00     0.012 C 
HETATM    8  C10 UNL     1     -40.445  12.441   5.887  1.00 20.00     0.031 C 
ENDROOT
BRANCH   8   9
HETATM    9  C6  UNL     1     -39.199  11.847   5.302  1.00 20.00    -0.028 C 
HETATM   10  C5  UNL     1     -38.987  11.699   3.989  1.00 20.00     0.007 C 
ENDBRANCH   8   9
TORSDOF 1
ENDMDL
MODEL 6
REMARK VINA RESULT:      -4.1     12.266     13.953
REMARK  1 active torsions:
REMARK  status: ('A' for Active; 'I' for Inactive)
REMARK    1  A    between atoms: C6_6  and  C10_10 
ROOT
HETATM    1  C1  UNL     1     -31.332  18.676   0.230  1.00 20.00     0.017 C 
HETATM    2  C2  UNL     1     -31.948  18.442  -0.773  1.00 20.00    -0.083 C 
HETATM    3  C3  UNL     1     -33.207  16.938  -2.138  1.00 20.00    -0.002 C 
HETATM    4  C4  UNL     1     -32.678  18.163  -1.966  1.00 20.00    -0.009 C 
HETATM    5  C7  UNL     1     -32.857  19.260  -2.984  1.00 20.00     0.048 C 
HETATM    6  C8  UNL     1     -33.970  18.973  -3.993  1.00 20.00     0.006 C 
HETATM    7  C9  UNL     1     -33.877  17.542  -4.510  1.00 20.00     0.012 C 
HETATM    8  C10 UNL     1     -33.993  16.529  -3.359  1.00 20.00     0.031 C 
ENDROOT
BRANCH   8   9
HETATM    9  C6  UNL     1     -33.589  15.169  -3.844  1.00 20.00    -0.028 C 
HETATM   10  C5  UNL     1     -34.367  14.380  -4.592  1.00 20.00     0.007 C 
ENDBRANCH   8   9
TORSDOF 1
ENDMDL
MODEL 7
REMARK VINA RESULT:      -4.0     12.143     13.281
REMARK  1 active torsions:
REMARK  status: ('A' for Active; 'I' for Inactive)
REMARK    1  A    between atoms: C6_6  and  C10_10 
ROOT
HETATM    1  C1  UNL     1     -34.229  14.457  -4.520  1.00 20.00     0.017 C 
HETATM    2  C2  UNL     1     -33.953  15.494  -3.981  1.00 20.00    -0.083 C 
HETATM    3  C3  UNL     1     -33.367  16.726  -2.020  1.00 20.00    -0.002 C 
HETATM    4  C4  UNL     1     -33.628  16.725  -3.339  1.00 20.00    -0.009 C 
HETATM    5  C7  UNL     1     -33.559  17.982  -4.168  1.00 20.00     0.048 C 
HETATM    6  C8  UNL     1     -32.821  19.127  -3.472  1.00 20.00     0.006 C 
HETATM    7  C9  UNL     1     -33.277  19.263  -2.023  1.00 20.00     0.012 C 
HETATM    8  C10 UNL     1     -33.017  17.968  -1.236  1.00 20.00     0.031 C 
ENDROOT
BRANCH   8   9
HETATM    9  C6  UNL     1     -33.748  18.018   0.072  1.00 20.00    -0.028 C 
HETATM   10  C5  UNL     1     -33.441  18.854   1.069  1.00 20.00     0.007 C 
ENDBRANCH   8   9
TORSDOF 1
ENDMDL
MODEL 8
REMARK VINA RESULT:      -4.0      1.511      2.632
REMARK  1 active torsions:
REMARK  status: ('A' for Active; 'I' for Inactive)
REMARK    1  A    between atoms: C6_6  and  C10_10 
ROOT
HETATM    1  C1  UNL     1     -31.903   8.287   1.469  1.00 20.00     0.017 C 
HETATM    2  C2  UNL     1     -32.426   7.482   2.190  1.00 20.00    -0.083 C 
HETATM    3  C3  UNL     1     -33.837   6.959   4.045  1.00 20.00    -0.002 C 
HETATM    4  C4  UNL     1     -33.046   6.526   3.047  1.00 20.00    -0.009 C 
HETATM    5  C7  UNL     1     -32.816   5.060   2.789  1.00 20.00     0.048 C 
HETATM    6  C8  UNL     1     -33.830   4.155   3.493  1.00 20.00     0.006 C 
HETATM    7  C9  UNL     1     -34.032   4.592   4.940  1.00 20.00     0.012 C 
HETATM    8  C10 UNL     1     -34.540   6.041   5.016  1.00 20.00     0.031 C 
ENDROOT
BRANCH   8   9
HETATM    9  C6  UNL     1     -34.430   6.541   6.425  1.00 20.00    -0.028 C 
HETATM   10  C5  UNL     1     -33.841   7.692   6.766  1.00 20.00     0.007 C 
ENDBRANCH   8   9
TORSDOF 1
ENDMDL
MODEL 9
REMARK VINA RESULT:      -3.9      9.651     10.819
REMARK  1 active torsions:
REMARK  status: ('A' for Active; 'I' for Inactive)
REMARK    1  A    between atoms: C6_6  and  C10_10 
ROOT
HETATM    1  C1  UNL     1     -39.294  11.739   4.619  1.00 20.00     0.017 C 
HETATM    2  C2  UNL     1     -40.015  12.318   5.383  1.00 20.00    -0.083 C 
HETATM    3  C3  UNL     1     -40.517  14.230   6.725  1.00 20.00    -0.002 C 
HETATM    4  C4  UNL     1     -40.871  13.007   6.293  1.00 20.00    -0.009 C 
HETATM    5  C7  UNL     1     -42.159  12.351   6.720  1.00 20.00     0.048 C 
HETATM    6  C8  UNL     1     -43.155  13.326   7.350  1.00 20.00     0.006 C 
HETATM    7  C9  UNL     1     -42.460  14.234   8.358  1.00 20.00     0.012 C 
HETATM    8  C10 UNL     1     -41.339  15.048   7.691  1.00 20.00     0.031 C 
ENDROOT
BRANCH   8   9
HETATM    9  C6  UNL     1     -40.482  15.683   8.744  1.00 20.00    -0.028 C 
HETATM   10  C5  UNL     1     -40.096  15.066   9.866  1.00 20.00     0.007 C 
ENDBRANCH   8   9
TORSDOF 1
ENDMDL
