MODEL 1
REMARK VINA RESULT:      -4.7      0.000      0.000
REMARK  0 active torsions:
REMARK  status: ('A' for Active; 'I' for Inactive)
ROOT
HETATM    1  C1  UNL     1     -32.910   5.066   2.294  1.00 20.00     0.014 C 
HETATM    2  C2  UNL     1     -33.529   5.427   3.256  1.00 20.00    -0.091 C 
HETATM    3  C3  UNL     1     -34.611   5.652   6.820  1.00 20.00     0.003 C 
HETATM    4  C4  UNL     1     -34.244   7.105   6.511  1.00 20.00     0.003 C 
HETATM    5  C5  UNL     1     -34.256   4.850   5.568  1.00 20.00     0.039 C 
HETATM    6  C6  UNL     1     -33.684   7.107   5.090  1.00 20.00     0.039 C 
HETATM    7  C7  UNL     1     -34.284   5.867   4.429  1.00 20.00     0.099 C 
HETATM    8 CL8  UNL     1     -35.967   6.184   3.909  1.00 20.00    -0.105 Cl
ENDROOT
TORSDOF 0
ENDMDL
MODEL 2
REMARK VINA RESULT:      -4.0     16.418     17.032
REMARK  0 active torsions:
REMARK  status: ('A' for Active; 'I' for Inactive)
ROOT
HETATM    1  C1  UNL     1     -22.081  17.373   8.822  1.00 20.00     0.014 C 
HETATM    2  C2  UNL     1     -22.741  17.529   9.812  1.00 20.00    -0.091 C 
HETATM    3  C3  UNL     1     -25.679  18.414  11.937  1.00 20.00     0.003 C 
HETATM    4  C4  UNL     1     -25.433  16.956  12.332  1.00 20.00     0.003 C 
HETATM    5  C5  UNL     1     -24.680  18.723  10.821  1.00 20.00     0.039 C 
HETATM    6  C6  UNL     1     -24.301  16.459  11.434  1.00 20.00     0.039 C 
HETATM    7  C7  UNL     1     -23.546  17.721  11.019  1.00 20.00     0.099 C 
HETATM    8 CL8  UNL     1     -22.450  18.258  12.328  1.00 20.00    -0.105 Cl
ENDROOT
TORSDOF 0
ENDMDL
MODEL 3
REMARK VINA RESULT:      -3.9     17.001     17.696
REMARK  0 active torsions:
REMARK  status: ('A' for Active; 'I' for Inactive)
ROOT
HETATM    1  C1  UNL     1     -26.558  19.160  12.329  1.00 20.00     0.014 C 
HETATM    2  C2  UNL     1     -25.515  18.726  11.925  1.00 20.00    -0.091 C 
HETATM    3  C3  UNL     1     -22.321  18.559  10.003  1.00 20.00     0.003 C 
HETATM    4  C4  UNL     1     -21.829  18.400  11.444  1.00 20.00     0.003 C 
HETATM    5  C5  UNL     1     -23.827  18.803  10.095  1.00 20.00     0.039 C 
HETATM    6  C6  UNL     1     -23.062  18.559  12.332  1.00 20.00     0.039 C 
HETATM    7  C7  UNL     1     -24.243  18.197  11.433  1.00 20.00     0.099 C 
HETATM    8 CL8  UNL     1     -24.407  16.420  11.295  1.00 20.00    -0.105 Cl
ENDROOT
TORSDOF 0
ENDMDL
MODEL 4
REMARK VINA RESULT:      -3.7      1.283      2.507
REMARK  0 active torsions:
REMARK  status: ('A' for Active; 'I' for Inactive)
ROOT
HETATM    1  C1  UNL     1     -32.073   8.944   4.616  1.00 20.00     0.014 C 
HETATM    2  C2  UNL     1     -32.896   8.077   4.722  1.00 20.00    -0.091 C 
HETATM    3  C3  UNL     1     -34.363   4.646   4.714  1.00 20.00     0.003 C 
HETATM    4  C4  UNL     1     -34.678   5.119   6.134  1.00 20.00     0.003 C 
HETATM    5  C5  UNL     1     -33.534   5.759   4.072  1.00 20.00     0.039 C 
HETATM    6  C6  UNL     1     -34.023   6.492   6.279  1.00 20.00     0.039 C 
HETATM    7  C7  UNL     1     -33.899   7.020   4.852  1.00 20.00     0.099 C 
HETATM    8 CL8  UNL     1     -35.464   7.680   4.287  1.00 20.00    -0.105 Cl
ENDROOT
TORSDOF 0
ENDMDL
MODEL 5
REMARK VINA RESULT:      -3.7      1.933      2.748
REMARK  0 active torsions:
REMARK  status: ('A' for Active; 'I' for Inactive)
ROOT
HETATM    1  C1  UNL     1     -32.199   9.203   4.818  1.00 20.00     0.014 C 
HETATM    2  C2  UNL     1     -32.772   8.155   4.703  1.00 20.00    -0.091 C 
HETATM    3  C3  UNL     1     -34.648   5.083   5.687  1.00 20.00     0.003 C 
HETATM    4  C4  UNL     1     -35.592   5.712   4.662  1.00 20.00     0.003 C 
HETATM    5  C5  UNL     1     -33.490   6.068   5.857  1.00 20.00     0.039 C 
HETATM    6  C6  UNL     1     -34.960   7.046   4.265  1.00 20.00     0.039 C 
HETATM    7  C7  UNL     1     -33.471   6.877   4.562  1.00 20.00     0.099 C 
HETATM    8 CL8  UNL     1     -32.669   5.956   3.254  1.00 20.00    -0.105 Cl
ENDROOT
TORSDOF 0
ENDMDL
MODEL 6
REMARK VINA RESULT:      -3.6      9.340     10.249
REMARK  0 active torsions:
REMARK  status: ('A' for Active; 'I' for Inactive)
ROOT
HETATM    1  C1  UNL     1     -39.261  11.717   4.602  1.00 20.00     0.014 C 
HETATM    2  C2  UNL     1     -40.084  12.387   5.163  1.00 20.00    -0.091 C 
HETATM    3  C3  UNL     1     -42.677  13.345   7.670  1.00 20.00     0.003 C 
HETATM    4  C4  UNL     1     -41.650  14.468   7.835  1.00 20.00     0.003 C 
HETATM    5  C5  UNL     1     -42.078  12.370   6.656  1.00 20.00     0.039 C 
HETATM    6  C6  UNL     1     -40.482  14.112   6.916  1.00 20.00     0.039 C 
HETATM    7  C7  UNL     1     -41.087  13.204   5.847  1.00 20.00     0.099 C 
HETATM    8 CL8  UNL     1     -41.941  14.172   4.608  1.00 20.00    -0.105 Cl
ENDROOT
TORSDOF 0
ENDMDL
MODEL 7
REMARK VINA RESULT:      -3.5      9.661     10.627
REMARK  0 active torsions:
REMARK  status: ('A' for Active; 'I' for Inactive)
ROOT
HETATM    1  C1  UNL     1     -39.322  11.750   4.705  1.00 20.00     0.014 C 
HETATM    2  C2  UNL     1     -40.148  12.433   5.243  1.00 20.00    -0.091 C 
HETATM    3  C3  UNL     1     -41.625  15.358   7.028  1.00 20.00     0.003 C 
HETATM    4  C4  UNL     1     -42.508  15.273   5.781  1.00 20.00     0.003 C 
HETATM    5  C5  UNL     1     -40.547  14.288   6.857  1.00 20.00     0.039 C 
HETATM    6  C6  UNL     1     -41.917  14.158   4.920  1.00 20.00     0.039 C 
HETATM    7  C7  UNL     1     -41.156  13.267   5.899  1.00 20.00     0.099 C 
HETATM    8 CL8  UNL     1     -42.282  12.180   6.768  1.00 20.00    -0.105 Cl
ENDROOT
TORSDOF 0
ENDMDL
MODEL 8
REMARK VINA RESULT:      -3.5      9.715     10.687
REMARK  0 active torsions:
REMARK  status: ('A' for Active; 'I' for Inactive)
ROOT
HETATM    1  C1  UNL     1     -39.163  11.828   4.968  1.00 20.00     0.014 C 
HETATM    2  C2  UNL     1     -40.042  12.484   5.454  1.00 20.00    -0.091 C 
HETATM    3  C3  UNL     1     -43.238  14.395   5.696  1.00 20.00     0.003 C 
HETATM    4  C4  UNL     1     -43.417  13.343   6.793  1.00 20.00     0.003 C 
HETATM    5  C5  UNL     1     -41.913  14.067   5.008  1.00 20.00     0.039 C 
HETATM    6  C6  UNL     1     -42.193  12.431   6.709  1.00 20.00     0.039 C 
HETATM    7  C7  UNL     1     -41.113  13.285   6.047  1.00 20.00     0.099 C 
HETATM    8 CL8  UNL     1     -40.370  14.395   7.238  1.00 20.00    -0.105 Cl
ENDROOT
TORSDOF 0
ENDMDL
MODEL 9
REMARK VINA RESULT:      -3.4      8.605      9.279
REMARK  0 active torsions:
REMARK  status: ('A' for Active; 'I' for Inactive)
ROOT
HETATM    1  C1  UNL     1     -43.030   4.555   1.879  1.00 20.00     0.014 C 
HETATM    2  C2  UNL     1     -42.462   5.359   1.192  1.00 20.00    -0.091 C 
HETATM    3  C3  UNL     1     -41.895   8.480  -0.774  1.00 20.00     0.003 C 
HETATM    4  C4  UNL     1     -40.748   8.533   0.237  1.00 20.00     0.003 C 
HETATM    5  C5  UNL     1     -42.730   7.254  -0.402  1.00 20.00     0.039 C 
HETATM    6  C6  UNL     1     -40.949   7.339   1.169  1.00 20.00     0.039 C 
HETATM    7  C7  UNL     1     -41.770   6.340   0.356  1.00 20.00     0.099 C 
HETATM    8 CL8  UNL     1     -40.721   5.443  -0.784  1.00 20.00    -0.105 Cl
ENDROOT
TORSDOF 0
ENDMDL
