MODEL 1
REMARK VINA RESULT:      -6.7      0.000      0.000
REMARK  0 active torsions:
REMARK  status: ('A' for Active; 'I' for Inactive)
ROOT
HETATM    1  C1  UNL     1     -32.883   5.603   2.854  1.00 20.00     0.017 A 
HETATM    2  C2  UNL     1     -33.907   5.059   3.525  1.00 20.00     0.054 A 
HETATM    3  C3  UNL     1     -33.967   7.059   5.047  1.00 20.00     0.060 A 
HETATM    4  C4  UNL     1     -32.940   7.617   4.381  1.00 20.00    -0.044 A 
HETATM    5  C5  UNL     1     -32.288   6.936   3.202  1.00 20.00     0.221 A 
HETATM    6  C6  UNL     1     -34.562   5.727   4.695  1.00 20.00     0.280 A 
HETATM    7  C7  UNL     1     -32.376   8.951   4.771  1.00 20.00     0.046 C 
HETATM    8  F8  UNL     1     -32.353   7.752   2.108  1.00 20.00    -0.240 F 
HETATM    9  F9  UNL     1     -35.894   5.881   4.440  1.00 20.00    -0.197 F 
HETATM   10  F10 UNL     1     -34.497   4.902   5.780  1.00 20.00    -0.197 F 
ENDROOT
TORSDOF 0
ENDMDL
MODEL 2
REMARK VINA RESULT:      -6.4      1.383      3.401
REMARK  0 active torsions:
REMARK  status: ('A' for Active; 'I' for Inactive)
ROOT
HETATM    1  C1  UNL     1     -33.252   5.494   2.873  1.00 20.00     0.017 A 
HETATM    2  C2  UNL     1     -32.538   6.620   2.745  1.00 20.00     0.054 A 
HETATM    3  C3  UNL     1     -33.370   7.401   4.985  1.00 20.00     0.060 A 
HETATM    4  C4  UNL     1     -34.091   6.275   5.126  1.00 20.00    -0.044 A 
HETATM    5  C5  UNL     1     -34.104   5.194   4.072  1.00 20.00     0.221 A 
HETATM    6  C6  UNL     1     -32.517   7.698   3.785  1.00 20.00     0.280 A 
HETATM    7  C7  UNL     1     -34.933   6.022   6.343  1.00 20.00     0.046 C 
HETATM    8  F8  UNL     1     -33.697   4.012   4.622  1.00 20.00    -0.240 F 
HETATM    9  F9  UNL     1     -31.231   7.912   4.189  1.00 20.00    -0.197 F 
HETATM   10  F10 UNL     1     -32.919   8.875   3.225  1.00 20.00    -0.197 F 
ENDROOT
TORSDOF 0
ENDMDL
MODEL 3
REMARK VINA RESULT:      -6.1      1.325      2.455
REMARK  0 active torsions:
REMARK  status: ('A' for Active; 'I' for Inactive)
ROOT
HETATM    1  C1  UNL     1     -33.846   7.631   5.984  1.00 20.00     0.017 A 
HETATM    2  C2  UNL     1     -34.475   6.451   6.056  1.00 20.00     0.054 A 
HETATM    3  C3  UNL     1     -33.659   5.876   3.749  1.00 20.00     0.060 A 
HETATM    4  C4  UNL     1     -33.023   7.058   3.663  1.00 20.00    -0.044 A 
HETATM    5  C5  UNL     1     -33.052   8.067   4.787  1.00 20.00     0.221 A 
HETATM    6  C6  UNL     1     -34.450   5.442   4.949  1.00 20.00     0.280 A 
HETATM    7  C7  UNL     1     -32.245   7.451   2.442  1.00 20.00     0.046 C 
HETATM    8  F8  UNL     1     -31.776   8.353   5.179  1.00 20.00    -0.240 F 
HETATM    9  F9  UNL     1     -33.946   4.265   5.419  1.00 20.00    -0.197 F 
HETATM   10  F10 UNL     1     -35.729   5.160   4.567  1.00 20.00    -0.197 F 
ENDROOT
TORSDOF 0
ENDMDL
MODEL 4
REMARK VINA RESULT:      -6.1      1.232      2.634
REMARK  0 active torsions:
REMARK  status: ('A' for Active; 'I' for Inactive)
ROOT
HETATM    1  C1  UNL     1     -33.310   7.926   5.222  1.00 20.00     0.017 A 
HETATM    2  C2  UNL     1     -33.915   7.209   6.177  1.00 20.00     0.054 A 
HETATM    3  C3  UNL     1     -33.932   5.205   4.659  1.00 20.00     0.060 A 
HETATM    4  C4  UNL     1     -33.324   5.914   3.691  1.00 20.00    -0.044 A 
HETATM    5  C5  UNL     1     -32.946   7.364   3.878  1.00 20.00     0.221 A 
HETATM    6  C6  UNL     1     -34.292   5.770   6.003  1.00 20.00     0.280 A 
HETATM    7  C7  UNL     1     -32.985   5.308   2.361  1.00 20.00     0.046 C 
HETATM    8  F8  UNL     1     -31.603   7.517   3.681  1.00 20.00    -0.240 F 
HETATM    9  F9  UNL     1     -33.697   5.025   6.979  1.00 20.00    -0.197 F 
HETATM   10  F10 UNL     1     -35.634   5.626   6.207  1.00 20.00    -0.197 F 
ENDROOT
TORSDOF 0
ENDMDL
MODEL 5
REMARK VINA RESULT:      -5.8      1.601      2.889
REMARK  0 active torsions:
REMARK  status: ('A' for Active; 'I' for Inactive)
ROOT
HETATM    1  C1  UNL     1     -34.546   5.599   5.166  1.00 20.00     0.017 A 
HETATM    2  C2  UNL     1     -34.195   4.941   4.054  1.00 20.00     0.054 A 
HETATM    3  C3  UNL     1     -32.685   6.844   3.407  1.00 20.00     0.060 A 
HETATM    4  C4  UNL     1     -33.029   7.516   4.521  1.00 20.00    -0.044 A 
HETATM    5  C5  UNL     1     -34.005   6.953   5.525  1.00 20.00     0.221 A 
HETATM    6  C6  UNL     1     -33.225   5.489   3.052  1.00 20.00     0.280 A 
HETATM    7  C7  UNL     1     -32.465   8.870   4.834  1.00 20.00     0.046 C 
HETATM    8  F8  UNL     1     -33.411   6.883   6.753  1.00 20.00    -0.240 F 
HETATM    9  F9  UNL     1     -32.188   4.616   2.901  1.00 20.00    -0.197 F 
HETATM   10  F10 UNL     1     -33.826   5.550   1.828  1.00 20.00    -0.197 F 
ENDROOT
TORSDOF 0
ENDMDL
MODEL 6
REMARK VINA RESULT:      -5.7      1.296      3.739
REMARK  0 active torsions:
REMARK  status: ('A' for Active; 'I' for Inactive)
ROOT
HETATM    1  C1  UNL     1     -34.203   7.081   5.475  1.00 20.00     0.017 A 
HETATM    2  C2  UNL     1     -33.438   8.161   5.265  1.00 20.00     0.054 A 
HETATM    3  C3  UNL     1     -32.450   7.063   3.230  1.00 20.00     0.060 A 
HETATM    4  C4  UNL     1     -33.212   5.973   3.429  1.00 20.00    -0.044 A 
HETATM    5  C5  UNL     1     -34.178   5.872   4.586  1.00 20.00     0.221 A 
HETATM    6  C6  UNL     1     -32.479   8.273   4.120  1.00 20.00     0.280 A 
HETATM    7  C7  UNL     1     -33.148   4.785   2.515  1.00 20.00     0.046 C 
HETATM    8  F8  UNL     1     -35.438   5.642   4.112  1.00 20.00    -0.240 F 
HETATM    9  F9  UNL     1     -32.790   9.373   3.375  1.00 20.00    -0.197 F 
HETATM   10  F10 UNL     1     -31.225   8.507   4.603  1.00 20.00    -0.197 F 
ENDROOT
TORSDOF 0
ENDMDL
MODEL 7
REMARK VINA RESULT:      -5.7      1.910      2.961
REMARK  0 active torsions:
REMARK  status: ('A' for Active; 'I' for Inactive)
ROOT
HETATM    1  C1  UNL     1     -32.366   7.860   3.968  1.00 20.00     0.017 A 
HETATM    2  C2  UNL     1     -32.329   7.017   2.928  1.00 20.00     0.054 A 
HETATM    3  C3  UNL     1     -33.931   5.485   4.115  1.00 20.00     0.060 A 
HETATM    4  C4  UNL     1     -33.978   6.323   5.166  1.00 20.00    -0.044 A 
HETATM    5  C5  UNL     1     -33.191   7.612   5.198  1.00 20.00     0.221 A 
HETATM    6  C6  UNL     1     -33.107   5.737   2.885  1.00 20.00     0.280 A 
HETATM    7  C7  UNL     1     -34.814   6.029   6.376  1.00 20.00     0.046 C 
HETATM    8  F8  UNL     1     -34.042   8.664   5.383  1.00 20.00    -0.240 F 
HETATM    9  F9  UNL     1     -33.921   5.740   1.790  1.00 20.00    -0.197 F 
HETATM   10  F10 UNL     1     -32.249   4.693   2.695  1.00 20.00    -0.197 F 
ENDROOT
TORSDOF 0
ENDMDL
MODEL 8
REMARK VINA RESULT:      -5.1      2.031      3.284
REMARK  0 active torsions:
REMARK  status: ('A' for Active; 'I' for Inactive)
ROOT
HETATM    1  C1  UNL     1     -32.444   6.949   2.551  1.00 20.00     0.017 A 
HETATM    2  C2  UNL     1     -32.262   8.047   3.296  1.00 20.00     0.054 A 
HETATM    3  C3  UNL     1     -33.695   7.052   5.107  1.00 20.00     0.060 A 
HETATM    4  C4  UNL     1     -33.885   5.944   4.369  1.00 20.00    -0.044 A 
HETATM    5  C5  UNL     1     -33.270   5.778   3.000  1.00 20.00     0.221 A 
HETATM    6  C6  UNL     1     -32.866   8.220   4.656  1.00 20.00     0.280 A 
HETATM    7  C7  UNL     1     -34.724   4.801   4.859  1.00 20.00     0.046 C 
HETATM    8  F8  UNL     1     -32.496   4.653   2.978  1.00 20.00    -0.240 F 
HETATM    9  F9  UNL     1     -31.874   8.447   5.565  1.00 20.00    -0.197 F 
HETATM   10  F10 UNL     1     -33.632   9.349   4.670  1.00 20.00    -0.197 F 
ENDROOT
TORSDOF 0
ENDMDL
MODEL 9
REMARK VINA RESULT:      -4.9      1.321      1.550
REMARK  0 active torsions:
REMARK  status: ('A' for Active; 'I' for Inactive)
ROOT
HETATM    1  C1  UNL     1     -33.639   4.363   3.754  1.00 20.00     0.017 A 
HETATM    2  C2  UNL     1     -34.358   4.605   4.858  1.00 20.00     0.054 A 
HETATM    3  C3  UNL     1     -33.677   7.024   4.767  1.00 20.00     0.060 A 
HETATM    4  C4  UNL     1     -32.952   6.794   3.658  1.00 20.00    -0.044 A 
HETATM    5  C5  UNL     1     -32.860   5.423   3.031  1.00 20.00     0.221 A 
HETATM    6  C6  UNL     1     -34.458   5.961   5.486  1.00 20.00     0.280 A 
HETATM    7  C7  UNL     1     -32.185   7.887   2.973  1.00 20.00     0.046 C 
HETATM    8  F8  UNL     1     -33.285   5.482   1.735  1.00 20.00    -0.240 F 
HETATM    9  F9  UNL     1     -35.768   6.334   5.553  1.00 20.00    -0.197 F 
HETATM   10  F10 UNL     1     -34.036   5.891   6.782  1.00 20.00    -0.197 F 
ENDROOT
TORSDOF 0
ENDMDL
