MODEL 1
REMARK VINA RESULT:      -4.2      0.000      0.000
REMARK  0 active torsions:
REMARK  status: ('A' for Active; 'I' for Inactive)
ROOT
HETATM    1  C1  UNL     1     -25.524  19.262   7.708  1.00 20.00     0.012 C 
HETATM    2  C2  UNL     1     -24.901  19.262   8.735  1.00 20.00    -0.112 C 
HETATM    3  C3  UNL     1     -22.934  18.126  12.314  1.00 20.00    -0.026 C 
HETATM    4  C4  UNL     1     -22.182  18.459  11.252  1.00 20.00    -0.024 C 
HETATM    5  C5  UNL     1     -24.225  16.477  11.015  1.00 20.00     0.009 C 
HETATM    6  C6  UNL     1     -23.348  16.857   9.799  1.00 20.00     0.010 C 
HETATM    7  C7  UNL     1     -25.025  18.835  11.197  1.00 20.00     0.026 C 
HETATM    8  C8  UNL     1     -24.138  19.263   9.995  1.00 20.00     0.072 C 
HETATM    9  C9  UNL     1     -24.341  17.683  11.973  1.00 20.00     0.009 C 
HETATM   10  C10 UNL     1     -22.894  18.334   9.917  1.00 20.00     0.023 C 
ENDROOT
TORSDOF 0
ENDMDL
MODEL 2
REMARK VINA RESULT:      -3.8     16.310     19.386
REMARK  0 active torsions:
REMARK  status: ('A' for Active; 'I' for Inactive)
ROOT
HETATM    1  C1  UNL     1     -33.454  16.705  -2.253  1.00 20.00     0.012 C 
HETATM    2  C2  UNL     1     -33.623  16.279  -3.362  1.00 20.00    -0.112 C 
HETATM    3  C3  UNL     1     -35.315  15.080  -7.060  1.00 20.00    -0.026 C 
HETATM    4  C4  UNL     1     -34.546  16.181  -7.039  1.00 20.00    -0.024 C 
HETATM    5  C5  UNL     1     -36.748  15.919  -5.239  1.00 20.00     0.009 C 
HETATM    6  C6  UNL     1     -35.865  17.189  -5.227  1.00 20.00     0.010 C 
HETATM    7  C7  UNL     1     -34.756  14.507  -4.719  1.00 20.00     0.026 C 
HETATM    8  C8  UNL     1     -33.829  15.755  -4.724  1.00 20.00     0.072 C 
HETATM    9  C9  UNL     1     -35.918  14.710  -5.722  1.00 20.00     0.009 C 
HETATM   10  C10 UNL     1     -34.423  16.834  -5.673  1.00 20.00     0.023 C 
ENDROOT
TORSDOF 0
ENDMDL
MODEL 3
REMARK VINA RESULT:      -3.8     22.310     24.084
REMARK  0 active torsions:
REMARK  status: ('A' for Active; 'I' for Inactive)
ROOT
HETATM    1  C1  UNL     1     -43.417   3.512   1.262  1.00 20.00     0.012 C 
HETATM    2  C2  UNL     1     -42.659   4.403   0.992  1.00 20.00    -0.112 C 
HETATM    3  C3  UNL     1     -40.970   8.144  -0.070  1.00 20.00    -0.026 C 
HETATM    4  C4  UNL     1     -40.849   7.728   1.202  1.00 20.00    -0.024 C 
HETATM    5  C5  UNL     1     -43.415   7.832  -0.049  1.00 20.00     0.009 C 
HETATM    6  C6  UNL     1     -43.270   7.365   1.418  1.00 20.00     0.010 C 
HETATM    7  C7  UNL     1     -41.920   5.981  -0.805  1.00 20.00     0.026 C 
HETATM    8  C8  UNL     1     -41.728   5.495   0.660  1.00 20.00     0.072 C 
HETATM    9  C9  UNL     1     -42.120   7.516  -0.829  1.00 20.00     0.009 C 
HETATM   10  C10 UNL     1     -41.884   6.702   1.627  1.00 20.00     0.023 C 
ENDROOT
TORSDOF 0
ENDMDL
MODEL 4
REMARK VINA RESULT:      -3.8     22.934     24.562
REMARK  0 active torsions:
REMARK  status: ('A' for Active; 'I' for Inactive)
ROOT
HETATM    1  C1  UNL     1     -43.416   3.533  -1.886  1.00 20.00     0.012 C 
HETATM    2  C2  UNL     1     -42.927   4.534  -1.437  1.00 20.00    -0.112 C 
HETATM    3  C3  UNL     1     -41.690   7.678   1.125  1.00 20.00    -0.026 C 
HETATM    4  C4  UNL     1     -40.769   6.790   0.715  1.00 20.00    -0.024 C 
HETATM    5  C5  UNL     1     -43.187   5.902   1.951  1.00 20.00     0.009 C 
HETATM    6  C6  UNL     1     -42.117   4.885   1.487  1.00 20.00     0.010 C 
HETATM    7  C7  UNL     1     -43.417   6.751  -0.386  1.00 20.00     0.026 C 
HETATM    8  C8  UNL     1     -42.328   5.762  -0.887  1.00 20.00     0.072 C 
HETATM    9  C9  UNL     1     -43.117   7.172   1.074  1.00 20.00     0.009 C 
HETATM   10  C10 UNL     1     -41.340   5.454   0.273  1.00 20.00     0.023 C 
ENDROOT
TORSDOF 0
ENDMDL
MODEL 5
REMARK VINA RESULT:      -3.7     17.211     18.713
REMARK  0 active torsions:
REMARK  status: ('A' for Active; 'I' for Inactive)
ROOT
HETATM    1  C1  UNL     1     -39.356  11.864   4.486  1.00 20.00     0.012 C 
HETATM    2  C2  UNL     1     -39.957  12.190   5.473  1.00 20.00    -0.112 C 
HETATM    3  C3  UNL     1     -42.429  14.207   8.265  1.00 20.00    -0.026 C 
HETATM    4  C4  UNL     1     -42.862  13.042   7.756  1.00 20.00    -0.024 C 
HETATM    5  C5  UNL     1     -42.032  15.157   6.026  1.00 20.00     0.009 C 
HETATM    6  C6  UNL     1     -42.542  13.817   5.446  1.00 20.00     0.010 C 
HETATM    7  C7  UNL     1     -40.198  13.961   7.224  1.00 20.00     0.026 C 
HETATM    8  C8  UNL     1     -40.694  12.591   6.684  1.00 20.00     0.072 C 
HETATM    9  C9  UNL     1     -41.399  14.920   7.414  1.00 20.00     0.009 C 
HETATM   10  C10 UNL     1     -42.226  12.662   6.431  1.00 20.00     0.023 C 
ENDROOT
TORSDOF 0
ENDMDL
MODEL 6
REMARK VINA RESULT:      -3.6     17.304     18.760
REMARK  0 active torsions:
REMARK  status: ('A' for Active; 'I' for Inactive)
ROOT
HETATM    1  C1  UNL     1     -39.326  11.777   5.655  1.00 20.00     0.012 C 
HETATM    2  C2  UNL     1     -40.323  12.433   5.794  1.00 20.00    -0.112 C 
HETATM    3  C3  UNL     1     -43.417  14.872   7.358  1.00 20.00    -0.026 C 
HETATM    4  C4  UNL     1     -42.555  15.419   6.486  1.00 20.00    -0.024 C 
HETATM    5  C5  UNL     1     -41.598  14.067   8.813  1.00 20.00     0.009 C 
HETATM    6  C6  UNL     1     -40.610  14.709   7.810  1.00 20.00     0.010 C 
HETATM    7  C7  UNL     1     -42.504  12.599   7.009  1.00 20.00     0.026 C 
HETATM    8  C8  UNL     1     -41.546  13.236   5.964  1.00 20.00     0.072 C 
HETATM    9  C9  UNL     1     -42.891  13.649   8.079  1.00 20.00     0.009 C 
HETATM   10  C10 UNL     1     -41.222  14.697   6.386  1.00 20.00     0.023 C 
ENDROOT
TORSDOF 0
ENDMDL
MODEL 7
REMARK VINA RESULT:      -3.5     12.309     15.591
REMARK  0 active torsions:
REMARK  status: ('A' for Active; 'I' for Inactive)
ROOT
HETATM    1  C1  UNL     1     -30.820  18.630   0.556  1.00 20.00     0.012 C 
HETATM    2  C2  UNL     1     -31.730  18.906  -0.176  1.00 20.00    -0.112 C 
HETATM    3  C3  UNL     1     -34.756  18.801  -3.144  1.00 20.00    -0.026 C 
HETATM    4  C4  UNL     1     -35.127  18.744  -1.854  1.00 20.00    -0.024 C 
HETATM    5  C5  UNL     1     -33.188  16.918  -2.886  1.00 20.00     0.009 C 
HETATM    6  C6  UNL     1     -33.628  16.850  -1.404  1.00 20.00     0.010 C 
HETATM    7  C7  UNL     1     -32.396  19.263  -2.562  1.00 20.00     0.026 C 
HETATM    8  C8  UNL     1     -32.848  19.245  -1.075  1.00 20.00     0.072 C 
HETATM    9  C9  UNL     1     -33.331  18.364  -3.408  1.00 20.00     0.009 C 
HETATM   10  C10 UNL     1     -34.040  18.261  -0.911  1.00 20.00     0.023 C 
ENDROOT
TORSDOF 0
ENDMDL
MODEL 8
REMARK VINA RESULT:      -3.4     16.829     18.563
REMARK  0 active torsions:
REMARK  status: ('A' for Active; 'I' for Inactive)
ROOT
HETATM    1  C1  UNL     1     -40.186  14.925  10.052  1.00 20.00     0.012 C 
HETATM    2  C2  UNL     1     -40.381  14.886   8.868  1.00 20.00    -0.112 C 
HETATM    3  C3  UNL     1     -41.800  13.900   4.996  1.00 20.00    -0.026 C 
HETATM    4  C4  UNL     1     -42.213  15.051   5.553  1.00 20.00    -0.024 C 
HETATM    5  C5  UNL     1     -42.493  12.581   6.959  1.00 20.00     0.009 C 
HETATM    6  C6  UNL     1     -42.978  13.909   7.589  1.00 20.00     0.010 C 
HETATM    7  C7  UNL     1     -40.169  13.480   6.809  1.00 20.00     0.026 C 
HETATM    8  C8  UNL     1     -40.620  14.838   7.416  1.00 20.00     0.072 C 
HETATM    9  C9  UNL     1     -41.325  12.859   5.988  1.00 20.00     0.009 C 
HETATM   10  C10 UNL     1     -42.115  15.086   7.067  1.00 20.00     0.023 C 
ENDROOT
TORSDOF 0
ENDMDL
MODEL 9
REMARK VINA RESULT:      -3.4     15.082     16.552
REMARK  0 active torsions:
REMARK  status: ('A' for Active; 'I' for Inactive)
ROOT
HETATM    1  C1  UNL     1     -32.602  15.169  -4.194  1.00 20.00     0.012 C 
HETATM    2  C2  UNL     1     -33.294  15.923  -3.567  1.00 20.00    -0.112 C 
HETATM    3  C3  UNL     1     -34.803  19.263  -1.435  1.00 20.00    -0.026 C 
HETATM    4  C4  UNL     1     -35.278  19.027  -2.669  1.00 20.00    -0.024 C 
HETATM    5  C5  UNL     1     -32.465  19.225  -2.216  1.00 20.00     0.009 C 
HETATM    6  C6  UNL     1     -33.020  18.965  -3.636  1.00 20.00     0.010 C 
HETATM    7  C7  UNL     1     -33.546  17.132  -1.390  1.00 20.00     0.026 C 
HETATM    8  C8  UNL     1     -34.144  16.847  -2.796  1.00 20.00     0.072 C 
HETATM    9  C9  UNL     1     -33.441  18.659  -1.161  1.00 20.00     0.009 C 
HETATM   10  C10 UNL     1     -34.361  18.192  -3.545  1.00 20.00     0.023 C 
ENDROOT
TORSDOF 0
ENDMDL
