MODEL 1
REMARK VINA RESULT:      -4.0      0.000      0.000
REMARK  2 active torsions:
REMARK  status: ('A' for Active; 'I' for Inactive)
REMARK    1  A    between atoms: C7_7  and  C9_9 
REMARK    2  A    between atoms: C8_8  and  C10_10 
ROOT
HETATM    1  C1  UNL     1     -32.981  17.707  -1.679  1.00 20.00     0.012 C 
HETATM    2  C2  UNL     1     -33.348  16.790  -2.361  1.00 20.00    -0.112 C 
HETATM    3  C6  UNL     1     -33.787  15.695  -3.178  1.00 20.00     0.074 A 
HETATM    4  C9  UNL     1     -34.014  15.952  -4.653  1.00 20.00     0.011 A 
HETATM    5  C10 UNL     1     -32.827  15.148  -4.213  1.00 20.00     0.011 A 
ENDROOT
BRANCH   4   6
HETATM    6  C7  UNL     1     -34.766  15.011  -5.592  1.00 20.00    -0.008 C 
HETATM    7  C3  UNL     1     -36.234  15.494  -5.639  1.00 20.00     0.005 C 
HETATM    8  C4  UNL     1     -36.132  16.817  -6.440  1.00 20.00     0.005 C 
HETATM    9  C8  UNL     1     -34.619  16.914  -6.745  1.00 20.00    -0.008 C 
HETATM   10  C5  UNL     1     -34.296  15.432  -6.993  1.00 20.00     0.010 C 
ENDBRANCH   4   6
TORSDOF 2
ENDMDL
MODEL 2
REMARK VINA RESULT:      -4.0     12.272     13.998
REMARK  2 active torsions:
REMARK  status: ('A' for Active; 'I' for Inactive)
REMARK    1  A    between atoms: C7_7  and  C9_9 
REMARK    2  A    between atoms: C8_8  and  C10_10 
ROOT
HETATM    1  C1  UNL     1     -38.563  11.802   4.829  1.00 20.00     0.012 C 
HETATM    2  C2  UNL     1     -39.578  12.146   5.368  1.00 20.00    -0.112 C 
HETATM    3  C6  UNL     1     -40.792  12.559   6.014  1.00 20.00     0.074 A 
HETATM    4  C9  UNL     1     -40.829  13.932   6.651  1.00 20.00     0.011 A 
HETATM    5  C10 UNL     1     -41.589  13.681   5.384  1.00 20.00     0.011 A 
ENDROOT
BRANCH   4   6
HETATM    6  C7  UNL     1     -41.900  14.403   7.633  1.00 20.00    -0.008 C 
HETATM    7  C3  UNL     1     -41.302  14.276   9.053  1.00 20.00     0.005 C 
HETATM    8  C4  UNL     1     -40.245  15.409   9.082  1.00 20.00     0.005 C 
HETATM    9  C8  UNL     1     -40.379  16.034   7.674  1.00 20.00    -0.008 C 
HETATM   10  C5  UNL     1     -41.899  15.932   7.474  1.00 20.00     0.010 C 
ENDBRANCH   4   6
TORSDOF 2
ENDMDL
MODEL 3
REMARK VINA RESULT:      -4.0     12.152     13.810
REMARK  2 active torsions:
REMARK  status: ('A' for Active; 'I' for Inactive)
REMARK    1  A    between atoms: C7_7  and  C9_9 
REMARK    2  A    between atoms: C8_8  and  C10_10 
ROOT
HETATM    1  C1  UNL     1     -38.945  11.795   4.076  1.00 20.00     0.012 C 
HETATM    2  C2  UNL     1     -39.505  11.983   5.121  1.00 20.00    -0.112 C 
HETATM    3  C6  UNL     1     -40.175  12.210   6.371  1.00 20.00     0.074 A 
HETATM    4  C9  UNL     1     -40.751  13.586   6.631  1.00 20.00     0.011 A 
HETATM    5  C10 UNL     1     -41.671  12.437   6.346  1.00 20.00     0.011 A 
ENDROOT
BRANCH   4   6
HETATM    6  C7  UNL     1     -41.206  14.090   7.999  1.00 20.00    -0.008 C 
HETATM    7  C3  UNL     1     -40.240  15.225   8.409  1.00 20.00     0.005 C 
HETATM    8  C4  UNL     1     -40.630  16.372   7.441  1.00 20.00     0.005 C 
HETATM    9  C8  UNL     1     -41.767  15.739   6.605  1.00 20.00    -0.008 C 
HETATM   10  C5  UNL     1     -42.471  14.907   7.689  1.00 20.00     0.010 C 
ENDBRANCH   4   6
TORSDOF 2
ENDMDL
MODEL 4
REMARK VINA RESULT:      -3.8     23.944     25.525
REMARK  2 active torsions:
REMARK  status: ('A' for Active; 'I' for Inactive)
REMARK    1  A    between atoms: C7_7  and  C9_9 
REMARK    2  A    between atoms: C8_8  and  C10_10 
ROOT
HETATM    1  C1  UNL     1     -23.177  -3.252   7.801  1.00 20.00     0.012 C 
HETATM    2  C2  UNL     1     -23.668  -3.150   8.891  1.00 20.00    -0.112 C 
HETATM    3  C6  UNL     1     -24.257  -3.028  10.194  1.00 20.00     0.074 A 
HETATM    4  C9  UNL     1     -25.750  -2.789  10.282  1.00 20.00     0.011 A 
HETATM    5  C10 UNL     1     -25.187  -4.126  10.662  1.00 20.00     0.011 A 
ENDROOT
BRANCH   4   6
HETATM    6  C7  UNL     1     -26.482  -2.329  11.541  1.00 20.00    -0.008 C 
HETATM    7  C3  UNL     1     -26.644  -0.795  11.436  1.00 20.00     0.005 C 
HETATM    8  C4  UNL     1     -27.701  -0.639  10.313  1.00 20.00     0.005 C 
HETATM    9  C8  UNL     1     -28.003  -2.105   9.925  1.00 20.00    -0.008 C 
HETATM   10  C5  UNL     1     -27.935  -2.773  11.307  1.00 20.00     0.010 C 
ENDBRANCH   4   6
TORSDOF 2
ENDMDL
MODEL 5
REMARK VINA RESULT:      -3.6      1.666      4.224
REMARK  2 active torsions:
REMARK  status: ('A' for Active; 'I' for Inactive)
REMARK    1  A    between atoms: C7_7  and  C9_9 
REMARK    2  A    between atoms: C8_8  and  C10_10 
ROOT
HETATM    1  C1  UNL     1     -35.776  13.585  -4.582  1.00 20.00     0.012 C 
HETATM    2  C2  UNL     1     -34.999  14.498  -4.631  1.00 20.00    -0.112 C 
HETATM    3  C6  UNL     1     -34.069  15.591  -4.688  1.00 20.00     0.074 A 
HETATM    4  C9  UNL     1     -33.767  16.337  -3.406  1.00 20.00     0.011 A 
HETATM    5  C10 UNL     1     -32.733  15.427  -3.996  1.00 20.00     0.011 A 
ENDROOT
BRANCH   4   6
HETATM    6  C7  UNL     1     -33.066  17.692  -3.336  1.00 20.00    -0.008 C 
HETATM    7  C3  UNL     1     -34.169  18.770  -3.230  1.00 20.00     0.005 C 
HETATM    8  C4  UNL     1     -34.716  18.560  -1.796  1.00 20.00     0.005 C 
HETATM    9  C8  UNL     1     -33.853  17.389  -1.271  1.00 20.00    -0.008 C 
HETATM   10  C5  UNL     1     -32.499  17.742  -1.908  1.00 20.00     0.010 C 
ENDBRANCH   4   6
TORSDOF 2
ENDMDL
MODEL 6
REMARK VINA RESULT:      -3.5      1.132      2.008
REMARK  2 active torsions:
REMARK  status: ('A' for Active; 'I' for Inactive)
REMARK    1  A    between atoms: C7_7  and  C9_9 
REMARK    2  A    between atoms: C8_8  and  C10_10 
ROOT
HETATM    1  C1  UNL     1     -33.729  17.335  -1.150  1.00 20.00     0.012 C 
HETATM    2  C2  UNL     1     -33.568  17.291  -2.339  1.00 20.00    -0.112 C 
HETATM    3  C6  UNL     1     -33.375  17.238  -3.760  1.00 20.00     0.074 A 
HETATM    4  C9  UNL     1     -34.577  16.942  -4.631  1.00 20.00     0.011 A 
HETATM    5  C10 UNL     1     -34.002  18.326  -4.605  1.00 20.00     0.011 A 
ENDROOT
BRANCH   4   6
HETATM    6  C7  UNL     1     -34.504  16.543  -6.103  1.00 20.00    -0.008 C 
HETATM    7  C3  UNL     1     -34.402  15.001  -6.152  1.00 20.00     0.005 C 
HETATM    8  C4  UNL     1     -35.820  14.551  -5.714  1.00 20.00     0.005 C 
HETATM    9  C8  UNL     1     -36.544  15.896  -5.474  1.00 20.00    -0.008 C 
HETATM   10  C5  UNL     1     -35.942  16.736  -6.611  1.00 20.00     0.010 C 
ENDBRANCH   4   6
TORSDOF 2
ENDMDL
MODEL 7
REMARK VINA RESULT:      -3.4     11.761     13.335
REMARK  2 active torsions:
REMARK  status: ('A' for Active; 'I' for Inactive)
REMARK    1  A    between atoms: C7_7  and  C9_9 
REMARK    2  A    between atoms: C8_8  and  C10_10 
ROOT
HETATM    1  C1  UNL     1     -32.921   9.679   1.913  1.00 20.00     0.012 C 
HETATM    2  C2  UNL     1     -32.623   8.691   2.526  1.00 20.00    -0.112 C 
HETATM    3  C6  UNL     1     -32.268   7.510   3.260  1.00 20.00     0.074 A 
HETATM    4  C9  UNL     1     -33.386   6.657   3.821  1.00 20.00     0.011 A 
HETATM    5  C10 UNL     1     -32.594   6.165   2.647  1.00 20.00     0.011 A 
ENDROOT
BRANCH   4   6
HETATM    6  C7  UNL     1     -33.199   5.565   4.872  1.00 20.00    -0.008 C 
HETATM    7  C3  UNL     1     -33.533   6.193   6.245  1.00 20.00     0.005 C 
HETATM    8  C4  UNL     1     -35.070   6.379   6.171  1.00 20.00     0.005 C 
HETATM    9  C8  UNL     1     -35.411   5.832   4.765  1.00 20.00    -0.008 C 
HETATM   10  C5  UNL     1     -34.425   4.656   4.683  1.00 20.00     0.010 C 
ENDBRANCH   4   6
TORSDOF 2
ENDMDL
MODEL 8
REMARK VINA RESULT:      -3.4     11.707     13.362
REMARK  2 active torsions:
REMARK  status: ('A' for Active; 'I' for Inactive)
REMARK    1  A    between atoms: C7_7  and  C9_9 
REMARK    2  A    between atoms: C8_8  and  C10_10 
ROOT
HETATM    1  C1  UNL     1     -31.790   8.162   1.250  1.00 20.00     0.012 C 
HETATM    2  C2  UNL     1     -32.404   8.273   2.275  1.00 20.00    -0.112 C 
HETATM    3  C6  UNL     1     -33.137   8.405   3.502  1.00 20.00     0.074 A 
HETATM    4  C9  UNL     1     -33.190   7.212   4.432  1.00 20.00     0.011 A 
HETATM    5  C10 UNL     1     -32.360   8.404   4.801  1.00 20.00     0.011 A 
ENDROOT
BRANCH   4   6
HETATM    6  C7  UNL     1     -34.162   7.066   5.601  1.00 20.00    -0.008 C 
HETATM    7  C3  UNL     1     -35.472   6.474   5.032  1.00 20.00     0.005 C 
HETATM    8  C4  UNL     1     -35.071   5.015   4.698  1.00 20.00     0.005 C 
HETATM    9  C8  UNL     1     -33.584   4.966   5.120  1.00 20.00    -0.008 C 
HETATM   10  C5  UNL     1     -33.629   5.851   6.376  1.00 20.00     0.010 C 
ENDBRANCH   4   6
TORSDOF 2
ENDMDL
MODEL 9
REMARK VINA RESULT:      -3.2      1.326      1.822
REMARK  2 active torsions:
REMARK  status: ('A' for Active; 'I' for Inactive)
REMARK    1  A    between atoms: C7_7  and  C9_9 
REMARK    2  A    between atoms: C8_8  and  C10_10 
ROOT
HETATM    1  C1  UNL     1     -33.926  17.767  -0.315  1.00 20.00     0.012 C 
HETATM    2  C2  UNL     1     -33.660  17.390  -1.423  1.00 20.00    -0.112 C 
HETATM    3  C6  UNL     1     -33.344  16.939  -2.749  1.00 20.00     0.074 A 
HETATM    4  C9  UNL     1     -34.333  17.235  -3.857  1.00 20.00     0.011 A 
HETATM    5  C10 UNL     1     -33.034  17.983  -3.801  1.00 20.00     0.011 A 
ENDROOT
BRANCH   4   6
HETATM    6  C7  UNL     1     -34.316  16.574  -5.233  1.00 20.00    -0.008 C 
HETATM    7  C3  UNL     1     -35.480  15.556  -5.262  1.00 20.00     0.005 C 
HETATM    8  C4  UNL     1     -36.732  16.468  -5.303  1.00 20.00     0.005 C 
HETATM    9  C8  UNL     1     -36.118  17.888  -5.292  1.00 20.00    -0.008 C 
HETATM   10  C5  UNL     1     -34.878  17.655  -6.170  1.00 20.00     0.010 C 
ENDBRANCH   4   6
TORSDOF 2
ENDMDL
