MODEL 1
REMARK VINA RESULT:      -5.1      0.000      0.000
REMARK  0 active torsions:
REMARK  status: ('A' for Active; 'I' for Inactive)
ROOT
HETATM    1  C1  UNL     1     -33.513   7.448   5.669  1.00 20.00    -0.007 A 
HETATM    2  C2  UNL     1     -33.317   7.103   4.387  1.00 20.00    -0.014 A 
HETATM    3  C3  UNL     1     -34.190   5.930   4.020  1.00 20.00     0.051 A 
HETATM    4  C4  UNL     1     -34.284   5.140   6.541  1.00 20.00     0.014 A 
HETATM    5  C5  UNL     1     -34.516   6.612   6.349  1.00 20.00     0.014 A 
HETATM    6  C6  UNL     1     -34.967   5.621   5.289  1.00 20.00    -0.002 A 
HETATM    7 BR7  UNL     1     -32.177   7.850   3.162  1.00 20.00    -0.056 Br
ENDROOT
TORSDOF 0
ENDMDL
MODEL 2
REMARK VINA RESULT:      -4.7      2.154      3.346
REMARK  0 active torsions:
REMARK  status: ('A' for Active; 'I' for Inactive)
ROOT
HETATM    1  C1  UNL     1     -33.316   7.773   5.274  1.00 20.00    -0.007 A 
HETATM    2  C2  UNL     1     -33.724   6.601   4.765  1.00 20.00    -0.014 A 
HETATM    3  C3  UNL     1     -33.044   6.337   3.446  1.00 20.00     0.051 A 
HETATM    4  C4  UNL     1     -32.690   8.926   3.047  1.00 20.00     0.014 A 
HETATM    5  C5  UNL     1     -32.327   8.461   4.429  1.00 20.00     0.014 A 
HETATM    6  C6  UNL     1     -32.139   7.539   3.236  1.00 20.00    -0.002 A 
HETATM    7 BR7  UNL     1     -34.933   5.410   5.458  1.00 20.00    -0.056 Br
ENDROOT
TORSDOF 0
ENDMDL
MODEL 3
REMARK VINA RESULT:      -4.7      0.998      1.901
REMARK  0 active torsions:
REMARK  status: ('A' for Active; 'I' for Inactive)
ROOT
HETATM    1  C1  UNL     1     -33.331   6.458   3.891  1.00 20.00    -0.007 A 
HETATM    2  C2  UNL     1     -33.189   7.411   4.824  1.00 20.00    -0.014 A 
HETATM    3  C3  UNL     1     -33.952   7.042   6.071  1.00 20.00     0.051 A 
HETATM    4  C4  UNL     1     -35.616   5.536   4.674  1.00 20.00     0.014 A 
HETATM    5  C5  UNL     1     -34.166   5.330   4.334  1.00 20.00     0.014 A 
HETATM    6  C6  UNL     1     -34.576   5.695   5.751  1.00 20.00    -0.002 A 
HETATM    7 BR7  UNL     1     -32.249   8.982   4.724  1.00 20.00    -0.056 Br
ENDROOT
TORSDOF 0
ENDMDL
MODEL 4
REMARK VINA RESULT:      -4.3      1.349      1.636
REMARK  0 active torsions:
REMARK  status: ('A' for Active; 'I' for Inactive)
ROOT
HETATM    1  C1  UNL     1     -33.467   7.041   4.287  1.00 20.00    -0.007 A 
HETATM    2  C2  UNL     1     -33.635   5.796   3.815  1.00 20.00    -0.014 A 
HETATM    3  C3  UNL     1     -34.526   5.003   4.736  1.00 20.00     0.051 A 
HETATM    4  C4  UNL     1     -33.851   6.524   6.790  1.00 20.00     0.014 A 
HETATM    5  C5  UNL     1     -34.192   7.289   5.543  1.00 20.00     0.014 A 
HETATM    6  C6  UNL     1     -34.887   5.973   5.847  1.00 20.00    -0.002 A 
HETATM    7 BR7  UNL     1     -32.933   5.041   2.300  1.00 20.00    -0.056 Br
ENDROOT
TORSDOF 0
ENDMDL
MODEL 5
REMARK VINA RESULT:      -4.1      2.161      3.509
REMARK  0 active torsions:
REMARK  status: ('A' for Active; 'I' for Inactive)
ROOT
HETATM    1  C1  UNL     1     -33.345   6.176   3.761  1.00 20.00    -0.007 A 
HETATM    2  C2  UNL     1     -33.861   6.496   4.958  1.00 20.00    -0.014 A 
HETATM    3  C3  UNL     1     -33.606   7.949   5.267  1.00 20.00     0.051 A 
HETATM    4  C4  UNL     1     -31.488   7.972   3.686  1.00 20.00     0.014 A 
HETATM    5  C5  UNL     1     -32.696   7.312   3.086  1.00 20.00     0.014 A 
HETATM    6  C6  UNL     1     -32.859   8.472   4.052  1.00 20.00    -0.002 A 
HETATM    7 BR7  UNL     1     -34.750   5.421   6.146  1.00 20.00    -0.056 Br
ENDROOT
TORSDOF 0
ENDMDL
MODEL 6
REMARK VINA RESULT:      -3.8      1.966      3.040
REMARK  0 active torsions:
REMARK  status: ('A' for Active; 'I' for Inactive)
ROOT
HETATM    1  C1  UNL     1     -32.329   7.536   2.953  1.00 20.00    -0.007 A 
HETATM    2  C2  UNL     1     -33.003   6.448   3.354  1.00 20.00    -0.014 A 
HETATM    3  C3  UNL     1     -33.870   6.777   4.542  1.00 20.00     0.051 A 
HETATM    4  C4  UNL     1     -32.280   8.777   5.220  1.00 20.00     0.014 A 
HETATM    5  C5  UNL     1     -32.624   8.732   3.758  1.00 20.00     0.014 A 
HETATM    6  C6  UNL     1     -33.626   8.255   4.795  1.00 20.00    -0.002 A 
HETATM    7 BR7  UNL     1     -32.957   4.751   2.662  1.00 20.00    -0.056 Br
ENDROOT
TORSDOF 0
ENDMDL
MODEL 7
REMARK VINA RESULT:      -3.6      1.653      2.641
REMARK  0 active torsions:
REMARK  status: ('A' for Active; 'I' for Inactive)
ROOT
HETATM    1  C1  UNL     1     -33.855   6.304   4.878  1.00 20.00    -0.007 A 
HETATM    2  C2  UNL     1     -33.130   6.329   3.749  1.00 20.00    -0.014 A 
HETATM    3  C3  UNL     1     -32.302   7.587   3.686  1.00 20.00     0.051 A 
HETATM    4  C4  UNL     1     -34.010   8.857   5.254  1.00 20.00     0.014 A 
HETATM    5  C5  UNL     1     -33.639   7.482   5.734  1.00 20.00     0.014 A 
HETATM    6  C6  UNL     1     -32.630   8.325   4.973  1.00 20.00    -0.002 A 
HETATM    7 BR7  UNL     1     -33.072   5.093   2.397  1.00 20.00    -0.056 Br
ENDROOT
TORSDOF 0
ENDMDL
MODEL 8
REMARK VINA RESULT:      -3.6     12.664     13.125
REMARK  0 active torsions:
REMARK  status: ('A' for Active; 'I' for Inactive)
ROOT
HETATM    1  C1  UNL     1     -31.378  18.508  -0.590  1.00 20.00    -0.007 A 
HETATM    2  C2  UNL     1     -32.641  18.067  -0.690  1.00 20.00    -0.014 A 
HETATM    3  C3  UNL     1     -33.403  18.368   0.575  1.00 20.00     0.051 A 
HETATM    4  C4  UNL     1     -31.167  18.390   1.984  1.00 20.00     0.014 A 
HETATM    5  C5  UNL     1     -31.091  19.162   0.697  1.00 20.00     0.014 A 
HETATM    6  C6  UNL     1     -32.399  19.080   1.465  1.00 20.00    -0.002 A 
HETATM    7 BR7  UNL     1     -33.444  17.199  -2.091  1.00 20.00    -0.056 Br
ENDROOT
TORSDOF 0
ENDMDL
MODEL 9
REMARK VINA RESULT:      -3.6     12.629     13.121
REMARK  0 active torsions:
REMARK  status: ('A' for Active; 'I' for Inactive)
ROOT
HETATM    1  C1  UNL     1     -33.579  18.227   0.454  1.00 20.00    -0.007 A 
HETATM    2  C2  UNL     1     -32.266  18.452   0.613  1.00 20.00    -0.014 A 
HETATM    3  C3  UNL     1     -31.577  18.503  -0.726  1.00 20.00     0.051 A 
HETATM    4  C4  UNL     1     -33.452  16.988  -1.811  1.00 20.00     0.014 A 
HETATM    5  C5  UNL     1     -33.981  18.105  -0.956  1.00 20.00     0.014 A 
HETATM    6  C6  UNL     1     -32.690  18.283  -1.737  1.00 20.00    -0.002 A 
HETATM    7 BR7  UNL     1     -31.321  18.669   2.169  1.00 20.00    -0.056 Br
ENDROOT
TORSDOF 0
ENDMDL
