MODEL 1
REMARK VINA RESULT:      -4.7      0.000      0.000
REMARK  0 active torsions:
REMARK  status: ('A' for Active; 'I' for Inactive)
ROOT
HETATM    1  C1  UNL     1     -29.262  19.029   4.361  1.00 20.00     0.003 A 
HETATM    2  C2  UNL     1     -30.542  19.263   4.687  1.00 20.00     0.034 A 
HETATM    3  C3  UNL     1     -29.087  18.775   2.950  1.00 20.00     0.018 A 
HETATM    4  C4  UNL     1     -33.197  18.784  -0.568  1.00 20.00     0.014 A 
HETATM    5  C5  UNL     1     -33.422  19.026   0.731  1.00 20.00     0.118 A 
HETATM    6  C6  UNL     1     -30.263  18.843   2.348  1.00 20.00     0.042 A 
HETATM    7  C7  UNL     1     -31.237  19.154   3.410  1.00 20.00     0.091 A 
HETATM    8  C8  UNL     1     -31.087  18.764   1.147  1.00 20.00     0.158 A 
HETATM    9  C9  UNL     1     -31.797  18.504  -1.072  1.00 20.00     0.180 A 
HETATM   10  N10 UNL     1     -32.462  19.259   2.994  1.00 20.00    -0.166 NA
HETATM   11  N11 UNL     1     -30.707  18.515  -0.054  1.00 20.00    -0.267 NA
HETATM   12  N12 UNL     1     -32.378  19.023   1.613  1.00 20.00    -0.226 N 
ENDROOT
TORSDOF 0
ENDMDL
MODEL 2
REMARK VINA RESULT:      -4.7      0.908      4.613
REMARK  0 active torsions:
REMARK  status: ('A' for Active; 'I' for Inactive)
ROOT
HETATM    1  C1  UNL     1     -33.935  18.276  -1.091  1.00 20.00     0.003 A 
HETATM    2  C2  UNL     1     -32.664  18.278  -1.519  1.00 20.00     0.034 A 
HETATM    3  C3  UNL     1     -34.041  18.497   0.333  1.00 20.00     0.018 A 
HETATM    4  C4  UNL     1     -29.730  19.242   3.516  1.00 20.00     0.014 A 
HETATM    5  C5  UNL     1     -29.568  19.041   2.201  1.00 20.00     0.118 A 
HETATM    6  C6  UNL     1     -32.827  18.644   0.840  1.00 20.00     0.042 A 
HETATM    7  C7  UNL     1     -31.901  18.515  -0.299  1.00 20.00     0.091 A 
HETATM    8  C8  UNL     1     -31.938  18.873   1.973  1.00 20.00     0.158 A 
HETATM    9  C9  UNL     1     -31.113  19.263   4.132  1.00 20.00     0.180 A 
HETATM   10  N10 UNL     1     -30.648  18.634   0.018  1.00 20.00    -0.166 NA
HETATM   11  N11 UNL     1     -32.260  19.052   3.204  1.00 20.00    -0.267 NA
HETATM   12  N12 UNL     1     -30.663  18.854   1.404  1.00 20.00    -0.226 N 
ENDROOT
TORSDOF 0
ENDMDL
MODEL 3
REMARK VINA RESULT:      -4.5      1.241      2.411
REMARK  0 active torsions:
REMARK  status: ('A' for Active; 'I' for Inactive)
ROOT
HETATM    1  C1  UNL     1     -30.428  19.093   3.657  1.00 20.00     0.003 A 
HETATM    2  C2  UNL     1     -29.673  18.745   2.605  1.00 20.00     0.034 A 
HETATM    3  C3  UNL     1     -31.820  19.263   3.310  1.00 20.00     0.018 A 
HETATM    4  C4  UNL     1     -33.699  18.554  -1.714  1.00 20.00     0.014 A 
HETATM    5  C5  UNL     1     -32.396  18.382  -1.452  1.00 20.00     0.118 A 
HETATM    6  C6  UNL     1     -31.976  19.024   2.018  1.00 20.00     0.042 A 
HETATM    7  C7  UNL     1     -30.635  18.686   1.510  1.00 20.00     0.091 A 
HETATM    8  C8  UNL     1     -32.820  18.927   0.833  1.00 20.00     0.158 A 
HETATM    9  C9  UNL     1     -34.664  18.948  -0.615  1.00 20.00     0.180 A 
HETATM   10  N10 UNL     1     -30.599  18.419   0.240  1.00 20.00    -0.166 NA
HETATM   11  N11 UNL     1     -34.086  19.128   0.747  1.00 20.00    -0.267 NA
HETATM   12  N12 UNL     1     -31.930  18.563  -0.180  1.00 20.00    -0.226 N 
ENDROOT
TORSDOF 0
ENDMDL
MODEL 4
REMARK VINA RESULT:      -4.3     11.189     12.472
REMARK  0 active torsions:
REMARK  status: ('A' for Active; 'I' for Inactive)
ROOT
HETATM    1  C1  UNL     1     -38.675  11.672   4.888  1.00 20.00     0.003 A 
HETATM    2  C2  UNL     1     -39.543  12.242   4.039  1.00 20.00     0.034 A 
HETATM    3  C3  UNL     1     -38.974  11.970   6.270  1.00 20.00     0.018 A 
HETATM    4  C4  UNL     1     -43.156  15.058   7.768  1.00 20.00     0.014 A 
HETATM    5  C5  UNL     1     -42.929  14.817   6.470  1.00 20.00     0.118 A 
HETATM    6  C6  UNL     1     -40.047  12.743   6.324  1.00 20.00     0.042 A 
HETATM    7  C7  UNL     1     -40.459  12.952   4.924  1.00 20.00     0.091 A 
HETATM    8  C8  UNL     1     -41.036  13.498   7.083  1.00 20.00     0.158 A 
HETATM    9  C9  UNL     1     -42.252  14.475   8.834  1.00 20.00     0.180 A 
HETATM   10  N10 UNL     1     -41.511  13.699   4.786  1.00 20.00    -0.166 NA
HETATM   11  N11 UNL     1     -41.117  13.633   8.358  1.00 20.00    -0.267 NA
HETATM   12  N12 UNL     1     -41.870  14.036   6.100  1.00 20.00    -0.226 N 
ENDROOT
TORSDOF 0
ENDMDL
MODEL 5
REMARK VINA RESULT:      -4.2      0.940      4.086
REMARK  0 active torsions:
REMARK  status: ('A' for Active; 'I' for Inactive)
ROOT
HETATM    1  C1  UNL     1     -32.811  18.222  -1.406  1.00 20.00     0.003 A 
HETATM    2  C2  UNL     1     -33.725  18.470  -0.457  1.00 20.00     0.034 A 
HETATM    3  C3  UNL     1     -31.459  18.251  -0.896  1.00 20.00     0.018 A 
HETATM    4  C4  UNL     1     -30.301  19.263   4.291  1.00 20.00     0.014 A 
HETATM    5  C5  UNL     1     -31.575  19.249   3.877  1.00 20.00     0.118 A 
HETATM    6  C6  UNL     1     -31.490  18.523   0.399  1.00 20.00     0.042 A 
HETATM    7  C7  UNL     1     -32.916  18.673   0.740  1.00 20.00     0.091 A 
HETATM    8  C8  UNL     1     -30.814  18.748   1.671  1.00 20.00     0.158 A 
HETATM    9  C9  UNL     1     -29.168  18.998   3.322  1.00 20.00     0.180 A 
HETATM   10  N10 UNL     1     -33.139  18.945   1.990  1.00 20.00    -0.166 NA
HETATM   11  N11 UNL     1     -29.551  18.726   1.907  1.00 20.00    -0.267 NA
HETATM   12  N12 UNL     1     -31.859  18.992   2.565  1.00 20.00    -0.226 N 
ENDROOT
TORSDOF 0
ENDMDL
MODEL 6
REMARK VINA RESULT:      -4.2      5.549      7.519
REMARK  0 active torsions:
REMARK  status: ('A' for Active; 'I' for Inactive)
ROOT
HETATM    1  C1  UNL     1     -32.812  17.884  -1.811  1.00 20.00     0.003 A 
HETATM    2  C2  UNL     1     -32.889  18.860  -2.727  1.00 20.00     0.034 A 
HETATM    3  C3  UNL     1     -33.358  16.634  -2.285  1.00 20.00     0.018 A 
HETATM    4  C4  UNL     1     -35.467  16.038  -7.231  1.00 20.00     0.014 A 
HETATM    5  C5  UNL     1     -34.975  17.224  -6.848  1.00 20.00     0.118 A 
HETATM    6  C6  UNL     1     -33.797  16.794  -3.523  1.00 20.00     0.042 A 
HETATM    7  C7  UNL     1     -33.524  18.202  -3.863  1.00 20.00     0.091 A 
HETATM    8  C8  UNL     1     -34.422  16.269  -4.731  1.00 20.00     0.158 A 
HETATM    9  C9  UNL     1     -35.442  14.850  -6.293  1.00 20.00     0.180 A 
HETATM   10  N10 UNL     1     -33.895  18.541  -5.060  1.00 20.00    -0.166 NA
HETATM   11  N11 UNL     1     -34.848  15.077  -4.944  1.00 20.00    -0.267 NA
HETATM   12  N12 UNL     1     -34.444  17.366  -5.597  1.00 20.00    -0.226 N 
ENDROOT
TORSDOF 0
ENDMDL
MODEL 7
REMARK VINA RESULT:      -4.1      5.585      7.597
REMARK  0 active torsions:
REMARK  status: ('A' for Active; 'I' for Inactive)
ROOT
HETATM    1  C1  UNL     1     -34.035  18.228  -1.571  1.00 20.00     0.003 A 
HETATM    2  C2  UNL     1     -33.332  17.093  -1.698  1.00 20.00     0.034 A 
HETATM    3  C3  UNL     1     -34.795  18.546  -2.758  1.00 20.00     0.018 A 
HETATM    4  C4  UNL     1     -34.750  15.443  -7.190  1.00 20.00     0.014 A 
HETATM    5  C5  UNL     1     -34.024  15.096  -6.119  1.00 20.00     0.118 A 
HETATM    6  C6  UNL     1     -34.585  17.610  -3.670  1.00 20.00     0.042 A 
HETATM    7  C7  UNL     1     -33.656  16.649  -3.049  1.00 20.00     0.091 A 
HETATM    8  C8  UNL     1     -34.817  17.047  -4.995  1.00 20.00     0.158 A 
HETATM    9  C9  UNL     1     -35.591  16.702  -7.181  1.00 20.00     0.180 A 
HETATM   10  N10 UNL     1     -33.335  15.650  -3.813  1.00 20.00    -0.166 NA
HETATM   11  N11 UNL     1     -35.562  17.515  -5.931  1.00 20.00    -0.267 NA
HETATM   12  N12 UNL     1     -34.041  15.885  -5.003  1.00 20.00    -0.226 N 
ENDROOT
TORSDOF 0
ENDMDL
MODEL 8
REMARK VINA RESULT:      -4.0      4.417      7.335
REMARK  0 active torsions:
REMARK  status: ('A' for Active; 'I' for Inactive)
ROOT
HETATM    1  C1  UNL     1     -33.737  14.864  -5.537  1.00 20.00     0.003 A 
HETATM    2  C2  UNL     1     -34.618  15.809  -5.896  1.00 20.00     0.034 A 
HETATM    3  C3  UNL     1     -33.205  15.077  -4.211  1.00 20.00     0.018 A 
HETATM    4  C4  UNL     1     -34.664  19.255  -1.098  1.00 20.00     0.014 A 
HETATM    5  C5  UNL     1     -35.192  19.110  -2.322  1.00 20.00     0.118 A 
HETATM    6  C6  UNL     1     -33.744  16.172  -3.698  1.00 20.00     0.042 A 
HETATM    7  C7  UNL     1     -34.660  16.686  -4.732  1.00 20.00     0.091 A 
HETATM    8  C8  UNL     1     -33.887  17.133  -2.611  1.00 20.00     0.158 A 
HETATM    9  C9  UNL     1     -33.655  18.258  -0.568  1.00 20.00     0.180 A 
HETATM   10  N10 UNL     1     -35.284  17.773  -4.395  1.00 20.00    -0.166 NA
HETATM   11  N11 UNL     1     -33.294  17.129  -1.472  1.00 20.00    -0.267 NA
HETATM   12  N12 UNL     1     -34.818  18.052  -3.101  1.00 20.00    -0.226 N 
ENDROOT
TORSDOF 0
ENDMDL
MODEL 9
REMARK VINA RESULT:      -4.0      5.436      7.180
REMARK  0 active torsions:
REMARK  status: ('A' for Active; 'I' for Inactive)
ROOT
HETATM    1  C1  UNL     1     -33.738  17.917  -1.131  1.00 20.00     0.003 A 
HETATM    2  C2  UNL     1     -34.549  18.774  -1.771  1.00 20.00     0.034 A 
HETATM    3  C3  UNL     1     -33.358  16.794  -1.955  1.00 20.00     0.018 A 
HETATM    4  C4  UNL     1     -35.060  16.183  -7.054  1.00 20.00     0.014 A 
HETATM    5  C5  UNL     1     -35.448  17.247  -6.338  1.00 20.00     0.118 A 
HETATM    6  C6  UNL     1     -33.925  16.916  -3.145  1.00 20.00     0.042 A 
HETATM    7  C7  UNL     1     -34.702  18.168  -3.088  1.00 20.00     0.091 A 
HETATM    8  C8  UNL     1     -34.169  16.429  -4.497  1.00 20.00     0.158 A 
HETATM    9  C9  UNL     1     -34.145  15.137  -6.453  1.00 20.00     0.180 A 
HETATM   10  N10 UNL     1     -35.334  18.451  -4.186  1.00 20.00    -0.166 NA
HETATM   11  N11 UNL     1     -33.710  15.362  -5.045  1.00 20.00    -0.267 NA
HETATM   12  N12 UNL     1     -35.013  17.394  -5.051  1.00 20.00    -0.226 N 
ENDROOT
TORSDOF 0
ENDMDL
