MODEL 1
REMARK VINA RESULT:      -3.7      0.000      0.000
REMARK  1 active torsions:
REMARK  status: ('A' for Active; 'I' for Inactive)
REMARK    1  A    between atoms: C2_2  and  C6_6 
ROOT
HETATM    1  C3  UNL     1     -41.233  15.314   6.820  1.00 20.00     0.006 C 
HETATM    2  C4  UNL     1     -40.295  14.382   7.606  1.00 20.00     0.006 C 
HETATM    3  C5  UNL     1     -41.663  13.517   5.172  1.00 20.00     0.014 C 
HETATM    4  C6  UNL     1     -40.750  12.533   5.944  1.00 20.00     0.012 C 
HETATM    5  C7  UNL     1     -42.321  14.345   6.304  1.00 20.00    -0.006 C 
HETATM    6  C8  UNL     1     -40.956  12.993   7.418  1.00 20.00     0.001 C 
HETATM    7  C9  UNL     1     -42.473  13.329   7.463  1.00 20.00    -0.040 C 
HETATM    8  C10 UNL     1     -43.416  12.149   7.159  1.00 20.00     0.015 C 
HETATM    9  C11 UNL     1     -42.960  13.934   8.793  1.00 20.00     0.015 C 
ENDROOT
BRANCH   4  10
HETATM   10  C2  UNL     1     -39.336  12.507   5.462  1.00 20.00    -0.032 C 
HETATM   11  C1  UNL     1     -38.910  11.762   4.436  1.00 20.00     0.007 C 
ENDBRANCH   4  10
TORSDOF 1
ENDMDL
MODEL 2
REMARK VINA RESULT:      -3.7      8.845     10.767
REMARK  1 active torsions:
REMARK  status: ('A' for Active; 'I' for Inactive)
REMARK    1  A    between atoms: C2_2  and  C6_6 
ROOT
HETATM    1  C3  UNL     1     -41.998   4.647   1.442  1.00 20.00     0.006 C 
HETATM    2  C4  UNL     1     -43.386   4.471   0.802  1.00 20.00     0.006 C 
HETATM    3  C5  UNL     1     -41.065   5.355  -0.740  1.00 20.00     0.014 C 
HETATM    4  C6  UNL     1     -42.448   5.220  -1.422  1.00 20.00     0.012 C 
HETATM    5  C7  UNL     1     -41.424   5.863   0.680  1.00 20.00    -0.006 C 
HETATM    6  C8  UNL     1     -43.417   5.596  -0.262  1.00 20.00     0.001 C 
HETATM    7  C9  UNL     1     -42.666   6.758   0.448  1.00 20.00    -0.040 C 
HETATM    8  C10 UNL     1     -42.405   8.000  -0.424  1.00 20.00     0.015 C 
HETATM    9  C11 UNL     1     -43.342   7.271   1.734  1.00 20.00     0.015 C 
ENDROOT
BRANCH   4  10
HETATM   10  C2  UNL     1     -42.685   3.891  -2.063  1.00 20.00    -0.032 C 
HETATM   11  C1  UNL     1     -42.069   3.477  -3.175  1.00 20.00     0.007 C 
ENDBRANCH   4  10
TORSDOF 1
ENDMDL
MODEL 3
REMARK VINA RESULT:      -3.6      1.145      2.158
REMARK  1 active torsions:
REMARK  status: ('A' for Active; 'I' for Inactive)
REMARK    1  A    between atoms: C2_2  and  C6_6 
ROOT
HETATM    1  C3  UNL     1     -43.409  13.991   5.351  1.00 20.00     0.006 C 
HETATM    2  C4  UNL     1     -41.994  14.484   5.001  1.00 20.00     0.006 C 
HETATM    3  C5  UNL     1     -42.458  12.341   6.934  1.00 20.00     0.014 C 
HETATM    4  C6  UNL     1     -41.017  12.823   6.636  1.00 20.00     0.012 C 
HETATM    5  C7  UNL     1     -43.288  13.648   6.853  1.00 20.00    -0.006 C 
HETATM    6  C8  UNL     1     -41.238  14.337   6.345  1.00 20.00     0.001 C 
HETATM    7  C9  UNL     1     -42.320  14.731   7.390  1.00 20.00    -0.040 C 
HETATM    8  C10 UNL     1     -41.908  14.547   8.863  1.00 20.00     0.015 C 
HETATM    9  C11 UNL     1     -42.837  16.177   7.268  1.00 20.00     0.015 C 
ENDROOT
BRANCH   4  10
HETATM   10  C2  UNL     1     -40.326  12.048   5.561  1.00 20.00    -0.032 C 
HETATM   11  C1  UNL     1     -39.011  12.110   5.322  1.00 20.00     0.007 C 
ENDBRANCH   4  10
TORSDOF 1
ENDMDL
MODEL 4
REMARK VINA RESULT:      -3.6     12.553     14.229
REMARK  1 active torsions:
REMARK  status: ('A' for Active; 'I' for Inactive)
REMARK    1  A    between atoms: C2_2  and  C6_6 
ROOT
HETATM    1  C3  UNL     1     -36.699  15.317  -5.072  1.00 20.00     0.006 C 
HETATM    2  C4  UNL     1     -35.463  14.404  -5.137  1.00 20.00     0.006 C 
HETATM    3  C5  UNL     1     -35.247  17.279  -4.651  1.00 20.00     0.014 C 
HETATM    4  C6  UNL     1     -33.971  16.405  -4.736  1.00 20.00     0.012 C 
HETATM    5  C7  UNL     1     -36.184  16.631  -5.702  1.00 20.00    -0.006 C 
HETATM    6  C8  UNL     1     -34.391  15.323  -5.775  1.00 20.00     0.001 C 
HETATM    7  C9  UNL     1     -35.216  16.143  -6.807  1.00 20.00    -0.040 C 
HETATM    8  C10 UNL     1     -34.442  17.266  -7.523  1.00 20.00     0.015 C 
HETATM    9  C11 UNL     1     -35.874  15.302  -7.918  1.00 20.00     0.015 C 
ENDROOT
BRANCH   4  10
HETATM   10  C2  UNL     1     -33.496  15.890  -3.416  1.00 20.00    -0.032 C 
HETATM   11  C1  UNL     1     -33.340  16.652  -2.329  1.00 20.00     0.007 C 
ENDBRANCH   4  10
TORSDOF 1
ENDMDL
MODEL 5
REMARK VINA RESULT:      -3.5      8.316      9.830
REMARK  1 active torsions:
REMARK  status: ('A' for Active; 'I' for Inactive)
REMARK    1  A    between atoms: C2_2  and  C6_6 
ROOT
HETATM    1  C3  UNL     1     -40.864   5.780  -0.437  1.00 20.00     0.006 C 
HETATM    2  C4  UNL     1     -40.848   5.991   1.087  1.00 20.00     0.006 C 
HETATM    3  C5  UNL     1     -43.339   5.689  -0.413  1.00 20.00     0.014 C 
HETATM    4  C6  UNL     1     -43.374   5.928   1.116  1.00 20.00     0.012 C 
HETATM    5  C7  UNL     1     -42.133   6.548  -0.873  1.00 20.00    -0.006 C 
HETATM    6  C8  UNL     1     -42.125   6.833   1.330  1.00 20.00     0.001 C 
HETATM    7  C9  UNL     1     -42.161   7.764   0.085  1.00 20.00    -0.040 C 
HETATM    8  C10 UNL     1     -43.417   8.647  -0.039  1.00 20.00     0.015 C 
HETATM    9  C11 UNL     1     -40.956   8.715  -0.043  1.00 20.00     0.015 C 
ENDROOT
BRANCH   4  10
HETATM   10  C2  UNL     1     -43.416   4.674   1.928  1.00 20.00    -0.032 C 
HETATM   11  C1  UNL     1     -43.415   3.443   1.404  1.00 20.00     0.007 C 
ENDBRANCH   4  10
TORSDOF 1
ENDMDL
MODEL 6
REMARK VINA RESULT:      -3.5     19.840     21.568
REMARK  1 active torsions:
REMARK  status: ('A' for Active; 'I' for Inactive)
REMARK    1  A    between atoms: C2_2  and  C6_6 
ROOT
HETATM    1  C3  UNL     1     -27.971  -0.689  10.454  1.00 20.00     0.006 C 
HETATM    2  C4  UNL     1     -27.871  -0.821  11.983  1.00 20.00     0.006 C 
HETATM    3  C5  UNL     1     -26.375  -2.562  10.173  1.00 20.00     0.014 C 
HETATM    4  C6  UNL     1     -26.264  -2.752  11.706  1.00 20.00     0.012 C 
HETATM    5  C7  UNL     1     -27.858  -2.155   9.978  1.00 20.00    -0.006 C 
HETATM    6  C8  UNL     1     -27.689  -2.347  12.184  1.00 20.00     0.001 C 
HETATM    7  C9  UNL     1     -28.605  -2.947  11.079  1.00 20.00    -0.040 C 
HETATM    8  C10 UNL     1     -28.532  -4.478  10.928  1.00 20.00     0.015 C 
HETATM    9  C11 UNL     1     -30.099  -2.602  11.224  1.00 20.00     0.015 C 
ENDROOT
BRANCH   4  10
HETATM   10  C2  UNL     1     -25.131  -2.006  12.331  1.00 20.00    -0.032 C 
HETATM   11  C1  UNL     1     -23.986  -1.719  11.702  1.00 20.00     0.007 C 
ENDBRANCH   4  10
TORSDOF 1
ENDMDL
MODEL 7
REMARK VINA RESULT:      -3.4     12.459     13.942
REMARK  1 active torsions:
REMARK  status: ('A' for Active; 'I' for Inactive)
REMARK    1  A    between atoms: C2_2  and  C6_6 
ROOT
HETATM    1  C3  UNL     1     -33.990  16.651  -6.768  1.00 20.00     0.006 C 
HETATM    2  C4  UNL     1     -34.596  17.503  -5.640  1.00 20.00     0.006 C 
HETATM    3  C5  UNL     1     -33.474  14.849  -5.150  1.00 20.00     0.014 C 
HETATM    4  C6  UNL     1     -34.098  15.658  -3.986  1.00 20.00     0.012 C 
HETATM    5  C7  UNL     1     -34.379  15.213  -6.354  1.00 20.00    -0.006 C 
HETATM    6  C8  UNL     1     -35.233  16.439  -4.711  1.00 20.00     0.001 C 
HETATM    7  C9  UNL     1     -35.780  15.390  -5.720  1.00 20.00    -0.040 C 
HETATM    8  C10 UNL     1     -36.363  14.112  -5.087  1.00 20.00     0.015 C 
HETATM    9  C11 UNL     1     -36.861  15.923  -6.680  1.00 20.00     0.015 C 
ENDROOT
BRANCH   4  10
HETATM   10  C2  UNL     1     -33.117  16.490  -3.227  1.00 20.00    -0.032 C 
HETATM   11  C1  UNL     1     -33.376  17.061  -2.046  1.00 20.00     0.007 C 
ENDBRANCH   4  10
TORSDOF 1
ENDMDL
MODEL 8
REMARK VINA RESULT:      -3.2      1.415      3.633
REMARK  1 active torsions:
REMARK  status: ('A' for Active; 'I' for Inactive)
REMARK    1  A    between atoms: C2_2  and  C6_6 
ROOT
HETATM    1  C3  UNL     1     -42.067  12.521   6.719  1.00 20.00     0.006 C 
HETATM    2  C4  UNL     1     -40.641  13.080   6.575  1.00 20.00     0.006 C 
HETATM    3  C5  UNL     1     -42.669  14.398   8.217  1.00 20.00     0.014 C 
HETATM    4  C6  UNL     1     -41.255  15.015   8.081  1.00 20.00     0.012 C 
HETATM    5  C7  UNL     1     -42.927  13.801   6.810  1.00 20.00    -0.006 C 
HETATM    6  C8  UNL     1     -40.867  14.612   6.627  1.00 20.00     0.001 C 
HETATM    7  C9  UNL     1     -42.206  14.785   5.856  1.00 20.00    -0.040 C 
HETATM    8  C10 UNL     1     -42.782  16.213   5.854  1.00 20.00     0.015 C 
HETATM    9  C11 UNL     1     -42.162  14.339   4.382  1.00 20.00     0.015 C 
ENDROOT
BRANCH   4  10
HETATM   10  C2  UNL     1     -40.300  14.593   9.150  1.00 20.00    -0.032 C 
HETATM   11  C1  UNL     1     -40.664  14.291  10.401  1.00 20.00     0.007 C 
ENDBRANCH   4  10
TORSDOF 1
ENDMDL
MODEL 9
REMARK VINA RESULT:      -3.2     20.488     21.952
REMARK  1 active torsions:
REMARK  status: ('A' for Active; 'I' for Inactive)
REMARK    1  A    between atoms: C2_2  and  C6_6 
ROOT
HETATM    1  C3  UNL     1     -25.792  -3.120  10.113  1.00 20.00     0.006 C 
HETATM    2  C4  UNL     1     -26.162  -3.872  11.403  1.00 20.00     0.006 C 
HETATM    3  C5  UNL     1     -28.038  -2.080  10.055  1.00 20.00     0.014 C 
HETATM    4  C6  UNL     1     -28.447  -2.793  11.367  1.00 20.00     0.012 C 
HETATM    5  C7  UNL     1     -26.534  -1.775  10.278  1.00 20.00    -0.006 C 
HETATM    6  C8  UNL     1     -27.091  -2.867  12.130  1.00 20.00     0.001 C 
HETATM    7  C9  UNL     1     -26.437  -1.496  11.798  1.00 20.00    -0.040 C 
HETATM    8  C10 UNL     1     -27.224  -0.261  12.274  1.00 20.00     0.015 C 
HETATM    9  C11 UNL     1     -25.002  -1.322  12.332  1.00 20.00     0.015 C 
ENDROOT
BRANCH   4  10
HETATM   10  C2  UNL     1     -29.150  -4.095  11.160  1.00 20.00    -0.032 C 
HETATM   11  C1  UNL     1     -29.455  -4.597   9.958  1.00 20.00     0.007 C 
ENDBRANCH   4  10
TORSDOF 1
ENDMDL
